# generated using pymatgen
data_CdH12C12(NO)4
_symmetry_space_group_name_H-M   'P 1'
_cell_length_a   12.07360000
_cell_length_b   16.17150000
_cell_length_c   16.17150000
_cell_angle_alpha   65.97730000
_cell_angle_beta   75.58960000
_cell_angle_gamma   104.41000000
_symmetry_Int_Tables_number   1
_chemical_formula_structural   CdH12C12(NO)4
_chemical_formula_sum   'Cd6 H72 C72 N24 O24'
_cell_volume   2565.09228305
_cell_formula_units_Z   6
loop_
 _symmetry_equiv_pos_site_id
 _symmetry_equiv_pos_as_xyz
  1  'x, y, z'
loop_
 _atom_site_type_symbol
 _atom_site_label
 _atom_site_symmetry_multiplicity
 _atom_site_fract_x
 _atom_site_fract_y
 _atom_site_fract_z
 _atom_site_occupancy
 _atom_site_charge
  Cd  Cd1  1  0.007000  0.514000  0.743000  1.0  0.9255
  Cd  Cd2  1  0.750000  0.743000  0.743000  1.0  0.9252
  Cd  Cd3  1  0.493000  0.743000  0.514000  1.0  0.9256
  Cd  Cd4  1  0.993000  0.486000  0.257000  1.0  0.9264
  Cd  Cd5  1  0.250000  0.257000  0.257000  1.0  0.926
  Cd  Cd6  1  0.507000  0.257000  0.486000  1.0  0.9254
  H  H7  1  0.978400  0.609800  0.530700  1.0  0.1047
  H  H8  1  0.129100  0.684200  0.363600  1.0  0.133
  H  H9  1  0.320000  0.517800  0.348700  1.0  0.0883
  H  H10  1  0.414300  0.609100  0.245900  1.0  0.1058
  H  H11  1  0.372200  0.711900  0.293200  1.0  0.1095
  H  H12  1  0.413400  0.641400  0.367300  1.0  0.0917
  H  H13  1  0.509100  0.530700  0.859500  1.0  0.1046
  H  H14  1  0.492700  0.363600  0.952200  1.0  0.1325
  H  H15  1  0.668700  0.348700  0.133500  1.0  0.0897
  H  H16  1  0.660200  0.245900  0.145000  1.0  0.1056
  H  H17  1  0.665400  0.293200  0.994900  1.0  0.112
  H  H18  1  0.780700  0.367300  0.991300  1.0  0.0859
  H  H19  1  0.368600  0.859500  0.609800  1.0  0.1031
  H  H20  1  0.444900  0.952200  0.684200  1.0  0.1307
  H  H21  1  0.802200  0.133500  0.517800  1.0  0.0886
  H  H22  1  0.805200  0.145000  0.609100  1.0  0.1056
  H  H23  1  0.660300  0.994900  0.711900  1.0  0.1141
  H  H24  1  0.772000  0.991300  0.641400  1.0  0.096
  H  H25  1  0.990900  0.859500  0.530700  1.0  0.1042
  H  H26  1  0.007300  0.952200  0.363600  1.0  0.1313
  H  H27  1  0.831300  0.133500  0.348700  1.0  0.0881
  H  H28  1  0.839800  0.145000  0.245900  1.0  0.1048
  H  H29  1  0.834600  0.994900  0.293200  1.0  0.1127
  H  H30  1  0.719300  0.991300  0.367300  1.0  0.0976
  H  H31  1  0.131400  0.609800  0.859500  1.0  0.1055
  H  H32  1  0.055100  0.684200  0.952200  1.0  0.1329
  H  H33  1  0.697800  0.517800  0.133500  1.0  0.0879
  H  H34  1  0.694800  0.609100  0.145000  1.0  0.1053
  H  H35  1  0.839700  0.711900  0.994900  1.0  0.1129
  H  H36  1  0.728000  0.641400  0.991300  1.0  0.0921
  H  H37  1  0.521600  0.530700  0.609800  1.0  0.1044
  H  H38  1  0.370900  0.363600  0.684200  1.0  0.1327
  H  H39  1  0.180000  0.348700  0.517800  1.0  0.0888
  H  H40  1  0.085700  0.245900  0.609100  1.0  0.1051
  H  H41  1  0.127800  0.293200  0.711900  1.0  0.1115
  H  H42  1  0.086600  0.367300  0.641400  1.0  0.0874
  H  H43  1  0.021600  0.390200  0.469300  1.0  0.1043
  H  H44  1  0.870900  0.315800  0.636400  1.0  0.1327
  H  H45  1  0.680000  0.482200  0.651300  1.0  0.0886
  H  H46  1  0.585700  0.390900  0.754100  1.0  0.1061
  H  H47  1  0.627800  0.288100  0.706800  1.0  0.1095
  H  H48  1  0.586600  0.358600  0.632700  1.0  0.0916
  H  H49  1  0.490900  0.469300  0.140500  1.0  0.1029
  H  H50  1  0.507300  0.636400  0.047800  1.0  0.1335
  H  H51  1  0.331300  0.651300  0.866500  1.0  0.0887
  H  H52  1  0.339800  0.754100  0.855000  1.0  0.1055
  H  H53  1  0.334600  0.706800  0.005100  1.0  0.1129
  H  H54  1  0.219300  0.632700  0.008700  1.0  0.0876
  H  H55  1  0.631400  0.140500  0.390200  1.0  0.103
  H  H56  1  0.555100  0.047800  0.315800  1.0  0.1312
  H  H57  1  0.197800  0.866500  0.482200  1.0  0.0879
  H  H58  1  0.194800  0.855000  0.390900  1.0  0.1052
  H  H59  1  0.339700  0.005100  0.288100  1.0  0.1134
  H  H60  1  0.228000  0.008700  0.358600  1.0  0.0979
  H  H61  1  0.009100  0.140500  0.469300  1.0  0.1027
  H  H62  1  0.992700  0.047800  0.636400  1.0  0.131
  H  H63  1  0.168700  0.866500  0.651300  1.0  0.0875
  H  H64  1  0.160200  0.855000  0.754100  1.0  0.1062
  H  H65  1  0.165400  0.005100  0.706800  1.0  0.113
  H  H66  1  0.280700  0.008700  0.632700  1.0  0.0953
  H  H67  1  0.868600  0.390200  0.140500  1.0  0.103
  H  H68  1  0.944900  0.315800  0.047800  1.0  0.1321
  H  H69  1  0.302200  0.482200  0.866500  1.0  0.0898
  H  H70  1  0.305200  0.390900  0.855000  1.0  0.1055
  H  H71  1  0.160300  0.288100  0.005100  1.0  0.1134
  H  H72  1  0.272000  0.358600  0.008700  1.0  0.0926
  H  H73  1  0.478400  0.469300  0.390200  1.0  0.1027
  H  H74  1  0.629100  0.636400  0.315800  1.0  0.1338
  H  H75  1  0.820000  0.651300  0.482200  1.0  0.0893
  H  H76  1  0.914300  0.754100  0.390900  1.0  0.1055
  H  H77  1  0.872200  0.706800  0.288100  1.0  0.1092
  H  H78  1  0.913400  0.632700  0.358600  1.0  0.0865
  C  C79  1  0.207700  0.561500  0.523800  1.0  0.2493
  C  C80  1  0.054100  0.603600  0.513400  1.0  0.0577
  C  C81  1  0.137100  0.645100  0.420800  1.0  -0.1114
  C  C82  1  0.335800  0.584200  0.300500  1.0  -0.2837
  C  C83  1  0.226200  0.580500  0.260200  1.0  0.5732
  C  C84  1  0.347000  0.644200  0.344000  1.0  -0.0081
  C  C85  1  0.731500  0.523800  0.914700  1.0  0.25
  C  C86  1  0.567500  0.513400  0.883000  1.0  0.0574
  C  C87  1  0.557900  0.420800  0.934100  1.0  -0.1134
  C  C88  1  0.636300  0.300500  0.115300  1.0  -0.282
  C  C89  1  0.486400  0.260200  0.159300  1.0  0.57
  C  C90  1  0.691000  0.344000  0.011800  1.0  -0.0061
  C  C91  1  0.646200  0.914700  0.561500  1.0  0.2487
  C  C92  1  0.450500  0.883000  0.603600  1.0  0.0567
  C  C93  1  0.492000  0.934100  0.645100  1.0  -0.1125
  C  C94  1  0.751600  0.115300  0.584200  1.0  -0.2898
  C  C95  1  0.645700  0.159300  0.580500  1.0  0.5671
  C  C96  1  0.702800  0.011800  0.644200  1.0  -0.0114
  C  C97  1  0.768500  0.914700  0.523800  1.0  0.2478
  C  C98  1  0.932500  0.883000  0.513400  1.0  0.0556
  C  C99  1  0.942100  0.934100  0.420800  1.0  -0.1126
  C  C100  1  0.863700  0.115300  0.300500  1.0  -0.2852
  C  C101  1  0.013600  0.159300  0.260200  1.0  0.5672
  C  C102  1  0.809000  0.011800  0.344000  1.0  -0.0103
  C  C103  1  0.853800  0.561500  0.914700  1.0  0.2495
  C  C104  1  0.049500  0.603600  0.883000  1.0  0.0574
  C  C105  1  0.008000  0.645100  0.934100  1.0  -0.1116
  C  C106  1  0.748400  0.584200  0.115300  1.0  -0.2851
  C  C107  1  0.854300  0.580500  0.159300  1.0  0.5749
  C  C108  1  0.797200  0.644200  0.011800  1.0  -0.0077
  C  C109  1  0.292300  0.523800  0.561500  1.0  0.2487
  C  C110  1  0.445900  0.513400  0.603600  1.0  0.0574
  C  C111  1  0.362900  0.420800  0.645100  1.0  -0.1123
  C  C112  1  0.164200  0.300500  0.584200  1.0  -0.2859
  C  C113  1  0.273800  0.260200  0.580500  1.0  0.5718
  C  C114  1  0.153000  0.344000  0.644200  1.0  -0.0074
  C  C115  1  0.792300  0.438500  0.476200  1.0  0.2508
  C  C116  1  0.945900  0.396400  0.486600  1.0  0.0572
  C  C117  1  0.862900  0.354900  0.579200  1.0  -0.1118
  C  C118  1  0.664200  0.415800  0.699500  1.0  -0.2832
  C  C119  1  0.773800  0.419500  0.739800  1.0  0.5756
  C  C120  1  0.653000  0.355800  0.656000  1.0  -0.0073
  C  C121  1  0.268500  0.476200  0.085300  1.0  0.2505
  C  C122  1  0.432500  0.486600  0.117000  1.0  0.0581
  C  C123  1  0.442100  0.579200  0.065900  1.0  -0.112
  C  C124  1  0.363700  0.699500  0.884700  1.0  -0.2851
  C  C125  1  0.513600  0.739800  0.840700  1.0  0.5727
  C  C126  1  0.309000  0.656000  0.988200  1.0  -0.0085
  C  C127  1  0.353800  0.085300  0.438500  1.0  0.2485
  C  C128  1  0.549500  0.117000  0.396400  1.0  0.0559
  C  C129  1  0.508000  0.065900  0.354900  1.0  -0.1125
  C  C130  1  0.248400  0.884700  0.415800  1.0  -0.2876
  C  C131  1  0.354300  0.840700  0.419500  1.0  0.5675
  C  C132  1  0.297200  0.988200  0.355800  1.0  -0.0095
  C  C133  1  0.231500  0.085300  0.476200  1.0  0.2472
  C  C134  1  0.067500  0.117000  0.486600  1.0  0.0565
  C  C135  1  0.057900  0.065900  0.579200  1.0  -0.1126
  C  C136  1  0.136300  0.884700  0.699500  1.0  -0.2899
  C  C137  1  0.986400  0.840700  0.739800  1.0  0.5677
  C  C138  1  0.191000  0.988200  0.656000  1.0  -0.0116
  C  C139  1  0.146200  0.438500  0.085300  1.0  0.2477
  C  C140  1  0.950500  0.396400  0.117000  1.0  0.058
  C  C141  1  0.992000  0.354900  0.065900  1.0  -0.1121
  C  C142  1  0.251600  0.415800  0.884700  1.0  -0.2837
  C  C143  1  0.145700  0.419500  0.840700  1.0  0.5726
  C  C144  1  0.202800  0.355800  0.988200  1.0  -0.008
  C  C145  1  0.707700  0.476200  0.438500  1.0  0.2482
  C  C146  1  0.554100  0.486600  0.396400  1.0  0.0577
  C  C147  1  0.637100  0.579200  0.354900  1.0  -0.1136
  C  C148  1  0.835800  0.699500  0.415800  1.0  -0.2828
  C  C149  1  0.726200  0.739800  0.419500  1.0  0.5711
  C  C150  1  0.847000  0.656000  0.355800  1.0  -0.0083
  N  N151  1  0.097200  0.551300  0.578400  1.0  -0.396
  N  N152  1  0.235500  0.619000  0.426200  1.0  0.0078
  N  N153  1  0.675600  0.578400  0.870300  1.0  -0.3956
  N  N154  1  0.661700  0.426200  0.954800  1.0  0.0083
  N  N155  1  0.545900  0.870300  0.551300  1.0  -0.3936
  N  N156  1  0.616500  0.954800  0.619000  1.0  0.009
  N  N157  1  0.824400  0.870300  0.578400  1.0  -0.3948
  N  N158  1  0.838300  0.954800  0.426200  1.0  0.0096
  N  N159  1  0.954100  0.551300  0.870300  1.0  -0.3937
  N  N160  1  0.883500  0.619000  0.954800  1.0  0.0074
  N  N161  1  0.402800  0.578400  0.551300  1.0  -0.3967
  N  N162  1  0.264500  0.426200  0.619000  1.0  0.008
  N  N163  1  0.902800  0.448700  0.421600  1.0  -0.3929
  N  N164  1  0.764500  0.381000  0.573800  1.0  0.0076
  N  N165  1  0.324400  0.421600  0.129700  1.0  -0.3957
  N  N166  1  0.338300  0.573800  0.045200  1.0  0.0081
  N  N167  1  0.454100  0.129700  0.448700  1.0  -0.3954
  N  N168  1  0.383500  0.045200  0.381000  1.0  0.0092
  N  N169  1  0.175600  0.129700  0.421600  1.0  -0.3953
  N  N170  1  0.161700  0.045200  0.573800  1.0  0.0089
  N  N171  1  0.045900  0.448700  0.129700  1.0  -0.3965
  N  N172  1  0.116500  0.381000  0.045200  1.0  0.0072
  N  N173  1  0.597200  0.421600  0.448700  1.0  -0.395
  N  N174  1  0.735500  0.573800  0.381000  1.0  0.0081
  O  O175  1  0.177700  0.632900  0.218400  1.0  -0.5821
  O  O176  1  0.179100  0.493400  0.288300  1.0  -0.5966
  O  O177  1  0.396100  0.218400  0.148700  1.0  -0.5839
  O  O178  1  0.467400  0.288300  0.218300  1.0  -0.5971
  O  O179  1  0.544800  0.148700  0.632900  1.0  -0.5853
  O  O180  1  0.685700  0.218300  0.493400  1.0  -0.5969
  O  O181  1  0.103900  0.148700  0.218400  1.0  -0.5862
  O  O182  1  0.032600  0.218300  0.288300  1.0  -0.5981
  O  O183  1  0.955200  0.632900  0.148700  1.0  -0.5833
  O  O184  1  0.814300  0.493400  0.218300  1.0  -0.5953
  O  O185  1  0.322300  0.218400  0.632900  1.0  -0.5841
  O  O186  1  0.320900  0.288300  0.493400  1.0  -0.5953
  O  O187  1  0.822300  0.367100  0.781600  1.0  -0.5822
  O  O188  1  0.820900  0.506600  0.711700  1.0  -0.5961
  O  O189  1  0.603900  0.781600  0.851300  1.0  -0.5846
  O  O190  1  0.532600  0.711700  0.781700  1.0  -0.5955
  O  O191  1  0.455200  0.851300  0.367100  1.0  -0.5857
  O  O192  1  0.314300  0.781700  0.506600  1.0  -0.5964
  O  O193  1  0.896100  0.851300  0.781600  1.0  -0.586
  O  O194  1  0.967400  0.781700  0.711700  1.0  -0.5967
  O  O195  1  0.044800  0.367100  0.851300  1.0  -0.582
  O  O196  1  0.185700  0.506600  0.781700  1.0  -0.5967
  O  O197  1  0.677700  0.781600  0.367100  1.0  -0.5844
  O  O198  1  0.679100  0.711700  0.506600  1.0  -0.5968
