# generated using pymatgen
data_CaCdH6C16O9
_symmetry_space_group_name_H-M   'P 1'
_cell_length_a   12.00470000
_cell_length_b   10.95630000
_cell_length_c   21.07670000
_cell_angle_alpha   90.00000000
_cell_angle_beta   106.38900000
_cell_angle_gamma   90.00000000
_symmetry_Int_Tables_number   1
_chemical_formula_structural   CaCdH6C16O9
_chemical_formula_sum   'Ca4 Cd4 H24 C64 O36'
_cell_volume   2659.51927763
_cell_formula_units_Z   4
loop_
 _symmetry_equiv_pos_site_id
 _symmetry_equiv_pos_as_xyz
  1  'x, y, z'
loop_
 _atom_site_type_symbol
 _atom_site_label
 _atom_site_symmetry_multiplicity
 _atom_site_fract_x
 _atom_site_fract_y
 _atom_site_fract_z
 _atom_site_occupancy
 _atom_site_charge
  Ca  Ca1  1  0.356220  0.554550  0.872720  1.0  1.6336
  Ca  Ca2  1  0.143780  0.054550  0.627280  1.0  1.6379
  Ca  Ca3  1  0.643780  0.445450  0.127280  1.0  1.6374
  Ca  Ca4  1  0.856220  0.945450  0.372720  1.0  1.6334
  Cd  Cd5  1  0.636050  0.680640  0.960290  1.0  1.0779
  Cd  Cd6  1  0.863950  0.180640  0.539710  1.0  1.0773
  Cd  Cd7  1  0.363950  0.319360  0.039710  1.0  1.0773
  Cd  Cd8  1  0.136050  0.819360  0.460290  1.0  1.078
  H  H9  1  0.348900  0.800500  0.714600  1.0  0.1108
  H  H10  1  0.523400  0.839900  0.579300  1.0  0.1123
  H  H11  1  0.697300  0.817000  0.771400  1.0  0.1179
  H  H12  1  0.890300  0.529800  0.533300  1.0  0.1041
  H  H13  1  0.765700  0.470600  0.593900  1.0  0.0989
  H  H14  1  0.689700  0.614200  0.650300  1.0  0.1088
  H  H15  1  0.151100  0.300500  0.785400  1.0  0.11
  H  H16  1  0.976600  0.339900  0.920700  1.0  0.1118
  H  H17  1  0.802700  0.317000  0.728600  1.0  0.1192
  H  H18  1  0.609700  0.029800  0.966700  1.0  0.1045
  H  H19  1  0.734300  0.970600  0.906100  1.0  0.0992
  H  H20  1  0.810300  0.114200  0.849700  1.0  0.1086
  H  H21  1  0.651100  0.199500  0.285400  1.0  0.1101
  H  H22  1  0.476600  0.160100  0.420700  1.0  0.1121
  H  H23  1  0.302700  0.183000  0.228600  1.0  0.1191
  H  H24  1  0.109700  0.470200  0.466700  1.0  0.1044
  H  H25  1  0.234300  0.529400  0.406100  1.0  0.0989
  H  H26  1  0.310300  0.385800  0.349700  1.0  0.1089
  H  H27  1  0.848900  0.699500  0.214600  1.0  0.1106
  H  H28  1  0.023400  0.660100  0.079300  1.0  0.1122
  H  H29  1  0.197300  0.683000  0.271400  1.0  0.1179
  H  H30  1  0.390300  0.970200  0.033300  1.0  0.104
  H  H31  1  0.265700  0.029400  0.093900  1.0  0.0989
  H  H32  1  0.189700  0.885800  0.150300  1.0  0.1088
  C  C33  1  0.528300  0.762400  0.823600  1.0  0.6996
  C  C34  1  0.522700  0.799700  0.753840  1.0  -0.156
  C  C35  1  0.418800  0.806800  0.704100  1.0  -0.0155
  C  C36  1  0.418200  0.823100  0.639060  1.0  -0.1141
  C  C37  1  0.523100  0.832900  0.623200  1.0  -0.1349
  C  C38  1  0.625800  0.832200  0.672800  1.0  0.2475
  C  C39  1  0.627300  0.816500  0.738200  1.0  -0.0772
  C  C40  1  0.307800  0.825900  0.583000  1.0  0.7242
  C  C41  1  0.765600  0.760400  0.621300  1.0  0.2269
  C  C42  1  0.836300  0.798600  0.582900  1.0  -0.1094
  C  C43  1  0.881600  0.711100  0.549300  1.0  -0.1054
  C  C44  1  0.857400  0.588100  0.554600  1.0  -0.0875
  C  C45  1  0.784100  0.552600  0.591700  1.0  -0.1018
  C  C46  1  0.738400  0.638300  0.625300  1.0  -0.1733
  C  C47  1  0.862800  0.932000  0.579500  1.0  0.7102
  C  C48  1  0.959600  0.747000  0.508400  1.0  0.6781
  C  C49  1  0.971700  0.262400  0.676400  1.0  0.6976
  C  C50  1  0.977300  0.299700  0.746160  1.0  -0.1539
  C  C51  1  0.081200  0.306800  0.795900  1.0  -0.0141
  C  C52  1  0.081800  0.323100  0.860940  1.0  -0.1144
  C  C53  1  0.976900  0.332900  0.876800  1.0  -0.136
  C  C54  1  0.874200  0.332200  0.827200  1.0  0.2478
  C  C55  1  0.872700  0.316500  0.761800  1.0  -0.0779
  C  C56  1  0.192200  0.325900  0.917000  1.0  0.7233
  C  C57  1  0.734400  0.260400  0.878700  1.0  0.227
  C  C58  1  0.663700  0.298600  0.917100  1.0  -0.1093
  C  C59  1  0.618400  0.211100  0.950700  1.0  -0.1051
  C  C60  1  0.642600  0.088100  0.945400  1.0  -0.089
  C  C61  1  0.715900  0.052600  0.908300  1.0  -0.1009
  C  C62  1  0.761600  0.138300  0.874700  1.0  -0.1725
  C  C63  1  0.637200  0.432000  0.920500  1.0  0.7103
  C  C64  1  0.540400  0.247000  0.991600  1.0  0.6805
  C  C65  1  0.471700  0.237600  0.176400  1.0  0.6978
  C  C66  1  0.477300  0.200300  0.246160  1.0  -0.1538
  C  C67  1  0.581200  0.193200  0.295900  1.0  -0.014
  C  C68  1  0.581800  0.176900  0.360940  1.0  -0.1145
  C  C69  1  0.476900  0.167100  0.376800  1.0  -0.136
  C  C70  1  0.374200  0.167800  0.327200  1.0  0.2476
  C  C71  1  0.372700  0.183500  0.261800  1.0  -0.0781
  C  C72  1  0.692200  0.174100  0.417000  1.0  0.7233
  C  C73  1  0.234400  0.239600  0.378700  1.0  0.2266
  C  C74  1  0.163700  0.201400  0.417100  1.0  -0.1101
  C  C75  1  0.118400  0.288900  0.450700  1.0  -0.1051
  C  C76  1  0.142600  0.411900  0.445400  1.0  -0.0895
  C  C77  1  0.215900  0.447400  0.408300  1.0  -0.1005
  C  C78  1  0.261600  0.361700  0.374700  1.0  -0.1717
  C  C79  1  0.137200  0.068000  0.420500  1.0  0.7112
  C  C80  1  0.040400  0.253000  0.491600  1.0  0.6801
  C  C81  1  0.028300  0.737600  0.323600  1.0  0.6994
  C  C82  1  0.022700  0.700300  0.253840  1.0  -0.156
  C  C83  1  0.918800  0.693200  0.204100  1.0  -0.0155
  C  C84  1  0.918200  0.676900  0.139060  1.0  -0.1143
  C  C85  1  0.023100  0.667100  0.123200  1.0  -0.1347
  C  C86  1  0.125800  0.667800  0.172800  1.0  0.2474
  C  C87  1  0.127300  0.683500  0.238200  1.0  -0.0771
  C  C88  1  0.807800  0.674100  0.083000  1.0  0.7242
  C  C89  1  0.265600  0.739600  0.121300  1.0  0.227
  C  C90  1  0.336300  0.701400  0.082900  1.0  -0.11
  C  C91  1  0.381600  0.788900  0.049300  1.0  -0.1056
  C  C92  1  0.357400  0.911900  0.054600  1.0  -0.089
  C  C93  1  0.284100  0.947400  0.091700  1.0  -0.1004
  C  C94  1  0.238400  0.861700  0.125300  1.0  -0.1734
  C  C95  1  0.362800  0.568000  0.079500  1.0  0.711
  C  C96  1  0.459600  0.753000  0.008400  1.0  0.6783
  O  O97  1  0.627200  0.768800  0.865100  1.0  -0.618
  O  O98  1  0.438100  0.724300  0.835040  1.0  -0.7258
  O  O99  1  0.220400  0.881200  0.590880  1.0  -0.7492
  O  O100  1  0.309700  0.773600  0.530280  1.0  -0.5636
  O  O101  1  0.731900  0.849500  0.658900  1.0  -0.2838
  O  O102  1  0.963400  0.968600  0.606970  1.0  -0.7437
  O  O103  1  0.781900  0.000400  0.549500  1.0  -0.5767
  O  O104  1  0.041700  0.677100  0.506710  1.0  -0.5776
  O  O105  1  0.944100  0.848700  0.478120  1.0  -0.7429
  O  O106  1  0.872800  0.268800  0.634900  1.0  -0.6173
  O  O107  1  0.061900  0.224300  0.664960  1.0  -0.7262
  O  O108  1  0.279600  0.381200  0.909120  1.0  -0.7494
  O  O109  1  0.190300  0.273600  0.969720  1.0  -0.5633
  O  O110  1  0.768100  0.349500  0.841100  1.0  -0.2824
  O  O111  1  0.536600  0.468600  0.893030  1.0  -0.7423
  O  O112  1  0.718100  0.500400  0.950500  1.0  -0.5774
  O  O113  1  0.458300  0.177100  0.993290  1.0  -0.5767
  O  O114  1  0.555900  0.348700  0.021880  1.0  -0.7415
  O  O115  1  0.372800  0.231200  0.134900  1.0  -0.617
  O  O116  1  0.561900  0.275700  0.164960  1.0  -0.7264
  O  O117  1  0.779600  0.118800  0.409120  1.0  -0.7501
  O  O118  1  0.690300  0.226400  0.469720  1.0  -0.5636
  O  O119  1  0.268100  0.150500  0.341100  1.0  -0.2819
  O  O120  1  0.036600  0.031400  0.393030  1.0  -0.7423
  O  O121  1  0.218100  0.999600  0.450500  1.0  -0.5774
  O  O122  1  0.958300  0.322900  0.493290  1.0  -0.5766
  O  O123  1  0.055900  0.151300  0.521880  1.0  -0.7419
  O  O124  1  0.127200  0.731200  0.365100  1.0  -0.6183
  O  O125  1  0.938100  0.775700  0.335040  1.0  -0.7262
  O  O126  1  0.720400  0.618800  0.090880  1.0  -0.7496
  O  O127  1  0.809700  0.726400  0.030280  1.0  -0.5632
  O  O128  1  0.231900  0.650500  0.158900  1.0  -0.2817
  O  O129  1  0.463400  0.531400  0.106970  1.0  -0.7429
  O  O130  1  0.281900  0.499600  0.049500  1.0  -0.5767
  O  O131  1  0.541700  0.822900  0.006710  1.0  -0.5775
  O  O132  1  0.444100  0.651300  0.978120  1.0  -0.743
