# generated using pymatgen
data_Ba2H17C32O19
_symmetry_space_group_name_H-M   'P 1'
_cell_length_a   10.27260000
_cell_length_b   13.33460000
_cell_length_c   15.27450000
_cell_angle_alpha   100.55400000
_cell_angle_beta   107.52400000
_cell_angle_gamma   99.34100000
_symmetry_Int_Tables_number   1
_chemical_formula_structural   Ba2H17C32O19
_chemical_formula_sum   'Ba4 H34 C64 O38'
_cell_volume   1907.95812004
_cell_formula_units_Z   2
loop_
 _symmetry_equiv_pos_site_id
 _symmetry_equiv_pos_as_xyz
  1  'x, y, z'
loop_
 _atom_site_type_symbol
 _atom_site_label
 _atom_site_symmetry_multiplicity
 _atom_site_fract_x
 _atom_site_fract_y
 _atom_site_fract_z
 _atom_site_occupancy
 _atom_site_charge
  Ba  Ba1  1  0.527880  0.820200  0.490160  1.0  1.6261
  Ba  Ba2  1  0.088450  0.925030  0.391520  1.0  1.6016
  Ba  Ba3  1  0.472120  0.179800  0.509840  1.0  1.6249
  Ba  Ba4  1  0.911550  0.074970  0.608480  1.0  1.6012
  H  H5  1  0.768200  0.763700  0.909000  1.0  0.1245
  H  H6  1  0.793000  0.467000  0.909000  1.0  0.12
  H  H7  1  0.150900  0.007500  0.022000  1.0  0.1207
  H  H8  1  0.018400  0.799000  0.770800  1.0  0.1053
  H  H9  1  0.683700  0.552700  0.663900  1.0  0.1091
  H  H10  1  0.547900  0.608400  0.938500  1.0  0.1171
  H  H11  1  0.414100  0.902900  0.028900  1.0  0.1104
  H  H12  1  0.774800  0.999800  0.247200  1.0  0.0868
  H  H13  1  0.454600  0.695500  0.172800  1.0  0.0912
  H  H14  1  0.655800  0.955400  0.087000  1.0  0.095
  H  H15  1  0.383900  0.632400  0.011000  1.0  0.1021
  H  H16  1  0.051000  0.128000  0.858000  1.0  0.4301
  H  H17  1  0.843600  0.841700  0.479900  1.0  0.4612
  H  H18  1  0.868800  0.822600  0.564900  1.0  0.4377
  H  H19  1  0.687000  0.880000  0.739000  1.0  0.3928
  H  H20  1  0.738000  0.269000  0.751000  1.0  0.4506
  H  H21  1  0.093000  0.501000  0.826000  1.0  0.3621
  H  H22  1  0.231800  0.236300  0.091000  1.0  0.1247
  H  H23  1  0.207000  0.533000  0.091000  1.0  0.1196
  H  H24  1  0.849100  0.992500  0.978000  1.0  0.1212
  H  H25  1  0.981600  0.201000  0.229200  1.0  0.1046
  H  H26  1  0.316300  0.447300  0.336100  1.0  0.1089
  H  H27  1  0.452100  0.391600  0.061500  1.0  0.117
  H  H28  1  0.585900  0.097100  0.971100  1.0  0.1094
  H  H29  1  0.225200  0.000200  0.752800  1.0  0.0867
  H  H30  1  0.545400  0.304500  0.827200  1.0  0.0917
  H  H31  1  0.344200  0.044600  0.913000  1.0  0.0951
  H  H32  1  0.616100  0.367600  0.989000  1.0  0.1019
  H  H33  1  0.949000  0.872000  0.142000  1.0  0.433
  H  H34  1  0.156400  0.158300  0.520100  1.0  0.4608
  H  H35  1  0.131200  0.177400  0.435100  1.0  0.4365
  H  H36  1  0.313000  0.120000  0.261000  1.0  0.3922
  H  H37  1  0.262000  0.731000  0.249000  1.0  0.4525
  H  H38  1  0.907000  0.499000  0.174000  1.0  0.3626
  C  C39  1  0.782700  0.617900  0.923000  1.0  0.2563
  C  C40  1  0.153300  0.759900  0.980000  1.0  0.0045
  C  C41  1  0.759600  0.695700  0.875900  1.0  -0.1322
  C  C42  1  0.094800  0.736300  0.881200  1.0  -0.1159
  C  C43  1  0.723400  0.670600  0.778000  1.0  -0.1624
  C  C44  1  0.773200  0.517600  0.875600  1.0  -0.1418
  C  C45  1  0.136700  0.939600  0.986400  1.0  -0.1143
  C  C46  1  0.734000  0.492000  0.777800  1.0  -0.1712
  C  C47  1  0.056900  0.814600  0.836500  1.0  -0.0339
  C  C48  1  0.076100  0.915300  0.889000  1.0  -0.168
  C  C49  1  0.175700  0.862500  0.030200  1.0  0.1873
  C  C50  1  0.914600  0.702500  0.210300  1.0  0.6915
  C  C51  1  0.709600  0.569300  0.729600  1.0  -0.0592
  C  C52  1  0.458800  0.950600  0.254100  1.0  -0.0839
  C  C53  1  0.074800  0.629700  0.820700  1.0  0.6452
  C  C54  1  0.576200  0.633000  0.003900  1.0  -0.1698
  C  C55  1  0.369600  0.950200  0.316700  1.0  0.6846
  C  C56  1  0.715600  0.655100  0.058100  1.0  0.262
  C  C57  1  0.715500  0.382800  0.723900  1.0  0.6414
  C  C58  1  0.662100  0.706600  0.200000  1.0  -0.1239
  C  C59  1  0.761000  0.689800  0.156600  1.0  -0.0643
  C  C60  1  0.703800  0.751300  0.305200  1.0  0.6817
  C  C61  1  0.389300  0.920800  0.156800  1.0  0.2107
  C  C62  1  0.699300  0.750900  0.722500  1.0  0.6575
  C  C63  1  0.462100  0.922400  0.093800  1.0  -0.2206
  C  C64  1  0.036900  0.997300  0.837300  1.0  0.6598
  C  C65  1  0.690800  0.010300  0.392700  1.0  0.7028
  C  C66  1  0.605800  0.980400  0.288800  1.0  -0.1365
  C  C67  1  0.677300  0.980700  0.224800  1.0  -0.0358
  C  C68  1  0.521100  0.684800  0.144300  1.0  -0.0401
  C  C69  1  0.606100  0.953200  0.128700  1.0  -0.076
  C  C70  1  0.478600  0.647600  0.047200  1.0  -0.1016
  C  C71  1  0.217300  0.382100  0.077000  1.0  0.2564
  C  C72  1  0.846700  0.240100  0.020000  1.0  0.0054
  C  C73  1  0.240400  0.304300  0.124100  1.0  -0.134
  C  C74  1  0.905200  0.263700  0.118800  1.0  -0.1133
  C  C75  1  0.276600  0.329400  0.222000  1.0  -0.1623
  C  C76  1  0.226800  0.482400  0.124400  1.0  -0.1408
  C  C77  1  0.863300  0.060400  0.013600  1.0  -0.1135
  C  C78  1  0.266000  0.508000  0.222200  1.0  -0.1683
  C  C79  1  0.943100  0.185400  0.163500  1.0  -0.0333
  C  C80  1  0.923900  0.084700  0.111000  1.0  -0.1681
  C  C81  1  0.824300  0.137500  0.969800  1.0  0.1862
  C  C82  1  0.085400  0.297500  0.789700  1.0  0.6905
  C  C83  1  0.290400  0.430700  0.270400  1.0  -0.0636
  C  C84  1  0.541200  0.049400  0.745900  1.0  -0.085
  C  C85  1  0.925200  0.370300  0.179300  1.0  0.6427
  C  C86  1  0.423800  0.367000  0.996100  1.0  -0.1691
  C  C87  1  0.630400  0.049800  0.683300  1.0  0.6832
  C  C88  1  0.284400  0.344900  0.941900  1.0  0.2617
  C  C89  1  0.284500  0.617200  0.276100  1.0  0.6389
  C  C90  1  0.337900  0.293400  0.800000  1.0  -0.1233
  C  C91  1  0.239000  0.310200  0.843400  1.0  -0.0654
  C  C92  1  0.296200  0.248700  0.694800  1.0  0.6806
  C  C93  1  0.610700  0.079200  0.843200  1.0  0.211
  C  C94  1  0.300700  0.249100  0.277500  1.0  0.6578
  C  C95  1  0.537900  0.077600  0.906200  1.0  -0.2212
  C  C96  1  0.963100  0.002700  0.162700  1.0  0.6595
  C  C97  1  0.309200  0.989700  0.607300  1.0  0.7026
  C  C98  1  0.394200  0.019600  0.711200  1.0  -0.1346
  C  C99  1  0.322700  0.019300  0.775200  1.0  -0.0374
  C  C100  1  0.478900  0.315200  0.855700  1.0  -0.0401
  C  C101  1  0.393900  0.046800  0.871300  1.0  -0.0753
  C  C102  1  0.521400  0.352400  0.952800  1.0  -0.1008
  O  O103  1  0.072900  0.091900  0.891000  1.0  -0.5215
  O  O104  1  0.978200  0.974000  0.751900  1.0  -0.5603
  O  O105  1  0.826700  0.859500  0.531000  1.0  -0.9374
  O  O106  1  0.669200  0.731200  0.637300  1.0  -0.5929
  O  O107  1  0.712900  0.844200  0.774900  1.0  -0.4979
  O  O108  1  0.751000  0.319900  0.778700  1.0  -0.6318
  O  O109  1  0.670400  0.356700  0.637900  1.0  -0.596
  O  O110  1  0.821300  0.641400  0.021400  1.0  -0.2695
  O  O111  1  0.831100  0.791900  0.351100  1.0  -0.6264
  O  O112  1  0.608700  0.746800  0.340500  1.0  -0.6128
  O  O113  1  0.950700  0.628400  0.242700  1.0  -0.6057
  O  O114  1  0.997800  0.786400  0.217100  1.0  -0.6552
  O  O115  1  0.244500  0.889400  0.128270  1.0  -0.2753
  O  O116  1  0.113000  0.561200  0.869400  1.0  -0.5287
  O  O117  1  0.029900  0.609100  0.735300  1.0  -0.4524
  O  O118  1  0.332400  0.867900  0.340700  1.0  -0.6472
  O  O119  1  0.625700  0.013900  0.452000  1.0  -0.7495
  O  O120  1  0.821700  0.027900  0.415700  1.0  -0.6505
  O  O121  1  0.328700  0.031900  0.339100  1.0  -0.661
  O  O122  1  0.927100  0.908100  0.109000  1.0  -0.5233
  O  O123  1  0.021800  0.026000  0.248100  1.0  -0.5615
  O  O124  1  0.173300  0.140500  0.469000  1.0  -0.9363
  O  O125  1  0.330800  0.268800  0.362700  1.0  -0.5939
  O  O126  1  0.287100  0.155800  0.225100  1.0  -0.4984
  O  O127  1  0.249000  0.680100  0.221300  1.0  -0.6322
  O  O128  1  0.329600  0.643300  0.362100  1.0  -0.6015
  O  O129  1  0.178700  0.358600  0.978600  1.0  -0.2691
  O  O130  1  0.168900  0.208100  0.648900  1.0  -0.6247
  O  O131  1  0.391300  0.253200  0.659500  1.0  -0.611
  O  O132  1  0.049300  0.371600  0.757300  1.0  -0.6068
  O  O133  1  0.002200  0.213600  0.782900  1.0  -0.6557
  O  O134  1  0.755500  0.110600  0.871730  1.0  -0.276
  O  O135  1  0.887000  0.438800  0.130600  1.0  -0.5272
  O  O136  1  0.970100  0.390900  0.264700  1.0  -0.4552
  O  O137  1  0.667600  0.132100  0.659300  1.0  -0.6463
  O  O138  1  0.374300  0.986100  0.548000  1.0  -0.7477
  O  O139  1  0.178300  0.972100  0.584300  1.0  -0.6504
  O  O140  1  0.671300  0.968100  0.660900  1.0  -0.6608
