# generated using pymatgen
data_Ba2H18C32O19
_symmetry_space_group_name_H-M   'P 1'
_cell_length_a   10.27240000
_cell_length_b   13.31260000
_cell_length_c   15.29490000
_cell_angle_alpha   100.30700000
_cell_angle_beta   107.57200000
_cell_angle_gamma   100.41400000
_symmetry_Int_Tables_number   1
_chemical_formula_structural   Ba2H18C32O19
_chemical_formula_sum   'Ba4 H36 C64 O38'
_cell_volume   1899.38598663
_cell_formula_units_Z   2
loop_
 _symmetry_equiv_pos_site_id
 _symmetry_equiv_pos_as_xyz
  1  'x, y, z'
loop_
 _atom_site_type_symbol
 _atom_site_label
 _atom_site_symmetry_multiplicity
 _atom_site_fract_x
 _atom_site_fract_y
 _atom_site_fract_z
 _atom_site_occupancy
 _atom_site_charge
  Ba  Ba1  1  0.526430  0.820360  0.988160  1.0  1.6286
  Ba  Ba2  1  0.913220  0.075250  0.109660  1.0  1.6074
  Ba  Ba3  1  0.473570  0.179640  0.011840  1.0  1.6269
  Ba  Ba4  1  0.086780  0.924750  0.890340  1.0  1.608
  H  H5  1  0.551600  0.299800  0.331900  1.0  0.089
  H  H6  1  0.624200  0.367100  0.492600  1.0  0.0934
  H  H7  1  0.460500  0.392300  0.564900  1.0  0.1162
  H  H8  1  0.240800  0.237700  0.593100  1.0  0.1199
  H  H9  1  0.315800  0.447000  0.837700  1.0  0.1149
  H  H10  1  0.207700  0.532300  0.590900  1.0  0.1236
  H  H11  1  0.775300  0.017600  0.750500  1.0  0.0956
  H  H12  1  0.655300  0.968200  0.589900  1.0  0.083
  H  H13  1  0.414900  0.907900  0.530300  1.0  0.12
  H  H14  1  0.150500  0.008000  0.522500  1.0  0.1133
  H  H15  1  0.016500  0.797100  0.270200  1.0  0.1091
  H  H16  1  0.174200  0.708000  0.509300  1.0  0.1152
  H  H17  1  0.821000  0.829000  0.973500  1.0  0.4551
  H  H18  1  0.868000  0.826000  0.064000  1.0  0.4202
  H  H19  1  0.309700  0.111900  0.758800  1.0  0.4132
  H  H20  1  0.256700  0.735600  0.759800  1.0  0.4085
  H  H21  1  0.053900  0.146100  0.366200  1.0  0.4106
  H  H22  1  0.110400  0.510300  0.326400  1.0  0.3788
  H  H23  1  0.448400  0.700200  0.668100  1.0  0.0893
  H  H24  1  0.375800  0.632900  0.507400  1.0  0.0941
  H  H25  1  0.539500  0.607700  0.435100  1.0  0.117
  H  H26  1  0.759200  0.762300  0.406900  1.0  0.1198
  H  H27  1  0.684200  0.553000  0.162300  1.0  0.1145
  H  H28  1  0.792300  0.467700  0.409100  1.0  0.1241
  H  H29  1  0.224700  0.982400  0.249500  1.0  0.0953
  H  H30  1  0.344700  0.031800  0.410100  1.0  0.0837
  H  H31  1  0.585100  0.092100  0.469700  1.0  0.1189
  H  H32  1  0.849500  0.992000  0.477500  1.0  0.1145
  H  H33  1  0.983500  0.202900  0.729800  1.0  0.1073
  H  H34  1  0.825800  0.292000  0.490700  1.0  0.115
  H  H35  1  0.179000  0.171000  0.026500  1.0  0.4552
  H  H36  1  0.132000  0.174000  0.936000  1.0  0.4195
  H  H37  1  0.690300  0.888100  0.241200  1.0  0.4132
  H  H38  1  0.743300  0.264400  0.240200  1.0  0.4075
  H  H39  1  0.946100  0.853900  0.633800  1.0  0.4123
  H  H40  1  0.889600  0.489700  0.673600  1.0  0.3789
  C  C41  1  0.345500  0.292700  0.303300  1.0  -0.1384
  C  C42  1  0.485400  0.312800  0.359800  1.0  -0.033
  C  C43  1  0.529000  0.351500  0.456300  1.0  -0.0835
  C  C44  1  0.431900  0.367400  0.499500  1.0  -0.1441
  C  C45  1  0.291200  0.345700  0.444100  1.0  0.2609
  C  C46  1  0.246300  0.311500  0.346700  1.0  -0.0614
  C  C47  1  0.303300  0.247200  0.198500  1.0  0.6896
  C  C48  1  0.092800  0.298000  0.291900  1.0  0.6735
  C  C49  1  0.222700  0.382000  0.578400  1.0  0.2841
  C  C50  1  0.247200  0.305300  0.626000  1.0  -0.1332
  C  C51  1  0.281400  0.329500  0.723600  1.0  -0.1697
  C  C52  1  0.291000  0.430300  0.772100  1.0  -0.0561
  C  C53  1  0.263700  0.506800  0.722700  1.0  -0.16
  C  C54  1  0.227800  0.482100  0.624600  1.0  -0.1849
  C  C55  1  0.306200  0.249400  0.778400  1.0  0.6645
  C  C56  1  0.278700  0.615300  0.777200  1.0  0.6223
  C  C57  1  0.605700  0.988500  0.790400  1.0  -0.142
  C  C58  1  0.677500  0.993800  0.727700  1.0  -0.0431
  C  C59  1  0.605200  0.964000  0.631200  1.0  -0.0834
  C  C60  1  0.462400  0.928700  0.595400  1.0  -0.2207
  C  C61  1  0.388200  0.924100  0.658100  1.0  0.1999
  C  C62  1  0.458300  0.953700  0.755000  1.0  -0.0865
  C  C63  1  0.689700  0.015000  0.894100  1.0  0.7239
  C  C64  1  0.367700  0.950600  0.816800  1.0  0.6821
  C  C65  1  0.174100  0.861800  0.530800  1.0  0.2067
  C  C66  1  0.135600  0.940000  0.486800  1.0  -0.1081
  C  C67  1  0.074600  0.915300  0.388500  1.0  -0.1243
  C  C68  1  0.055400  0.813500  0.335900  1.0  -0.0481
  C  C69  1  0.093900  0.736500  0.381100  1.0  -0.1817
  C  C70  1  0.151200  0.760200  0.478800  1.0  -0.1011
  C  C71  1  0.036500  0.997400  0.337400  1.0  0.6411
  C  C72  1  0.076200  0.630200  0.320800  1.0  0.6656
  C  C73  1  0.654500  0.707300  0.696700  1.0  -0.1395
  C  C74  1  0.514600  0.687200  0.640200  1.0  -0.0325
  C  C75  1  0.471000  0.648500  0.543700  1.0  -0.0838
  C  C76  1  0.568100  0.632600  0.500500  1.0  -0.1455
  C  C77  1  0.708800  0.654300  0.555900  1.0  0.2611
  C  C78  1  0.753700  0.688500  0.653300  1.0  -0.0616
  C  C79  1  0.696700  0.752800  0.801500  1.0  0.6897
  C  C80  1  0.907200  0.702000  0.708100  1.0  0.6729
  C  C81  1  0.777300  0.618000  0.421600  1.0  0.2836
  C  C82  1  0.752800  0.694700  0.374000  1.0  -0.1332
  C  C83  1  0.718600  0.670500  0.276400  1.0  -0.1695
  C  C84  1  0.709000  0.569700  0.227900  1.0  -0.0528
  C  C85  1  0.736300  0.493200  0.277300  1.0  -0.1622
  C  C86  1  0.772200  0.517900  0.375400  1.0  -0.1844
  C  C87  1  0.693800  0.750600  0.221600  1.0  0.6641
  C  C88  1  0.721300  0.384700  0.222800  1.0  0.6225
  C  C89  1  0.394300  0.011500  0.209600  1.0  -0.1405
  C  C90  1  0.322500  0.006200  0.272300  1.0  -0.0435
  C  C91  1  0.394800  0.036000  0.368800  1.0  -0.0829
  C  C92  1  0.537600  0.071300  0.404600  1.0  -0.222
  C  C93  1  0.611800  0.075900  0.341900  1.0  0.2003
  C  C94  1  0.541700  0.046300  0.245000  1.0  -0.0868
  C  C95  1  0.310300  0.985000  0.105900  1.0  0.7211
  C  C96  1  0.632300  0.049400  0.183200  1.0  0.6814
  C  C97  1  0.825900  0.138200  0.469200  1.0  0.2084
  C  C98  1  0.864400  0.060000  0.513200  1.0  -0.108
  C  C99  1  0.925400  0.084700  0.611500  1.0  -0.1239
  C  C100  1  0.944600  0.186500  0.664100  1.0  -0.0485
  C  C101  1  0.906100  0.263500  0.618900  1.0  -0.1794
  C  C102  1  0.848800  0.239800  0.521200  1.0  -0.1022
  C  C103  1  0.963500  0.002600  0.662600  1.0  0.6415
  C  C104  1  0.923800  0.369800  0.679200  1.0  0.6653
  O  O105  1  0.174600  0.205900  0.151600  1.0  -0.6278
  O  O106  1  0.398400  0.252900  0.163500  1.0  -0.6649
  O  O107  1  0.826300  0.859800  0.028500  1.0  -0.9164
  O  O108  1  0.059800  0.372600  0.258900  1.0  -0.5929
  O  O109  1  0.005500  0.213800  0.284200  1.0  -0.6424
  O  O110  1  0.185900  0.360400  0.480100  1.0  -0.2603
  O  O111  1  0.295800  0.156500  0.725800  1.0  -0.4997
  O  O112  1  0.335900  0.269100  0.863800  1.0  -0.5958
  O  O113  1  0.320500  0.641700  0.862500  1.0  -0.5877
  O  O114  1  0.242000  0.677400  0.720300  1.0  -0.5201
  O  O115  1  0.822000  0.032800  0.917000  1.0  -0.6662
  O  O116  1  0.625100  0.015800  0.952700  1.0  -0.732
  O  O117  1  0.329700  0.867500  0.840200  1.0  -0.6747
  O  O118  1  0.327700  0.032000  0.839800  1.0  -0.7229
  O  O119  1  0.242400  0.888100  0.628700  1.0  -0.2654
  O  O120  1  0.073400  0.092300  0.391700  1.0  -0.5191
  O  O121  1  0.979600  0.974400  0.252600  1.0  -0.5632
  O  O122  1  0.034100  0.610600  0.235200  1.0  -0.4647
  O  O123  1  0.111300  0.561400  0.369000  1.0  -0.5104
  O  O124  1  0.825400  0.794100  0.848400  1.0  -0.6298
  O  O125  1  0.601600  0.747100  0.836500  1.0  -0.6638
  O  O126  1  0.173700  0.140200  0.971500  1.0  -0.9167
  O  O127  1  0.940200  0.627400  0.741100  1.0  -0.5932
  O  O128  1  0.994500  0.786200  0.715800  1.0  -0.6409
  O  O129  1  0.814100  0.639600  0.519900  1.0  -0.2597
  O  O130  1  0.704200  0.843500  0.274200  1.0  -0.4982
  O  O131  1  0.664100  0.730900  0.136200  1.0  -0.5952
  O  O132  1  0.679500  0.358300  0.137500  1.0  -0.584
  O  O133  1  0.758000  0.322600  0.279700  1.0  -0.5203
  O  O134  1  0.178000  0.967200  0.083000  1.0  -0.6667
  O  O135  1  0.374900  0.984200  0.047300  1.0  -0.7299
  O  O136  1  0.670300  0.132500  0.159800  1.0  -0.6726
  O  O137  1  0.672300  0.968000  0.160200  1.0  -0.7237
  O  O138  1  0.757600  0.111900  0.371300  1.0  -0.2665
  O  O139  1  0.926600  0.907700  0.608300  1.0  -0.5208
  O  O140  1  0.020400  0.025600  0.747400  1.0  -0.563
  O  O141  1  0.965900  0.389400  0.764800  1.0  -0.469
  O  O142  1  0.888700  0.438600  0.631000  1.0  -0.5107
