# generated using pymatgen
data_ZnH9C17O4
_symmetry_space_group_name_H-M   'P 1'
_cell_length_a   9.29450000
_cell_length_b   19.43050000
_cell_length_c   19.43050000
_cell_angle_alpha   67.72910000
_cell_angle_beta   76.16230000
_cell_angle_gamma   76.16240000
_symmetry_Int_Tables_number   1
_chemical_formula_structural   ZnH9C17O4
_chemical_formula_sum   'Zn4 H36 C68 O16'
_cell_volume   3109.69493812
_cell_formula_units_Z   4
loop_
 _symmetry_equiv_pos_site_id
 _symmetry_equiv_pos_as_xyz
  1  'x, y, z'
loop_
 _atom_site_type_symbol
 _atom_site_label
 _atom_site_symmetry_multiplicity
 _atom_site_fract_x
 _atom_site_fract_y
 _atom_site_fract_z
 _atom_site_occupancy
 _atom_site_charge
  Zn  Zn1  1  0.638760  0.514010  0.514010  1.0  1.1362
  Zn  Zn2  1  0.166780  0.985990  0.985990  1.0  1.1363
  Zn  Zn3  1  0.833220  0.014010  0.014010  1.0  1.1376
  Zn  Zn4  1  0.361240  0.485990  0.485990  1.0  1.1295
  H  H5  1  0.893100  0.551000  0.286400  1.0  0.1057
  H  H6  1  0.013700  0.548800  0.167400  1.0  0.1196
  H  H7  1  0.647800  0.486500  0.141500  1.0  0.1138
  H  H8  1  0.527500  0.492800  0.259000  1.0  0.102
  H  H9  1  0.230500  0.949000  0.213600  1.0  0.1056
  H  H10  1  0.229900  0.951200  0.332600  1.0  0.1202
  H  H11  1  0.775800  0.013500  0.358500  1.0  0.1137
  H  H12  1  0.779300  0.007200  0.241000  1.0  0.1034
  H  H13  1  0.769500  0.786400  0.051000  1.0  0.1057
  H  H14  1  0.770100  0.667400  0.048800  1.0  0.12
  H  H15  1  0.224200  0.641500  0.986500  1.0  0.1134
  H  H16  1  0.220700  0.759000  0.992800  1.0  0.1023
  H  H17  1  0.106900  0.713600  0.449000  1.0  0.1057
  H  H18  1  0.986300  0.832600  0.451200  1.0  0.1197
  H  H19  1  0.352200  0.858500  0.513500  1.0  0.1137
  H  H20  1  0.472500  0.741000  0.507200  1.0  0.1041
  H  H21  1  0.106900  0.449000  0.713600  1.0  0.1058
  H  H22  1  0.986300  0.451200  0.832600  1.0  0.1197
  H  H23  1  0.352200  0.513500  0.858500  1.0  0.1135
  H  H24  1  0.472500  0.507200  0.741000  1.0  0.1025
  H  H25  1  0.769500  0.051000  0.786400  1.0  0.1059
  H  H26  1  0.770100  0.048800  0.667400  1.0  0.1203
  H  H27  1  0.224200  0.986500  0.641500  1.0  0.1131
  H  H28  1  0.220700  0.992800  0.759000  1.0  0.1029
  H  H29  1  0.230500  0.213600  0.949000  1.0  0.1061
  H  H30  1  0.229900  0.332600  0.951200  1.0  0.1198
  H  H31  1  0.775800  0.358500  0.013500  1.0  0.1133
  H  H32  1  0.779300  0.241000  0.007200  1.0  0.1025
  H  H33  1  0.893100  0.286400  0.551000  1.0  0.1057
  H  H34  1  0.013700  0.167400  0.548800  1.0  0.1188
  H  H35  1  0.647800  0.141500  0.486500  1.0  0.1136
  H  H36  1  0.527500  0.259000  0.492800  1.0  0.1042
  H  H37  1  0.865100  0.409900  0.090100  1.0  0.1061
  H  H38  1  0.865100  0.090100  0.409900  1.0  0.1041
  H  H39  1  0.134900  0.590100  0.909900  1.0  0.106
  H  H40  1  0.134900  0.909900  0.590100  1.0  0.1045
  C  C41  1  0.624330  0.521970  0.362370  1.0  0.7263
  C  C42  1  0.697570  0.522230  0.284430  1.0  -0.1557
  C  C43  1  0.842940  0.538590  0.256530  1.0  -0.0246
  C  C44  1  0.915150  0.536850  0.186250  1.0  -0.152
  C  C45  1  0.840030  0.517170  0.142170  1.0  0.0723
  C  C46  1  0.697870  0.500330  0.170330  1.0  -0.1688
  C  C47  1  0.626790  0.503610  0.240610  1.0  -0.0201
  C  C48  1  0.921850  0.510550  0.068150  1.0  0.003
  C  C49  1  0.008670  0.978030  0.137630  1.0  0.7267
  C  C50  1  0.004230  0.977770  0.215570  1.0  -0.1564
  C  C51  1  0.138060  0.961410  0.243470  1.0  -0.0287
  C  C52  1  0.138250  0.963150  0.313750  1.0  -0.1409
  C  C53  1  0.999370  0.982830  0.357830  1.0  0.0743
  C  C54  1  0.868530  0.999670  0.329670  1.0  -0.1678
  C  C55  1  0.871010  0.996390  0.259390  1.0  -0.0242
  C  C56  1  0.000550  0.989450  0.431850  1.0  0.0076
  C  C57  1  0.991330  0.862370  0.021970  1.0  0.7248
  C  C58  1  0.995770  0.784430  0.022230  1.0  -0.1555
  C  C59  1  0.861940  0.756530  0.038590  1.0  -0.0302
  C  C60  1  0.861750  0.686250  0.036850  1.0  -0.143
  C  C61  1  0.000630  0.642170  0.017170  1.0  0.0641
  C  C62  1  0.131470  0.670330  0.000330  1.0  -0.1663
  C  C63  1  0.128990  0.740610  0.003610  1.0  -0.0199
  C  C64  1  0.999450  0.568150  0.010550  1.0  0.0078
  C  C65  1  0.375670  0.637630  0.478030  1.0  0.7259
  C  C66  1  0.302430  0.715570  0.477770  1.0  -0.1563
  C  C67  1  0.157060  0.743470  0.461410  1.0  -0.0256
  C  C68  1  0.084850  0.813750  0.463150  1.0  -0.1513
  C  C69  1  0.159970  0.857830  0.482830  1.0  0.0737
  C  C70  1  0.302130  0.829670  0.499670  1.0  -0.1667
  C  C71  1  0.373210  0.759390  0.496390  1.0  -0.021
  C  C72  1  0.078150  0.931850  0.489450  1.0  0.0036
  C  C73  1  0.375670  0.478030  0.637630  1.0  0.7258
  C  C74  1  0.302430  0.477770  0.715570  1.0  -0.1543
  C  C75  1  0.157060  0.461410  0.743470  1.0  -0.024
  C  C76  1  0.084850  0.463150  0.813750  1.0  -0.1528
  C  C77  1  0.159970  0.482830  0.857830  1.0  0.0732
  C  C78  1  0.302130  0.499670  0.829670  1.0  -0.1677
  C  C79  1  0.373210  0.496390  0.759390  1.0  -0.02
  C  C80  1  0.078150  0.489450  0.931850  1.0  0.004
  C  C81  1  0.991330  0.021970  0.862370  1.0  0.7258
  C  C82  1  0.995770  0.022230  0.784430  1.0  -0.1577
  C  C83  1  0.861940  0.038590  0.756530  1.0  -0.0311
  C  C84  1  0.861750  0.036850  0.686250  1.0  -0.1432
  C  C85  1  0.000630  0.017170  0.642170  1.0  0.0666
  C  C86  1  0.131470  0.000330  0.670330  1.0  -0.1662
  C  C87  1  0.128990  0.003610  0.740610  1.0  -0.024
  C  C88  1  0.999450  0.010550  0.568150  1.0  0.0072
  C  C89  1  0.008670  0.137630  0.978030  1.0  0.7295
  C  C90  1  0.004230  0.215570  0.977770  1.0  -0.1572
  C  C91  1  0.138060  0.243470  0.961410  1.0  -0.0285
  C  C92  1  0.138250  0.313750  0.963150  1.0  -0.143
  C  C93  1  0.999370  0.357830  0.982830  1.0  0.0726
  C  C94  1  0.868530  0.329670  0.999670  1.0  -0.1677
  C  C95  1  0.871010  0.259390  0.996390  1.0  -0.02
  C  C96  1  0.000550  0.431850  0.989450  1.0  0.008
  C  C97  1  0.624330  0.362370  0.521970  1.0  0.7249
  C  C98  1  0.697570  0.284430  0.522230  1.0  -0.1537
  C  C99  1  0.842940  0.256530  0.538590  1.0  -0.025
  C  C100  1  0.915150  0.186250  0.536850  1.0  -0.1536
  C  C101  1  0.840030  0.142170  0.517170  1.0  0.0741
  C  C102  1  0.697870  0.170330  0.500330  1.0  -0.1683
  C  C103  1  0.626790  0.240610  0.503610  1.0  -0.0225
  C  C104  1  0.921850  0.068150  0.510550  1.0  0.0037
  C  C105  1  0.922200  0.446300  0.053700  1.0  -0.1484
  C  C106  1  0.922200  0.053700  0.446300  1.0  -0.1462
  C  C107  1  0.077800  0.553700  0.946300  1.0  -0.1486
  C  C108  1  0.077800  0.946300  0.553700  1.0  -0.1472
  O  O109  1  0.702070  0.530390  0.401670  1.0  -0.6248
  O  O110  1  0.490690  0.511080  0.381340  1.0  -0.6425
  O  O111  1  0.134130  0.969610  0.098330  1.0  -0.6276
  O  O112  1  0.883110  0.988920  0.118660  1.0  -0.6483
  O  O113  1  0.865870  0.901670  0.030390  1.0  -0.6217
  O  O114  1  0.116890  0.881340  0.011080  1.0  -0.6489
  O  O115  1  0.297930  0.598330  0.469610  1.0  -0.6268
  O  O116  1  0.509310  0.618660  0.488920  1.0  -0.6462
  O  O117  1  0.297930  0.469610  0.598330  1.0  -0.6255
  O  O118  1  0.509310  0.488920  0.618660  1.0  -0.6432
  O  O119  1  0.865870  0.030390  0.901670  1.0  -0.628
  O  O120  1  0.116890  0.011080  0.881340  1.0  -0.6488
  O  O121  1  0.134130  0.098330  0.969610  1.0  -0.6246
  O  O122  1  0.883110  0.118660  0.988920  1.0  -0.6478
  O  O123  1  0.702070  0.401670  0.530390  1.0  -0.6259
  O  O124  1  0.490690  0.381340  0.511080  1.0  -0.6462
