# generated using pymatgen
data_FeH6(C3N)6
_symmetry_space_group_name_H-M   'P 1'
_cell_length_a   13.01570000
_cell_length_b   13.01570000
_cell_length_c   62.61500000
_cell_angle_alpha   90.00000000
_cell_angle_beta   90.00000000
_cell_angle_gamma   120.00000000
_symmetry_Int_Tables_number   1
_chemical_formula_structural   FeH6(C3N)6
_chemical_formula_sum   'Fe12 H72 C216 N72'
_cell_volume   9186.37302435
_cell_formula_units_Z   12
loop_
 _symmetry_equiv_pos_site_id
 _symmetry_equiv_pos_as_xyz
  1  'x, y, z'
loop_
 _atom_site_type_symbol
 _atom_site_label
 _atom_site_symmetry_multiplicity
 _atom_site_fract_x
 _atom_site_fract_y
 _atom_site_fract_z
 _atom_site_occupancy
 _atom_site_charge
  Fe  Fe1  1  0.333333  0.666667  0.003540  1.0  0.6664
  Fe  Fe2  1  0.000000  0.000000  0.336880  1.0  0.6663
  Fe  Fe3  1  0.666667  0.333333  0.670210  1.0  0.6663
  Fe  Fe4  1  0.666667  0.333333  0.496460  1.0  0.6672
  Fe  Fe5  1  0.333333  0.666667  0.829790  1.0  0.6675
  Fe  Fe6  1  0.000000  0.000000  0.163120  1.0  0.6675
  Fe  Fe7  1  0.666667  0.333333  0.996460  1.0  0.6672
  Fe  Fe8  1  0.333333  0.666667  0.329790  1.0  0.6675
  Fe  Fe9  1  0.000000  0.000000  0.663120  1.0  0.6675
  Fe  Fe10  1  0.333333  0.666667  0.503540  1.0  0.6664
  Fe  Fe11  1  0.000000  0.000000  0.836880  1.0  0.6663
  Fe  Fe12  1  0.666667  0.333333  0.170210  1.0  0.6663
  H  H13  1  0.768300  0.639600  0.934500  1.0  0.1159
  H  H14  1  0.456800  0.639200  0.934600  1.0  0.1061
  H  H15  1  0.434970  0.972930  0.267830  1.0  0.1163
  H  H16  1  0.123470  0.972530  0.267930  1.0  0.1064
  H  H17  1  0.101630  0.306270  0.601170  1.0  0.1159
  H  H18  1  0.790130  0.305870  0.601270  1.0  0.1061
  H  H19  1  0.360400  0.128700  0.934500  1.0  0.1149
  H  H20  1  0.360800  0.817600  0.934600  1.0  0.1076
  H  H21  1  0.027070  0.462030  0.267830  1.0  0.1155
  H  H22  1  0.027470  0.150930  0.267930  1.0  0.1067
  H  H23  1  0.693730  0.795370  0.601170  1.0  0.1149
  H  H24  1  0.694130  0.484270  0.601270  1.0  0.1076
  H  H25  1  0.871300  0.231700  0.934500  1.0  0.117
  H  H26  1  0.182400  0.543200  0.934600  1.0  0.1048
  H  H27  1  0.537970  0.565030  0.267830  1.0  0.1169
  H  H28  1  0.849070  0.876530  0.267930  1.0  0.1068
  H  H29  1  0.204630  0.898370  0.601170  1.0  0.117
  H  H30  1  0.515730  0.209870  0.601270  1.0  0.1048
  H  H31  1  0.639600  0.768300  0.565500  1.0  0.1173
  H  H32  1  0.639200  0.456800  0.565400  1.0  0.1064
  H  H33  1  0.306270  0.101630  0.898830  1.0  0.1173
  H  H34  1  0.305870  0.790130  0.898730  1.0  0.1064
  H  H35  1  0.972930  0.434970  0.232170  1.0  0.1176
  H  H36  1  0.972530  0.123470  0.232070  1.0  0.1067
  H  H37  1  0.128700  0.360400  0.565500  1.0  0.1146
  H  H38  1  0.817600  0.360800  0.565400  1.0  0.107
  H  H39  1  0.795370  0.693730  0.898830  1.0  0.1146
  H  H40  1  0.484270  0.694130  0.898730  1.0  0.107
  H  H41  1  0.462030  0.027070  0.232170  1.0  0.1153
  H  H42  1  0.150930  0.027470  0.232070  1.0  0.106
  H  H43  1  0.231700  0.871300  0.565500  1.0  0.1166
  H  H44  1  0.543200  0.182400  0.565400  1.0  0.1062
  H  H45  1  0.898370  0.204630  0.898830  1.0  0.1166
  H  H46  1  0.209870  0.515730  0.898730  1.0  0.1062
  H  H47  1  0.565030  0.537970  0.232170  1.0  0.1164
  H  H48  1  0.876530  0.849070  0.232070  1.0  0.1081
  H  H49  1  0.231700  0.360400  0.065500  1.0  0.1165
  H  H50  1  0.543200  0.360800  0.065400  1.0  0.1068
  H  H51  1  0.898370  0.693730  0.398830  1.0  0.1165
  H  H52  1  0.209870  0.694130  0.398730  1.0  0.1068
  H  H53  1  0.565030  0.027070  0.732170  1.0  0.1167
  H  H54  1  0.876530  0.027470  0.732070  1.0  0.1071
  H  H55  1  0.639600  0.871300  0.065500  1.0  0.1151
  H  H56  1  0.639200  0.182400  0.065400  1.0  0.1075
  H  H57  1  0.306270  0.204630  0.398830  1.0  0.1151
  H  H58  1  0.305870  0.515730  0.398730  1.0  0.1075
  H  H59  1  0.972930  0.537970  0.732170  1.0  0.1156
  H  H60  1  0.972530  0.849070  0.732070  1.0  0.1066
  H  H61  1  0.128700  0.768300  0.065500  1.0  0.1173
  H  H62  1  0.817600  0.456800  0.065400  1.0  0.1051
  H  H63  1  0.795370  0.101630  0.398830  1.0  0.1173
  H  H64  1  0.484270  0.790130  0.398730  1.0  0.1051
  H  H65  1  0.462030  0.434970  0.732170  1.0  0.1173
  H  H66  1  0.150930  0.123470  0.732070  1.0  0.107
  H  H67  1  0.360400  0.231700  0.434500  1.0  0.1167
  H  H68  1  0.360800  0.543200  0.434600  1.0  0.1057
  H  H69  1  0.027070  0.565030  0.767830  1.0  0.117
  H  H70  1  0.027470  0.876530  0.767930  1.0  0.1064
  H  H71  1  0.693730  0.898370  0.101170  1.0  0.1167
  H  H72  1  0.694130  0.209870  0.101270  1.0  0.1057
  H  H73  1  0.871300  0.639600  0.434500  1.0  0.1148
  H  H74  1  0.182400  0.639200  0.434600  1.0  0.1069
  H  H75  1  0.537970  0.972930  0.767830  1.0  0.1156
  H  H76  1  0.849070  0.972530  0.767930  1.0  0.1056
  H  H77  1  0.204630  0.306270  0.101170  1.0  0.1148
  H  H78  1  0.515730  0.305870  0.101270  1.0  0.1069
  H  H79  1  0.768300  0.128700  0.434500  1.0  0.1166
  H  H80  1  0.456800  0.817600  0.434600  1.0  0.1054
  H  H81  1  0.434970  0.462030  0.767830  1.0  0.1165
  H  H82  1  0.123470  0.150930  0.767930  1.0  0.1074
  H  H83  1  0.101630  0.795370  0.101170  1.0  0.1166
  H  H84  1  0.790130  0.484270  0.101270  1.0  0.1054
  C  C85  1  0.592250  0.601240  0.961280  1.0  -0.0971
  C  C86  1  0.710190  0.650470  0.927350  1.0  -0.0728
  C  C87  1  0.609740  0.633480  0.938510  1.0  -0.0182
  C  C88  1  0.520120  0.627320  0.973930  1.0  0.3692
  C  C89  1  0.525910  0.650290  0.927380  1.0  -0.0761
  C  C90  1  0.634910  0.531480  0.970270  1.0  0.3749
  C  C91  1  0.258920  0.934570  0.294610  1.0  -0.0971
  C  C92  1  0.376860  0.983800  0.260680  1.0  -0.072
  C  C93  1  0.276410  0.966810  0.271840  1.0  -0.0176
  C  C94  1  0.186790  0.960650  0.307260  1.0  0.3693
  C  C95  1  0.192580  0.983620  0.260710  1.0  -0.0753
  C  C96  1  0.301580  0.864810  0.303600  1.0  0.3749
  C  C97  1  0.925580  0.267910  0.627950  1.0  -0.0971
  C  C98  1  0.043520  0.317140  0.594020  1.0  -0.0728
  C  C99  1  0.943070  0.300150  0.605180  1.0  -0.0182
  C  C100  1  0.853450  0.293990  0.640600  1.0  0.3692
  C  C101  1  0.859240  0.316960  0.594050  1.0  -0.0761
  C  C102  1  0.968240  0.198150  0.636940  1.0  0.3749
  C  C103  1  0.398760  0.991010  0.961280  1.0  -0.0975
  C  C104  1  0.349530  0.059720  0.927350  1.0  -0.072
  C  C105  1  0.366520  0.976260  0.938510  1.0  -0.0188
  C  C106  1  0.372680  0.892800  0.973930  1.0  0.3717
  C  C107  1  0.349710  0.875620  0.927380  1.0  -0.0758
  C  C108  1  0.468520  0.103430  0.970270  1.0  0.3758
  C  C109  1  0.065430  0.324340  0.294610  1.0  -0.0975
  C  C110  1  0.016200  0.393050  0.260680  1.0  -0.0722
  C  C111  1  0.033190  0.309590  0.271840  1.0  -0.0182
  C  C112  1  0.039350  0.226130  0.307260  1.0  0.3717
  C  C113  1  0.016380  0.208950  0.260710  1.0  -0.076
  C  C114  1  0.135190  0.436760  0.303600  1.0  0.3758
  C  C115  1  0.732090  0.657680  0.627950  1.0  -0.0975
  C  C116  1  0.682860  0.726390  0.594020  1.0  -0.072
  C  C117  1  0.699850  0.642930  0.605180  1.0  -0.0188
  C  C118  1  0.706010  0.559470  0.640600  1.0  0.3717
  C  C119  1  0.683040  0.542290  0.594050  1.0  -0.0758
  C  C120  1  0.801850  0.770100  0.636940  1.0  0.3758
  C  C121  1  0.008990  0.407750  0.961280  1.0  -0.0979
  C  C122  1  0.940280  0.289810  0.927350  1.0  -0.0716
  C  C123  1  0.023740  0.390260  0.938510  1.0  -0.0194
  C  C124  1  0.107200  0.479880  0.973930  1.0  0.3713
  C  C125  1  0.124380  0.474090  0.927380  1.0  -0.0759
  C  C126  1  0.896570  0.365090  0.970270  1.0  0.3754
  C  C127  1  0.675660  0.741080  0.294610  1.0  -0.0979
  C  C128  1  0.606950  0.623140  0.260680  1.0  -0.0711
  C  C129  1  0.690410  0.723590  0.271840  1.0  -0.0189
  C  C130  1  0.773870  0.813210  0.307260  1.0  0.3713
  C  C131  1  0.791050  0.807420  0.260710  1.0  -0.0767
  C  C132  1  0.563240  0.698420  0.303600  1.0  0.3754
  C  C133  1  0.342320  0.074420  0.627950  1.0  -0.0979
  C  C134  1  0.273610  0.956480  0.594020  1.0  -0.0716
  C  C135  1  0.357070  0.056930  0.605180  1.0  -0.0194
  C  C136  1  0.440530  0.146550  0.640600  1.0  0.3713
  C  C137  1  0.457710  0.140760  0.594050  1.0  -0.0759
  C  C138  1  0.229900  0.031760  0.636940  1.0  0.3754
  C  C139  1  0.601240  0.592250  0.538720  1.0  -0.0979
  C  C140  1  0.650470  0.710190  0.572650  1.0  -0.0729
  C  C141  1  0.633480  0.609740  0.561490  1.0  -0.0189
  C  C142  1  0.627320  0.520120  0.526070  1.0  0.3713
  C  C143  1  0.650290  0.525910  0.572620  1.0  -0.0751
  C  C144  1  0.531480  0.634910  0.529730  1.0  0.3755
  C  C145  1  0.267910  0.925580  0.872050  1.0  -0.0979
  C  C146  1  0.317140  0.043520  0.905980  1.0  -0.0729
  C  C147  1  0.300150  0.943070  0.894820  1.0  -0.0189
  C  C148  1  0.293990  0.853450  0.859400  1.0  0.3713
  C  C149  1  0.316960  0.859240  0.905950  1.0  -0.0751
  C  C150  1  0.198150  0.968240  0.863060  1.0  0.3755
  C  C151  1  0.934570  0.258920  0.205390  1.0  -0.0979
  C  C152  1  0.983800  0.376860  0.239320  1.0  -0.0718
  C  C153  1  0.966810  0.276410  0.228160  1.0  -0.0185
  C  C154  1  0.960650  0.186790  0.192740  1.0  0.3713
  C  C155  1  0.983620  0.192580  0.239290  1.0  -0.075
  C  C156  1  0.864810  0.301580  0.196400  1.0  0.3755
  C  C157  1  0.991010  0.398760  0.538720  1.0  -0.0975
  C  C158  1  0.059720  0.349530  0.572650  1.0  -0.0725
  C  C159  1  0.976260  0.366520  0.561490  1.0  -0.0176
  C  C160  1  0.892800  0.372680  0.526070  1.0  0.3692
  C  C161  1  0.875620  0.349710  0.572620  1.0  -0.0772
  C  C162  1  0.103430  0.468520  0.529730  1.0  0.3751
  C  C163  1  0.657680  0.732090  0.872050  1.0  -0.0975
  C  C164  1  0.726390  0.682860  0.905980  1.0  -0.0725
  C  C165  1  0.642930  0.699850  0.894820  1.0  -0.0176
  C  C166  1  0.559470  0.706010  0.859400  1.0  0.3692
  C  C167  1  0.542290  0.683040  0.905950  1.0  -0.0772
  C  C168  1  0.770100  0.801850  0.863060  1.0  0.3751
  C  C169  1  0.324340  0.065430  0.205390  1.0  -0.0975
  C  C170  1  0.393050  0.016200  0.239320  1.0  -0.0723
  C  C171  1  0.309590  0.033190  0.228160  1.0  -0.0172
  C  C172  1  0.226130  0.039350  0.192740  1.0  0.3692
  C  C173  1  0.208950  0.016380  0.239290  1.0  -0.0776
  C  C174  1  0.436760  0.135190  0.196400  1.0  0.3751
  C  C175  1  0.407750  0.008990  0.538720  1.0  -0.0977
  C  C176  1  0.289810  0.940280  0.572650  1.0  -0.0707
  C  C177  1  0.390260  0.023740  0.561490  1.0  -0.0187
  C  C178  1  0.479880  0.107200  0.526070  1.0  0.3717
  C  C179  1  0.474090  0.124380  0.572620  1.0  -0.0775
  C  C180  1  0.365090  0.896570  0.529730  1.0  0.3756
  C  C181  1  0.074420  0.342320  0.872050  1.0  -0.0977
  C  C182  1  0.956480  0.273610  0.905980  1.0  -0.0707
  C  C183  1  0.056930  0.357070  0.894820  1.0  -0.0187
  C  C184  1  0.146550  0.440530  0.859400  1.0  0.3717
  C  C185  1  0.140760  0.457710  0.905950  1.0  -0.0775
  C  C186  1  0.031760  0.229900  0.863060  1.0  0.3756
  C  C187  1  0.741080  0.675660  0.205390  1.0  -0.0977
  C  C188  1  0.623140  0.606950  0.239320  1.0  -0.0701
  C  C189  1  0.723590  0.690410  0.228160  1.0  -0.0183
  C  C190  1  0.813210  0.773870  0.192740  1.0  0.3718
  C  C191  1  0.807420  0.791050  0.239290  1.0  -0.078
  C  C192  1  0.698420  0.563240  0.196400  1.0  0.3756
  C  C193  1  0.407750  0.398760  0.038720  1.0  -0.0972
  C  C194  1  0.289810  0.349530  0.072650  1.0  -0.0745
  C  C195  1  0.390260  0.366520  0.061490  1.0  -0.0178
  C  C196  1  0.479880  0.372680  0.026070  1.0  0.3714
  C  C197  1  0.474090  0.349710  0.072620  1.0  -0.0753
  C  C198  1  0.365090  0.468520  0.029730  1.0  0.3744
  C  C199  1  0.074420  0.732090  0.372050  1.0  -0.0972
  C  C200  1  0.956480  0.682860  0.405980  1.0  -0.0745
  C  C201  1  0.056930  0.699850  0.394820  1.0  -0.0178
  C  C202  1  0.146550  0.706010  0.359400  1.0  0.3714
  C  C203  1  0.140760  0.683040  0.405950  1.0  -0.0753
  C  C204  1  0.031760  0.801850  0.363060  1.0  0.3744
  C  C205  1  0.741080  0.065430  0.705390  1.0  -0.0972
  C  C206  1  0.623140  0.016200  0.739320  1.0  -0.0734
  C  C207  1  0.723590  0.033190  0.728160  1.0  -0.0174
  C  C208  1  0.813210  0.039350  0.692740  1.0  0.3715
  C  C209  1  0.807420  0.016380  0.739290  1.0  -0.0748
  C  C210  1  0.698420  0.135190  0.696400  1.0  0.3744
  C  C211  1  0.601240  0.008990  0.038720  1.0  -0.0977
  C  C212  1  0.650470  0.940280  0.072650  1.0  -0.0715
  C  C213  1  0.633480  0.023740  0.061490  1.0  -0.0184
  C  C214  1  0.627320  0.107200  0.026070  1.0  0.3715
  C  C215  1  0.650290  0.124380  0.072620  1.0  -0.0748
  C  C216  1  0.531480  0.896570  0.029730  1.0  0.3762
  C  C217  1  0.267910  0.342320  0.372050  1.0  -0.0977
  C  C218  1  0.317140  0.273610  0.405980  1.0  -0.0715
  C  C219  1  0.300150  0.357070  0.394820  1.0  -0.0184
  C  C220  1  0.293990  0.440530  0.359400  1.0  0.3715
  C  C221  1  0.316960  0.457710  0.405950  1.0  -0.0748
  C  C222  1  0.198150  0.229900  0.363060  1.0  0.3762
  C  C223  1  0.934570  0.675660  0.705390  1.0  -0.0977
  C  C224  1  0.983800  0.606950  0.739320  1.0  -0.0714
  C  C225  1  0.966810  0.690410  0.728160  1.0  -0.0179
  C  C226  1  0.960650  0.773870  0.692740  1.0  0.3715
  C  C227  1  0.983620  0.791050  0.739290  1.0  -0.0752
  C  C228  1  0.864810  0.563240  0.696400  1.0  0.3762
  C  C229  1  0.991010  0.592250  0.038720  1.0  -0.098
  C  C230  1  0.059720  0.710190  0.072650  1.0  -0.073
  C  C231  1  0.976260  0.609740  0.061490  1.0  -0.019
  C  C232  1  0.892800  0.520120  0.026070  1.0  0.3709
  C  C233  1  0.875620  0.525910  0.072620  1.0  -0.074
  C  C234  1  0.103430  0.634910  0.029730  1.0  0.3759
  C  C235  1  0.657680  0.925580  0.372050  1.0  -0.098
  C  C236  1  0.726390  0.043520  0.405980  1.0  -0.073
  C  C237  1  0.642930  0.943070  0.394820  1.0  -0.019
  C  C238  1  0.559470  0.853450  0.359400  1.0  0.3709
  C  C239  1  0.542290  0.859240  0.405950  1.0  -0.074
  C  C240  1  0.770100  0.968240  0.363060  1.0  0.3759
  C  C241  1  0.324340  0.258920  0.705390  1.0  -0.098
  C  C242  1  0.393050  0.376860  0.739320  1.0  -0.0722
  C  C243  1  0.309590  0.276410  0.728160  1.0  -0.0186
  C  C244  1  0.226130  0.186790  0.692740  1.0  0.3709
  C  C245  1  0.208950  0.192580  0.739290  1.0  -0.0747
  C  C246  1  0.436760  0.301580  0.696400  1.0  0.3759
  C  C247  1  0.398760  0.407750  0.461280  1.0  -0.0978
  C  C248  1  0.349530  0.289810  0.427350  1.0  -0.0725
  C  C249  1  0.366520  0.390260  0.438510  1.0  -0.0193
  C  C250  1  0.372680  0.479880  0.473930  1.0  0.371
  C  C251  1  0.349710  0.474090  0.427380  1.0  -0.0768
  C  C252  1  0.468520  0.365090  0.470270  1.0  0.3761
  C  C253  1  0.065430  0.741080  0.794610  1.0  -0.0978
  C  C254  1  0.016200  0.623140  0.760680  1.0  -0.0716
  C  C255  1  0.033190  0.723590  0.771840  1.0  -0.0187
  C  C256  1  0.039350  0.813210  0.807260  1.0  0.3711
  C  C257  1  0.016380  0.807420  0.760710  1.0  -0.0768
  C  C258  1  0.135190  0.698420  0.803600  1.0  0.3761
  C  C259  1  0.732090  0.074420  0.127950  1.0  -0.0978
  C  C260  1  0.682860  0.956480  0.094020  1.0  -0.0725
  C  C261  1  0.699850  0.056930  0.105180  1.0  -0.0193
  C  C262  1  0.706010  0.146550  0.140600  1.0  0.371
  C  C263  1  0.683040  0.140760  0.094050  1.0  -0.0768
  C  C264  1  0.801850  0.031760  0.136940  1.0  0.3761
  C  C265  1  0.008990  0.601240  0.461280  1.0  -0.0971
  C  C266  1  0.940280  0.650470  0.427350  1.0  -0.0721
  C  C267  1  0.023740  0.633480  0.438510  1.0  -0.0183
  C  C268  1  0.107200  0.627320  0.473930  1.0  0.3714
  C  C269  1  0.124380  0.650290  0.427380  1.0  -0.0773
  C  C270  1  0.896570  0.531480  0.470270  1.0  0.3739
  C  C271  1  0.675660  0.934570  0.794610  1.0  -0.0971
  C  C272  1  0.606950  0.983800  0.760680  1.0  -0.0723
  C  C273  1  0.690410  0.966810  0.771840  1.0  -0.0177
  C  C274  1  0.773870  0.960650  0.807260  1.0  0.3714
  C  C275  1  0.791050  0.983620  0.760710  1.0  -0.0774
  C  C276  1  0.563240  0.864810  0.803600  1.0  0.3739
  C  C277  1  0.342320  0.267910  0.127950  1.0  -0.0971
  C  C278  1  0.273610  0.317140  0.094020  1.0  -0.0721
  C  C279  1  0.357070  0.300150  0.105180  1.0  -0.0183
  C  C280  1  0.440530  0.293990  0.140600  1.0  0.3714
  C  C281  1  0.457710  0.316960  0.094050  1.0  -0.0773
  C  C282  1  0.229900  0.198150  0.136940  1.0  0.3739
  C  C283  1  0.592250  0.991010  0.461280  1.0  -0.0973
  C  C284  1  0.710190  0.059720  0.427350  1.0  -0.0716
  C  C285  1  0.609740  0.976260  0.438510  1.0  -0.0181
  C  C286  1  0.520120  0.892800  0.473930  1.0  0.3713
  C  C287  1  0.525910  0.875620  0.427380  1.0  -0.076
  C  C288  1  0.634910  0.103430  0.470270  1.0  0.3764
  C  C289  1  0.258920  0.324340  0.794610  1.0  -0.0973
  C  C290  1  0.376860  0.393050  0.760680  1.0  -0.0709
  C  C291  1  0.276410  0.309590  0.771840  1.0  -0.0176
  C  C292  1  0.186790  0.226130  0.807260  1.0  0.3714
  C  C293  1  0.192580  0.208950  0.760710  1.0  -0.0764
  C  C294  1  0.301580  0.436760  0.803600  1.0  0.3764
  C  C295  1  0.925580  0.657680  0.127950  1.0  -0.0973
  C  C296  1  0.043520  0.726390  0.094020  1.0  -0.0716
  C  C297  1  0.943070  0.642930  0.105180  1.0  -0.0181
  C  C298  1  0.853450  0.559470  0.140600  1.0  0.3713
  C  C299  1  0.859240  0.542290  0.094050  1.0  -0.076
  C  C300  1  0.968240  0.770100  0.136940  1.0  0.3764
  N  N301  1  0.459710  0.650060  0.984070  1.0  -0.4337
  N  N302  1  0.667170  0.471270  0.977800  1.0  -0.4939
  N  N303  1  0.126380  0.983390  0.317400  1.0  -0.4336
  N  N304  1  0.333840  0.804600  0.311130  1.0  -0.4939
  N  N305  1  0.793040  0.316730  0.650740  1.0  -0.4337
  N  N306  1  0.000500  0.137940  0.644470  1.0  -0.4939
  N  N307  1  0.349940  0.809650  0.984070  1.0  -0.4322
  N  N308  1  0.528730  0.195900  0.977800  1.0  -0.4959
  N  N309  1  0.016610  0.142980  0.317400  1.0  -0.4321
  N  N310  1  0.195400  0.529230  0.311130  1.0  -0.4959
  N  N311  1  0.683270  0.476320  0.650740  1.0  -0.4322
  N  N312  1  0.862060  0.862570  0.644470  1.0  -0.4959
  N  N313  1  0.190350  0.540290  0.984070  1.0  -0.4317
  N  N314  1  0.804100  0.332830  0.977800  1.0  -0.4957
  N  N315  1  0.857020  0.873620  0.317400  1.0  -0.4315
  N  N316  1  0.470770  0.666160  0.311130  1.0  -0.4957
  N  N317  1  0.523680  0.206960  0.650740  1.0  -0.4317
  N  N318  1  0.137430  0.999500  0.644470  1.0  -0.4957
  N  N319  1  0.650060  0.459710  0.515930  1.0  -0.4319
  N  N320  1  0.471270  0.667170  0.522200  1.0  -0.4953
  N  N321  1  0.316730  0.793040  0.849260  1.0  -0.4319
  N  N322  1  0.137940  0.000500  0.855530  1.0  -0.4953
  N  N323  1  0.983390  0.126380  0.182600  1.0  -0.4318
  N  N324  1  0.804600  0.333840  0.188870  1.0  -0.4953
  N  N325  1  0.809650  0.349940  0.515930  1.0  -0.432
  N  N326  1  0.195900  0.528730  0.522200  1.0  -0.4935
  N  N327  1  0.476320  0.683270  0.849260  1.0  -0.432
  N  N328  1  0.862570  0.862060  0.855530  1.0  -0.4935
  N  N329  1  0.142980  0.016610  0.182600  1.0  -0.4319
  N  N330  1  0.529230  0.195400  0.188870  1.0  -0.4935
  N  N331  1  0.540290  0.190350  0.515930  1.0  -0.4366
  N  N332  1  0.332830  0.804100  0.522200  1.0  -0.4963
  N  N333  1  0.206960  0.523680  0.849260  1.0  -0.4366
  N  N334  1  0.999500  0.137430  0.855530  1.0  -0.4963
  N  N335  1  0.873620  0.857020  0.182600  1.0  -0.4365
  N  N336  1  0.666160  0.470770  0.188870  1.0  -0.4963
  N  N337  1  0.540290  0.349940  0.015930  1.0  -0.4323
  N  N338  1  0.332830  0.528730  0.022200  1.0  -0.493
  N  N339  1  0.206960  0.683270  0.349260  1.0  -0.4323
  N  N340  1  0.999500  0.862060  0.355530  1.0  -0.493
  N  N341  1  0.873620  0.016610  0.682600  1.0  -0.4322
  N  N342  1  0.666160  0.195400  0.688870  1.0  -0.493
  N  N343  1  0.650060  0.190350  0.015930  1.0  -0.4342
  N  N344  1  0.471270  0.804100  0.022200  1.0  -0.4964
  N  N345  1  0.316730  0.523680  0.349260  1.0  -0.4342
  N  N346  1  0.137940  0.137430  0.355530  1.0  -0.4964
  N  N347  1  0.983390  0.857020  0.682600  1.0  -0.4341
  N  N348  1  0.804600  0.470770  0.688870  1.0  -0.4964
  N  N349  1  0.809650  0.459710  0.015930  1.0  -0.4302
  N  N350  1  0.195900  0.667170  0.022200  1.0  -0.4951
  N  N351  1  0.476320  0.793040  0.349260  1.0  -0.4302
  N  N352  1  0.862570  0.000500  0.355530  1.0  -0.4951
  N  N353  1  0.142980  0.126380  0.682600  1.0  -0.43
  N  N354  1  0.529230  0.333840  0.688870  1.0  -0.4951
  N  N355  1  0.349940  0.540290  0.484070  1.0  -0.4297
  N  N356  1  0.528730  0.332830  0.477800  1.0  -0.4949
  N  N357  1  0.016610  0.873620  0.817400  1.0  -0.4295
  N  N358  1  0.195400  0.666160  0.811130  1.0  -0.4949
  N  N359  1  0.683270  0.206960  0.150740  1.0  -0.4297
  N  N360  1  0.862060  0.999500  0.144470  1.0  -0.4949
  N  N361  1  0.190350  0.650060  0.484070  1.0  -0.4314
  N  N362  1  0.804100  0.471270  0.477800  1.0  -0.4939
  N  N363  1  0.857020  0.983390  0.817400  1.0  -0.4313
  N  N364  1  0.470770  0.804600  0.811130  1.0  -0.4939
  N  N365  1  0.523680  0.316730  0.150740  1.0  -0.4314
  N  N366  1  0.137430  0.137940  0.144470  1.0  -0.4939
  N  N367  1  0.459710  0.809650  0.484070  1.0  -0.4321
  N  N368  1  0.667170  0.195900  0.477800  1.0  -0.4958
  N  N369  1  0.126380  0.142980  0.817400  1.0  -0.432
  N  N370  1  0.333840  0.529230  0.811130  1.0  -0.4958
  N  N371  1  0.793040  0.476320  0.150740  1.0  -0.4321
  N  N372  1  0.000500  0.862570  0.144470  1.0  -0.4958
