# generated using pymatgen
data_NiH6(C3N)6
_symmetry_space_group_name_H-M   'P 1'
_cell_length_a   12.87170000
_cell_length_b   12.87170000
_cell_length_c   61.93100000
_cell_angle_alpha   90.00000000
_cell_angle_beta   90.00000000
_cell_angle_gamma   120.00000000
_symmetry_Int_Tables_number   1
_chemical_formula_structural   NiH6(C3N)6
_chemical_formula_sum   'Ni12 H72 C216 N72'
_cell_volume   8886.08662466
_cell_formula_units_Z   12
loop_
 _symmetry_equiv_pos_site_id
 _symmetry_equiv_pos_as_xyz
  1  'x, y, z'
loop_
 _atom_site_type_symbol
 _atom_site_label
 _atom_site_symmetry_multiplicity
 _atom_site_fract_x
 _atom_site_fract_y
 _atom_site_fract_z
 _atom_site_occupancy
 _atom_site_charge
  Ni  Ni1  1  0.333333  0.666667  0.003360  1.0  0.5596
  Ni  Ni2  1  0.000000  0.000000  0.336690  1.0  0.5595
  Ni  Ni3  1  0.666667  0.333333  0.670030  1.0  0.5599
  Ni  Ni4  1  0.666667  0.333333  0.496640  1.0  0.5604
  Ni  Ni5  1  0.333333  0.666667  0.829970  1.0  0.5603
  Ni  Ni6  1  0.000000  0.000000  0.163310  1.0  0.5607
  Ni  Ni7  1  0.666667  0.333333  0.996640  1.0  0.5604
  Ni  Ni8  1  0.333333  0.666667  0.329970  1.0  0.5603
  Ni  Ni9  1  0.000000  0.000000  0.663310  1.0  0.5607
  Ni  Ni10  1  0.333333  0.666667  0.503360  1.0  0.5596
  Ni  Ni11  1  0.000000  0.000000  0.836690  1.0  0.5595
  Ni  Ni12  1  0.666667  0.333333  0.170030  1.0  0.5599
  H  H13  1  0.230700  0.870200  0.065400  1.0  0.1352
  H  H14  1  0.544400  0.186800  0.065800  1.0  0.1189
  H  H15  1  0.897370  0.203530  0.398730  1.0  0.1352
  H  H16  1  0.211070  0.520130  0.399130  1.0  0.1189
  H  H17  1  0.564030  0.536870  0.732070  1.0  0.136
  H  H18  1  0.877730  0.853470  0.732470  1.0  0.1115
  H  H19  1  0.129800  0.360500  0.065400  1.0  0.1328
  H  H20  1  0.813200  0.357600  0.065800  1.0  0.1189
  H  H21  1  0.796470  0.693830  0.398730  1.0  0.1328
  H  H22  1  0.479870  0.690930  0.399130  1.0  0.1189
  H  H23  1  0.463130  0.027170  0.732070  1.0  0.1342
  H  H24  1  0.146530  0.024270  0.732470  1.0  0.1143
  H  H25  1  0.639500  0.769300  0.065400  1.0  0.1361
  H  H26  1  0.642400  0.455600  0.065800  1.0  0.1186
  H  H27  1  0.306170  0.102630  0.398730  1.0  0.1361
  H  H28  1  0.309070  0.788930  0.399130  1.0  0.1186
  H  H29  1  0.972830  0.435970  0.732070  1.0  0.1367
  H  H30  1  0.975730  0.122270  0.732470  1.0  0.1176
  H  H31  1  0.870200  0.230700  0.434600  1.0  0.1355
  H  H32  1  0.186800  0.544400  0.434200  1.0  0.118
  H  H33  1  0.536870  0.564030  0.767930  1.0  0.1362
  H  H34  1  0.853470  0.877730  0.767530  1.0  0.1104
  H  H35  1  0.203530  0.897370  0.101270  1.0  0.1355
  H  H36  1  0.520130  0.211070  0.100870  1.0  0.118
  H  H37  1  0.360500  0.129800  0.434600  1.0  0.1334
  H  H38  1  0.357600  0.813200  0.434200  1.0  0.1181
  H  H39  1  0.027170  0.463130  0.767930  1.0  0.135
  H  H40  1  0.024270  0.146530  0.767530  1.0  0.1131
  H  H41  1  0.693830  0.796470  0.101270  1.0  0.1334
  H  H42  1  0.690930  0.479870  0.100870  1.0  0.1181
  H  H43  1  0.769300  0.639500  0.434600  1.0  0.1349
  H  H44  1  0.455600  0.642400  0.434200  1.0  0.1194
  H  H45  1  0.435970  0.972830  0.767930  1.0  0.1354
  H  H46  1  0.122270  0.975730  0.767530  1.0  0.1185
  H  H47  1  0.102630  0.306170  0.101270  1.0  0.1349
  H  H48  1  0.788930  0.309070  0.100870  1.0  0.1194
  H  H49  1  0.769300  0.129800  0.934600  1.0  0.1354
  H  H50  1  0.455600  0.813200  0.934200  1.0  0.1186
  H  H51  1  0.435970  0.463130  0.267930  1.0  0.136
  H  H52  1  0.122270  0.146530  0.267530  1.0  0.1114
  H  H53  1  0.102630  0.796470  0.601270  1.0  0.1354
  H  H54  1  0.788930  0.479870  0.600870  1.0  0.1186
  H  H55  1  0.870200  0.639500  0.934600  1.0  0.1329
  H  H56  1  0.186800  0.642400  0.934200  1.0  0.1182
  H  H57  1  0.536870  0.972830  0.267930  1.0  0.1347
  H  H58  1  0.853470  0.975730  0.267530  1.0  0.1134
  H  H59  1  0.203530  0.306170  0.601270  1.0  0.1329
  H  H60  1  0.520130  0.309070  0.600870  1.0  0.1182
  H  H61  1  0.360500  0.230700  0.934600  1.0  0.1356
  H  H62  1  0.357600  0.544400  0.934200  1.0  0.118
  H  H63  1  0.027170  0.564030  0.267930  1.0  0.1361
  H  H64  1  0.024270  0.877730  0.267530  1.0  0.1173
  H  H65  1  0.693830  0.897370  0.601270  1.0  0.1356
  H  H66  1  0.690930  0.211070  0.600870  1.0  0.118
  H  H67  1  0.129800  0.769300  0.565400  1.0  0.1359
  H  H68  1  0.813200  0.455600  0.565800  1.0  0.1181
  H  H69  1  0.796470  0.102630  0.898730  1.0  0.1359
  H  H70  1  0.479870  0.788930  0.899130  1.0  0.1181
  H  H71  1  0.463130  0.435970  0.232070  1.0  0.1367
  H  H72  1  0.146530  0.122270  0.232470  1.0  0.1111
  H  H73  1  0.639500  0.870200  0.565400  1.0  0.1332
  H  H74  1  0.642400  0.186800  0.565800  1.0  0.1182
  H  H75  1  0.306170  0.203530  0.898730  1.0  0.1332
  H  H76  1  0.309070  0.520130  0.899130  1.0  0.1182
  H  H77  1  0.972830  0.536870  0.232070  1.0  0.1347
  H  H78  1  0.975730  0.853470  0.232470  1.0  0.1135
  H  H79  1  0.230700  0.360500  0.565400  1.0  0.1357
  H  H80  1  0.544400  0.357600  0.565800  1.0  0.1191
  H  H81  1  0.897370  0.693830  0.898730  1.0  0.1357
  H  H82  1  0.211070  0.690930  0.899130  1.0  0.1191
  H  H83  1  0.564030  0.027170  0.232070  1.0  0.1361
  H  H84  1  0.877730  0.024270  0.232470  1.0  0.1181
  C  C85  1  0.365890  0.895490  0.029150  1.0  0.3374
  C  C86  1  0.480260  0.109490  0.025620  1.0  0.362
  C  C87  1  0.407350  0.009030  0.038240  1.0  -0.0943
  C  C88  1  0.389770  0.023750  0.061160  1.0  0.0323
  C  C89  1  0.288370  0.938820  0.072530  1.0  -0.0661
  C  C90  1  0.474700  0.125150  0.072540  1.0  -0.0963
  C  C91  1  0.032560  0.228820  0.362480  1.0  0.3374
  C  C92  1  0.146930  0.442820  0.358950  1.0  0.362
  C  C93  1  0.074020  0.342360  0.371570  1.0  -0.0943
  C  C94  1  0.056440  0.357080  0.394490  1.0  0.0323
  C  C95  1  0.955040  0.272150  0.405860  1.0  -0.0661
  C  C96  1  0.141370  0.458480  0.405870  1.0  -0.0963
  C  C97  1  0.699220  0.562160  0.695820  1.0  0.3374
  C  C98  1  0.813590  0.776160  0.692290  1.0  0.3618
  C  C99  1  0.740680  0.675700  0.704910  1.0  -0.0943
  C  C100  1  0.723100  0.690420  0.727830  1.0  0.0322
  C  C101  1  0.621700  0.605490  0.739200  1.0  -0.0658
  C  C102  1  0.808030  0.791820  0.739210  1.0  -0.0961
  C  C103  1  0.104510  0.470400  0.029150  1.0  0.337
  C  C104  1  0.890510  0.370770  0.025620  1.0  0.3632
  C  C105  1  0.990970  0.398320  0.038240  1.0  -0.0945
  C  C106  1  0.976250  0.366020  0.061160  1.0  0.0328
  C  C107  1  0.061180  0.349550  0.072530  1.0  -0.0658
  C  C108  1  0.874850  0.349550  0.072540  1.0  -0.0938
  C  C109  1  0.771180  0.803730  0.362480  1.0  0.337
  C  C110  1  0.557180  0.704100  0.358950  1.0  0.3632
  C  C111  1  0.657640  0.731650  0.371570  1.0  -0.0945
  C  C112  1  0.642920  0.699350  0.394490  1.0  0.0328
  C  C113  1  0.727850  0.682880  0.405860  1.0  -0.0658
  C  C114  1  0.541520  0.682880  0.405870  1.0  -0.0938
  C  C115  1  0.437840  0.137070  0.695820  1.0  0.337
  C  C116  1  0.223840  0.037440  0.692290  1.0  0.3632
  C  C117  1  0.324300  0.064990  0.704910  1.0  -0.0945
  C  C118  1  0.309580  0.032690  0.727830  1.0  0.0327
  C  C119  1  0.394510  0.016220  0.739200  1.0  -0.0645
  C  C120  1  0.208180  0.016220  0.739210  1.0  -0.0945
  C  C121  1  0.529600  0.634110  0.029150  1.0  0.3366
  C  C122  1  0.629230  0.519740  0.025620  1.0  0.364
  C  C123  1  0.601680  0.592650  0.038240  1.0  -0.0952
  C  C124  1  0.633980  0.610230  0.061160  1.0  0.0325
  C  C125  1  0.650450  0.711630  0.072530  1.0  -0.0643
  C  C126  1  0.650450  0.525300  0.072540  1.0  -0.0959
  C  C127  1  0.196270  0.967440  0.362480  1.0  0.3366
  C  C128  1  0.295900  0.853070  0.358950  1.0  0.364
  C  C129  1  0.268350  0.925980  0.371570  1.0  -0.0952
  C  C130  1  0.300650  0.943560  0.394490  1.0  0.0325
  C  C131  1  0.317120  0.044960  0.405860  1.0  -0.0643
  C  C132  1  0.317120  0.858630  0.405870  1.0  -0.0959
  C  C133  1  0.862930  0.300780  0.695820  1.0  0.3366
  C  C134  1  0.962560  0.186410  0.692290  1.0  0.3641
  C  C135  1  0.935010  0.259320  0.704910  1.0  -0.0952
  C  C136  1  0.967310  0.276900  0.727830  1.0  0.0324
  C  C137  1  0.983780  0.378300  0.739200  1.0  -0.0648
  C  C138  1  0.983780  0.191970  0.739210  1.0  -0.0943
  C  C139  1  0.895490  0.365890  0.470850  1.0  0.3369
  C  C140  1  0.109490  0.480260  0.474380  1.0  0.3619
  C  C141  1  0.009030  0.407350  0.461760  1.0  -0.0947
  C  C142  1  0.023750  0.389770  0.438840  1.0  0.0324
  C  C143  1  0.938820  0.288370  0.427470  1.0  -0.0649
  C  C144  1  0.125150  0.474700  0.427460  1.0  -0.0954
  C  C145  1  0.562160  0.699220  0.804180  1.0  0.3369
  C  C146  1  0.776160  0.813590  0.807710  1.0  0.3625
  C  C147  1  0.675700  0.740680  0.795090  1.0  -0.0947
  C  C148  1  0.690420  0.723100  0.772170  1.0  0.0323
  C  C149  1  0.605490  0.621700  0.760800  1.0  -0.0651
  C  C150  1  0.791820  0.808030  0.760790  1.0  -0.0945
  C  C151  1  0.228820  0.032560  0.137520  1.0  0.3369
  C  C152  1  0.442820  0.146930  0.141050  1.0  0.3619
  C  C153  1  0.342360  0.074020  0.128430  1.0  -0.0947
  C  C154  1  0.357080  0.056440  0.105510  1.0  0.0324
  C  C155  1  0.272150  0.955040  0.094140  1.0  -0.0649
  C  C156  1  0.458480  0.141370  0.094130  1.0  -0.0954
  C  C157  1  0.470400  0.104510  0.470850  1.0  0.338
  C  C158  1  0.370770  0.890510  0.474380  1.0  0.3619
  C  C159  1  0.398320  0.990970  0.461760  1.0  -0.0933
  C  C160  1  0.366020  0.976250  0.438840  1.0  0.0322
  C  C161  1  0.349550  0.061180  0.427470  1.0  -0.0655
  C  C162  1  0.349550  0.874850  0.427460  1.0  -0.0921
  C  C163  1  0.137070  0.437840  0.804180  1.0  0.338
  C  C164  1  0.037440  0.223840  0.807710  1.0  0.3619
  C  C165  1  0.064990  0.324300  0.795090  1.0  -0.0933
  C  C166  1  0.032690  0.309580  0.772170  1.0  0.0321
  C  C167  1  0.016220  0.394510  0.760800  1.0  -0.0644
  C  C168  1  0.016220  0.208180  0.760790  1.0  -0.0922
  C  C169  1  0.803730  0.771180  0.137520  1.0  0.338
  C  C170  1  0.704100  0.557180  0.141050  1.0  0.3619
  C  C171  1  0.731650  0.657640  0.128430  1.0  -0.0933
  C  C172  1  0.699350  0.642920  0.105510  1.0  0.0322
  C  C173  1  0.682880  0.727850  0.094140  1.0  -0.0655
  C  C174  1  0.682880  0.541520  0.094130  1.0  -0.0921
  C  C175  1  0.634110  0.529600  0.470850  1.0  0.3377
  C  C176  1  0.519740  0.629230  0.474380  1.0  0.362
  C  C177  1  0.592650  0.601680  0.461760  1.0  -0.0934
  C  C178  1  0.610230  0.633980  0.438840  1.0  0.0326
  C  C179  1  0.711630  0.650450  0.427470  1.0  -0.0632
  C  C180  1  0.525300  0.650450  0.427460  1.0  -0.095
  C  C181  1  0.300780  0.862930  0.804180  1.0  0.3377
  C  C182  1  0.186410  0.962560  0.807710  1.0  0.3617
  C  C183  1  0.259320  0.935010  0.795090  1.0  -0.0934
  C  C184  1  0.276900  0.967310  0.772170  1.0  0.0325
  C  C185  1  0.378300  0.983780  0.760800  1.0  -0.0647
  C  C186  1  0.191970  0.983780  0.760790  1.0  -0.0931
  C  C187  1  0.967440  0.196270  0.137520  1.0  0.3377
  C  C188  1  0.853070  0.295900  0.141050  1.0  0.362
  C  C189  1  0.925980  0.268350  0.128430  1.0  -0.0934
  C  C190  1  0.943560  0.300650  0.105510  1.0  0.0326
  C  C191  1  0.044960  0.317120  0.094140  1.0  -0.0632
  C  C192  1  0.858630  0.317120  0.094130  1.0  -0.095
  C  C193  1  0.634110  0.104510  0.970850  1.0  0.3389
  C  C194  1  0.519740  0.890510  0.974380  1.0  0.3636
  C  C195  1  0.592650  0.990970  0.961760  1.0  -0.0936
  C  C196  1  0.610230  0.976250  0.938840  1.0  0.0325
  C  C197  1  0.711630  0.061180  0.927470  1.0  -0.0659
  C  C198  1  0.525300  0.874850  0.927460  1.0  -0.0935
  C  C199  1  0.300780  0.437840  0.304180  1.0  0.3389
  C  C200  1  0.186410  0.223840  0.307710  1.0  0.3633
  C  C201  1  0.259320  0.324300  0.295090  1.0  -0.0936
  C  C202  1  0.276900  0.309580  0.272170  1.0  0.0324
  C  C203  1  0.378300  0.394510  0.260800  1.0  -0.066
  C  C204  1  0.191970  0.208180  0.260790  1.0  -0.0924
  C  C205  1  0.967440  0.771180  0.637520  1.0  0.3389
  C  C206  1  0.853070  0.557180  0.641050  1.0  0.3633
  C  C207  1  0.925980  0.657640  0.628430  1.0  -0.0936
  C  C208  1  0.943560  0.642920  0.605510  1.0  0.0325
  C  C209  1  0.044960  0.727850  0.594140  1.0  -0.0659
  C  C210  1  0.858630  0.541520  0.594130  1.0  -0.0935
  C  C211  1  0.895490  0.529600  0.970850  1.0  0.3367
  C  C212  1  0.109490  0.629230  0.974380  1.0  0.3626
  C  C213  1  0.009030  0.601680  0.961760  1.0  -0.0933
  C  C214  1  0.023750  0.633980  0.938840  1.0  0.0326
  C  C215  1  0.938820  0.650450  0.927470  1.0  -0.0662
  C  C216  1  0.125150  0.650450  0.927460  1.0  -0.0933
  C  C217  1  0.562160  0.862930  0.304180  1.0  0.3367
  C  C218  1  0.776160  0.962560  0.307710  1.0  0.3626
  C  C219  1  0.675700  0.935010  0.295090  1.0  -0.0933
  C  C220  1  0.690420  0.967310  0.272170  1.0  0.0325
  C  C221  1  0.605490  0.983780  0.260800  1.0  -0.0656
  C  C222  1  0.791820  0.983780  0.260790  1.0  -0.0932
  C  C223  1  0.228820  0.196270  0.637520  1.0  0.3367
  C  C224  1  0.442820  0.295900  0.641050  1.0  0.3627
  C  C225  1  0.342360  0.268350  0.628430  1.0  -0.0933
  C  C226  1  0.357080  0.300650  0.605510  1.0  0.0326
  C  C227  1  0.272150  0.317120  0.594140  1.0  -0.0667
  C  C228  1  0.458480  0.317120  0.594130  1.0  -0.0928
  C  C229  1  0.470400  0.365890  0.970850  1.0  0.3381
  C  C230  1  0.370770  0.480260  0.974380  1.0  0.3623
  C  C231  1  0.398320  0.407350  0.961760  1.0  -0.0947
  C  C232  1  0.366020  0.389770  0.938840  1.0  0.0318
  C  C233  1  0.349550  0.288370  0.927470  1.0  -0.0633
  C  C234  1  0.349550  0.474700  0.927460  1.0  -0.0941
  C  C235  1  0.137070  0.699220  0.304180  1.0  0.3381
  C  C236  1  0.037440  0.813590  0.307710  1.0  0.3623
  C  C237  1  0.064990  0.740680  0.295090  1.0  -0.0947
  C  C238  1  0.032690  0.723100  0.272170  1.0  0.0316
  C  C239  1  0.016220  0.621700  0.260800  1.0  -0.065
  C  C240  1  0.016220  0.808030  0.260790  1.0  -0.0929
  C  C241  1  0.803730  0.032560  0.637520  1.0  0.3381
  C  C242  1  0.704100  0.146930  0.641050  1.0  0.3621
  C  C243  1  0.731650  0.074020  0.628430  1.0  -0.0947
  C  C244  1  0.699350  0.056440  0.605510  1.0  0.0318
  C  C245  1  0.682880  0.955040  0.594140  1.0  -0.0633
  C  C246  1  0.682880  0.141370  0.594130  1.0  -0.0951
  C  C247  1  0.104510  0.634110  0.529150  1.0  0.3374
  C  C248  1  0.890510  0.519740  0.525620  1.0  0.3638
  C  C249  1  0.990970  0.592650  0.538240  1.0  -0.0953
  C  C250  1  0.976250  0.610230  0.561160  1.0  0.0315
  C  C251  1  0.061180  0.711630  0.572530  1.0  -0.0661
  C  C252  1  0.874850  0.525300  0.572540  1.0  -0.0965
  C  C253  1  0.771180  0.967440  0.862480  1.0  0.3374
  C  C254  1  0.557180  0.853070  0.858950  1.0  0.3638
  C  C255  1  0.657640  0.925980  0.871570  1.0  -0.0953
  C  C256  1  0.642920  0.943560  0.894490  1.0  0.0315
  C  C257  1  0.727850  0.044960  0.905860  1.0  -0.0661
  C  C258  1  0.541520  0.858630  0.905870  1.0  -0.0965
  C  C259  1  0.437840  0.300780  0.195820  1.0  0.3374
  C  C260  1  0.223840  0.186410  0.192290  1.0  0.3638
  C  C261  1  0.324300  0.259320  0.204910  1.0  -0.0953
  C  C262  1  0.309580  0.276900  0.227830  1.0  0.0314
  C  C263  1  0.394510  0.378300  0.239200  1.0  -0.066
  C  C264  1  0.208180  0.191970  0.239210  1.0  -0.0952
  C  C265  1  0.529600  0.895490  0.529150  1.0  0.3384
  C  C266  1  0.629230  0.109490  0.525620  1.0  0.3642
  C  C267  1  0.601680  0.009030  0.538240  1.0  -0.0949
  C  C268  1  0.633980  0.023750  0.561160  1.0  0.0324
  C  C269  1  0.650450  0.938820  0.572530  1.0  -0.0654
  C  C270  1  0.650450  0.125150  0.572540  1.0  -0.0937
  C  C271  1  0.196270  0.228820  0.862480  1.0  0.3384
  C  C272  1  0.295900  0.442820  0.858950  1.0  0.3642
  C  C273  1  0.268350  0.342360  0.871570  1.0  -0.0949
  C  C274  1  0.300650  0.357080  0.894490  1.0  0.0324
  C  C275  1  0.317120  0.272150  0.905860  1.0  -0.0654
  C  C276  1  0.317120  0.458480  0.905870  1.0  -0.094
  C  C277  1  0.862930  0.562160  0.195820  1.0  0.3384
  C  C278  1  0.962560  0.776160  0.192290  1.0  0.3638
  C  C279  1  0.935010  0.675700  0.204910  1.0  -0.0949
  C  C280  1  0.967310  0.690420  0.227830  1.0  0.0323
  C  C281  1  0.983780  0.605490  0.239200  1.0  -0.064
  C  C282  1  0.983780  0.791820  0.239210  1.0  -0.0941
  C  C283  1  0.365890  0.470400  0.529150  1.0  0.3364
  C  C284  1  0.480260  0.370770  0.525620  1.0  0.3624
  C  C285  1  0.407350  0.398320  0.538240  1.0  -0.0942
  C  C286  1  0.389770  0.366020  0.561160  1.0  0.0329
  C  C287  1  0.288370  0.349550  0.572530  1.0  -0.0663
  C  C288  1  0.474700  0.349550  0.572540  1.0  -0.0967
  C  C289  1  0.032560  0.803730  0.862480  1.0  0.3364
  C  C290  1  0.146930  0.704100  0.858950  1.0  0.3624
  C  C291  1  0.074020  0.731650  0.871570  1.0  -0.0942
  C  C292  1  0.056440  0.699350  0.894490  1.0  0.0329
  C  C293  1  0.955040  0.682880  0.905860  1.0  -0.0663
  C  C294  1  0.141370  0.682880  0.905870  1.0  -0.0959
  C  C295  1  0.699220  0.137070  0.195820  1.0  0.3364
  C  C296  1  0.813590  0.037440  0.192290  1.0  0.3639
  C  C297  1  0.740680  0.064990  0.204910  1.0  -0.0942
  C  C298  1  0.723100  0.032690  0.227830  1.0  0.0329
  C  C299  1  0.621700  0.016220  0.239200  1.0  -0.0674
  C  C300  1  0.808030  0.016220  0.239210  1.0  -0.0956
  N  N301  1  0.334020  0.801580  0.021720  1.0  -0.4905
  N  N302  1  0.540830  0.194820  0.015680  1.0  -0.4289
  N  N303  1  0.000690  0.134910  0.355050  1.0  -0.4905
  N  N304  1  0.207500  0.528150  0.349010  1.0  -0.4289
  N  N305  1  0.667350  0.468250  0.688390  1.0  -0.4905
  N  N306  1  0.874160  0.861490  0.682350  1.0  -0.4289
  N  N307  1  0.198420  0.532440  0.021720  1.0  -0.4887
  N  N308  1  0.805180  0.346010  0.015680  1.0  -0.4264
  N  N309  1  0.865090  0.865770  0.355050  1.0  -0.489
  N  N310  1  0.471850  0.679340  0.349010  1.0  -0.426
  N  N311  1  0.531750  0.199110  0.688390  1.0  -0.4904
  N  N312  1  0.138510  0.012680  0.682350  1.0  -0.4262
  N  N313  1  0.467560  0.665980  0.021720  1.0  -0.4889
  N  N314  1  0.653990  0.459170  0.015680  1.0  -0.4249
  N  N315  1  0.134230  0.999310  0.355050  1.0  -0.4887
  N  N316  1  0.320660  0.792500  0.349010  1.0  -0.4249
  N  N317  1  0.800890  0.332650  0.688390  1.0  -0.4887
  N  N318  1  0.987320  0.125840  0.682350  1.0  -0.4246
  N  N319  1  0.801580  0.334020  0.478280  1.0  -0.4887
  N  N320  1  0.194820  0.540830  0.484320  1.0  -0.4268
  N  N321  1  0.468250  0.667350  0.811610  1.0  -0.4887
  N  N322  1  0.861490  0.874160  0.817650  1.0  -0.4265
  N  N323  1  0.134910  0.000690  0.144950  1.0  -0.4887
  N  N324  1  0.528150  0.207500  0.150990  1.0  -0.4268
  N  N325  1  0.532440  0.198420  0.478280  1.0  -0.4913
  N  N326  1  0.346010  0.805180  0.484320  1.0  -0.4302
  N  N327  1  0.199110  0.531750  0.811610  1.0  -0.4918
  N  N328  1  0.012680  0.138510  0.817650  1.0  -0.4298
  N  N329  1  0.865770  0.865090  0.144950  1.0  -0.4921
  N  N330  1  0.679340  0.471850  0.150990  1.0  -0.4298
  N  N331  1  0.665980  0.467560  0.478280  1.0  -0.49
  N  N332  1  0.459170  0.653990  0.484320  1.0  -0.4306
  N  N333  1  0.332650  0.800890  0.811610  1.0  -0.49
  N  N334  1  0.125840  0.987320  0.817650  1.0  -0.4303
  N  N335  1  0.999310  0.134230  0.144950  1.0  -0.49
  N  N336  1  0.792500  0.320660  0.150990  1.0  -0.4306
  N  N337  1  0.665980  0.198420  0.978280  1.0  -0.4897
  N  N338  1  0.459170  0.805180  0.984320  1.0  -0.4299
  N  N339  1  0.332650  0.531750  0.311610  1.0  -0.4912
  N  N340  1  0.125840  0.138510  0.317650  1.0  -0.4298
  N  N341  1  0.999310  0.865090  0.644950  1.0  -0.4906
  N  N342  1  0.792500  0.471850  0.650990  1.0  -0.4299
  N  N343  1  0.801580  0.467560  0.978280  1.0  -0.4882
  N  N344  1  0.194820  0.653990  0.984320  1.0  -0.4281
  N  N345  1  0.468250  0.800890  0.311610  1.0  -0.4879
  N  N346  1  0.861490  0.987320  0.317650  1.0  -0.4288
  N  N347  1  0.134910  0.134230  0.644950  1.0  -0.4882
  N  N348  1  0.528150  0.320660  0.650990  1.0  -0.4285
  N  N349  1  0.532440  0.334020  0.978280  1.0  -0.4902
  N  N350  1  0.346010  0.540830  0.984320  1.0  -0.4264
  N  N351  1  0.199110  0.667350  0.311610  1.0  -0.4899
  N  N352  1  0.012680  0.874160  0.317650  1.0  -0.4263
  N  N353  1  0.865770  0.000690  0.644950  1.0  -0.4883
  N  N354  1  0.679340  0.207500  0.650990  1.0  -0.4289
  N  N355  1  0.198420  0.665980  0.521720  1.0  -0.4909
  N  N356  1  0.805180  0.459170  0.515680  1.0  -0.4242
  N  N357  1  0.865090  0.999310  0.855050  1.0  -0.4922
  N  N358  1  0.471850  0.792500  0.849010  1.0  -0.4242
  N  N359  1  0.531750  0.332650  0.188390  1.0  -0.4922
  N  N360  1  0.138510  0.125840  0.182350  1.0  -0.4242
  N  N361  1  0.467560  0.801580  0.521720  1.0  -0.4905
  N  N362  1  0.653990  0.194820  0.515680  1.0  -0.4279
  N  N363  1  0.134230  0.134910  0.855050  1.0  -0.4905
  N  N364  1  0.320660  0.528150  0.849010  1.0  -0.4276
  N  N365  1  0.800890  0.468250  0.188390  1.0  -0.4902
  N  N366  1  0.987320  0.861490  0.182350  1.0  -0.4279
  N  N367  1  0.334020  0.532440  0.521720  1.0  -0.4881
  N  N368  1  0.540830  0.346010  0.515680  1.0  -0.4267
  N  N369  1  0.000690  0.865770  0.855050  1.0  -0.4881
  N  N370  1  0.207500  0.679340  0.849010  1.0  -0.4267
  N  N371  1  0.667350  0.199110  0.188390  1.0  -0.4881
  N  N372  1  0.874160  0.012680  0.182350  1.0  -0.4264
