# generated using pymatgen
data_CoH6(C3N)6
_symmetry_space_group_name_H-M   'P 1'
_cell_length_a   12.90210000
_cell_length_b   12.90210000
_cell_length_c   62.40700000
_cell_angle_alpha   90.00000000
_cell_angle_beta   90.00000000
_cell_angle_gamma   120.00000000
_symmetry_Int_Tables_number   1
_chemical_formula_structural   CoH6(C3N)6
_chemical_formula_sum   'Co12 H72 C216 N72'
_cell_volume   8996.73119669
_cell_formula_units_Z   12
loop_
 _symmetry_equiv_pos_site_id
 _symmetry_equiv_pos_as_xyz
  1  'x, y, z'
loop_
 _atom_site_type_symbol
 _atom_site_label
 _atom_site_symmetry_multiplicity
 _atom_site_fract_x
 _atom_site_fract_y
 _atom_site_fract_z
 _atom_site_occupancy
 _atom_site_charge
  Co  Co1  1  0.333333  0.666667  0.003470  1.0  0.7716
  Co  Co2  1  0.000000  0.000000  0.336800  1.0  0.7717
  Co  Co3  1  0.666667  0.333333  0.670140  1.0  0.7717
  Co  Co4  1  0.666667  0.333333  0.496530  1.0  0.7736
  Co  Co5  1  0.333333  0.666667  0.829860  1.0  0.7737
  Co  Co6  1  0.000000  0.000000  0.163200  1.0  0.7737
  Co  Co7  1  0.666667  0.333333  0.996530  1.0  0.7736
  Co  Co8  1  0.333333  0.666667  0.329860  1.0  0.7737
  Co  Co9  1  0.000000  0.000000  0.663200  1.0  0.7737
  Co  Co10  1  0.333333  0.666667  0.503470  1.0  0.7716
  Co  Co11  1  0.000000  0.000000  0.836800  1.0  0.7717
  Co  Co12  1  0.666667  0.333333  0.170140  1.0  0.7717
  H  H13  1  0.130100  0.360100  0.065400  1.0  0.1108
  H  H14  1  0.816300  0.361200  0.065500  1.0  0.1001
  H  H15  1  0.796770  0.693430  0.398730  1.0  0.1108
  H  H16  1  0.482970  0.694530  0.398830  1.0  0.1001
  H  H17  1  0.463430  0.026770  0.732070  1.0  0.1107
  H  H18  1  0.149630  0.027870  0.732170  1.0  0.1004
  H  H19  1  0.639900  0.770000  0.065400  1.0  0.1116
  H  H20  1  0.638800  0.455100  0.065500  1.0  0.0984
  H  H21  1  0.306570  0.103330  0.398730  1.0  0.1116
  H  H22  1  0.305470  0.788430  0.398830  1.0  0.0984
  H  H23  1  0.973230  0.436670  0.732070  1.0  0.1118
  H  H24  1  0.972130  0.121770  0.732170  1.0  0.0991
  H  H25  1  0.230000  0.869900  0.065400  1.0  0.1106
  H  H26  1  0.544900  0.183700  0.065500  1.0  0.1001
  H  H27  1  0.896670  0.203230  0.398730  1.0  0.1106
  H  H28  1  0.211570  0.517030  0.398830  1.0  0.1001
  H  H29  1  0.563330  0.536570  0.732070  1.0  0.1106
  H  H30  1  0.878230  0.850370  0.732170  1.0  0.0977
  H  H31  1  0.360100  0.130100  0.434600  1.0  0.111
  H  H32  1  0.361200  0.816300  0.434500  1.0  0.0994
  H  H33  1  0.026770  0.463430  0.767930  1.0  0.1108
  H  H34  1  0.027870  0.149630  0.767830  1.0  0.0996
  H  H35  1  0.693430  0.796770  0.101270  1.0  0.111
  H  H36  1  0.694530  0.482970  0.101170  1.0  0.0994
  H  H37  1  0.770000  0.639900  0.434600  1.0  0.1103
  H  H38  1  0.455100  0.638800  0.434500  1.0  0.0984
  H  H39  1  0.436670  0.973230  0.767930  1.0  0.1104
  H  H40  1  0.121770  0.972130  0.767830  1.0  0.0993
  H  H41  1  0.103330  0.306570  0.101270  1.0  0.1103
  H  H42  1  0.788430  0.305470  0.101170  1.0  0.0984
  H  H43  1  0.869900  0.230000  0.434600  1.0  0.1112
  H  H44  1  0.183700  0.544900  0.434500  1.0  0.0994
  H  H45  1  0.536570  0.563330  0.767930  1.0  0.1114
  H  H46  1  0.850370  0.878230  0.767830  1.0  0.0972
  H  H47  1  0.203230  0.896670  0.101270  1.0  0.1112
  H  H48  1  0.517030  0.211570  0.101170  1.0  0.0994
  H  H49  1  0.869900  0.639900  0.934600  1.0  0.1107
  H  H50  1  0.183700  0.638800  0.934500  1.0  0.1001
  H  H51  1  0.536570  0.973230  0.267930  1.0  0.1109
  H  H52  1  0.850370  0.972130  0.267830  1.0  0.1002
  H  H53  1  0.203230  0.306570  0.601270  1.0  0.1107
  H  H54  1  0.517030  0.305470  0.601170  1.0  0.1001
  H  H55  1  0.360100  0.230000  0.934600  1.0  0.1114
  H  H56  1  0.361200  0.544900  0.934500  1.0  0.0982
  H  H57  1  0.026770  0.563330  0.267930  1.0  0.1113
  H  H58  1  0.027870  0.878230  0.267830  1.0  0.0988
  H  H59  1  0.693430  0.896670  0.601270  1.0  0.1114
  H  H60  1  0.694530  0.211570  0.601170  1.0  0.0982
  H  H61  1  0.770000  0.130100  0.934600  1.0  0.1105
  H  H62  1  0.455100  0.816300  0.934500  1.0  0.0998
  H  H63  1  0.436670  0.463430  0.267930  1.0  0.1106
  H  H64  1  0.121770  0.149630  0.267830  1.0  0.0975
  H  H65  1  0.103330  0.796770  0.601270  1.0  0.1105
  H  H66  1  0.788430  0.482970  0.601170  1.0  0.0998
  H  H67  1  0.639900  0.869900  0.565400  1.0  0.1112
  H  H68  1  0.638800  0.183700  0.565500  1.0  0.0998
  H  H69  1  0.306570  0.203230  0.898730  1.0  0.1112
  H  H70  1  0.305470  0.517030  0.898830  1.0  0.0998
  H  H71  1  0.973230  0.536570  0.232070  1.0  0.1108
  H  H72  1  0.972130  0.850370  0.232170  1.0  0.0999
  H  H73  1  0.230000  0.360100  0.565400  1.0  0.1106
  H  H74  1  0.544900  0.361200  0.565500  1.0  0.1001
  H  H75  1  0.896670  0.693430  0.898730  1.0  0.1106
  H  H76  1  0.211570  0.694530  0.898830  1.0  0.1001
  H  H77  1  0.563330  0.026770  0.232070  1.0  0.1107
  H  H78  1  0.878230  0.027870  0.232170  1.0  0.1005
  H  H79  1  0.130100  0.770000  0.565400  1.0  0.1112
  H  H80  1  0.816300  0.455100  0.565500  1.0  0.0995
  H  H81  1  0.796770  0.103330  0.898730  1.0  0.1112
  H  H82  1  0.482970  0.788430  0.898830  1.0  0.0995
  H  H83  1  0.463430  0.436670  0.232070  1.0  0.1114
  H  H84  1  0.149630  0.121770  0.232170  1.0  0.0973
  C  C85  1  0.104000  0.470020  0.029580  1.0  0.3641
  C  C86  1  0.891210  0.371720  0.026000  1.0  0.3781
  C  C87  1  0.990990  0.398670  0.038580  1.0  -0.1034
  C  C88  1  0.976040  0.366290  0.061400  1.0  -0.0174
  C  C89  1  0.060590  0.349370  0.072610  1.0  -0.0791
  C  C90  1  0.874730  0.349690  0.072690  1.0  -0.0757
  C  C91  1  0.770670  0.803350  0.362910  1.0  0.3641
  C  C92  1  0.557880  0.705050  0.359330  1.0  0.3781
  C  C93  1  0.657660  0.732000  0.371910  1.0  -0.1034
  C  C94  1  0.642710  0.699620  0.394730  1.0  -0.0174
  C  C95  1  0.727260  0.682700  0.405940  1.0  -0.0791
  C  C96  1  0.541400  0.683020  0.406020  1.0  -0.0757
  C  C97  1  0.437330  0.136690  0.696250  1.0  0.3641
  C  C98  1  0.224540  0.038390  0.692670  1.0  0.3781
  C  C99  1  0.324320  0.065340  0.705250  1.0  -0.1034
  C  C100  1  0.309370  0.032960  0.728070  1.0  -0.0159
  C  C101  1  0.393920  0.016040  0.739280  1.0  -0.0786
  C  C102  1  0.208060  0.016360  0.739360  1.0  -0.0798
  C  C103  1  0.529980  0.633980  0.029580  1.0  0.364
  C  C104  1  0.628280  0.519490  0.026000  1.0  0.3791
  C  C105  1  0.601330  0.592320  0.038580  1.0  -0.1037
  C  C106  1  0.633710  0.609750  0.061400  1.0  -0.0181
  C  C107  1  0.650630  0.711220  0.072610  1.0  -0.0775
  C  C108  1  0.650310  0.525040  0.072690  1.0  -0.0745
  C  C109  1  0.196650  0.967310  0.362910  1.0  0.364
  C  C110  1  0.294950  0.852820  0.359330  1.0  0.3791
  C  C111  1  0.268000  0.925650  0.371910  1.0  -0.1037
  C  C112  1  0.300380  0.943080  0.394730  1.0  -0.0181
  C  C113  1  0.317300  0.044550  0.405940  1.0  -0.0775
  C  C114  1  0.316980  0.858370  0.406020  1.0  -0.0745
  C  C115  1  0.863310  0.300650  0.696250  1.0  0.364
  C  C116  1  0.961610  0.186160  0.692670  1.0  0.3791
  C  C117  1  0.934660  0.258990  0.705250  1.0  -0.1037
  C  C118  1  0.967040  0.276420  0.728070  1.0  -0.0167
  C  C119  1  0.983960  0.377890  0.739280  1.0  -0.0776
  C  C120  1  0.983640  0.191710  0.739360  1.0  -0.0745
  C  C121  1  0.366020  0.896000  0.029580  1.0  0.3643
  C  C122  1  0.480510  0.108790  0.026000  1.0  0.3789
  C  C123  1  0.407680  0.009010  0.038580  1.0  -0.1034
  C  C124  1  0.390250  0.023960  0.061400  1.0  -0.0182
  C  C125  1  0.288780  0.939410  0.072610  1.0  -0.0768
  C  C126  1  0.474960  0.125270  0.072690  1.0  -0.0755
  C  C127  1  0.032690  0.229330  0.362910  1.0  0.3643
  C  C128  1  0.147180  0.442120  0.359330  1.0  0.3789
  C  C129  1  0.074350  0.342340  0.371910  1.0  -0.1034
  C  C130  1  0.056920  0.357290  0.394730  1.0  -0.0182
  C  C131  1  0.955450  0.272740  0.405940  1.0  -0.0768
  C  C132  1  0.141630  0.458600  0.406020  1.0  -0.0755
  C  C133  1  0.699350  0.562670  0.696250  1.0  0.3643
  C  C134  1  0.813840  0.775460  0.692670  1.0  0.3789
  C  C135  1  0.741010  0.675680  0.705250  1.0  -0.1034
  C  C136  1  0.723580  0.690630  0.728070  1.0  -0.0168
  C  C137  1  0.622110  0.606080  0.739280  1.0  -0.0758
  C  C138  1  0.808290  0.791940  0.739360  1.0  -0.0755
  C  C139  1  0.470020  0.104000  0.470420  1.0  0.3646
  C  C140  1  0.371720  0.891210  0.474000  1.0  0.3789
  C  C141  1  0.398670  0.990990  0.461420  1.0  -0.1021
  C  C142  1  0.366290  0.976040  0.438600  1.0  -0.0177
  C  C143  1  0.349370  0.060590  0.427390  1.0  -0.0798
  C  C144  1  0.349690  0.874730  0.427310  1.0  -0.0753
  C  C145  1  0.136690  0.437330  0.803750  1.0  0.3646
  C  C146  1  0.038390  0.224540  0.807330  1.0  0.3789
  C  C147  1  0.065340  0.324320  0.794750  1.0  -0.1021
  C  C148  1  0.032960  0.309370  0.771930  1.0  -0.0163
  C  C149  1  0.016040  0.393920  0.760720  1.0  -0.0792
  C  C150  1  0.016360  0.208060  0.760640  1.0  -0.0794
  C  C151  1  0.803350  0.770670  0.137090  1.0  0.3646
  C  C152  1  0.705050  0.557880  0.140670  1.0  0.3789
  C  C153  1  0.732000  0.657660  0.128090  1.0  -0.1021
  C  C154  1  0.699620  0.642710  0.105270  1.0  -0.0177
  C  C155  1  0.682700  0.727260  0.094060  1.0  -0.0798
  C  C156  1  0.683020  0.541400  0.093980  1.0  -0.0753
  C  C157  1  0.633980  0.529980  0.470420  1.0  0.3645
  C  C158  1  0.519490  0.628280  0.474000  1.0  0.3786
  C  C159  1  0.592320  0.601330  0.461420  1.0  -0.1022
  C  C160  1  0.609750  0.633710  0.438600  1.0  -0.0172
  C  C161  1  0.711220  0.650630  0.427390  1.0  -0.0803
  C  C162  1  0.525040  0.650310  0.427310  1.0  -0.0757
  C  C163  1  0.300650  0.863310  0.803750  1.0  0.3645
  C  C164  1  0.186160  0.961610  0.807330  1.0  0.3786
  C  C165  1  0.258990  0.934660  0.794750  1.0  -0.1022
  C  C166  1  0.276420  0.967040  0.771930  1.0  -0.0158
  C  C167  1  0.377890  0.983960  0.760720  1.0  -0.0801
  C  C168  1  0.191710  0.983640  0.760640  1.0  -0.0758
  C  C169  1  0.967310  0.196650  0.137090  1.0  0.3645
  C  C170  1  0.852820  0.294950  0.140670  1.0  0.3786
  C  C171  1  0.925650  0.268000  0.128090  1.0  -0.1022
  C  C172  1  0.943080  0.300380  0.105270  1.0  -0.0172
  C  C173  1  0.044550  0.317300  0.094060  1.0  -0.0803
  C  C174  1  0.858370  0.316980  0.093980  1.0  -0.0757
  C  C175  1  0.896000  0.366020  0.470420  1.0  0.3639
  C  C176  1  0.108790  0.480510  0.474000  1.0  0.3791
  C  C177  1  0.009010  0.407680  0.461420  1.0  -0.1029
  C  C178  1  0.023960  0.390250  0.438600  1.0  -0.0182
  C  C179  1  0.939410  0.288780  0.427390  1.0  -0.0797
  C  C180  1  0.125270  0.474960  0.427310  1.0  -0.0757
  C  C181  1  0.562670  0.699350  0.803750  1.0  0.3639
  C  C182  1  0.775460  0.813840  0.807330  1.0  0.3791
  C  C183  1  0.675680  0.741010  0.794750  1.0  -0.1029
  C  C184  1  0.690630  0.723580  0.771930  1.0  -0.0168
  C  C185  1  0.606080  0.622110  0.760720  1.0  -0.0786
  C  C186  1  0.791940  0.808290  0.760640  1.0  -0.0756
  C  C187  1  0.229330  0.032690  0.137090  1.0  0.3639
  C  C188  1  0.442120  0.147180  0.140670  1.0  0.3791
  C  C189  1  0.342340  0.074350  0.128090  1.0  -0.1029
  C  C190  1  0.357290  0.056920  0.105270  1.0  -0.0182
  C  C191  1  0.272740  0.955450  0.094060  1.0  -0.0797
  C  C192  1  0.458600  0.141630  0.093980  1.0  -0.0757
  C  C193  1  0.896000  0.529980  0.970420  1.0  0.3632
  C  C194  1  0.108790  0.628280  0.974000  1.0  0.3791
  C  C195  1  0.009010  0.601330  0.961420  1.0  -0.102
  C  C196  1  0.023960  0.633710  0.938600  1.0  -0.0177
  C  C197  1  0.939410  0.650630  0.927390  1.0  -0.0789
  C  C198  1  0.125270  0.650310  0.927310  1.0  -0.0755
  C  C199  1  0.562670  0.863310  0.303750  1.0  0.3632
  C  C200  1  0.775460  0.961610  0.307330  1.0  0.3792
  C  C201  1  0.675680  0.934660  0.294750  1.0  -0.102
  C  C202  1  0.690630  0.967040  0.271930  1.0  -0.0164
  C  C203  1  0.606080  0.983960  0.260720  1.0  -0.0784
  C  C204  1  0.791940  0.983640  0.260640  1.0  -0.0797
  C  C205  1  0.229330  0.196650  0.637090  1.0  0.3632
  C  C206  1  0.442120  0.294950  0.640670  1.0  0.3791
  C  C207  1  0.342340  0.268000  0.628090  1.0  -0.102
  C  C208  1  0.357290  0.300380  0.605270  1.0  -0.0177
  C  C209  1  0.272740  0.317300  0.594060  1.0  -0.0789
  C  C210  1  0.458600  0.316980  0.593980  1.0  -0.0755
  C  C211  1  0.470020  0.366020  0.970420  1.0  0.3651
  C  C212  1  0.371720  0.480510  0.974000  1.0  0.379
  C  C213  1  0.398670  0.407680  0.961420  1.0  -0.103
  C  C214  1  0.366290  0.390250  0.938600  1.0  -0.0179
  C  C215  1  0.349370  0.288780  0.927390  1.0  -0.0781
  C  C216  1  0.349690  0.474960  0.927310  1.0  -0.0758
  C  C217  1  0.136690  0.699350  0.303750  1.0  0.3651
  C  C218  1  0.038390  0.813840  0.307330  1.0  0.379
  C  C219  1  0.065340  0.741010  0.294750  1.0  -0.103
  C  C220  1  0.032960  0.723580  0.271930  1.0  -0.0165
  C  C221  1  0.016040  0.622110  0.260720  1.0  -0.0781
  C  C222  1  0.016360  0.808290  0.260640  1.0  -0.0758
  C  C223  1  0.803350  0.032690  0.637090  1.0  0.3651
  C  C224  1  0.705050  0.147180  0.640670  1.0  0.379
  C  C225  1  0.732000  0.074350  0.628090  1.0  -0.103
  C  C226  1  0.699620  0.056920  0.605270  1.0  -0.0179
  C  C227  1  0.682700  0.955450  0.594060  1.0  -0.0781
  C  C228  1  0.683020  0.141630  0.593980  1.0  -0.0758
  C  C229  1  0.633980  0.104000  0.970420  1.0  0.3654
  C  C230  1  0.519490  0.891210  0.974000  1.0  0.3788
  C  C231  1  0.592320  0.990990  0.961420  1.0  -0.1021
  C  C232  1  0.609750  0.976040  0.938600  1.0  -0.0172
  C  C233  1  0.711220  0.060590  0.927390  1.0  -0.0775
  C  C234  1  0.525040  0.874730  0.927310  1.0  -0.0739
  C  C235  1  0.300650  0.437330  0.303750  1.0  0.3654
  C  C236  1  0.186160  0.224540  0.307330  1.0  0.3788
  C  C237  1  0.258990  0.324320  0.294750  1.0  -0.1021
  C  C238  1  0.276420  0.309370  0.271930  1.0  -0.0158
  C  C239  1  0.377890  0.393920  0.260720  1.0  -0.0765
  C  C240  1  0.191710  0.208060  0.260640  1.0  -0.0738
  C  C241  1  0.967310  0.770670  0.637090  1.0  0.3654
  C  C242  1  0.852820  0.557880  0.640670  1.0  0.3788
  C  C243  1  0.925650  0.657660  0.628090  1.0  -0.1021
  C  C244  1  0.943080  0.642710  0.605270  1.0  -0.0172
  C  C245  1  0.044550  0.727260  0.594060  1.0  -0.0775
  C  C246  1  0.858370  0.541400  0.593980  1.0  -0.0739
  C  C247  1  0.529980  0.896000  0.529580  1.0  0.3654
  C  C248  1  0.628280  0.108790  0.526000  1.0  0.379
  C  C249  1  0.601330  0.009010  0.538580  1.0  -0.1035
  C  C250  1  0.633710  0.023960  0.561400  1.0  -0.0177
  C  C251  1  0.650630  0.939410  0.572610  1.0  -0.0791
  C  C252  1  0.650310  0.125270  0.572690  1.0  -0.074
  C  C253  1  0.196650  0.229330  0.862910  1.0  0.3654
  C  C254  1  0.294950  0.442120  0.859330  1.0  0.379
  C  C255  1  0.268000  0.342340  0.871910  1.0  -0.1035
  C  C256  1  0.300380  0.357290  0.894730  1.0  -0.0177
  C  C257  1  0.317300  0.272740  0.905940  1.0  -0.0791
  C  C258  1  0.316980  0.458600  0.906020  1.0  -0.074
  C  C259  1  0.863310  0.562670  0.196250  1.0  0.3654
  C  C260  1  0.961610  0.775460  0.192670  1.0  0.3791
  C  C261  1  0.934660  0.675680  0.205250  1.0  -0.1035
  C  C262  1  0.967040  0.690630  0.228070  1.0  -0.0163
  C  C263  1  0.983960  0.606080  0.239280  1.0  -0.0786
  C  C264  1  0.983640  0.791940  0.239360  1.0  -0.0781
  C  C265  1  0.366020  0.470020  0.529580  1.0  0.3634
  C  C266  1  0.480510  0.371720  0.526000  1.0  0.3789
  C  C267  1  0.407680  0.398670  0.538580  1.0  -0.1034
  C  C268  1  0.390250  0.366290  0.561400  1.0  -0.0176
  C  C269  1  0.288780  0.349370  0.572610  1.0  -0.0811
  C  C270  1  0.474960  0.349690  0.572690  1.0  -0.075
  C  C271  1  0.032690  0.803350  0.862910  1.0  0.3634
  C  C272  1  0.147180  0.705050  0.859330  1.0  0.3789
  C  C273  1  0.074350  0.732000  0.871910  1.0  -0.1034
  C  C274  1  0.056920  0.699620  0.894730  1.0  -0.0176
  C  C275  1  0.955450  0.682700  0.905940  1.0  -0.0811
  C  C276  1  0.141630  0.683020  0.906020  1.0  -0.075
  C  C277  1  0.699350  0.136690  0.196250  1.0  0.3634
  C  C278  1  0.813840  0.038390  0.192670  1.0  0.3789
  C  C279  1  0.741010  0.065340  0.205250  1.0  -0.1034
  C  C280  1  0.723580  0.032960  0.228070  1.0  -0.0163
  C  C281  1  0.622110  0.016040  0.239280  1.0  -0.0809
  C  C282  1  0.808290  0.016360  0.239360  1.0  -0.0752
  C  C283  1  0.104000  0.633980  0.529580  1.0  0.3647
  C  C284  1  0.891210  0.519490  0.526000  1.0  0.3787
  C  C285  1  0.990990  0.592320  0.538580  1.0  -0.104
  C  C286  1  0.976040  0.609750  0.561400  1.0  -0.0182
  C  C287  1  0.060590  0.711220  0.572610  1.0  -0.0801
  C  C288  1  0.874730  0.525040  0.572690  1.0  -0.0738
  C  C289  1  0.770670  0.967310  0.862910  1.0  0.3647
  C  C290  1  0.557880  0.852820  0.859330  1.0  0.3787
  C  C291  1  0.657660  0.925650  0.871910  1.0  -0.104
  C  C292  1  0.642710  0.943080  0.894730  1.0  -0.0182
  C  C293  1  0.727260  0.044550  0.905940  1.0  -0.0801
  C  C294  1  0.541400  0.858370  0.906020  1.0  -0.0738
  C  C295  1  0.437330  0.300650  0.196250  1.0  0.3647
  C  C296  1  0.224540  0.186160  0.192670  1.0  0.3787
  C  C297  1  0.324320  0.258990  0.205250  1.0  -0.104
  C  C298  1  0.309370  0.276420  0.228070  1.0  -0.0168
  C  C299  1  0.393920  0.377890  0.239280  1.0  -0.079
  C  C300  1  0.208060  0.191710  0.239360  1.0  -0.0736
  N  N301  1  0.197330  0.531410  0.022140  1.0  -0.493
  N  N302  1  0.807170  0.348280  0.015950  1.0  -0.4408
  N  N303  1  0.864000  0.864740  0.355470  1.0  -0.493
  N  N304  1  0.473840  0.681610  0.349280  1.0  -0.4408
  N  N305  1  0.530660  0.198080  0.688810  1.0  -0.493
  N  N306  1  0.140500  0.014950  0.682620  1.0  -0.4408
  N  N307  1  0.468590  0.665920  0.022140  1.0  -0.4956
  N  N308  1  0.651720  0.458890  0.015950  1.0  -0.4406
  N  N309  1  0.135260  0.999250  0.355470  1.0  -0.4956
  N  N310  1  0.318390  0.792220  0.349280  1.0  -0.4406
  N  N311  1  0.801920  0.332590  0.688810  1.0  -0.4956
  N  N312  1  0.985050  0.125560  0.682620  1.0  -0.4406
  N  N313  1  0.334080  0.802670  0.022140  1.0  -0.4985
  N  N314  1  0.541110  0.192830  0.015950  1.0  -0.4442
  N  N315  1  0.000750  0.136000  0.355470  1.0  -0.4985
  N  N316  1  0.207780  0.526160  0.349280  1.0  -0.4442
  N  N317  1  0.667410  0.469340  0.688810  1.0  -0.4985
  N  N318  1  0.874440  0.859500  0.682620  1.0  -0.4442
  N  N319  1  0.531410  0.197330  0.477860  1.0  -0.4951
  N  N320  1  0.348280  0.807170  0.484050  1.0  -0.4437
  N  N321  1  0.198080  0.530660  0.811190  1.0  -0.4951
  N  N322  1  0.014950  0.140500  0.817380  1.0  -0.4437
  N  N323  1  0.864740  0.864000  0.144530  1.0  -0.4951
  N  N324  1  0.681610  0.473840  0.150720  1.0  -0.4437
  N  N325  1  0.665920  0.468590  0.477860  1.0  -0.4932
  N  N326  1  0.458890  0.651720  0.484050  1.0  -0.4425
  N  N327  1  0.332590  0.801920  0.811190  1.0  -0.4932
  N  N328  1  0.125560  0.985050  0.817380  1.0  -0.4425
  N  N329  1  0.999250  0.135260  0.144530  1.0  -0.4932
  N  N330  1  0.792220  0.318390  0.150720  1.0  -0.4425
  N  N331  1  0.802670  0.334080  0.477860  1.0  -0.4972
  N  N332  1  0.192830  0.541110  0.484050  1.0  -0.4406
  N  N333  1  0.469340  0.667410  0.811190  1.0  -0.4972
  N  N334  1  0.859500  0.874440  0.817380  1.0  -0.4406
  N  N335  1  0.136000  0.000750  0.144530  1.0  -0.4972
  N  N336  1  0.526160  0.207780  0.150720  1.0  -0.4406
  N  N337  1  0.802670  0.468590  0.977860  1.0  -0.4939
  N  N338  1  0.192830  0.651720  0.984050  1.0  -0.4404
  N  N339  1  0.469340  0.801920  0.311190  1.0  -0.4939
  N  N340  1  0.859500  0.985050  0.317380  1.0  -0.4404
  N  N341  1  0.136000  0.135260  0.644530  1.0  -0.4939
  N  N342  1  0.526160  0.318390  0.650720  1.0  -0.4404
  N  N343  1  0.531410  0.334080  0.977860  1.0  -0.4944
  N  N344  1  0.348280  0.541110  0.984050  1.0  -0.4408
  N  N345  1  0.198080  0.667410  0.311190  1.0  -0.4944
  N  N346  1  0.014950  0.874440  0.317380  1.0  -0.4408
  N  N347  1  0.864740  0.000750  0.644530  1.0  -0.4944
  N  N348  1  0.681610  0.207780  0.650720  1.0  -0.4408
  N  N349  1  0.665920  0.197330  0.977860  1.0  -0.4949
  N  N350  1  0.458890  0.807170  0.984050  1.0  -0.4415
  N  N351  1  0.332590  0.530660  0.311190  1.0  -0.4949
  N  N352  1  0.125560  0.140500  0.317380  1.0  -0.4415
  N  N353  1  0.999250  0.864000  0.644530  1.0  -0.4949
  N  N354  1  0.792220  0.473840  0.650720  1.0  -0.4415
  N  N355  1  0.468590  0.802670  0.522140  1.0  -0.4966
  N  N356  1  0.651720  0.192830  0.515950  1.0  -0.4411
  N  N357  1  0.135260  0.136000  0.855470  1.0  -0.4966
  N  N358  1  0.318390  0.526160  0.849280  1.0  -0.4411
  N  N359  1  0.801920  0.469340  0.188810  1.0  -0.4966
  N  N360  1  0.985050  0.859500  0.182620  1.0  -0.4411
  N  N361  1  0.334080  0.531410  0.522140  1.0  -0.4936
  N  N362  1  0.541110  0.348280  0.515950  1.0  -0.4415
  N  N363  1  0.000750  0.864740  0.855470  1.0  -0.4936
  N  N364  1  0.207780  0.681610  0.849280  1.0  -0.4415
  N  N365  1  0.667410  0.198080  0.188810  1.0  -0.4936
  N  N366  1  0.874440  0.014950  0.182620  1.0  -0.4415
  N  N367  1  0.197330  0.665920  0.522140  1.0  -0.4954
  N  N368  1  0.807170  0.458890  0.515950  1.0  -0.4384
  N  N369  1  0.864000  0.999250  0.855470  1.0  -0.4954
  N  N370  1  0.473840  0.792220  0.849280  1.0  -0.4384
  N  N371  1  0.530660  0.332590  0.188810  1.0  -0.4954
  N  N372  1  0.140500  0.125560  0.182620  1.0  -0.4384
