# generated using pymatgen
data_ZnH6(C3N)6
_symmetry_space_group_name_H-M   'P 1'
_cell_length_a   12.97280000
_cell_length_b   12.97280000
_cell_length_c   62.65200000
_cell_angle_alpha   90.00000000
_cell_angle_beta   90.00000000
_cell_angle_gamma   120.00000000
_symmetry_Int_Tables_number   1
_chemical_formula_structural   ZnH6(C3N)6
_chemical_formula_sum   'Zn12 H72 C216 N72'
_cell_volume   9131.30851472
_cell_formula_units_Z   12
loop_
 _symmetry_equiv_pos_site_id
 _symmetry_equiv_pos_as_xyz
  1  'x, y, z'
loop_
 _atom_site_type_symbol
 _atom_site_label
 _atom_site_symmetry_multiplicity
 _atom_site_fract_x
 _atom_site_fract_y
 _atom_site_fract_z
 _atom_site_occupancy
 _atom_site_charge
  Zn  Zn1  1  0.333333  0.666667  0.003620  1.0  0.856
  Zn  Zn2  1  0.000000  0.000000  0.336950  1.0  0.8562
  Zn  Zn3  1  0.666667  0.333333  0.670280  1.0  0.8559
  Zn  Zn4  1  0.666667  0.333333  0.496380  1.0  0.8566
  Zn  Zn5  1  0.333333  0.666667  0.829720  1.0  0.8566
  Zn  Zn6  1  0.000000  0.000000  0.163050  1.0  0.8564
  Zn  Zn7  1  0.666667  0.333333  0.996380  1.0  0.8566
  Zn  Zn8  1  0.333333  0.666667  0.329720  1.0  0.8566
  Zn  Zn9  1  0.000000  0.000000  0.663050  1.0  0.8564
  Zn  Zn10  1  0.333333  0.666667  0.503620  1.0  0.856
  Zn  Zn11  1  0.000000  0.000000  0.836950  1.0  0.8562
  Zn  Zn12  1  0.666667  0.333333  0.170280  1.0  0.8559
  H  H13  1  0.360800  0.543200  0.934500  1.0  0.1027
  H  H14  1  0.359900  0.230200  0.934600  1.0  0.1164
  H  H15  1  0.027470  0.876530  0.267830  1.0  0.1039
  H  H16  1  0.026570  0.563530  0.267930  1.0  0.1164
  H  H17  1  0.694130  0.209870  0.601170  1.0  0.1027
  H  H18  1  0.693230  0.896870  0.601270  1.0  0.1165
  H  H19  1  0.456800  0.817600  0.934500  1.0  0.1031
  H  H20  1  0.769800  0.129700  0.934600  1.0  0.1161
  H  H21  1  0.123470  0.150930  0.267830  1.0  0.1039
  H  H22  1  0.436470  0.463030  0.267930  1.0  0.1163
  H  H23  1  0.790130  0.484270  0.601170  1.0  0.103
  H  H24  1  0.103130  0.796370  0.601270  1.0  0.1161
  H  H25  1  0.182400  0.639200  0.934500  1.0  0.1043
  H  H26  1  0.870300  0.640100  0.934600  1.0  0.1132
  H  H27  1  0.849070  0.972530  0.267830  1.0  0.1021
  H  H28  1  0.536970  0.973430  0.267930  1.0  0.1143
  H  H29  1  0.515730  0.305870  0.601170  1.0  0.1042
  H  H30  1  0.203630  0.306770  0.601270  1.0  0.1132
  H  H31  1  0.543200  0.360800  0.565500  1.0  0.1035
  H  H32  1  0.230200  0.359900  0.565400  1.0  0.1155
  H  H33  1  0.209870  0.694130  0.898830  1.0  0.1035
  H  H34  1  0.896870  0.693230  0.898730  1.0  0.1156
  H  H35  1  0.876530  0.027470  0.232170  1.0  0.1044
  H  H36  1  0.563530  0.026570  0.232070  1.0  0.1157
  H  H37  1  0.817600  0.456800  0.565500  1.0  0.1029
  H  H38  1  0.129700  0.769800  0.565400  1.0  0.117
  H  H39  1  0.484270  0.790130  0.898830  1.0  0.1028
  H  H40  1  0.796370  0.103130  0.898730  1.0  0.117
  H  H41  1  0.150930  0.123470  0.232170  1.0  0.1036
  H  H42  1  0.463030  0.436470  0.232070  1.0  0.1172
  H  H43  1  0.639200  0.182400  0.565500  1.0  0.1049
  H  H44  1  0.640100  0.870300  0.565400  1.0  0.1138
  H  H45  1  0.305870  0.515730  0.898830  1.0  0.1049
  H  H46  1  0.306770  0.203630  0.898730  1.0  0.1139
  H  H47  1  0.972530  0.849070  0.232170  1.0  0.1029
  H  H48  1  0.973430  0.536970  0.232070  1.0  0.1147
  H  H49  1  0.639200  0.456800  0.065500  1.0  0.1031
  H  H50  1  0.640100  0.769800  0.065400  1.0  0.117
  H  H51  1  0.305870  0.790130  0.398830  1.0  0.1031
  H  H52  1  0.306770  0.103130  0.398730  1.0  0.1171
  H  H53  1  0.972530  0.123470  0.732170  1.0  0.104
  H  H54  1  0.973430  0.436470  0.732070  1.0  0.1172
  H  H55  1  0.543200  0.182400  0.065500  1.0  0.1036
  H  H56  1  0.230200  0.870300  0.065400  1.0  0.1158
  H  H57  1  0.209870  0.515730  0.398830  1.0  0.1036
  H  H58  1  0.896870  0.203630  0.398730  1.0  0.1159
  H  H59  1  0.876530  0.849070  0.732170  1.0  0.1045
  H  H60  1  0.563530  0.536970  0.732070  1.0  0.1162
  H  H61  1  0.817600  0.360800  0.065500  1.0  0.1045
  H  H62  1  0.129700  0.359900  0.065400  1.0  0.1134
  H  H63  1  0.484270  0.694130  0.398830  1.0  0.1044
  H  H64  1  0.796370  0.693230  0.398730  1.0  0.1136
  H  H65  1  0.150930  0.027470  0.732170  1.0  0.1025
  H  H66  1  0.463030  0.026570  0.732070  1.0  0.1142
  H  H67  1  0.456800  0.639200  0.434500  1.0  0.103
  H  H68  1  0.769800  0.640100  0.434600  1.0  0.1153
  H  H69  1  0.123470  0.972530  0.767830  1.0  0.1038
  H  H70  1  0.436470  0.973430  0.767930  1.0  0.1153
  H  H71  1  0.790130  0.305870  0.101170  1.0  0.103
  H  H72  1  0.103130  0.306770  0.101270  1.0  0.1155
  H  H73  1  0.182400  0.543200  0.434500  1.0  0.1026
  H  H74  1  0.870300  0.230200  0.434600  1.0  0.1164
  H  H75  1  0.849070  0.876530  0.767830  1.0  0.1035
  H  H76  1  0.536970  0.563530  0.767930  1.0  0.1169
  H  H77  1  0.515730  0.209870  0.101170  1.0  0.1025
  H  H78  1  0.203630  0.896870  0.101270  1.0  0.1166
  H  H79  1  0.360800  0.817600  0.434500  1.0  0.1048
  H  H80  1  0.359900  0.129700  0.434600  1.0  0.1136
  H  H81  1  0.027470  0.150930  0.767830  1.0  0.103
  H  H82  1  0.026570  0.463030  0.767930  1.0  0.1146
  H  H83  1  0.694130  0.484270  0.101170  1.0  0.1047
  H  H84  1  0.693230  0.796370  0.101270  1.0  0.1137
  C  C85  1  0.372150  0.479590  0.973910  1.0  0.3675
  C  C86  1  0.366170  0.389560  0.938580  1.0  -0.0176
  C  C87  1  0.398730  0.407100  0.961310  1.0  -0.1041
  C  C88  1  0.349600  0.473770  0.927370  1.0  -0.0789
  C  C89  1  0.349330  0.288690  0.927400  1.0  -0.0787
  C  C90  1  0.468740  0.364690  0.970330  1.0  0.3637
  C  C91  1  0.038820  0.812920  0.307240  1.0  0.3559
  C  C92  1  0.032840  0.722890  0.271910  1.0  -0.0167
  C  C93  1  0.065400  0.740430  0.294640  1.0  -0.1041
  C  C94  1  0.016270  0.807100  0.260710  1.0  -0.0781
  C  C95  1  0.016000  0.622020  0.260730  1.0  -0.0793
  C  C96  1  0.135410  0.698020  0.303660  1.0  0.3637
  C  C97  1  0.705480  0.146260  0.640570  1.0  0.3559
  C  C98  1  0.699500  0.056230  0.605250  1.0  -0.0149
  C  C99  1  0.732060  0.073770  0.627970  1.0  -0.1014
  C  C100  1  0.682930  0.140440  0.594040  1.0  -0.0789
  C  C101  1  0.682660  0.955360  0.594060  1.0  -0.0808
  C  C102  1  0.802070  0.031360  0.637000  1.0  0.3633
  C  C103  1  0.520410  0.892560  0.973910  1.0  0.3671
  C  C104  1  0.610440  0.976610  0.938580  1.0  -0.0169
  C  C105  1  0.592900  0.991630  0.961310  1.0  -0.1035
  C  C106  1  0.526230  0.875830  0.927370  1.0  -0.0776
  C  C107  1  0.711310  0.060640  0.927400  1.0  -0.0773
  C  C108  1  0.635310  0.104050  0.970330  1.0  0.364
  C  C109  1  0.187080  0.225890  0.307240  1.0  0.3556
  C  C110  1  0.277110  0.309940  0.271910  1.0  -0.0161
  C  C111  1  0.259570  0.324960  0.294640  1.0  -0.1035
  C  C112  1  0.192900  0.209160  0.260710  1.0  -0.0768
  C  C113  1  0.377980  0.393970  0.260730  1.0  -0.0776
  C  C114  1  0.301980  0.437380  0.303660  1.0  0.364
  C  C115  1  0.853740  0.559230  0.640570  1.0  0.3556
  C  C116  1  0.943770  0.643280  0.605250  1.0  -0.0143
  C  C117  1  0.926230  0.658300  0.627970  1.0  -0.1007
  C  C118  1  0.859560  0.542500  0.594040  1.0  -0.0776
  C  C119  1  0.044640  0.727310  0.594060  1.0  -0.0796
  C  C120  1  0.968640  0.770720  0.637000  1.0  0.3636
  C  C121  1  0.107440  0.627850  0.973910  1.0  0.3671
  C  C122  1  0.023390  0.633830  0.938580  1.0  -0.0173
  C  C123  1  0.008370  0.601270  0.961310  1.0  -0.1034
  C  C124  1  0.124170  0.650400  0.927370  1.0  -0.0792
  C  C125  1  0.939360  0.650670  0.927400  1.0  -0.0794
  C  C126  1  0.895950  0.531260  0.970330  1.0  0.3608
  C  C127  1  0.774110  0.961180  0.307240  1.0  0.3555
  C  C128  1  0.690060  0.967160  0.271910  1.0  -0.0166
  C  C129  1  0.675040  0.934600  0.294640  1.0  -0.1034
  C  C130  1  0.790840  0.983730  0.260710  1.0  -0.0783
  C  C131  1  0.606030  0.984000  0.260730  1.0  -0.0803
  C  C132  1  0.562620  0.864590  0.303660  1.0  0.3608
  C  C133  1  0.440770  0.294520  0.640570  1.0  0.3555
  C  C134  1  0.356720  0.300500  0.605250  1.0  -0.0149
  C  C135  1  0.341700  0.267940  0.627970  1.0  -0.1007
  C  C136  1  0.457500  0.317070  0.594040  1.0  -0.0792
  C  C137  1  0.272690  0.317340  0.594060  1.0  -0.0814
  C  C138  1  0.229280  0.197930  0.637000  1.0  0.3604
  C  C139  1  0.479590  0.372150  0.526090  1.0  0.3669
  C  C140  1  0.389560  0.366170  0.561420  1.0  -0.0172
  C  C141  1  0.407100  0.398730  0.538690  1.0  -0.1039
  C  C142  1  0.473770  0.349600  0.572630  1.0  -0.0797
  C  C143  1  0.288690  0.349330  0.572600  1.0  -0.0811
  C  C144  1  0.364690  0.468740  0.529670  1.0  0.3613
  C  C145  1  0.146260  0.705480  0.859430  1.0  0.3554
  C  C146  1  0.056230  0.699500  0.894750  1.0  -0.0147
  C  C147  1  0.073770  0.732060  0.872030  1.0  -0.1015
  C  C148  1  0.140440  0.682930  0.905960  1.0  -0.0797
  C  C149  1  0.955360  0.682660  0.905940  1.0  -0.0828
  C  C150  1  0.031360  0.802070  0.863000  1.0  0.3609
  C  C151  1  0.812920  0.038820  0.192760  1.0  0.3553
  C  C152  1  0.722890  0.032840  0.228090  1.0  -0.0165
  C  C153  1  0.740430  0.065400  0.205360  1.0  -0.1039
  C  C154  1  0.807100  0.016270  0.239290  1.0  -0.0788
  C  C155  1  0.622020  0.016000  0.239270  1.0  -0.0817
  C  C156  1  0.698020  0.135410  0.196340  1.0  0.3613
  C  C157  1  0.892560  0.520410  0.526090  1.0  0.3671
  C  C158  1  0.976610  0.610440  0.561420  1.0  -0.0177
  C  C159  1  0.991630  0.592900  0.538690  1.0  -0.1046
  C  C160  1  0.875830  0.526230  0.572630  1.0  -0.0781
  C  C161  1  0.060640  0.711310  0.572600  1.0  -0.0797
  C  C162  1  0.104050  0.635310  0.529670  1.0  0.3634
  C  C163  1  0.559230  0.853740  0.859430  1.0  0.3556
  C  C164  1  0.643280  0.943770  0.894750  1.0  -0.0152
  C  C165  1  0.658300  0.926230  0.872030  1.0  -0.1023
  C  C166  1  0.542500  0.859560  0.905960  1.0  -0.0781
  C  C167  1  0.727310  0.044640  0.905940  1.0  -0.0818
  C  C168  1  0.770720  0.968640  0.863000  1.0  0.363
  C  C169  1  0.225890  0.187080  0.192760  1.0  0.3556
  C  C170  1  0.309940  0.277110  0.228090  1.0  -0.0169
  C  C171  1  0.324960  0.259570  0.205360  1.0  -0.1046
  C  C172  1  0.209160  0.192900  0.239290  1.0  -0.0772
  C  C173  1  0.393970  0.377980  0.239270  1.0  -0.0802
  C  C174  1  0.437380  0.301980  0.196340  1.0  0.3634
  C  C175  1  0.627850  0.107440  0.526090  1.0  0.3676
  C  C176  1  0.633830  0.023390  0.561420  1.0  -0.0171
  C  C177  1  0.601270  0.008370  0.538690  1.0  -0.1041
  C  C178  1  0.650400  0.124170  0.572630  1.0  -0.0791
  C  C179  1  0.650670  0.939360  0.572600  1.0  -0.0786
  C  C180  1  0.531260  0.895950  0.529670  1.0  0.3638
  C  C181  1  0.294520  0.440770  0.859430  1.0  0.3558
  C  C182  1  0.300500  0.356720  0.894750  1.0  -0.0146
  C  C183  1  0.267940  0.341700  0.872030  1.0  -0.1017
  C  C184  1  0.317070  0.457500  0.905960  1.0  -0.0791
  C  C185  1  0.317340  0.272690  0.905940  1.0  -0.0804
  C  C186  1  0.197930  0.229280  0.863000  1.0  0.3635
  C  C187  1  0.961180  0.774110  0.192760  1.0  0.3558
  C  C188  1  0.967160  0.690060  0.228090  1.0  -0.0163
  C  C189  1  0.934600  0.675040  0.205360  1.0  -0.1041
  C  C190  1  0.983730  0.790840  0.239290  1.0  -0.0782
  C  C191  1  0.984000  0.606030  0.239270  1.0  -0.0795
  C  C192  1  0.864590  0.562620  0.196340  1.0  0.3638
  C  C193  1  0.627850  0.520410  0.026090  1.0  0.3672
  C  C194  1  0.633830  0.610440  0.061420  1.0  -0.018
  C  C195  1  0.601270  0.592900  0.038690  1.0  -0.1044
  C  C196  1  0.650400  0.526230  0.072630  1.0  -0.0773
  C  C197  1  0.650670  0.711310  0.072600  1.0  -0.0785
  C  C198  1  0.531260  0.635310  0.029670  1.0  0.3616
  C  C199  1  0.294520  0.853740  0.359430  1.0  0.3557
  C  C200  1  0.300500  0.943770  0.394750  1.0  -0.0156
  C  C201  1  0.267940  0.926230  0.372030  1.0  -0.102
  C  C202  1  0.317070  0.859560  0.405960  1.0  -0.0773
  C  C203  1  0.317340  0.044640  0.405940  1.0  -0.0806
  C  C204  1  0.197930  0.968640  0.363000  1.0  0.3613
  C  C205  1  0.961180  0.187080  0.692760  1.0  0.3557
  C  C206  1  0.967160  0.277110  0.728090  1.0  -0.0173
  C  C207  1  0.934600  0.259570  0.705360  1.0  -0.1044
  C  C208  1  0.983730  0.192900  0.739290  1.0  -0.0763
  C  C209  1  0.984000  0.377980  0.739270  1.0  -0.0794
  C  C210  1  0.864590  0.301980  0.696340  1.0  0.3616
  C  C211  1  0.479590  0.107440  0.026090  1.0  0.3674
  C  C212  1  0.389560  0.023390  0.061420  1.0  -0.0176
  C  C213  1  0.407100  0.008370  0.038690  1.0  -0.1041
  C  C214  1  0.473770  0.124170  0.072630  1.0  -0.0796
  C  C215  1  0.288690  0.939360  0.072600  1.0  -0.0776
  C  C216  1  0.364690  0.895950  0.029670  1.0  0.3634
  C  C217  1  0.146260  0.440770  0.359430  1.0  0.3556
  C  C218  1  0.056230  0.356720  0.394750  1.0  -0.0152
  C  C219  1  0.073770  0.341700  0.372030  1.0  -0.1017
  C  C220  1  0.140440  0.457500  0.405960  1.0  -0.0796
  C  C221  1  0.955360  0.272690  0.405940  1.0  -0.0794
  C  C222  1  0.031360  0.229280  0.363000  1.0  0.3631
  C  C223  1  0.812920  0.774110  0.692760  1.0  0.3555
  C  C224  1  0.722890  0.690060  0.728090  1.0  -0.017
  C  C225  1  0.740430  0.675040  0.705360  1.0  -0.1041
  C  C226  1  0.807100  0.790840  0.739290  1.0  -0.0787
  C  C227  1  0.622020  0.606030  0.739270  1.0  -0.0778
  C  C228  1  0.698020  0.562620  0.696340  1.0  0.3634
  C  C229  1  0.892560  0.372150  0.026090  1.0  0.3666
  C  C230  1  0.976610  0.366170  0.061420  1.0  -0.0168
  C  C231  1  0.991630  0.398730  0.038690  1.0  -0.1043
  C  C232  1  0.875830  0.349600  0.072630  1.0  -0.0793
  C  C233  1  0.060640  0.349330  0.072600  1.0  -0.0795
  C  C234  1  0.104050  0.468740  0.029670  1.0  0.363
  C  C235  1  0.559230  0.705480  0.359430  1.0  0.3551
  C  C236  1  0.643280  0.699500  0.394750  1.0  -0.0142
  C  C237  1  0.658300  0.732060  0.372030  1.0  -0.1018
  C  C238  1  0.542500  0.682930  0.405960  1.0  -0.0793
  C  C239  1  0.727310  0.682660  0.405940  1.0  -0.0813
  C  C240  1  0.770720  0.802070  0.363000  1.0  0.3626
  C  C241  1  0.225890  0.038820  0.692760  1.0  0.3551
  C  C242  1  0.309940  0.032840  0.728090  1.0  -0.0159
  C  C243  1  0.324960  0.065400  0.705360  1.0  -0.1043
  C  C244  1  0.209160  0.016270  0.739290  1.0  -0.0784
  C  C245  1  0.393970  0.016000  0.739270  1.0  -0.0803
  C  C246  1  0.437380  0.135410  0.696340  1.0  0.363
  C  C247  1  0.520410  0.627850  0.473910  1.0  0.3669
  C  C248  1  0.610440  0.633830  0.438580  1.0  -0.017
  C  C249  1  0.592900  0.601270  0.461310  1.0  -0.1035
  C  C250  1  0.526230  0.650400  0.427370  1.0  -0.0801
  C  C251  1  0.711310  0.650670  0.427400  1.0  -0.0797
  C  C252  1  0.635310  0.531260  0.470330  1.0  0.3627
  C  C253  1  0.187080  0.961180  0.807240  1.0  0.3554
  C  C254  1  0.277110  0.967160  0.771910  1.0  -0.0161
  C  C255  1  0.259570  0.934600  0.794640  1.0  -0.1035
  C  C256  1  0.192900  0.983730  0.760710  1.0  -0.0792
  C  C257  1  0.377980  0.984000  0.760730  1.0  -0.0803
  C  C258  1  0.301980  0.864590  0.803660  1.0  0.3627
  C  C259  1  0.853740  0.294520  0.140570  1.0  0.3554
  C  C260  1  0.943770  0.300500  0.105250  1.0  -0.0144
  C  C261  1  0.926230  0.267940  0.127970  1.0  -0.1008
  C  C262  1  0.859560  0.317070  0.094040  1.0  -0.0801
  C  C263  1  0.044640  0.317340  0.094060  1.0  -0.0816
  C  C264  1  0.968640  0.197930  0.137000  1.0  0.3623
  C  C265  1  0.107440  0.479590  0.473910  1.0  0.3675
  C  C266  1  0.023390  0.389560  0.438580  1.0  -0.0184
  C  C267  1  0.008370  0.407100  0.461310  1.0  -0.1041
  C  C268  1  0.124170  0.473770  0.427370  1.0  -0.0794
  C  C269  1  0.939360  0.288690  0.427400  1.0  -0.0787
  C  C270  1  0.895950  0.364690  0.470330  1.0  0.3618
  C  C271  1  0.774110  0.812920  0.807240  1.0  0.3559
  C  C272  1  0.690060  0.722890  0.771910  1.0  -0.0177
  C  C273  1  0.675040  0.740430  0.794640  1.0  -0.1041
  C  C274  1  0.790840  0.807100  0.760710  1.0  -0.0786
  C  C275  1  0.606030  0.622020  0.760730  1.0  -0.0792
  C  C276  1  0.562620  0.698020  0.803660  1.0  0.3618
  C  C277  1  0.440770  0.146260  0.140570  1.0  0.3559
  C  C278  1  0.356720  0.056230  0.105250  1.0  -0.0158
  C  C279  1  0.341700  0.073770  0.127970  1.0  -0.1014
  C  C280  1  0.457500  0.140440  0.094040  1.0  -0.0794
  C  C281  1  0.272690  0.955360  0.094060  1.0  -0.0809
  C  C282  1  0.229280  0.031360  0.137000  1.0  0.3614
  C  C283  1  0.372150  0.892560  0.473910  1.0  0.367
  C  C284  1  0.366170  0.976610  0.438580  1.0  -0.018
  C  C285  1  0.398730  0.991630  0.461310  1.0  -0.1035
  C  C286  1  0.349600  0.875830  0.427370  1.0  -0.0794
  C  C287  1  0.349330  0.060640  0.427400  1.0  -0.0788
  C  C288  1  0.468740  0.104050  0.470330  1.0  0.3634
  C  C289  1  0.038820  0.225890  0.807240  1.0  0.3554
  C  C290  1  0.032840  0.309940  0.771910  1.0  -0.0173
  C  C291  1  0.065400  0.324960  0.794640  1.0  -0.1035
  C  C292  1  0.016270  0.209160  0.760710  1.0  -0.0786
  C  C293  1  0.016000  0.393970  0.760730  1.0  -0.0801
  C  C294  1  0.135410  0.437380  0.803660  1.0  0.3634
  C  C295  1  0.705480  0.559230  0.140570  1.0  0.3555
  C  C296  1  0.699500  0.643280  0.105250  1.0  -0.0154
  C  C297  1  0.732060  0.658300  0.127970  1.0  -0.1008
  C  C298  1  0.682930  0.542500  0.094040  1.0  -0.0795
  C  C299  1  0.682660  0.727310  0.094060  1.0  -0.081
  C  C300  1  0.802070  0.770720  0.137000  1.0  0.3631
  N  N301  1  0.348750  0.539940  0.984000  1.0  -0.4225
  N  N302  1  0.528820  0.331620  0.977720  1.0  -0.5253
  N  N303  1  0.015420  0.873270  0.317340  1.0  -0.4226
  N  N304  1  0.195490  0.664950  0.311050  1.0  -0.5252
  N  N305  1  0.682080  0.206610  0.650670  1.0  -0.4226
  N  N306  1  0.862150  0.998290  0.644390  1.0  -0.5253
  N  N307  1  0.460060  0.808810  0.984000  1.0  -0.425
  N  N308  1  0.668380  0.197200  0.977720  1.0  -0.5255
  N  N309  1  0.126730  0.142140  0.317340  1.0  -0.425
  N  N310  1  0.335050  0.530530  0.311050  1.0  -0.5254
  N  N311  1  0.793390  0.475480  0.650670  1.0  -0.425
  N  N312  1  0.001710  0.863870  0.644390  1.0  -0.5255
  N  N313  1  0.191190  0.651250  0.984000  1.0  -0.425
  N  N314  1  0.802800  0.471180  0.977720  1.0  -0.5235
  N  N315  1  0.857860  0.984580  0.317340  1.0  -0.4249
  N  N316  1  0.469470  0.804510  0.311050  1.0  -0.5235
  N  N317  1  0.524520  0.317920  0.650670  1.0  -0.4251
  N  N318  1  0.136130  0.137850  0.644390  1.0  -0.5235
  N  N319  1  0.539940  0.348750  0.516000  1.0  -0.4242
  N  N320  1  0.331620  0.528820  0.522280  1.0  -0.5232
  N  N321  1  0.206610  0.682080  0.849330  1.0  -0.4244
  N  N322  1  0.998290  0.862150  0.855610  1.0  -0.5232
  N  N323  1  0.873270  0.015420  0.182660  1.0  -0.4244
  N  N324  1  0.664950  0.195490  0.188950  1.0  -0.5231
  N  N325  1  0.808810  0.460060  0.516000  1.0  -0.4226
  N  N326  1  0.197200  0.668380  0.522280  1.0  -0.526
  N  N327  1  0.475480  0.793390  0.849330  1.0  -0.4225
  N  N328  1  0.863870  0.001710  0.855610  1.0  -0.526
  N  N329  1  0.142140  0.126730  0.182660  1.0  -0.4225
  N  N330  1  0.530530  0.335050  0.188950  1.0  -0.5259
  N  N331  1  0.651250  0.191190  0.516000  1.0  -0.4261
  N  N332  1  0.471180  0.802800  0.522280  1.0  -0.5261
  N  N333  1  0.317920  0.524520  0.849330  1.0  -0.4262
  N  N334  1  0.137850  0.136130  0.855610  1.0  -0.5261
  N  N335  1  0.984580  0.857860  0.182660  1.0  -0.4262
  N  N336  1  0.804510  0.469470  0.188950  1.0  -0.526
  N  N337  1  0.651250  0.460060  0.016000  1.0  -0.4204
  N  N338  1  0.471180  0.668380  0.022280  1.0  -0.5258
  N  N339  1  0.317920  0.793390  0.349330  1.0  -0.4204
  N  N340  1  0.137850  0.001710  0.355610  1.0  -0.5258
  N  N341  1  0.984580  0.126730  0.682660  1.0  -0.4204
  N  N342  1  0.804510  0.335050  0.688950  1.0  -0.5257
  N  N343  1  0.539940  0.191190  0.016000  1.0  -0.4264
  N  N344  1  0.331620  0.802800  0.022280  1.0  -0.5264
  N  N345  1  0.206610  0.524520  0.349330  1.0  -0.4265
  N  N346  1  0.998290  0.136130  0.355610  1.0  -0.5264
  N  N347  1  0.873270  0.857860  0.682660  1.0  -0.4265
  N  N348  1  0.664950  0.469470  0.688950  1.0  -0.5263
  N  N349  1  0.808810  0.348750  0.016000  1.0  -0.4214
  N  N350  1  0.197200  0.528820  0.022280  1.0  -0.5234
  N  N351  1  0.475480  0.682080  0.349330  1.0  -0.4216
  N  N352  1  0.863870  0.862150  0.355610  1.0  -0.5234
  N  N353  1  0.142140  0.015420  0.682660  1.0  -0.4216
  N  N354  1  0.530530  0.195490  0.688950  1.0  -0.5233
  N  N355  1  0.460060  0.651250  0.484000  1.0  -0.4224
  N  N356  1  0.668380  0.471180  0.477720  1.0  -0.5234
  N  N357  1  0.126730  0.984580  0.817340  1.0  -0.4223
  N  N358  1  0.335050  0.804510  0.811050  1.0  -0.5233
  N  N359  1  0.793390  0.317920  0.150670  1.0  -0.4225
  N  N360  1  0.001710  0.137850  0.144390  1.0  -0.5235
  N  N361  1  0.191190  0.539940  0.484000  1.0  -0.4225
  N  N362  1  0.802800  0.331620  0.477720  1.0  -0.5258
  N  N363  1  0.857860  0.873270  0.817340  1.0  -0.4225
  N  N364  1  0.469470  0.664950  0.811050  1.0  -0.5257
  N  N365  1  0.524520  0.206610  0.150670  1.0  -0.4226
  N  N366  1  0.136130  0.998290  0.144390  1.0  -0.5258
  N  N367  1  0.348750  0.808810  0.484000  1.0  -0.4227
  N  N368  1  0.528820  0.197200  0.477720  1.0  -0.5257
  N  N369  1  0.015420  0.142140  0.817340  1.0  -0.4227
  N  N370  1  0.195490  0.530530  0.811050  1.0  -0.5257
  N  N371  1  0.682080  0.475480  0.150670  1.0  -0.4228
  N  N372  1  0.862150  0.863870  0.144390  1.0  -0.5258
