# generated using pymatgen
data_ZnC24(NO2)4
_symmetry_space_group_name_H-M   'P 1'
_cell_length_a   19.26500000
_cell_length_b   19.26500000
_cell_length_c   15.91300000
_cell_angle_alpha   90.00000000
_cell_angle_beta   90.00000000
_cell_angle_gamma   90.00000000
_symmetry_Int_Tables_number   1
_chemical_formula_structural   ZnC24(NO2)4
_chemical_formula_sum   'Zn8 C192 N32 O64'
_cell_volume   5905.95440043
_cell_formula_units_Z   8
loop_
 _symmetry_equiv_pos_site_id
 _symmetry_equiv_pos_as_xyz
  1  'x, y, z'
loop_
 _atom_site_type_symbol
 _atom_site_label
 _atom_site_symmetry_multiplicity
 _atom_site_fract_x
 _atom_site_fract_y
 _atom_site_fract_z
 _atom_site_occupancy
 _atom_site_charge
  Zn  Zn1  1  0.500000  0.250000  0.875000  1.0  0.9756
  Zn  Zn2  1  0.000000  0.750000  0.375000  1.0  0.9756
  Zn  Zn3  1  0.000000  0.250000  0.125000  1.0  0.9756
  Zn  Zn4  1  0.500000  0.750000  0.625000  1.0  0.9756
  Zn  Zn5  1  0.500000  0.750000  0.125000  1.0  0.9756
  Zn  Zn6  1  0.000000  0.250000  0.625000  1.0  0.9756
  Zn  Zn7  1  0.000000  0.750000  0.875000  1.0  0.9756
  Zn  Zn8  1  0.500000  0.250000  0.375000  1.0  0.9756
  C  C9  1  0.595300  0.278300  0.758100  1.0  0.7256
  C  C10  1  0.659400  0.279000  0.703100  1.0  0.0197
  C  C11  1  0.644400  0.316100  0.620900  1.0  -0.0145
  C  C12  1  0.719800  0.240100  0.530600  1.0  0.0102
  C  C13  1  0.679700  0.352500  0.483000  1.0  0.0179
  C  C14  1  0.768600  0.345400  0.589700  1.0  0.0447
  C  C15  1  0.095300  0.778300  0.258100  1.0  0.7256
  C  C16  1  0.159400  0.779000  0.203100  1.0  0.0197
  C  C17  1  0.144400  0.816100  0.120900  1.0  -0.0145
  C  C18  1  0.219800  0.740100  0.030600  1.0  0.0102
  C  C19  1  0.179700  0.852500  0.983000  1.0  0.0179
  C  C20  1  0.268600  0.845400  0.089700  1.0  0.0447
  C  C21  1  0.904700  0.721700  0.258100  1.0  0.7285
  C  C22  1  0.840600  0.721000  0.203100  1.0  0.0204
  C  C23  1  0.855600  0.683900  0.120900  1.0  -0.0159
  C  C24  1  0.780200  0.759900  0.030600  1.0  0.0135
  C  C25  1  0.820300  0.647500  0.983000  1.0  0.0182
  C  C26  1  0.731400  0.654600  0.089700  1.0  0.0466
  C  C27  1  0.404700  0.221700  0.758100  1.0  0.7285
  C  C28  1  0.340600  0.221000  0.703100  1.0  0.0204
  C  C29  1  0.355600  0.183900  0.620900  1.0  -0.0159
  C  C30  1  0.280200  0.259900  0.530600  1.0  0.0135
  C  C31  1  0.320300  0.147500  0.483000  1.0  0.0182
  C  C32  1  0.231400  0.154600  0.589700  1.0  0.0466
  C  C33  1  0.971700  0.345300  0.008100  1.0  0.7258
  C  C34  1  0.971000  0.409400  0.953100  1.0  0.0175
  C  C35  1  0.933900  0.394400  0.870900  1.0  -0.015
  C  C36  1  0.009900  0.469800  0.780600  1.0  0.008
  C  C37  1  0.897500  0.429700  0.733000  1.0  0.0147
  C  C38  1  0.904600  0.518600  0.839700  1.0  0.0434
  C  C39  1  0.471700  0.845300  0.508100  1.0  0.7258
  C  C40  1  0.471000  0.909400  0.453100  1.0  0.0175
  C  C41  1  0.433900  0.894400  0.370900  1.0  -0.015
  C  C42  1  0.509900  0.969800  0.280600  1.0  0.008
  C  C43  1  0.397500  0.929700  0.233000  1.0  0.0147
  C  C44  1  0.404600  0.018600  0.339700  1.0  0.0434
  C  C45  1  0.528300  0.654700  0.508100  1.0  0.7267
  C  C46  1  0.529000  0.590600  0.453100  1.0  0.0195
  C  C47  1  0.566100  0.605600  0.370900  1.0  -0.0149
  C  C48  1  0.490100  0.530200  0.280600  1.0  0.0129
  C  C49  1  0.602500  0.570300  0.233000  1.0  0.0139
  C  C50  1  0.595400  0.481400  0.339700  1.0  0.0431
  C  C51  1  0.028300  0.154700  0.008100  1.0  0.7267
  C  C52  1  0.029000  0.090600  0.953100  1.0  0.0195
  C  C53  1  0.066100  0.105600  0.870900  1.0  -0.0149
  C  C54  1  0.990100  0.030200  0.780600  1.0  0.0129
  C  C55  1  0.102500  0.070300  0.733000  1.0  0.0139
  C  C56  1  0.095400  0.981400  0.839700  1.0  0.0431
  C  C57  1  0.904700  0.278300  0.241900  1.0  0.7282
  C  C58  1  0.840600  0.279000  0.296900  1.0  0.0205
  C  C59  1  0.855600  0.316100  0.379100  1.0  -0.016
  C  C60  1  0.780200  0.240100  0.469400  1.0  0.0114
  C  C61  1  0.820300  0.352500  0.517000  1.0  0.017
  C  C62  1  0.731400  0.345400  0.410300  1.0  0.0452
  C  C63  1  0.404700  0.778300  0.741900  1.0  0.7282
  C  C64  1  0.340600  0.779000  0.796900  1.0  0.0205
  C  C65  1  0.355600  0.816100  0.879100  1.0  -0.016
  C  C66  1  0.280200  0.740100  0.969400  1.0  0.0114
  C  C67  1  0.320300  0.852500  0.017000  1.0  0.017
  C  C68  1  0.231400  0.845400  0.910300  1.0  0.0452
  C  C69  1  0.595300  0.721700  0.741900  1.0  0.7264
  C  C70  1  0.659400  0.721000  0.796900  1.0  0.0203
  C  C71  1  0.644400  0.683900  0.879100  1.0  -0.0149
  C  C72  1  0.719800  0.759900  0.969400  1.0  0.0124
  C  C73  1  0.679700  0.647500  0.017000  1.0  0.0153
  C  C74  1  0.768600  0.654600  0.910300  1.0  0.0486
  C  C75  1  0.095300  0.221700  0.241900  1.0  0.7264
  C  C76  1  0.159400  0.221000  0.296900  1.0  0.0203
  C  C77  1  0.144400  0.183900  0.379100  1.0  -0.0149
  C  C78  1  0.219800  0.259900  0.469400  1.0  0.0124
  C  C79  1  0.179700  0.147500  0.517000  1.0  0.0153
  C  C80  1  0.268600  0.154600  0.410300  1.0  0.0486
  C  C81  1  0.528300  0.345300  0.991900  1.0  0.7257
  C  C82  1  0.529000  0.409400  0.046900  1.0  0.0186
  C  C83  1  0.566100  0.394400  0.129100  1.0  -0.0147
  C  C84  1  0.490100  0.469800  0.219400  1.0  0.0119
  C  C85  1  0.602500  0.429700  0.267000  1.0  0.0116
  C  C86  1  0.595400  0.518600  0.160300  1.0  0.0439
  C  C87  1  0.028300  0.845300  0.491900  1.0  0.7257
  C  C88  1  0.029000  0.909400  0.546900  1.0  0.0186
  C  C89  1  0.066100  0.894400  0.629100  1.0  -0.0147
  C  C90  1  0.990100  0.969800  0.719400  1.0  0.0119
  C  C91  1  0.102500  0.929700  0.767000  1.0  0.0116
  C  C92  1  0.095400  0.018600  0.660300  1.0  0.0439
  C  C93  1  0.971700  0.654700  0.491900  1.0  0.7273
  C  C94  1  0.971000  0.590600  0.546900  1.0  0.0194
  C  C95  1  0.933900  0.605600  0.629100  1.0  -0.0149
  C  C96  1  0.009900  0.530200  0.719400  1.0  0.0089
  C  C97  1  0.897500  0.570300  0.767000  1.0  0.0142
  C  C98  1  0.904600  0.481400  0.660300  1.0  0.0456
  C  C99  1  0.471700  0.154700  0.991900  1.0  0.7273
  C  C100  1  0.471000  0.090600  0.046900  1.0  0.0194
  C  C101  1  0.433900  0.105600  0.129100  1.0  -0.0149
  C  C102  1  0.509900  0.030200  0.219400  1.0  0.0089
  C  C103  1  0.397500  0.070300  0.267000  1.0  0.0142
  C  C104  1  0.404600  0.981400  0.160300  1.0  0.0456
  C  C105  1  0.404700  0.721700  0.241900  1.0  0.7287
  C  C106  1  0.340600  0.721000  0.296900  1.0  0.0203
  C  C107  1  0.355600  0.683900  0.379100  1.0  -0.0156
  C  C108  1  0.280200  0.759900  0.469400  1.0  0.0136
  C  C109  1  0.320300  0.647500  0.517000  1.0  0.017
  C  C110  1  0.231400  0.654600  0.410300  1.0  0.0479
  C  C111  1  0.904700  0.221700  0.741900  1.0  0.7287
  C  C112  1  0.840600  0.221000  0.796900  1.0  0.0203
  C  C113  1  0.855600  0.183900  0.879100  1.0  -0.0156
  C  C114  1  0.780200  0.259900  0.969400  1.0  0.0136
  C  C115  1  0.820300  0.147500  0.017000  1.0  0.017
  C  C116  1  0.731400  0.154600  0.910300  1.0  0.0479
  C  C117  1  0.095300  0.278300  0.741900  1.0  0.7257
  C  C118  1  0.159400  0.279000  0.796900  1.0  0.0204
  C  C119  1  0.144400  0.316100  0.879100  1.0  -0.0146
  C  C120  1  0.219800  0.240100  0.969400  1.0  0.0101
  C  C121  1  0.179700  0.352500  0.017000  1.0  0.0175
  C  C122  1  0.268600  0.345400  0.910300  1.0  0.0452
  C  C123  1  0.595300  0.778300  0.241900  1.0  0.7257
  C  C124  1  0.659400  0.779000  0.296900  1.0  0.0204
  C  C125  1  0.644400  0.816100  0.379100  1.0  -0.0146
  C  C126  1  0.719800  0.740100  0.469400  1.0  0.0101
  C  C127  1  0.679700  0.852500  0.517000  1.0  0.0175
  C  C128  1  0.768600  0.845400  0.410300  1.0  0.0452
  C  C129  1  0.028300  0.654700  0.991900  1.0  0.7268
  C  C130  1  0.029000  0.590600  0.046900  1.0  0.0194
  C  C131  1  0.066100  0.605600  0.129100  1.0  -0.0145
  C  C132  1  0.990100  0.530200  0.219400  1.0  0.013
  C  C133  1  0.102500  0.570300  0.267000  1.0  0.013
  C  C134  1  0.095400  0.481400  0.160300  1.0  0.0438
  C  C135  1  0.528300  0.154700  0.491900  1.0  0.7268
  C  C136  1  0.529000  0.090600  0.546900  1.0  0.0194
  C  C137  1  0.566100  0.105600  0.629100  1.0  -0.0145
  C  C138  1  0.490100  0.030200  0.719400  1.0  0.013
  C  C139  1  0.602500  0.070300  0.767000  1.0  0.013
  C  C140  1  0.595400  0.981400  0.660300  1.0  0.0438
  C  C141  1  0.471700  0.345300  0.491900  1.0  0.7261
  C  C142  1  0.471000  0.409400  0.546900  1.0  0.0178
  C  C143  1  0.433900  0.394400  0.629100  1.0  -0.0146
  C  C144  1  0.509900  0.469800  0.719400  1.0  0.0082
  C  C145  1  0.397500  0.429700  0.767000  1.0  0.0127
  C  C146  1  0.404600  0.518600  0.660300  1.0  0.0461
  C  C147  1  0.971700  0.845300  0.991900  1.0  0.7261
  C  C148  1  0.971000  0.909400  0.046900  1.0  0.0178
  C  C149  1  0.933900  0.894400  0.129100  1.0  -0.0146
  C  C150  1  0.009900  0.969800  0.219400  1.0  0.0082
  C  C151  1  0.897500  0.929700  0.267000  1.0  0.0127
  C  C152  1  0.904600  0.018600  0.160300  1.0  0.0461
  C  C153  1  0.095300  0.721700  0.758100  1.0  0.7264
  C  C154  1  0.159400  0.721000  0.703100  1.0  0.0203
  C  C155  1  0.144400  0.683900  0.620900  1.0  -0.0146
  C  C156  1  0.219800  0.759900  0.530600  1.0  0.0124
  C  C157  1  0.179700  0.647500  0.483000  1.0  0.0173
  C  C158  1  0.268600  0.654600  0.589700  1.0  0.0472
  C  C159  1  0.595300  0.221700  0.258100  1.0  0.7264
  C  C160  1  0.659400  0.221000  0.203100  1.0  0.0203
  C  C161  1  0.644400  0.183900  0.120900  1.0  -0.0146
  C  C162  1  0.719800  0.259900  0.030600  1.0  0.0124
  C  C163  1  0.679700  0.147500  0.983000  1.0  0.0173
  C  C164  1  0.768600  0.154600  0.089700  1.0  0.0472
  C  C165  1  0.404700  0.278300  0.258100  1.0  0.728
  C  C166  1  0.340600  0.279000  0.203100  1.0  0.0202
  C  C167  1  0.355600  0.316100  0.120900  1.0  -0.0162
  C  C168  1  0.280200  0.240100  0.030600  1.0  0.0115
  C  C169  1  0.320300  0.352500  0.983000  1.0  0.017
  C  C170  1  0.231400  0.345400  0.089700  1.0  0.045
  C  C171  1  0.904700  0.778300  0.758100  1.0  0.728
  C  C172  1  0.840600  0.779000  0.703100  1.0  0.0202
  C  C173  1  0.855600  0.816100  0.620900  1.0  -0.0162
  C  C174  1  0.780200  0.740100  0.530600  1.0  0.0115
  C  C175  1  0.820300  0.852500  0.483000  1.0  0.017
  C  C176  1  0.731400  0.845400  0.589700  1.0  0.045
  C  C177  1  0.471700  0.654700  0.008100  1.0  0.727
  C  C178  1  0.471000  0.590600  0.953100  1.0  0.0201
  C  C179  1  0.433900  0.605600  0.870900  1.0  -0.0147
  C  C180  1  0.509900  0.530200  0.780600  1.0  0.0087
  C  C181  1  0.397500  0.570300  0.733000  1.0  0.0154
  C  C182  1  0.404600  0.481400  0.839700  1.0  0.0437
  C  C183  1  0.971700  0.154700  0.508100  1.0  0.727
  C  C184  1  0.971000  0.090600  0.453100  1.0  0.0201
  C  C185  1  0.933900  0.105600  0.370900  1.0  -0.0147
  C  C186  1  0.009900  0.030200  0.280600  1.0  0.0087
  C  C187  1  0.897500  0.070300  0.233000  1.0  0.0154
  C  C188  1  0.904600  0.981400  0.339700  1.0  0.0437
  C  C189  1  0.028300  0.345300  0.508100  1.0  0.7256
  C  C190  1  0.029000  0.409400  0.453100  1.0  0.0183
  C  C191  1  0.066100  0.394400  0.370900  1.0  -0.0153
  C  C192  1  0.990100  0.469800  0.280600  1.0  0.0119
  C  C193  1  0.102500  0.429700  0.233000  1.0  0.0126
  C  C194  1  0.095400  0.518600  0.339700  1.0  0.0422
  C  C195  1  0.528300  0.845300  0.008100  1.0  0.7256
  C  C196  1  0.529000  0.909400  0.953100  1.0  0.0183
  C  C197  1  0.566100  0.894400  0.870900  1.0  -0.0153
  C  C198  1  0.490100  0.969800  0.780600  1.0  0.0119
  C  C199  1  0.602500  0.929700  0.733000  1.0  0.0126
  C  C200  1  0.595400  0.018600  0.839700  1.0  0.0422
  N  N201  1  0.703700  0.313500  0.557400  1.0  -0.0357
  N  N202  1  0.203700  0.813500  0.057400  1.0  -0.0357
  N  N203  1  0.796300  0.686500  0.057400  1.0  -0.0318
  N  N204  1  0.296300  0.186500  0.557400  1.0  -0.0318
  N  N205  1  0.936500  0.453700  0.807400  1.0  -0.0333
  N  N206  1  0.436500  0.953700  0.307400  1.0  -0.0333
  N  N207  1  0.563500  0.546300  0.307400  1.0  -0.0362
  N  N208  1  0.063500  0.046300  0.807400  1.0  -0.0362
  N  N209  1  0.796300  0.313500  0.442600  1.0  -0.0316
  N  N210  1  0.296300  0.813500  0.942600  1.0  -0.0316
  N  N211  1  0.703700  0.686500  0.942600  1.0  -0.0371
  N  N212  1  0.203700  0.186500  0.442600  1.0  -0.0371
  N  N213  1  0.563500  0.453700  0.192600  1.0  -0.0369
  N  N214  1  0.063500  0.953700  0.692600  1.0  -0.0369
  N  N215  1  0.936500  0.546300  0.692600  1.0  -0.0337
  N  N216  1  0.436500  0.046300  0.192600  1.0  -0.0337
  N  N217  1  0.296300  0.686500  0.442600  1.0  -0.0325
  N  N218  1  0.796300  0.186500  0.942600  1.0  -0.0325
  N  N219  1  0.203700  0.313500  0.942600  1.0  -0.0359
  N  N220  1  0.703700  0.813500  0.442600  1.0  -0.0359
  N  N221  1  0.063500  0.546300  0.192600  1.0  -0.0364
  N  N222  1  0.563500  0.046300  0.692600  1.0  -0.0364
  N  N223  1  0.436500  0.453700  0.692600  1.0  -0.0345
  N  N224  1  0.936500  0.953700  0.192600  1.0  -0.0345
  N  N225  1  0.203700  0.686500  0.557400  1.0  -0.0366
  N  N226  1  0.703700  0.186500  0.057400  1.0  -0.0366
  N  N227  1  0.296300  0.313500  0.057400  1.0  -0.0312
  N  N228  1  0.796300  0.813500  0.557400  1.0  -0.0312
  N  N229  1  0.436500  0.546300  0.807400  1.0  -0.0329
  N  N230  1  0.936500  0.046300  0.307400  1.0  -0.0329
  N  N231  1  0.063500  0.453700  0.307400  1.0  -0.0366
  N  N232  1  0.563500  0.953700  0.807400  1.0  -0.0366
  O  O233  1  0.596200  0.239900  0.821400  1.0  -0.5125
  O  O234  1  0.545000  0.314200  0.738200  1.0  -0.4999
  O  O235  1  0.096200  0.739900  0.321400  1.0  -0.5125
  O  O236  1  0.045000  0.814200  0.238200  1.0  -0.4999
  O  O237  1  0.903800  0.760100  0.321400  1.0  -0.5131
  O  O238  1  0.955000  0.685800  0.238200  1.0  -0.5003
  O  O239  1  0.403800  0.260100  0.821400  1.0  -0.5131
  O  O240  1  0.455000  0.185800  0.738200  1.0  -0.5003
  O  O241  1  0.010100  0.346200  0.071400  1.0  -0.5135
  O  O242  1  0.935800  0.295000  0.988200  1.0  -0.5009
  O  O243  1  0.510100  0.846200  0.571400  1.0  -0.5135
  O  O244  1  0.435800  0.795000  0.488200  1.0  -0.5009
  O  O245  1  0.489900  0.653800  0.571400  1.0  -0.5126
  O  O246  1  0.564200  0.705000  0.488200  1.0  -0.4992
  O  O247  1  0.989900  0.153800  0.071400  1.0  -0.5126
  O  O248  1  0.064200  0.205000  0.988200  1.0  -0.4992
  O  O249  1  0.903800  0.239900  0.178600  1.0  -0.5118
  O  O250  1  0.955000  0.314200  0.261800  1.0  -0.4992
  O  O251  1  0.403800  0.739900  0.678600  1.0  -0.5118
  O  O252  1  0.455000  0.814200  0.761800  1.0  -0.4992
  O  O253  1  0.596200  0.760100  0.678600  1.0  -0.5121
  O  O254  1  0.545000  0.685800  0.761800  1.0  -0.5001
  O  O255  1  0.096200  0.260100  0.178600  1.0  -0.5121
  O  O256  1  0.045000  0.185800  0.261800  1.0  -0.5001
  O  O257  1  0.489900  0.346200  0.928600  1.0  -0.5125
  O  O258  1  0.564200  0.295000  0.011800  1.0  -0.4997
  O  O259  1  0.989900  0.846200  0.428600  1.0  -0.5125
  O  O260  1  0.064200  0.795000  0.511800  1.0  -0.4997
  O  O261  1  0.010100  0.653800  0.428600  1.0  -0.5118
  O  O262  1  0.935800  0.705000  0.511800  1.0  -0.4992
  O  O263  1  0.510100  0.153800  0.928600  1.0  -0.5118
  O  O264  1  0.435800  0.205000  0.011800  1.0  -0.4992
  O  O265  1  0.403800  0.760100  0.178600  1.0  -0.5124
  O  O266  1  0.455000  0.685800  0.261800  1.0  -0.4992
  O  O267  1  0.903800  0.260100  0.678600  1.0  -0.5124
  O  O268  1  0.955000  0.185800  0.761800  1.0  -0.4992
  O  O269  1  0.096200  0.239900  0.678600  1.0  -0.5114
  O  O270  1  0.045000  0.314200  0.761800  1.0  -0.4999
  O  O271  1  0.596200  0.739900  0.178600  1.0  -0.5114
  O  O272  1  0.545000  0.814200  0.261800  1.0  -0.4999
  O  O273  1  0.989900  0.653800  0.928600  1.0  -0.5118
  O  O274  1  0.064200  0.705000  0.011800  1.0  -0.4988
  O  O275  1  0.489900  0.153800  0.428600  1.0  -0.5118
  O  O276  1  0.564200  0.205000  0.511800  1.0  -0.4988
  O  O277  1  0.510100  0.346200  0.428600  1.0  -0.5126
  O  O278  1  0.435800  0.295000  0.511800  1.0  -0.5004
  O  O279  1  0.010100  0.846200  0.928600  1.0  -0.5126
  O  O280  1  0.935800  0.795000  0.011800  1.0  -0.5004
  O  O281  1  0.096200  0.760100  0.821400  1.0  -0.5123
  O  O282  1  0.045000  0.685800  0.738200  1.0  -0.5007
  O  O283  1  0.596200  0.260100  0.321400  1.0  -0.5123
  O  O284  1  0.545000  0.185800  0.238200  1.0  -0.5007
  O  O285  1  0.403800  0.239900  0.321400  1.0  -0.5129
  O  O286  1  0.455000  0.314200  0.238200  1.0  -0.4995
  O  O287  1  0.903800  0.739900  0.821400  1.0  -0.5129
  O  O288  1  0.955000  0.814200  0.738200  1.0  -0.4995
  O  O289  1  0.510100  0.653800  0.071400  1.0  -0.5124
  O  O290  1  0.435800  0.705000  0.988200  1.0  -0.4998
  O  O291  1  0.010100  0.153800  0.571400  1.0  -0.5124
  O  O292  1  0.935800  0.205000  0.488200  1.0  -0.4998
  O  O293  1  0.989900  0.346200  0.571400  1.0  -0.5135
  O  O294  1  0.064200  0.295000  0.488200  1.0  -0.4999
  O  O295  1  0.489900  0.846200  0.071400  1.0  -0.5135
  O  O296  1  0.564200  0.795000  0.988200  1.0  -0.4999
