# generated using pymatgen
data_ZnH40C24(NO2)4
_symmetry_space_group_name_H-M   'P 1'
_cell_length_a   24.97000000
_cell_length_b   19.25200000
_cell_length_c   15.91300000
_cell_angle_alpha   90.00000000
_cell_angle_beta   129.46000000
_cell_angle_gamma   90.00000000
_symmetry_Int_Tables_number   1
_chemical_formula_structural   ZnH40C24(NO2)4
_chemical_formula_sum   'Zn8 H320 C192 N32 O64'
_cell_volume   5906.12005072
_cell_formula_units_Z   8
loop_
 _symmetry_equiv_pos_site_id
 _symmetry_equiv_pos_as_xyz
  1  'x, y, z'
loop_
 _atom_site_type_symbol
 _atom_site_label
 _atom_site_symmetry_multiplicity
 _atom_site_fract_x
 _atom_site_fract_y
 _atom_site_fract_z
 _atom_site_occupancy
 _atom_site_charge
  Zn  Zn1  1  0.248900  0.000400  0.373900  1.0  0.8636
  Zn  Zn2  1  0.748900  0.500400  0.373900  1.0  0.8636
  Zn  Zn3  1  0.751100  0.000400  0.126100  1.0  0.8638
  Zn  Zn4  1  0.251100  0.500400  0.126100  1.0  0.8638
  Zn  Zn5  1  0.751100  0.999600  0.626100  1.0  0.8638
  Zn  Zn6  1  0.251100  0.499600  0.626100  1.0  0.8638
  Zn  Zn7  1  0.248900  0.999600  0.873900  1.0  0.8636
  Zn  Zn8  1  0.748900  0.499600  0.873900  1.0  0.8636
  H  H9  1  0.446800  0.053000  0.429400  1.0  0.0768
  H  H10  1  0.425100  0.981900  0.367600  1.0  0.088
  H  H11  1  0.352900  0.045200  0.200600  1.0  0.0789
  H  H12  1  0.384400  0.114200  0.267700  1.0  0.076
  H  H13  1  0.429500  0.969300  0.184800  1.0  0.0721
  H  H14  1  0.482100  0.962700  0.310900  1.0  0.0832
  H  H15  1  0.424800  0.150300  0.171400  1.0  0.076
  H  H16  1  0.385600  0.085100  0.098800  1.0  0.0668
  H  H17  1  0.537300  0.067600  0.421300  1.0  0.0703
  H  H18  1  0.506300  0.139700  0.367500  1.0  0.0737
  H  H19  1  0.076400  0.017800  0.018100  1.0  0.0803
  H  H20  1  0.054800  0.946800  0.037300  1.0  0.0779
  H  H21  1  0.145300  0.956500  0.991900  1.0  0.0807
  H  H22  1  0.116100  0.887100  0.000100  1.0  0.0756
  H  H23  1  0.071100  0.028700  0.823700  1.0  0.0713
  H  H24  1  0.019500  0.036600  0.846900  1.0  0.0844
  H  H25  1  0.076300  0.849500  0.824100  1.0  0.0727
  H  H26  1  0.114500  0.915600  0.830100  1.0  0.0703
  H  H27  1  0.962200  0.931400  0.846700  1.0  0.0649
  H  H28  1  0.992100  0.858500  0.854000  1.0  0.0687
  H  H29  1  0.302900  0.195100  0.571900  1.0  0.0822
  H  H30  1  0.232400  0.173200  0.543000  1.0  0.0759
  H  H31  1  0.363600  0.135600  0.731400  1.0  0.0839
  H  H32  1  0.294900  0.105100  0.700600  1.0  0.0837
  H  H33  1  0.215300  0.235700  0.636000  1.0  0.0725
  H  H34  1  0.218000  0.180300  0.710700  1.0  0.0683
  H  H35  1  0.214500  0.265900  0.796100  1.0  0.0761
  H  H36  1  0.218000  0.321400  0.727600  1.0  0.0776
  H  H37  1  0.389900  0.256900  0.776700  1.0  0.0761
  H  H38  1  0.315800  0.286400  0.683600  1.0  0.0697
  H  H39  1  0.335600  0.364300  0.800500  1.0  0.0669
  H  H40  1  0.400500  0.323400  0.897900  1.0  0.084
  H  H41  1  0.335600  0.134400  0.871500  1.0  0.0746
  H  H42  1  0.401000  0.175200  0.905000  1.0  0.0839
  H  H43  1  0.389900  0.240200  0.003300  1.0  0.0791
  H  H44  1  0.316200  0.209700  0.949300  1.0  0.0664
  H  H45  1  0.364900  0.365300  0.998000  1.0  0.0857
  H  H46  1  0.296100  0.396400  0.892700  1.0  0.0788
  H  H47  1  0.232900  0.326100  0.924100  1.0  0.0729
  H  H48  1  0.303500  0.303300  0.034800  1.0  0.0819
  H  H49  1  0.946800  0.553000  0.429400  1.0  0.0768
  H  H50  1  0.925100  0.481900  0.367600  1.0  0.088
  H  H51  1  0.852900  0.545200  0.200600  1.0  0.0789
  H  H52  1  0.884400  0.614200  0.267700  1.0  0.076
  H  H53  1  0.929500  0.469300  0.184800  1.0  0.0721
  H  H54  1  0.982100  0.462700  0.310900  1.0  0.0832
  H  H55  1  0.924800  0.650300  0.171400  1.0  0.076
  H  H56  1  0.885600  0.585100  0.098800  1.0  0.0668
  H  H57  1  0.037300  0.567600  0.421300  1.0  0.0703
  H  H58  1  0.006300  0.639700  0.367500  1.0  0.0737
  H  H59  1  0.576400  0.517800  0.018100  1.0  0.0803
  H  H60  1  0.554800  0.446800  0.037300  1.0  0.0779
  H  H61  1  0.645300  0.456500  0.991900  1.0  0.0807
  H  H62  1  0.616100  0.387100  0.000100  1.0  0.0756
  H  H63  1  0.571100  0.528700  0.823700  1.0  0.0713
  H  H64  1  0.519500  0.536600  0.846900  1.0  0.0844
  H  H65  1  0.576300  0.349500  0.824100  1.0  0.0727
  H  H66  1  0.614500  0.415600  0.830100  1.0  0.0703
  H  H67  1  0.462200  0.431400  0.846700  1.0  0.0649
  H  H68  1  0.492100  0.358500  0.854000  1.0  0.0687
  H  H69  1  0.802900  0.695100  0.571900  1.0  0.0822
  H  H70  1  0.732400  0.673200  0.543000  1.0  0.0759
  H  H71  1  0.863600  0.635600  0.731400  1.0  0.0839
  H  H72  1  0.794900  0.605100  0.700600  1.0  0.0837
  H  H73  1  0.715300  0.735700  0.636000  1.0  0.0725
  H  H74  1  0.718000  0.680300  0.710700  1.0  0.0683
  H  H75  1  0.714500  0.765900  0.796100  1.0  0.0761
  H  H76  1  0.718000  0.821400  0.727600  1.0  0.0776
  H  H77  1  0.889900  0.756900  0.776700  1.0  0.0761
  H  H78  1  0.815800  0.786400  0.683600  1.0  0.0697
  H  H79  1  0.835600  0.864300  0.800500  1.0  0.0669
  H  H80  1  0.900500  0.823400  0.897900  1.0  0.084
  H  H81  1  0.835600  0.634400  0.871500  1.0  0.0746
  H  H82  1  0.901000  0.675200  0.905000  1.0  0.0839
  H  H83  1  0.889900  0.740200  0.003300  1.0  0.0791
  H  H84  1  0.816200  0.709700  0.949300  1.0  0.0664
  H  H85  1  0.864900  0.865300  0.998000  1.0  0.0857
  H  H86  1  0.796100  0.896400  0.892700  1.0  0.0788
  H  H87  1  0.732900  0.826100  0.924100  1.0  0.0729
  H  H88  1  0.803500  0.803300  0.034800  1.0  0.0819
  H  H89  1  0.553200  0.053000  0.070600  1.0  0.0794
  H  H90  1  0.574900  0.981900  0.132400  1.0  0.0892
  H  H91  1  0.647100  0.045200  0.299400  1.0  0.0804
  H  H92  1  0.615600  0.114200  0.232300  1.0  0.0751
  H  H93  1  0.570500  0.969300  0.315200  1.0  0.0718
  H  H94  1  0.517900  0.962700  0.189100  1.0  0.083
  H  H95  1  0.575200  0.150300  0.328600  1.0  0.0758
  H  H96  1  0.614400  0.085100  0.401200  1.0  0.0686
  H  H97  1  0.462700  0.067600  0.078700  1.0  0.0706
  H  H98  1  0.493700  0.139700  0.132500  1.0  0.0741
  H  H99  1  0.923600  0.017800  0.481900  1.0  0.0801
  H  H100  1  0.945200  0.946800  0.462700  1.0  0.0784
  H  H101  1  0.854700  0.956500  0.508100  1.0  0.0804
  H  H102  1  0.883900  0.887100  0.499900  1.0  0.0754
  H  H103  1  0.928900  0.028700  0.676300  1.0  0.0703
  H  H104  1  0.980500  0.036600  0.653100  1.0  0.0834
  H  H105  1  0.923700  0.849500  0.675900  1.0  0.0713
  H  H106  1  0.885500  0.915600  0.669900  1.0  0.0684
  H  H107  1  0.037800  0.931400  0.653300  1.0  0.063
  H  H108  1  0.007900  0.858500  0.646000  1.0  0.0667
  H  H109  1  0.697100  0.195100  0.928100  1.0  0.0801
  H  H110  1  0.767600  0.173200  0.957000  1.0  0.0771
  H  H111  1  0.636400  0.135600  0.768600  1.0  0.0809
  H  H112  1  0.705100  0.105100  0.799400  1.0  0.0829
  H  H113  1  0.784700  0.235700  0.864000  1.0  0.0732
  H  H114  1  0.782000  0.180300  0.789300  1.0  0.0686
  H  H115  1  0.785500  0.265900  0.703900  1.0  0.0774
  H  H116  1  0.782000  0.321400  0.772400  1.0  0.0765
  H  H117  1  0.610100  0.256900  0.723300  1.0  0.0747
  H  H118  1  0.684200  0.286400  0.816400  1.0  0.0708
  H  H119  1  0.664400  0.364300  0.699500  1.0  0.066
  H  H120  1  0.599500  0.323400  0.602100  1.0  0.0796
  H  H121  1  0.664400  0.134400  0.628500  1.0  0.0743
  H  H122  1  0.599000  0.175200  0.595000  1.0  0.082
  H  H123  1  0.610100  0.240200  0.496700  1.0  0.0799
  H  H124  1  0.683800  0.209700  0.550700  1.0  0.0649
  H  H125  1  0.635100  0.365300  0.502000  1.0  0.0807
  H  H126  1  0.703900  0.396400  0.607300  1.0  0.0788
  H  H127  1  0.767100  0.326100  0.575900  1.0  0.0753
  H  H128  1  0.696500  0.303300  0.465200  1.0  0.0815
  H  H129  1  0.053200  0.553000  0.070600  1.0  0.0794
  H  H130  1  0.074900  0.481900  0.132400  1.0  0.0892
  H  H131  1  0.147100  0.545200  0.299400  1.0  0.0804
  H  H132  1  0.115600  0.614200  0.232300  1.0  0.0751
  H  H133  1  0.070500  0.469300  0.315200  1.0  0.0718
  H  H134  1  0.017900  0.462700  0.189100  1.0  0.083
  H  H135  1  0.075200  0.650300  0.328600  1.0  0.0758
  H  H136  1  0.114400  0.585100  0.401200  1.0  0.0686
  H  H137  1  0.962700  0.567600  0.078700  1.0  0.0706
  H  H138  1  0.993700  0.639700  0.132500  1.0  0.0741
  H  H139  1  0.423600  0.517800  0.481900  1.0  0.0801
  H  H140  1  0.445200  0.446800  0.462700  1.0  0.0784
  H  H141  1  0.354700  0.456500  0.508100  1.0  0.0804
  H  H142  1  0.383900  0.387100  0.499900  1.0  0.0754
  H  H143  1  0.428900  0.528700  0.676300  1.0  0.0703
  H  H144  1  0.480500  0.536600  0.653100  1.0  0.0834
  H  H145  1  0.423700  0.349500  0.675900  1.0  0.0713
  H  H146  1  0.385500  0.415600  0.669900  1.0  0.0684
  H  H147  1  0.537800  0.431400  0.653300  1.0  0.063
  H  H148  1  0.507900  0.358500  0.646000  1.0  0.0667
  H  H149  1  0.197100  0.695100  0.928100  1.0  0.0801
  H  H150  1  0.267600  0.673200  0.957000  1.0  0.0771
  H  H151  1  0.136400  0.635600  0.768600  1.0  0.0809
  H  H152  1  0.205100  0.605100  0.799400  1.0  0.0829
  H  H153  1  0.284700  0.735700  0.864000  1.0  0.0732
  H  H154  1  0.282000  0.680300  0.789300  1.0  0.0686
  H  H155  1  0.285500  0.765900  0.703900  1.0  0.0774
  H  H156  1  0.282000  0.821400  0.772400  1.0  0.0765
  H  H157  1  0.110100  0.756900  0.723300  1.0  0.0747
  H  H158  1  0.184200  0.786400  0.816400  1.0  0.0708
  H  H159  1  0.164400  0.864300  0.699500  1.0  0.066
  H  H160  1  0.099500  0.823400  0.602100  1.0  0.0796
  H  H161  1  0.164400  0.634400  0.628500  1.0  0.0743
  H  H162  1  0.099000  0.675200  0.595000  1.0  0.082
  H  H163  1  0.110100  0.740200  0.496700  1.0  0.0799
  H  H164  1  0.183800  0.709700  0.550700  1.0  0.0649
  H  H165  1  0.135100  0.865300  0.502000  1.0  0.0807
  H  H166  1  0.203900  0.896400  0.607300  1.0  0.0788
  H  H167  1  0.267100  0.826100  0.575900  1.0  0.0753
  H  H168  1  0.196500  0.803300  0.465200  1.0  0.0815
  H  H169  1  0.553200  0.947000  0.570600  1.0  0.0788
  H  H170  1  0.574900  0.018100  0.632400  1.0  0.0884
  H  H171  1  0.647100  0.954800  0.799400  1.0  0.0799
  H  H172  1  0.615600  0.885800  0.732300  1.0  0.075
  H  H173  1  0.570500  0.030700  0.815200  1.0  0.0707
  H  H174  1  0.517900  0.037300  0.689100  1.0  0.0826
  H  H175  1  0.575200  0.849700  0.828600  1.0  0.0739
  H  H176  1  0.614400  0.914900  0.901200  1.0  0.0687
  H  H177  1  0.462700  0.932400  0.578700  1.0  0.0709
  H  H178  1  0.493700  0.860300  0.632500  1.0  0.0722
  H  H179  1  0.923600  0.982200  0.981900  1.0  0.0812
  H  H180  1  0.945200  0.053200  0.962700  1.0  0.0795
  H  H181  1  0.854700  0.043500  0.008100  1.0  0.0802
  H  H182  1  0.883900  0.112900  0.999900  1.0  0.0763
  H  H183  1  0.928900  0.971300  0.176300  1.0  0.0716
  H  H184  1  0.980500  0.963400  0.153100  1.0  0.0814
  H  H185  1  0.923700  0.150500  0.175900  1.0  0.0734
  H  H186  1  0.885500  0.084400  0.169900  1.0  0.0681
  H  H187  1  0.037800  0.068600  0.153300  1.0  0.063
  H  H188  1  0.007900  0.141500  0.146000  1.0  0.0702
  H  H189  1  0.697100  0.804900  0.428100  1.0  0.0809
  H  H190  1  0.767600  0.826800  0.457000  1.0  0.0771
  H  H191  1  0.636400  0.864400  0.268600  1.0  0.0811
  H  H192  1  0.705100  0.894900  0.299400  1.0  0.0809
  H  H193  1  0.784700  0.764300  0.364000  1.0  0.0732
  H  H194  1  0.782000  0.819700  0.289300  1.0  0.0689
  H  H195  1  0.785500  0.734100  0.203900  1.0  0.0783
  H  H196  1  0.782000  0.678600  0.272400  1.0  0.077
  H  H197  1  0.610100  0.743100  0.223300  1.0  0.0746
  H  H198  1  0.684200  0.713600  0.316400  1.0  0.0709
  H  H199  1  0.664400  0.635700  0.199500  1.0  0.0664
  H  H200  1  0.599500  0.676600  0.102100  1.0  0.0791
  H  H201  1  0.664400  0.865600  0.128500  1.0  0.0734
  H  H202  1  0.599000  0.824800  0.095000  1.0  0.0824
  H  H203  1  0.610100  0.759800  0.996700  1.0  0.0797
  H  H204  1  0.683800  0.790300  0.050700  1.0  0.0657
  H  H205  1  0.635100  0.634700  0.002000  1.0  0.0809
  H  H206  1  0.703900  0.603600  0.107300  1.0  0.08
  H  H207  1  0.767100  0.673900  0.075900  1.0  0.0748
  H  H208  1  0.696500  0.696700  0.965200  1.0  0.0823
  H  H209  1  0.053200  0.447000  0.570600  1.0  0.0788
  H  H210  1  0.074900  0.518100  0.632400  1.0  0.0884
  H  H211  1  0.147100  0.454800  0.799400  1.0  0.0799
  H  H212  1  0.115600  0.385800  0.732300  1.0  0.075
  H  H213  1  0.070500  0.530700  0.815200  1.0  0.0707
  H  H214  1  0.017900  0.537300  0.689100  1.0  0.0826
  H  H215  1  0.075200  0.349700  0.828600  1.0  0.0739
  H  H216  1  0.114400  0.414900  0.901200  1.0  0.0687
  H  H217  1  0.962700  0.432400  0.578700  1.0  0.0709
  H  H218  1  0.993700  0.360300  0.632500  1.0  0.0722
  H  H219  1  0.423600  0.482200  0.981900  1.0  0.0812
  H  H220  1  0.445200  0.553200  0.962700  1.0  0.0795
  H  H221  1  0.354700  0.543500  0.008100  1.0  0.0802
  H  H222  1  0.383900  0.612900  0.999900  1.0  0.0763
  H  H223  1  0.428900  0.471300  0.176300  1.0  0.0716
  H  H224  1  0.480500  0.463400  0.153100  1.0  0.0814
  H  H225  1  0.423700  0.650500  0.175900  1.0  0.0734
  H  H226  1  0.385500  0.584400  0.169900  1.0  0.0681
  H  H227  1  0.537800  0.568600  0.153300  1.0  0.063
  H  H228  1  0.507900  0.641500  0.146000  1.0  0.0702
  H  H229  1  0.197100  0.304900  0.428100  1.0  0.0809
  H  H230  1  0.267600  0.326800  0.457000  1.0  0.0771
  H  H231  1  0.136400  0.364400  0.268600  1.0  0.0811
  H  H232  1  0.205100  0.394900  0.299400  1.0  0.0809
  H  H233  1  0.284700  0.264300  0.364000  1.0  0.0732
  H  H234  1  0.282000  0.319700  0.289300  1.0  0.0689
  H  H235  1  0.285500  0.234100  0.203900  1.0  0.0783
  H  H236  1  0.282000  0.178600  0.272400  1.0  0.077
  H  H237  1  0.110100  0.243100  0.223300  1.0  0.0746
  H  H238  1  0.184200  0.213600  0.316400  1.0  0.0709
  H  H239  1  0.164400  0.135700  0.199500  1.0  0.0664
  H  H240  1  0.099500  0.176600  0.102100  1.0  0.0791
  H  H241  1  0.164400  0.365600  0.128500  1.0  0.0734
  H  H242  1  0.099000  0.324800  0.095000  1.0  0.0824
  H  H243  1  0.110100  0.259800  0.996700  1.0  0.0797
  H  H244  1  0.183800  0.290300  0.050700  1.0  0.0657
  H  H245  1  0.135100  0.134700  0.002000  1.0  0.0809
  H  H246  1  0.203900  0.103600  0.107300  1.0  0.08
  H  H247  1  0.267100  0.173900  0.075900  1.0  0.0748
  H  H248  1  0.196500  0.196700  0.965200  1.0  0.0823
  H  H249  1  0.446800  0.947000  0.929400  1.0  0.0779
  H  H250  1  0.425100  0.018100  0.867600  1.0  0.0872
  H  H251  1  0.352900  0.954800  0.700600  1.0  0.0788
  H  H252  1  0.384400  0.885800  0.767700  1.0  0.0765
  H  H253  1  0.429500  0.030700  0.684800  1.0  0.0731
  H  H254  1  0.482100  0.037300  0.810900  1.0  0.0813
  H  H255  1  0.424800  0.849700  0.671400  1.0  0.074
  H  H256  1  0.385600  0.914900  0.598800  1.0  0.0668
  H  H257  1  0.537300  0.932400  0.921300  1.0  0.0707
  H  H258  1  0.506300  0.860300  0.867500  1.0  0.0722
  H  H259  1  0.076400  0.982200  0.518100  1.0  0.0795
  H  H260  1  0.054800  0.053200  0.537300  1.0  0.0773
  H  H261  1  0.145300  0.043500  0.491900  1.0  0.0811
  H  H262  1  0.116100  0.112900  0.500100  1.0  0.0762
  H  H263  1  0.071100  0.971300  0.323700  1.0  0.0702
  H  H264  1  0.019500  0.963400  0.346900  1.0  0.0848
  H  H265  1  0.076300  0.150500  0.324100  1.0  0.0727
  H  H266  1  0.114500  0.084400  0.330100  1.0  0.0702
  H  H267  1  0.962200  0.068600  0.346700  1.0  0.065
  H  H268  1  0.992100  0.141500  0.354000  1.0  0.069
  H  H269  1  0.302900  0.804900  0.071900  1.0  0.0822
  H  H270  1  0.232400  0.826800  0.043000  1.0  0.0757
  H  H271  1  0.363600  0.864400  0.231400  1.0  0.0845
  H  H272  1  0.294900  0.894900  0.200600  1.0  0.0818
  H  H273  1  0.215300  0.764300  0.136000  1.0  0.0718
  H  H274  1  0.218000  0.819700  0.210700  1.0  0.0687
  H  H275  1  0.214500  0.734100  0.296100  1.0  0.076
  H  H276  1  0.218000  0.678600  0.227600  1.0  0.077
  H  H277  1  0.389900  0.743100  0.276700  1.0  0.0762
  H  H278  1  0.315800  0.713600  0.183600  1.0  0.0696
  H  H279  1  0.335600  0.635700  0.300500  1.0  0.0667
  H  H280  1  0.400500  0.676600  0.397900  1.0  0.0834
  H  H281  1  0.335600  0.865600  0.371500  1.0  0.0737
  H  H282  1  0.401000  0.824800  0.405000  1.0  0.0844
  H  H283  1  0.389900  0.759800  0.503300  1.0  0.0793
  H  H284  1  0.316200  0.790300  0.449300  1.0  0.0671
  H  H285  1  0.364900  0.634700  0.498000  1.0  0.0857
  H  H286  1  0.296100  0.603600  0.392700  1.0  0.0797
  H  H287  1  0.232900  0.673900  0.424100  1.0  0.0727
  H  H288  1  0.303500  0.696700  0.534800  1.0  0.0811
  H  H289  1  0.946800  0.447000  0.929400  1.0  0.0779
  H  H290  1  0.925100  0.518100  0.867600  1.0  0.0872
  H  H291  1  0.852900  0.454800  0.700600  1.0  0.0788
  H  H292  1  0.884400  0.385800  0.767700  1.0  0.0765
  H  H293  1  0.929500  0.530700  0.684800  1.0  0.0731
  H  H294  1  0.982100  0.537300  0.810900  1.0  0.0813
  H  H295  1  0.924800  0.349700  0.671400  1.0  0.074
  H  H296  1  0.885600  0.414900  0.598800  1.0  0.0668
  H  H297  1  0.037300  0.432400  0.921300  1.0  0.0707
  H  H298  1  0.006300  0.360300  0.867500  1.0  0.0722
  H  H299  1  0.576400  0.482200  0.518100  1.0  0.0795
  H  H300  1  0.554800  0.553200  0.537300  1.0  0.0773
  H  H301  1  0.645300  0.543500  0.491900  1.0  0.0811
  H  H302  1  0.616100  0.612900  0.500100  1.0  0.0762
  H  H303  1  0.571100  0.471300  0.323700  1.0  0.0702
  H  H304  1  0.519500  0.463400  0.346900  1.0  0.0848
  H  H305  1  0.576300  0.650500  0.324100  1.0  0.0727
  H  H306  1  0.614500  0.584400  0.330100  1.0  0.0702
  H  H307  1  0.462200  0.568600  0.346700  1.0  0.065
  H  H308  1  0.492100  0.641500  0.354000  1.0  0.069
  H  H309  1  0.802900  0.304900  0.071900  1.0  0.0822
  H  H310  1  0.732400  0.326800  0.043000  1.0  0.0757
  H  H311  1  0.863600  0.364400  0.231400  1.0  0.0845
  H  H312  1  0.794900  0.394900  0.200600  1.0  0.0818
  H  H313  1  0.715300  0.264300  0.136000  1.0  0.0718
  H  H314  1  0.718000  0.319700  0.210700  1.0  0.0687
  H  H315  1  0.714500  0.234100  0.296100  1.0  0.076
  H  H316  1  0.718000  0.178600  0.227600  1.0  0.077
  H  H317  1  0.889900  0.243100  0.276700  1.0  0.0762
  H  H318  1  0.815800  0.213600  0.183600  1.0  0.0696
  H  H319  1  0.835600  0.135700  0.300500  1.0  0.0667
  H  H320  1  0.900500  0.176600  0.397900  1.0  0.0834
  H  H321  1  0.835600  0.365600  0.371500  1.0  0.0737
  H  H322  1  0.901000  0.324800  0.405000  1.0  0.0844
  H  H323  1  0.889900  0.259800  0.503300  1.0  0.0793
  H  H324  1  0.816200  0.290300  0.449300  1.0  0.0671
  H  H325  1  0.864900  0.134700  0.498000  1.0  0.0857
  H  H326  1  0.796100  0.103600  0.392700  1.0  0.0797
  H  H327  1  0.732900  0.173900  0.424100  1.0  0.0727
  H  H328  1  0.803500  0.196700  0.534800  1.0  0.0811
  C  C329  1  0.344900  0.029300  0.352800  1.0  0.7104
  C  C330  1  0.410400  0.028600  0.364400  1.0  -0.2154
  C  C331  1  0.393500  0.066200  0.265000  1.0  -0.0532
  C  C332  1  0.469900  0.989700  0.250300  1.0  -0.0424
  C  C333  1  0.429800  0.102300  0.161200  1.0  -0.0437
  C  C334  1  0.518100  0.094800  0.357300  1.0  -0.0499
  C  C335  1  0.155100  0.972700  0.163400  1.0  0.7089
  C  C336  1  0.091200  0.971200  0.044900  1.0  -0.1958
  C  C337  1  0.105500  0.934700  0.976900  1.0  -0.0663
  C  C338  1  0.030700  0.009200  0.809600  1.0  -0.0405
  C  C339  1  0.070300  0.897400  0.803100  1.0  -0.0499
  C  C340  1  0.981300  0.903700  0.821200  1.0  -0.0465
  C  C341  1  0.276600  0.095800  0.518600  1.0  0.7099
  C  C342  1  0.279000  0.158600  0.577400  1.0  -0.1973
  C  C343  1  0.315900  0.145400  0.696500  1.0  -0.0627
  C  C344  1  0.240200  0.220600  0.709800  1.0  -0.0455
  C  C345  1  0.239600  0.280700  0.772200  1.0  -0.0522
  C  C346  1  0.345200  0.267100  0.755600  1.0  -0.0458
  C  C347  1  0.352400  0.319700  0.834800  1.0  -0.041
  C  C348  1  0.352800  0.179000  0.871200  1.0  -0.0512
  C  C349  1  0.345300  0.229400  0.935400  1.0  -0.0256
  C  C350  1  0.317000  0.355900  0.938200  1.0  -0.0725
  C  C351  1  0.279600  0.340200  0.982600  1.0  -0.2241
  C  C352  1  0.279000  0.404600  0.037400  1.0  0.7175
  C  C353  1  0.844900  0.529300  0.352800  1.0  0.7104
  C  C354  1  0.910400  0.528600  0.364400  1.0  -0.2154
  C  C355  1  0.893500  0.566200  0.265000  1.0  -0.0532
  C  C356  1  0.969900  0.489700  0.250300  1.0  -0.0424
  C  C357  1  0.929800  0.602300  0.161200  1.0  -0.0437
  C  C358  1  0.018100  0.594800  0.357300  1.0  -0.0499
  C  C359  1  0.655100  0.472700  0.163400  1.0  0.7089
  C  C360  1  0.591200  0.471200  0.044900  1.0  -0.1958
  C  C361  1  0.605500  0.434700  0.976900  1.0  -0.0663
  C  C362  1  0.530700  0.509200  0.809600  1.0  -0.0405
  C  C363  1  0.570300  0.397400  0.803100  1.0  -0.0499
  C  C364  1  0.481300  0.403700  0.821200  1.0  -0.0465
  C  C365  1  0.776600  0.595800  0.518600  1.0  0.7099
  C  C366  1  0.779000  0.658600  0.577400  1.0  -0.1973
  C  C367  1  0.815900  0.645400  0.696500  1.0  -0.0627
  C  C368  1  0.740200  0.720600  0.709800  1.0  -0.0455
  C  C369  1  0.739600  0.780700  0.772200  1.0  -0.0522
  C  C370  1  0.845200  0.767100  0.755600  1.0  -0.0458
  C  C371  1  0.852400  0.819700  0.834800  1.0  -0.041
  C  C372  1  0.852800  0.679000  0.871200  1.0  -0.0512
  C  C373  1  0.845300  0.729400  0.935400  1.0  -0.0256
  C  C374  1  0.817000  0.855900  0.938200  1.0  -0.0725
  C  C375  1  0.779600  0.840200  0.982600  1.0  -0.2241
  C  C376  1  0.779000  0.904600  0.037400  1.0  0.7175
  C  C377  1  0.655100  0.029300  0.147200  1.0  0.7122
  C  C378  1  0.589600  0.028600  0.135600  1.0  -0.2162
  C  C379  1  0.606500  0.066200  0.235000  1.0  -0.052
  C  C380  1  0.530100  0.989700  0.249700  1.0  -0.0411
  C  C381  1  0.570200  0.102300  0.338800  1.0  -0.0425
  C  C382  1  0.481900  0.094800  0.142700  1.0  -0.0495
  C  C383  1  0.844900  0.972700  0.336600  1.0  0.707
  C  C384  1  0.908800  0.971200  0.455100  1.0  -0.1936
  C  C385  1  0.894500  0.934700  0.523100  1.0  -0.0674
  C  C386  1  0.969300  0.009200  0.690400  1.0  -0.04
  C  C387  1  0.929700  0.897400  0.696900  1.0  -0.0516
  C  C388  1  0.018700  0.903700  0.678800  1.0  -0.0465
  C  C389  1  0.723400  0.095800  0.981400  1.0  0.7097
  C  C390  1  0.721000  0.158600  0.922600  1.0  -0.1986
  C  C391  1  0.684100  0.145400  0.803500  1.0  -0.061
  C  C392  1  0.759800  0.220600  0.790200  1.0  -0.0464
  C  C393  1  0.760400  0.280700  0.727800  1.0  -0.0503
  C  C394  1  0.654800  0.267100  0.744400  1.0  -0.0435
  C  C395  1  0.647600  0.319700  0.665200  1.0  -0.0415
  C  C396  1  0.647200  0.179000  0.628800  1.0  -0.0509
  C  C397  1  0.654700  0.229400  0.564600  1.0  -0.0237
  C  C398  1  0.683000  0.355900  0.561800  1.0  -0.0722
  C  C399  1  0.720400  0.340200  0.517400  1.0  -0.224
  C  C400  1  0.721000  0.404600  0.462600  1.0  0.7153
  C  C401  1  0.155100  0.529300  0.147200  1.0  0.7122
  C  C402  1  0.089600  0.528600  0.135600  1.0  -0.2162
  C  C403  1  0.106500  0.566200  0.235000  1.0  -0.052
  C  C404  1  0.030100  0.489700  0.249700  1.0  -0.0411
  C  C405  1  0.070200  0.602300  0.338800  1.0  -0.0425
  C  C406  1  0.981900  0.594800  0.142700  1.0  -0.0495
  C  C407  1  0.344900  0.472700  0.336600  1.0  0.707
  C  C408  1  0.408800  0.471200  0.455100  1.0  -0.1936
  C  C409  1  0.394500  0.434700  0.523100  1.0  -0.0674
  C  C410  1  0.469300  0.509200  0.690400  1.0  -0.04
  C  C411  1  0.429700  0.397400  0.696900  1.0  -0.0516
  C  C412  1  0.518700  0.403700  0.678800  1.0  -0.0465
  C  C413  1  0.223400  0.595800  0.981400  1.0  0.7097
  C  C414  1  0.221000  0.658600  0.922600  1.0  -0.1986
  C  C415  1  0.184100  0.645400  0.803500  1.0  -0.061
  C  C416  1  0.259800  0.720600  0.790200  1.0  -0.0464
  C  C417  1  0.260400  0.780700  0.727800  1.0  -0.0503
  C  C418  1  0.154800  0.767100  0.744400  1.0  -0.0435
  C  C419  1  0.147600  0.819700  0.665200  1.0  -0.0415
  C  C420  1  0.147200  0.679000  0.628800  1.0  -0.0509
  C  C421  1  0.154700  0.729400  0.564600  1.0  -0.0237
  C  C422  1  0.183000  0.855900  0.561800  1.0  -0.0722
  C  C423  1  0.220400  0.840200  0.517400  1.0  -0.224
  C  C424  1  0.221000  0.904600  0.462600  1.0  0.7153
  C  C425  1  0.655100  0.970700  0.647200  1.0  0.7122
  C  C426  1  0.589600  0.971400  0.635600  1.0  -0.2158
  C  C427  1  0.606500  0.933800  0.735000  1.0  -0.053
  C  C428  1  0.530100  0.010300  0.749700  1.0  -0.0454
  C  C429  1  0.570200  0.897700  0.838800  1.0  -0.0413
  C  C430  1  0.481900  0.905200  0.642700  1.0  -0.0487
  C  C431  1  0.844900  0.027300  0.836600  1.0  0.7071
  C  C432  1  0.908800  0.028800  0.955100  1.0  -0.1932
  C  C433  1  0.894500  0.065300  0.023100  1.0  -0.0677
  C  C434  1  0.969300  0.990800  0.190400  1.0  -0.0385
  C  C435  1  0.929700  0.102600  0.196900  1.0  -0.053
  C  C436  1  0.018700  0.096300  0.178800  1.0  -0.0456
  C  C437  1  0.723400  0.904200  0.481400  1.0  0.7094
  C  C438  1  0.721000  0.841400  0.422600  1.0  -0.1995
  C  C439  1  0.684100  0.854600  0.303500  1.0  -0.0622
  C  C440  1  0.759800  0.779400  0.290200  1.0  -0.0457
  C  C441  1  0.760400  0.719300  0.227800  1.0  -0.0509
  C  C442  1  0.654800  0.732900  0.244400  1.0  -0.0425
  C  C443  1  0.647600  0.680300  0.165200  1.0  -0.0417
  C  C444  1  0.647200  0.821000  0.128800  1.0  -0.0502
  C  C445  1  0.654700  0.770600  0.064600  1.0  -0.0241
  C  C446  1  0.683000  0.644100  0.061800  1.0  -0.0726
  C  C447  1  0.720400  0.659800  0.017400  1.0  -0.223
  C  C448  1  0.721000  0.595400  0.962600  1.0  0.7158
  C  C449  1  0.155100  0.470700  0.647200  1.0  0.7122
  C  C450  1  0.089600  0.471400  0.635600  1.0  -0.2158
  C  C451  1  0.106500  0.433800  0.735000  1.0  -0.053
  C  C452  1  0.030100  0.510300  0.749700  1.0  -0.0454
  C  C453  1  0.070200  0.397700  0.838800  1.0  -0.0413
  C  C454  1  0.981900  0.405200  0.642700  1.0  -0.0487
  C  C455  1  0.344900  0.527300  0.836600  1.0  0.7071
  C  C456  1  0.408800  0.528800  0.955100  1.0  -0.1932
  C  C457  1  0.394500  0.565300  0.023100  1.0  -0.0677
  C  C458  1  0.469300  0.490800  0.190400  1.0  -0.0385
  C  C459  1  0.429700  0.602600  0.196900  1.0  -0.053
  C  C460  1  0.518700  0.596300  0.178800  1.0  -0.0456
  C  C461  1  0.223400  0.404200  0.481400  1.0  0.7094
  C  C462  1  0.221000  0.341400  0.422600  1.0  -0.1995
  C  C463  1  0.184100  0.354600  0.303500  1.0  -0.0622
  C  C464  1  0.259800  0.279400  0.290200  1.0  -0.0457
  C  C465  1  0.260400  0.219300  0.227800  1.0  -0.0509
  C  C466  1  0.154800  0.232900  0.244400  1.0  -0.0425
  C  C467  1  0.147600  0.180300  0.165200  1.0  -0.0417
  C  C468  1  0.147200  0.321000  0.128800  1.0  -0.0502
  C  C469  1  0.154700  0.270600  0.064600  1.0  -0.0241
  C  C470  1  0.183000  0.144100  0.061800  1.0  -0.0726
  C  C471  1  0.220400  0.159800  0.017400  1.0  -0.223
  C  C472  1  0.221000  0.095400  0.962600  1.0  0.7158
  C  C473  1  0.344900  0.970700  0.852800  1.0  0.7101
  C  C474  1  0.410400  0.971400  0.864400  1.0  -0.2148
  C  C475  1  0.393500  0.933800  0.765000  1.0  -0.0533
  C  C476  1  0.469900  0.010300  0.750300  1.0  -0.0436
  C  C477  1  0.429800  0.897700  0.661200  1.0  -0.0427
  C  C478  1  0.518100  0.905200  0.857300  1.0  -0.0488
  C  C479  1  0.155100  0.027300  0.663400  1.0  0.7089
  C  C480  1  0.091200  0.028800  0.544900  1.0  -0.1963
  C  C481  1  0.105500  0.065300  0.476900  1.0  -0.066
  C  C482  1  0.030700  0.990800  0.309600  1.0  -0.0398
  C  C483  1  0.070300  0.102600  0.303100  1.0  -0.0496
  C  C484  1  0.981300  0.096300  0.321200  1.0  -0.0486
  C  C485  1  0.276600  0.904200  0.018600  1.0  0.7098
  C  C486  1  0.279000  0.841400  0.077400  1.0  -0.198
  C  C487  1  0.315900  0.854600  0.196500  1.0  -0.0617
  C  C488  1  0.240200  0.779400  0.209800  1.0  -0.0461
  C  C489  1  0.239600  0.719300  0.272200  1.0  -0.0522
  C  C490  1  0.345200  0.732900  0.255600  1.0  -0.0452
  C  C491  1  0.352400  0.680300  0.334800  1.0  -0.0421
  C  C492  1  0.352800  0.821000  0.371200  1.0  -0.0507
  C  C493  1  0.345300  0.770600  0.435400  1.0  -0.0254
  C  C494  1  0.317000  0.644100  0.438200  1.0  -0.0727
  C  C495  1  0.279600  0.659800  0.482600  1.0  -0.2218
  C  C496  1  0.279000  0.595400  0.537400  1.0  0.7183
  C  C497  1  0.844900  0.470700  0.852800  1.0  0.7101
  C  C498  1  0.910400  0.471400  0.864400  1.0  -0.2148
  C  C499  1  0.893500  0.433800  0.765000  1.0  -0.0533
  C  C500  1  0.969900  0.510300  0.750300  1.0  -0.0436
  C  C501  1  0.929800  0.397700  0.661200  1.0  -0.0427
  C  C502  1  0.018100  0.405200  0.857300  1.0  -0.0488
  C  C503  1  0.655100  0.527300  0.663400  1.0  0.7089
  C  C504  1  0.591200  0.528800  0.544900  1.0  -0.1963
  C  C505  1  0.605500  0.565300  0.476900  1.0  -0.066
  C  C506  1  0.530700  0.490800  0.309600  1.0  -0.0398
  C  C507  1  0.570300  0.602600  0.303100  1.0  -0.0496
  C  C508  1  0.481300  0.596300  0.321200  1.0  -0.0486
  C  C509  1  0.776600  0.404200  0.018600  1.0  0.7098
  C  C510  1  0.779000  0.341400  0.077400  1.0  -0.198
  C  C511  1  0.815900  0.354600  0.196500  1.0  -0.0617
  C  C512  1  0.740200  0.279400  0.209800  1.0  -0.0461
  C  C513  1  0.739600  0.219300  0.272200  1.0  -0.0522
  C  C514  1  0.845200  0.232900  0.255600  1.0  -0.0452
  C  C515  1  0.852400  0.180300  0.334800  1.0  -0.0421
  C  C516  1  0.852800  0.321000  0.371200  1.0  -0.0507
  C  C517  1  0.845300  0.270600  0.435400  1.0  -0.0254
  C  C518  1  0.817000  0.144100  0.438200  1.0  -0.0727
  C  C519  1  0.779600  0.159800  0.482600  1.0  -0.2218
  C  C520  1  0.779000  0.095400  0.537400  1.0  0.7183
  N  N521  1  0.454100  0.063400  0.260600  1.0  -0.1173
  N  N522  1  0.045900  0.936300  0.853500  1.0  -0.1019
  N  N523  1  0.312700  0.203400  0.755200  1.0  -0.1018
  N  N524  1  0.314000  0.297000  0.872000  1.0  -0.0934
  N  N525  1  0.954100  0.563400  0.260600  1.0  -0.1173
  N  N526  1  0.545900  0.436300  0.853500  1.0  -0.1019
  N  N527  1  0.812700  0.703400  0.755200  1.0  -0.1018
  N  N528  1  0.814000  0.797000  0.872000  1.0  -0.0934
  N  N529  1  0.545900  0.063400  0.239400  1.0  -0.1198
  N  N530  1  0.954100  0.936300  0.646500  1.0  -0.1013
  N  N531  1  0.687300  0.203400  0.744800  1.0  -0.097
  N  N532  1  0.686000  0.297000  0.628000  1.0  -0.0922
  N  N533  1  0.045900  0.563400  0.239400  1.0  -0.1198
  N  N534  1  0.454100  0.436300  0.646500  1.0  -0.1013
  N  N535  1  0.187300  0.703400  0.744800  1.0  -0.097
  N  N536  1  0.186000  0.797000  0.628000  1.0  -0.0922
  N  N537  1  0.545900  0.936600  0.739400  1.0  -0.1193
  N  N538  1  0.954100  0.063700  0.146500  1.0  -0.1011
  N  N539  1  0.687300  0.796600  0.244800  1.0  -0.0968
  N  N540  1  0.686000  0.703000  0.128000  1.0  -0.0929
  N  N541  1  0.045900  0.436600  0.739400  1.0  -0.1193
  N  N542  1  0.454100  0.563700  0.146500  1.0  -0.1011
  N  N543  1  0.187300  0.296600  0.244800  1.0  -0.0968
  N  N544  1  0.186000  0.203000  0.128000  1.0  -0.0929
  N  N545  1  0.454100  0.936600  0.760600  1.0  -0.117
  N  N546  1  0.045900  0.063700  0.353500  1.0  -0.1022
  N  N547  1  0.312700  0.796600  0.255200  1.0  -0.1013
  N  N548  1  0.314000  0.703000  0.372000  1.0  -0.094
  N  N549  1  0.954100  0.436600  0.760600  1.0  -0.117
  N  N550  1  0.545900  0.563700  0.353500  1.0  -0.1022
  N  N551  1  0.812700  0.296600  0.255200  1.0  -0.1013
  N  N552  1  0.814000  0.203000  0.372000  1.0  -0.094
  O  O553  1  0.345700  0.990500  0.416500  1.0  -0.5926
  O  O554  1  0.294100  0.064700  0.281800  1.0  -0.5893
  O  O555  1  0.153100  0.010900  0.224900  1.0  -0.5891
  O  O556  1  0.205100  0.936700  0.193100  1.0  -0.5778
  O  O557  1  0.239500  0.096200  0.418900  1.0  -0.5903
  O  O558  1  0.314700  0.045900  0.576200  1.0  -0.5939
  O  O559  1  0.240600  0.404000  0.062900  1.0  -0.603
  O  O560  1  0.314000  0.455000  0.052700  1.0  -0.5827
  O  O561  1  0.845700  0.490500  0.416500  1.0  -0.5926
  O  O562  1  0.794100  0.564700  0.281800  1.0  -0.5893
  O  O563  1  0.653100  0.510900  0.224900  1.0  -0.5891
  O  O564  1  0.705100  0.436700  0.193100  1.0  -0.5778
  O  O565  1  0.739500  0.596200  0.418900  1.0  -0.5903
  O  O566  1  0.814700  0.545900  0.576200  1.0  -0.5939
  O  O567  1  0.740600  0.904000  0.062900  1.0  -0.603
  O  O568  1  0.814000  0.955000  0.052700  1.0  -0.5827
  O  O569  1  0.654300  0.990500  0.083500  1.0  -0.593
  O  O570  1  0.705900  0.064700  0.218200  1.0  -0.5901
  O  O571  1  0.846900  0.010900  0.275100  1.0  -0.5893
  O  O572  1  0.794900  0.936700  0.306900  1.0  -0.5772
  O  O573  1  0.760500  0.096200  0.081100  1.0  -0.5908
  O  O574  1  0.685300  0.045900  0.923800  1.0  -0.5932
  O  O575  1  0.759400  0.404000  0.437100  1.0  -0.6039
  O  O576  1  0.686000  0.455000  0.447300  1.0  -0.5818
  O  O577  1  0.154300  0.490500  0.083500  1.0  -0.593
  O  O578  1  0.205900  0.564700  0.218200  1.0  -0.5901
  O  O579  1  0.346900  0.510900  0.275100  1.0  -0.5893
  O  O580  1  0.294900  0.436700  0.306900  1.0  -0.5772
  O  O581  1  0.260500  0.596200  0.081100  1.0  -0.5908
  O  O582  1  0.185300  0.545900  0.923800  1.0  -0.5932
  O  O583  1  0.259400  0.904000  0.437100  1.0  -0.6039
  O  O584  1  0.186000  0.955000  0.447300  1.0  -0.5818
  O  O585  1  0.654300  0.009500  0.583500  1.0  -0.5927
  O  O586  1  0.705900  0.935300  0.718200  1.0  -0.5903
  O  O587  1  0.846900  0.989100  0.775100  1.0  -0.589
  O  O588  1  0.794900  0.063300  0.806900  1.0  -0.5769
  O  O589  1  0.760500  0.903800  0.581100  1.0  -0.5911
  O  O590  1  0.685300  0.954100  0.423800  1.0  -0.5932
  O  O591  1  0.759400  0.596000  0.937100  1.0  -0.6037
  O  O592  1  0.686000  0.545000  0.947300  1.0  -0.5815
  O  O593  1  0.154300  0.509500  0.583500  1.0  -0.5927
  O  O594  1  0.205900  0.435300  0.718200  1.0  -0.5903
  O  O595  1  0.346900  0.489100  0.775100  1.0  -0.589
  O  O596  1  0.294900  0.563300  0.806900  1.0  -0.5769
  O  O597  1  0.260500  0.403800  0.581100  1.0  -0.5911
  O  O598  1  0.185300  0.454100  0.423800  1.0  -0.5932
  O  O599  1  0.259400  0.096000  0.937100  1.0  -0.6037
  O  O600  1  0.186000  0.045000  0.947300  1.0  -0.5815
  O  O601  1  0.345700  0.009500  0.916500  1.0  -0.5916
  O  O602  1  0.294100  0.935300  0.781800  1.0  -0.5889
  O  O603  1  0.153100  0.989100  0.724900  1.0  -0.5897
  O  O604  1  0.205100  0.063300  0.693100  1.0  -0.5782
  O  O605  1  0.239500  0.903800  0.918900  1.0  -0.5905
  O  O606  1  0.314700  0.954100  0.076200  1.0  -0.594
  O  O607  1  0.240600  0.596000  0.562900  1.0  -0.6028
  O  O608  1  0.314000  0.545000  0.552700  1.0  -0.5826
  O  O609  1  0.845700  0.509500  0.916500  1.0  -0.5916
  O  O610  1  0.794100  0.435300  0.781800  1.0  -0.5889
  O  O611  1  0.653100  0.489100  0.724900  1.0  -0.5897
  O  O612  1  0.705100  0.563300  0.693100  1.0  -0.5782
  O  O613  1  0.739500  0.403800  0.918900  1.0  -0.5905
  O  O614  1  0.814700  0.454100  0.076200  1.0  -0.594
  O  O615  1  0.740600  0.096000  0.562900  1.0  -0.6028
  O  O616  1  0.814000  0.045000  0.552700  1.0  -0.5826
