# generated using pymatgen
data_CuH3C10(SO2)2
_symmetry_space_group_name_H-M   'P 1'
_cell_length_a   18.55900000
_cell_length_b   18.55900000
_cell_length_c   10.98000000
_cell_angle_alpha   90.00000000
_cell_angle_beta   90.00000000
_cell_angle_gamma   120.00000000
_symmetry_Int_Tables_number   1
_chemical_formula_structural   CuH3C10(SO2)2
_chemical_formula_sum   'Cu6 H18 C60 S12 O24'
_cell_volume   3275.23235305
_cell_formula_units_Z   6
loop_
 _symmetry_equiv_pos_site_id
 _symmetry_equiv_pos_as_xyz
  1  'x, y, z'
loop_
 _atom_site_type_symbol
 _atom_site_label
 _atom_site_symmetry_multiplicity
 _atom_site_fract_x
 _atom_site_fract_y
 _atom_site_fract_z
 _atom_site_occupancy
 _atom_site_charge
  Cu  Cu1  1  0.476170  0.523830  0.598100  1.0  0.8986
  Cu  Cu2  1  0.476170  0.952340  0.598100  1.0  0.8983
  Cu  Cu3  1  0.047660  0.523830  0.598100  1.0  0.8996
  Cu  Cu4  1  0.523830  0.476170  0.401900  1.0  0.8981
  Cu  Cu5  1  0.952340  0.476170  0.401900  1.0  0.899
  Cu  Cu6  1  0.523830  0.047660  0.401900  1.0  0.8984
  H  H7  1  0.291700  0.366800  0.199300  1.0  0.109
  H  H8  1  0.633200  0.924900  0.199300  1.0  0.1093
  H  H9  1  0.075100  0.708300  0.199300  1.0  0.1088
  H  H10  1  0.366800  0.291700  0.800700  1.0  0.1098
  H  H11  1  0.924900  0.633200  0.800700  1.0  0.1091
  H  H12  1  0.708300  0.075100  0.800700  1.0  0.1095
  H  H13  1  0.708300  0.633200  0.800700  1.0  0.1095
  H  H14  1  0.366800  0.075100  0.800700  1.0  0.1094
  H  H15  1  0.924900  0.291700  0.800700  1.0  0.1092
  H  H16  1  0.633200  0.708300  0.199300  1.0  0.1086
  H  H17  1  0.075100  0.366800  0.199300  1.0  0.1093
  H  H18  1  0.291700  0.924900  0.199300  1.0  0.1093
  H  H19  1  0.235500  0.471000  0.480000  1.0  0.1121
  H  H20  1  0.529000  0.764500  0.480000  1.0  0.1119
  H  H21  1  0.235500  0.764500  0.480000  1.0  0.112
  H  H22  1  0.471000  0.235500  0.520000  1.0  0.1118
  H  H23  1  0.764500  0.529000  0.520000  1.0  0.1122
  H  H24  1  0.764500  0.235500  0.520000  1.0  0.1117
  C  C25  1  0.359200  0.450400  0.405900  1.0  0.6863
  C  C26  1  0.276400  0.423200  0.347600  1.0  -0.1589
  C  C27  1  0.254700  0.381400  0.237000  1.0  -0.0366
  C  C28  1  0.549600  0.908800  0.405900  1.0  0.6869
  C  C29  1  0.576800  0.853200  0.347600  1.0  -0.1582
  C  C30  1  0.618600  0.873300  0.237000  1.0  -0.0387
  C  C31  1  0.091200  0.640800  0.405900  1.0  0.6871
  C  C32  1  0.146800  0.723600  0.347600  1.0  -0.1583
  C  C33  1  0.126700  0.745300  0.237000  1.0  -0.0373
  C  C34  1  0.450400  0.359200  0.594100  1.0  0.6874
  C  C35  1  0.423200  0.276400  0.652400  1.0  -0.1584
  C  C36  1  0.381400  0.254700  0.763000  1.0  -0.0372
  C  C37  1  0.908800  0.549600  0.594100  1.0  0.686
  C  C38  1  0.853200  0.576800  0.652400  1.0  -0.1588
  C  C39  1  0.873300  0.618600  0.763000  1.0  -0.0359
  C  C40  1  0.640800  0.091200  0.594100  1.0  0.6866
  C  C41  1  0.723600  0.146800  0.652400  1.0  -0.1585
  C  C42  1  0.745300  0.126700  0.763000  1.0  -0.0371
  C  C43  1  0.640800  0.549600  0.594100  1.0  0.6858
  C  C44  1  0.723600  0.576800  0.652400  1.0  -0.1593
  C  C45  1  0.745300  0.618600  0.763000  1.0  -0.0388
  C  C46  1  0.450400  0.091200  0.594100  1.0  0.6865
  C  C47  1  0.423200  0.146800  0.652400  1.0  -0.1581
  C  C48  1  0.381400  0.126700  0.763000  1.0  -0.0368
  C  C49  1  0.908800  0.359200  0.594100  1.0  0.6874
  C  C50  1  0.853200  0.276400  0.652400  1.0  -0.1583
  C  C51  1  0.873300  0.254700  0.763000  1.0  -0.0367
  C  C52  1  0.549600  0.640800  0.405900  1.0  0.6871
  C  C53  1  0.576800  0.723600  0.347600  1.0  -0.1581
  C  C54  1  0.618600  0.745300  0.237000  1.0  -0.0376
  C  C55  1  0.091200  0.450400  0.405900  1.0  0.686
  C  C56  1  0.146800  0.423200  0.347600  1.0  -0.1591
  C  C57  1  0.126700  0.381400  0.237000  1.0  -0.0385
  C  C58  1  0.359200  0.908800  0.405900  1.0  0.6869
  C  C59  1  0.276400  0.853200  0.347600  1.0  -0.158
  C  C60  1  0.254700  0.873300  0.237000  1.0  -0.0393
  C  C61  1  0.180450  0.360900  0.180800  1.0  0.0116
  C  C62  1  0.221700  0.443400  0.403500  1.0  0.0129
  C  C63  1  0.082150  0.164300  0.167100  1.0  -0.134
  C  C64  1  0.158800  0.317600  0.054900  1.0  -0.054
  C  C65  1  0.639100  0.819550  0.180800  1.0  0.0125
  C  C66  1  0.556600  0.778300  0.403500  1.0  0.0132
  C  C67  1  0.835700  0.917850  0.167100  1.0  -0.1318
  C  C68  1  0.682400  0.841200  0.054900  1.0  -0.0541
  C  C69  1  0.180450  0.819550  0.180800  1.0  0.0122
  C  C70  1  0.221700  0.778300  0.403500  1.0  0.0129
  C  C71  1  0.082150  0.917850  0.167100  1.0  -0.1314
  C  C72  1  0.158800  0.841200  0.054900  1.0  -0.0526
  C  C73  1  0.360900  0.180450  0.819200  1.0  0.0127
  C  C74  1  0.443400  0.221700  0.596500  1.0  0.0116
  C  C75  1  0.164300  0.082150  0.832900  1.0  -0.1299
  C  C76  1  0.317600  0.158800  0.945100  1.0  -0.052
  C  C77  1  0.819550  0.639100  0.819200  1.0  0.0124
  C  C78  1  0.778300  0.556600  0.596500  1.0  0.0124
  C  C79  1  0.917850  0.835700  0.832900  1.0  -0.1314
  C  C80  1  0.841200  0.682400  0.945100  1.0  -0.0552
  C  C81  1  0.819550  0.180450  0.819200  1.0  0.0125
  C  C82  1  0.778300  0.221700  0.596500  1.0  0.0129
  C  C83  1  0.917850  0.082150  0.832900  1.0  -0.1306
  C  C84  1  0.841200  0.158800  0.945100  1.0  -0.0548
  S  S85  1  0.058600  0.227700  0.048900  1.0  0.1253
  S  S86  1  0.772300  0.830900  0.048900  1.0  0.1255
  S  S87  1  0.169100  0.941400  0.048900  1.0  0.1254
  S  S88  1  0.227700  0.058600  0.951100  1.0  0.1265
  S  S89  1  0.830900  0.772300  0.951100  1.0  0.1271
  S  S90  1  0.941400  0.169100  0.951100  1.0  0.1263
  S  S91  1  0.941400  0.772300  0.951100  1.0  0.127
  S  S92  1  0.227700  0.169100  0.951100  1.0  0.1267
  S  S93  1  0.830900  0.058600  0.951100  1.0  0.1265
  S  S94  1  0.772300  0.941400  0.048900  1.0  0.1258
  S  S95  1  0.169100  0.227700  0.048900  1.0  0.1258
  S  S96  1  0.058600  0.830900  0.048900  1.0  0.1257
  O  O97  1  0.371540  0.481370  0.509800  1.0  -0.5734
  O  O98  1  0.411010  0.440200  0.343800  1.0  -0.5776
  O  O99  1  0.518630  0.890170  0.509800  1.0  -0.5735
  O  O100  1  0.559800  0.970810  0.343800  1.0  -0.5785
  O  O101  1  0.109830  0.628460  0.509800  1.0  -0.573
  O  O102  1  0.029190  0.588990  0.343800  1.0  -0.5781
  O  O103  1  0.481370  0.371540  0.490200  1.0  -0.5731
  O  O104  1  0.440200  0.411010  0.656200  1.0  -0.5776
  O  O105  1  0.890170  0.518630  0.490200  1.0  -0.5736
  O  O106  1  0.970810  0.559800  0.656200  1.0  -0.5772
  O  O107  1  0.628460  0.109830  0.490200  1.0  -0.5736
  O  O108  1  0.588990  0.029190  0.656200  1.0  -0.5775
  O  O109  1  0.628460  0.518630  0.490200  1.0  -0.5731
  O  O110  1  0.588990  0.559800  0.656200  1.0  -0.5775
  O  O111  1  0.481370  0.109830  0.490200  1.0  -0.574
  O  O112  1  0.440200  0.029190  0.656200  1.0  -0.5771
  O  O113  1  0.890170  0.371540  0.490200  1.0  -0.5731
  O  O114  1  0.970810  0.411010  0.656200  1.0  -0.5775
  O  O115  1  0.518630  0.628460  0.509800  1.0  -0.5732
  O  O116  1  0.559800  0.588990  0.343800  1.0  -0.578
  O  O117  1  0.109830  0.481370  0.509800  1.0  -0.5733
  O  O118  1  0.029190  0.440200  0.343800  1.0  -0.5778
  O  O119  1  0.371540  0.890170  0.509800  1.0  -0.5743
  O  O120  1  0.411010  0.970810  0.343800  1.0  -0.5779
