# generated using pymatgen
data_Zn4(PO4)3
_symmetry_space_group_name_H-M   'P 1'
_cell_length_a   5.30500000
_cell_length_b   9.29600000
_cell_length_c   15.47400000
_cell_angle_alpha   86.46200000
_cell_angle_beta   86.42000000
_cell_angle_gamma   78.90600000
_symmetry_Int_Tables_number   1
_chemical_formula_structural   Zn4(PO4)3
_chemical_formula_sum   'Zn8 P6 O24'
_cell_volume   746.42032518
_cell_formula_units_Z   2
loop_
 _symmetry_equiv_pos_site_id
 _symmetry_equiv_pos_as_xyz
  1  'x, y, z'
loop_
 _atom_site_type_symbol
 _atom_site_label
 _atom_site_symmetry_multiplicity
 _atom_site_fract_x
 _atom_site_fract_y
 _atom_site_fract_z
 _atom_site_occupancy
 _atom_site_charge
  Zn  Zn1  1  0.775600  0.619000  0.263550  1.0  0.9629
  Zn  Zn2  1  0.277900  0.555500  0.396330  1.0  1.1362
  Zn  Zn3  1  0.205700  0.575500  0.099750  1.0  1.1616
  Zn  Zn4  1  0.015400  0.150900  0.257450  1.0  0.9897
  Zn  Zn5  1  0.224400  0.381000  0.736450  1.0  0.9628
  Zn  Zn6  1  0.722100  0.444500  0.603670  1.0  1.1363
  Zn  Zn7  1  0.794300  0.424500  0.900250  1.0  1.1633
  Zn  Zn8  1  0.984600  0.849100  0.742550  1.0  0.9884
  P  P9  1  0.762100  0.395600  0.118500  1.0  1.8313
  P  P10  1  0.827300  0.363200  0.407300  1.0  1.8107
  P  P11  1  0.212100  0.796000  0.240500  1.0  1.7612
  P  P12  1  0.237900  0.604400  0.881500  1.0  1.8325
  P  P13  1  0.172700  0.636800  0.592700  1.0  1.8105
  P  P14  1  0.787900  0.204000  0.759500  1.0  1.7606
  O  O15  1  0.100000  0.673700  0.298200  1.0  -0.9057
  O  O16  1  0.890000  0.514800  0.157500  1.0  -0.9292
  O  O17  1  0.649000  0.496400  0.360600  1.0  -0.9185
  O  O18  1  0.492000  0.780500  0.259300  1.0  -0.7609
  O  O19  1  0.101000  0.391300  0.402000  1.0  -0.8144
  O  O20  1  0.282000  0.656500  0.500100  1.0  -0.7325
  O  O21  1  0.476000  0.428500  0.150400  1.0  -0.7471
  O  O22  1  0.177000  0.768600  0.145100  1.0  -0.7377
  O  O23  1  0.206000  0.591600  0.978700  1.0  -0.8316
  O  O24  1  0.815000  0.223400  0.360700  1.0  -0.7244
  O  O25  1  0.060000  0.943800  0.265100  1.0  -0.7683
  O  O26  1  0.884000  0.244500  0.151400  1.0  -0.7828
  O  O27  1  0.900000  0.326300  0.701800  1.0  -0.9034
  O  O28  1  0.110000  0.485200  0.842500  1.0  -0.9281
  O  O29  1  0.351000  0.503600  0.639400  1.0  -0.9188
  O  O30  1  0.508000  0.219500  0.740700  1.0  -0.761
  O  O31  1  0.899000  0.608700  0.598000  1.0  -0.816
  O  O32  1  0.718000  0.343500  0.499900  1.0  -0.7333
  O  O33  1  0.524000  0.571500  0.849600  1.0  -0.7476
  O  O34  1  0.823000  0.231400  0.854900  1.0  -0.7386
  O  O35  1  0.794000  0.408400  0.021300  1.0  -0.8349
  O  O36  1  0.185000  0.776600  0.639300  1.0  -0.7235
  O  O37  1  0.940000  0.056200  0.734900  1.0  -0.7661
  O  O38  1  0.116000  0.755500  0.848600  1.0  -0.7837
