# generated using pymatgen
data_TbH16C24NO8
_symmetry_space_group_name_H-M   'P 1'
_cell_length_a   10.93200000
_cell_length_b   16.71300000
_cell_length_c   18.89300000
_cell_angle_alpha   90.00000000
_cell_angle_beta   90.00000000
_cell_angle_gamma   90.00000000
_symmetry_Int_Tables_number   1
_chemical_formula_structural   TbH16C24NO8
_chemical_formula_sum   'Tb4 H64 C96 N4 O32'
_cell_volume   3451.87420679
_cell_formula_units_Z   4
loop_
 _symmetry_equiv_pos_site_id
 _symmetry_equiv_pos_as_xyz
  1  'x, y, z'
loop_
 _atom_site_type_symbol
 _atom_site_label
 _atom_site_symmetry_multiplicity
 _atom_site_fract_x
 _atom_site_fract_y
 _atom_site_fract_z
 _atom_site_occupancy
 _atom_site_charge
  Tb  Tb1  1  0.294230  0.250000  0.704610  1.0  2.2385
  Tb  Tb2  1  0.205770  0.750000  0.204610  1.0  2.2331
  Tb  Tb3  1  0.705770  0.750000  0.295390  1.0  2.2304
  Tb  Tb4  1  0.794230  0.250000  0.795390  1.0  2.2384
  H  H5  1  0.538500  0.010400  0.819000  1.0  0.0965
  H  H6  1  0.480500  0.327900  0.958200  1.0  0.0874
  H  H7  1  0.974300  0.750000  0.913500  1.0  0.093
  H  H8  1  0.971400  0.893400  0.635200  1.0  0.1105
  H  H9  1  0.249800  0.046800  0.512600  1.0  0.0972
  H  H10  1  0.961500  0.989600  0.319000  1.0  0.0964
  H  H11  1  0.321800  0.070600  0.962600  1.0  0.1041
  H  H12  1  0.364000  0.250000  0.206900  1.0  0.3665
  H  H13  1  0.749800  0.453200  0.987400  1.0  0.097
  H  H14  1  0.678200  0.929400  0.037400  1.0  0.1036
  H  H15  1  0.178200  0.570600  0.462600  1.0  0.1048
  H  H16  1  0.528600  0.393400  0.135200  1.0  0.1098
  H  H17  1  0.250200  0.953200  0.012600  1.0  0.0966
  H  H18  1  0.519500  0.827900  0.041800  1.0  0.0882
  H  H19  1  0.538500  0.489600  0.819000  1.0  0.0964
  H  H20  1  0.074700  0.320900  0.479500  1.0  0.0927
  H  H21  1  0.461500  0.989600  0.181000  1.0  0.0951
  H  H22  1  0.474300  0.750000  0.586500  1.0  0.0932
  H  H23  1  0.821800  0.429400  0.537400  1.0  0.1036
  H  H24  1  0.519500  0.672100  0.041800  1.0  0.0885
  H  H25  1  0.074700  0.179100  0.479500  1.0  0.093
  H  H26  1  0.019500  0.672100  0.458200  1.0  0.0878
  H  H27  1  0.964400  0.250000  0.969600  1.0  0.112
  H  H28  1  0.321800  0.429400  0.962600  1.0  0.1041
  H  H29  1  0.980500  0.172100  0.541800  1.0  0.0886
  H  H30  1  0.821800  0.070600  0.537400  1.0  0.104
  H  H31  1  0.461500  0.510400  0.181000  1.0  0.0951
  H  H32  1  0.528600  0.106600  0.135200  1.0  0.1097
  H  H33  1  0.980500  0.327900  0.541800  1.0  0.0883
  H  H34  1  0.574700  0.179100  0.020500  1.0  0.0928
  H  H35  1  0.464400  0.250000  0.530400  1.0  0.1123
  H  H36  1  0.425300  0.679100  0.979500  1.0  0.0923
  H  H37  1  0.961500  0.510400  0.319000  1.0  0.0965
  H  H38  1  0.019500  0.827900  0.458200  1.0  0.0879
  H  H39  1  0.636000  0.750000  0.793100  1.0  0.3667
  H  H40  1  0.678200  0.570600  0.037400  1.0  0.1039
  H  H41  1  0.035600  0.750000  0.030400  1.0  0.1107
  H  H42  1  0.038500  0.010400  0.681000  1.0  0.0957
  H  H43  1  0.249800  0.453200  0.512600  1.0  0.0971
  H  H44  1  0.038500  0.489600  0.681000  1.0  0.0957
  H  H45  1  0.250200  0.546800  0.012600  1.0  0.0969
  H  H46  1  0.028600  0.106600  0.364800  1.0  0.1115
  H  H47  1  0.749800  0.046800  0.987400  1.0  0.097
  H  H48  1  0.864000  0.250000  0.293100  1.0  0.3679
  H  H49  1  0.480500  0.172100  0.958200  1.0  0.0874
  H  H50  1  0.574700  0.320900  0.020500  1.0  0.0926
  H  H51  1  0.471400  0.893400  0.864800  1.0  0.1103
  H  H52  1  0.183500  0.750000  0.409200  1.0  0.1049
  H  H53  1  0.025700  0.250000  0.086500  1.0  0.0931
  H  H54  1  0.750200  0.953200  0.487400  1.0  0.0968
  H  H55  1  0.425300  0.820900  0.979500  1.0  0.092
  H  H56  1  0.525700  0.250000  0.413500  1.0  0.0925
  H  H57  1  0.136000  0.750000  0.706900  1.0  0.3674
  H  H58  1  0.178200  0.929400  0.462600  1.0  0.1047
  H  H59  1  0.028600  0.393400  0.364800  1.0  0.1115
  H  H60  1  0.816500  0.250000  0.590800  1.0  0.1049
  H  H61  1  0.535600  0.750000  0.469600  1.0  0.1106
  H  H62  1  0.925300  0.679100  0.520500  1.0  0.092
  H  H63  1  0.471400  0.606600  0.864800  1.0  0.1109
  H  H64  1  0.750200  0.546800  0.487400  1.0  0.0968
  H  H65  1  0.971400  0.606600  0.635200  1.0  0.1106
  H  H66  1  0.925300  0.820900  0.520500  1.0  0.0919
  H  H67  1  0.683500  0.750000  0.090800  1.0  0.1047
  H  H68  1  0.316500  0.250000  0.909200  1.0  0.1048
  C  C69  1  0.899600  0.750000  0.147000  1.0  0.704
  C  C70  1  0.974400  0.424800  0.390700  1.0  -0.1733
  C  C71  1  0.691900  0.483600  0.963400  1.0  -0.0471
  C  C72  1  0.063500  0.899500  0.542100  1.0  0.1201
  C  C73  1  0.294500  0.750000  0.570300  1.0  -0.1443
  C  C74  1  0.433100  0.494300  0.136800  1.0  -0.0545
  C  C75  1  0.742400  0.750000  0.055300  1.0  -0.1853
  C  C76  1  0.066900  0.505700  0.636800  1.0  -0.0552
  C  C77  1  0.350800  0.054300  0.006600  1.0  -0.1155
  C  C78  1  0.149600  0.457900  0.601800  1.0  -0.1665
  C  C79  1  0.807800  0.881500  0.368300  1.0  0.6658
  C  C80  1  0.563500  0.600500  0.957900  1.0  0.1201
  C  C81  1  0.741000  0.250000  0.352100  1.0  0.6698
  C  C82  1  0.363200  0.750000  0.428000  1.0  -0.1344
  C  C83  1  0.691900  0.016400  0.963400  1.0  -0.0467
  C  C84  1  0.850800  0.445700  0.493400  1.0  -0.1142
  C  C85  1  0.066900  0.994300  0.636800  1.0  -0.0596
  C  C86  1  0.415200  0.750000  0.551100  1.0  -0.0503
  C  C87  1  0.808100  0.516400  0.463400  1.0  -0.0527
  C  C88  1  0.063500  0.600500  0.542100  1.0  0.1204
  C  C89  1  0.974400  0.075200  0.390700  1.0  -0.1725
  C  C90  1  0.936500  0.399500  0.457900  1.0  0.1197
  C  C91  1  0.511700  0.824600  0.990800  1.0  -0.0674
  C  C92  1  0.488300  0.324600  0.009200  1.0  -0.0657
  C  C93  1  0.808100  0.983600  0.463400  1.0  -0.0484
  C  C94  1  0.308100  0.983600  0.036600  1.0  -0.049
  C  C95  1  0.807800  0.618500  0.368300  1.0  0.6653
  C  C96  1  0.047100  0.250000  0.981100  1.0  -0.0845
  C  C97  1  0.149200  0.945700  0.506600  1.0  -0.103
  C  C98  1  0.915200  0.750000  0.948900  1.0  -0.0507
  C  C99  1  0.399600  0.750000  0.353000  1.0  0.7038
  C  C100  1  0.563500  0.899500  0.957900  1.0  0.1199
  C  C101  1  0.308100  0.516400  0.036600  1.0  -0.0497
  C  C102  1  0.191900  0.016400  0.536600  1.0  -0.0478
  C  C103  1  0.436500  0.100500  0.042100  1.0  0.1202
  C  C104  1  0.936500  0.100500  0.457900  1.0  0.1198
  C  C105  1  0.988300  0.175400  0.490800  1.0  -0.0669
  C  C106  1  0.692200  0.118500  0.868300  1.0  0.6643
  C  C107  1  0.474400  0.424800  0.109300  1.0  -0.1775
  C  C108  1  0.025600  0.924800  0.609300  1.0  -0.1783
  C  C109  1  0.136800  0.250000  0.928000  1.0  -0.1348
  C  C110  1  0.350400  0.957900  0.101800  1.0  -0.1673
  C  C111  1  0.649600  0.042100  0.898200  1.0  -0.1682
  C  C112  1  0.241000  0.250000  0.147900  1.0  0.6741
  C  C113  1  0.350800  0.445700  0.006600  1.0  -0.105
  C  C114  1  0.933100  0.005700  0.363200  1.0  -0.0536
  C  C115  1  0.706700  0.750000  0.981600  1.0  0.1037
  C  C116  1  0.759000  0.750000  0.852100  1.0  0.6687
  C  C117  1  0.649600  0.457900  0.898200  1.0  -0.1697
  C  C118  1  0.307800  0.881500  0.131700  1.0  0.6636
  C  C119  1  0.350400  0.542100  0.101800  1.0  -0.1707
  C  C120  1  0.566900  0.505700  0.863200  1.0  -0.0574
  C  C121  1  0.011700  0.824600  0.509200  1.0  -0.0679
  C  C122  1  0.547100  0.250000  0.518900  1.0  -0.0846
  C  C123  1  0.488300  0.175400  0.009200  1.0  -0.065
  C  C124  1  0.705500  0.250000  0.429700  1.0  -0.1459
  C  C125  1  0.192200  0.381500  0.631700  1.0  0.664
  C  C126  1  0.307800  0.618500  0.131700  1.0  0.6633
  C  C127  1  0.933100  0.494300  0.363200  1.0  -0.0585
  C  C128  1  0.757600  0.250000  0.555300  1.0  -0.184
  C  C129  1  0.649200  0.554300  0.993400  1.0  -0.105
  C  C130  1  0.436500  0.399500  0.042100  1.0  0.12
  C  C131  1  0.793300  0.250000  0.481600  1.0  0.1013
  C  C132  1  0.084800  0.250000  0.051100  1.0  -0.0542
  C  C133  1  0.988300  0.324600  0.490800  1.0  -0.0656
  C  C134  1  0.025600  0.575200  0.609300  1.0  -0.1759
  C  C135  1  0.474400  0.075200  0.109300  1.0  -0.1848
  C  C136  1  0.566900  0.994300  0.863200  1.0  -0.0589
  C  C137  1  0.794500  0.750000  0.929700  1.0  -0.1463
  C  C138  1  0.206700  0.750000  0.518400  1.0  0.1037
  C  C139  1  0.259000  0.750000  0.647900  1.0  0.6729
  C  C140  1  0.242400  0.750000  0.444700  1.0  -0.1824
  C  C141  1  0.149200  0.554300  0.506600  1.0  -0.1144
  C  C142  1  0.863200  0.750000  0.072000  1.0  -0.1347
  C  C143  1  0.511700  0.675400  0.990800  1.0  -0.0675
  C  C144  1  0.433100  0.005700  0.136800  1.0  -0.0608
  C  C145  1  0.257600  0.250000  0.944700  1.0  -0.1832
  C  C146  1  0.293300  0.250000  0.018400  1.0  0.1018
  C  C147  1  0.011700  0.675400  0.509200  1.0  -0.0668
  C  C148  1  0.649200  0.945700  0.993400  1.0  -0.1053
  C  C149  1  0.525600  0.575200  0.890700  1.0  -0.1746
  C  C150  1  0.692200  0.381500  0.868300  1.0  0.6642
  C  C151  1  0.850400  0.957900  0.398200  1.0  -0.1696
  C  C152  1  0.600400  0.250000  0.647000  1.0  0.7038
  C  C153  1  0.149600  0.042100  0.601800  1.0  -0.1721
  C  C154  1  0.584800  0.250000  0.448900  1.0  -0.0551
  C  C155  1  0.192200  0.118500  0.631700  1.0  0.6639
  C  C156  1  0.191900  0.483600  0.536600  1.0  -0.0488
  C  C157  1  0.452900  0.750000  0.481100  1.0  -0.0836
  C  C158  1  0.525600  0.924800  0.890700  1.0  -0.1717
  C  C159  1  0.100400  0.250000  0.853000  1.0  0.7056
  C  C160  1  0.205500  0.250000  0.070300  1.0  -0.1447
  C  C161  1  0.952900  0.750000  0.018900  1.0  -0.083
  C  C162  1  0.850400  0.542100  0.398200  1.0  -0.1668
  C  C163  1  0.636800  0.250000  0.572000  1.0  -0.1346
  C  C164  1  0.850800  0.054300  0.493400  1.0  -0.1115
  N  N165  1  0.424400  0.250000  0.035000  1.0  -0.2425
  N  N166  1  0.924400  0.250000  0.465000  1.0  -0.2425
  N  N167  1  0.575600  0.750000  0.965000  1.0  -0.2433
  N  N168  1  0.075600  0.750000  0.535000  1.0  -0.244
  O  O169  1  0.659200  0.250000  0.307400  1.0  -0.5055
  O  O170  1  0.159200  0.250000  0.192600  1.0  -0.5056
  O  O171  1  0.356000  0.250000  0.163800  1.0  -0.5028
  O  O172  1  0.214700  0.846700  0.108100  1.0  -0.6394
  O  O173  1  0.685300  0.250000  0.693000  1.0  -0.682
  O  O174  1  0.988900  0.250000  0.836200  1.0  -0.7426
  O  O175  1  0.714700  0.846700  0.391900  1.0  -0.6389
  O  O176  1  0.137100  0.350200  0.683800  1.0  -0.6613
  O  O177  1  0.862900  0.850200  0.316200  1.0  -0.6603
  O  O178  1  0.362900  0.649800  0.183800  1.0  -0.6615
  O  O179  1  0.644000  0.750000  0.836200  1.0  -0.5038
  O  O180  1  0.185300  0.250000  0.807000  1.0  -0.683
  O  O181  1  0.488900  0.250000  0.663800  1.0  -0.7443
  O  O182  1  0.862900  0.649800  0.316200  1.0  -0.6608
  O  O183  1  0.856000  0.250000  0.336200  1.0  -0.5026
  O  O184  1  0.785300  0.153300  0.891900  1.0  -0.6403
  O  O185  1  0.785300  0.346700  0.891900  1.0  -0.6408
  O  O186  1  0.285300  0.346700  0.608100  1.0  -0.6385
  O  O187  1  0.011100  0.750000  0.163800  1.0  -0.7449
  O  O188  1  0.144000  0.750000  0.663800  1.0  -0.504
  O  O189  1  0.314700  0.750000  0.307000  1.0  -0.6841
  O  O190  1  0.637100  0.149800  0.816200  1.0  -0.6614
  O  O191  1  0.340800  0.750000  0.692600  1.0  -0.5079
  O  O192  1  0.840800  0.750000  0.807400  1.0  -0.5068
  O  O193  1  0.362900  0.850200  0.183800  1.0  -0.6605
  O  O194  1  0.214700  0.653300  0.108100  1.0  -0.6387
  O  O195  1  0.714700  0.653300  0.391900  1.0  -0.6383
  O  O196  1  0.137100  0.149800  0.683800  1.0  -0.6627
  O  O197  1  0.814700  0.750000  0.193000  1.0  -0.6823
  O  O198  1  0.285300  0.153300  0.608100  1.0  -0.6403
  O  O199  1  0.511100  0.750000  0.336200  1.0  -0.7433
  O  O200  1  0.637100  0.350200  0.816200  1.0  -0.6605
