# generated using pymatgen
data_EuH16C24NO8
_symmetry_space_group_name_H-M   'P 1'
_cell_length_a   10.95900000
_cell_length_b   16.56500000
_cell_length_c   19.75000000
_cell_angle_alpha   90.00000000
_cell_angle_beta   90.00000000
_cell_angle_gamma   90.00000000
_symmetry_Int_Tables_number   1
_chemical_formula_structural   EuH16C24NO8
_chemical_formula_sum   'Eu4 H64 C96 N4 O32'
_cell_volume   3585.33274125
_cell_formula_units_Z   4
loop_
 _symmetry_equiv_pos_site_id
 _symmetry_equiv_pos_as_xyz
  1  'x, y, z'
loop_
 _atom_site_type_symbol
 _atom_site_label
 _atom_site_symmetry_multiplicity
 _atom_site_fract_x
 _atom_site_fract_y
 _atom_site_fract_z
 _atom_site_occupancy
 _atom_site_charge
  Eu  Eu1  1  0.707440  0.750000  0.296010  1.0  2.0882
  Eu  Eu2  1  0.792560  0.250000  0.796010  1.0  2.0847
  Eu  Eu3  1  0.207440  0.750000  0.203990  1.0  2.0871
  Eu  Eu4  1  0.292560  0.250000  0.703990  1.0  2.0867
  H  H5  1  0.187300  0.569400  0.467200  1.0  0.1059
  H  H6  1  0.569300  0.318600  0.013400  1.0  0.0923
  H  H7  1  0.476000  0.508100  0.172800  1.0  0.1034
  H  H8  1  0.315300  0.250000  0.906500  1.0  0.099
  H  H9  1  0.930700  0.818600  0.513400  1.0  0.0897
  H  H10  1  0.483100  0.750000  0.571600  1.0  0.1014
  H  H11  1  0.027900  0.829000  0.455700  1.0  0.0911
  H  H12  1  0.024000  0.491900  0.672800  1.0  0.1037
  H  H13  1  0.312700  0.430600  0.967200  1.0  0.1042
  H  H14  1  0.187300  0.930600  0.467200  1.0  0.1057
  H  H15  1  0.458300  0.607900  0.879000  1.0  0.1062
  H  H16  1  0.349300  0.250000  0.191000  1.0  0.381
  H  H17  1  0.972100  0.329000  0.544300  1.0  0.0911
  H  H18  1  0.541700  0.392100  0.121000  1.0  0.1052
  H  H19  1  0.464100  0.250000  0.541700  1.0  0.1001
  H  H20  1  0.527900  0.829000  0.044300  1.0  0.091
  H  H21  1  0.524000  0.491900  0.827200  1.0  0.1044
  H  H22  1  0.246100  0.951600  0.018100  1.0  0.0977
  H  H23  1  0.069300  0.181400  0.486600  1.0  0.092
  H  H24  1  0.150700  0.750000  0.691000  1.0  0.3815
  H  H25  1  0.976000  0.508100  0.327200  1.0  0.1046
  H  H26  1  0.184700  0.750000  0.406500  1.0  0.0996
  H  H27  1  0.541700  0.107900  0.121000  1.0  0.1052
  H  H28  1  0.958300  0.892100  0.621000  1.0  0.1059
  H  H29  1  0.650700  0.750000  0.809000  1.0  0.3781
  H  H30  1  0.687300  0.930600  0.032800  1.0  0.1045
  H  H31  1  0.976000  0.991900  0.327200  1.0  0.1045
  H  H32  1  0.027900  0.671000  0.455700  1.0  0.0913
  H  H33  1  0.930700  0.681400  0.513400  1.0  0.0898
  H  H34  1  0.849300  0.250000  0.309000  1.0  0.379
  H  H35  1  0.983100  0.750000  0.928400  1.0  0.1011
  H  H36  1  0.753900  0.048400  0.981900  1.0  0.0985
  H  H37  1  0.472100  0.329000  0.955700  1.0  0.0907
  H  H38  1  0.312700  0.069400  0.967200  1.0  0.1043
  H  H39  1  0.524000  0.008100  0.827200  1.0  0.1046
  H  H40  1  0.972100  0.171000  0.544300  1.0  0.0913
  H  H41  1  0.472100  0.171000  0.955700  1.0  0.0907
  H  H42  1  0.024000  0.008100  0.672800  1.0  0.1036
  H  H43  1  0.430700  0.818600  0.986600  1.0  0.0896
  H  H44  1  0.246100  0.548400  0.018100  1.0  0.0979
  H  H45  1  0.069300  0.318600  0.486600  1.0  0.0919
  H  H46  1  0.516900  0.250000  0.428400  1.0  0.1008
  H  H47  1  0.684700  0.750000  0.093500  1.0  0.0985
  H  H48  1  0.815300  0.250000  0.593500  1.0  0.099
  H  H49  1  0.041700  0.107900  0.379000  1.0  0.1065
  H  H50  1  0.687300  0.569400  0.032800  1.0  0.1049
  H  H51  1  0.041700  0.392100  0.379000  1.0  0.1064
  H  H52  1  0.535900  0.750000  0.458300  1.0  0.0987
  H  H53  1  0.569300  0.181400  0.013400  1.0  0.0924
  H  H54  1  0.253900  0.451600  0.518100  1.0  0.0982
  H  H55  1  0.016900  0.250000  0.071600  1.0  0.1008
  H  H56  1  0.746100  0.951600  0.481900  1.0  0.0979
  H  H57  1  0.964100  0.250000  0.958300  1.0  0.1002
  H  H58  1  0.812700  0.069400  0.532800  1.0  0.1039
  H  H59  1  0.753900  0.451600  0.981900  1.0  0.0984
  H  H60  1  0.527900  0.671000  0.044300  1.0  0.0913
  H  H61  1  0.430700  0.681400  0.986600  1.0  0.0898
  H  H62  1  0.476000  0.991900  0.172800  1.0  0.1036
  H  H63  1  0.458300  0.892100  0.879000  1.0  0.1057
  H  H64  1  0.812700  0.430600  0.532800  1.0  0.1035
  H  H65  1  0.035900  0.750000  0.041700  1.0  0.0988
  H  H66  1  0.253900  0.048400  0.518100  1.0  0.0985
  H  H67  1  0.746100  0.548400  0.481900  1.0  0.0978
  H  H68  1  0.958300  0.607900  0.621000  1.0  0.1059
  C  C69  1  0.482700  0.323900  0.004300  1.0  -0.083
  C  C70  1  0.153900  0.553600  0.508400  1.0  -0.0943
  C  C71  1  0.805800  0.517300  0.460900  1.0  -0.0305
  C  C72  1  0.943000  0.006800  0.368800  1.0  -0.0649
  C  C73  1  0.365400  0.750000  0.422100  1.0  -0.1343
  C  C74  1  0.790800  0.250000  0.491100  1.0  0.113
  C  C75  1  0.687400  0.117700  0.866400  1.0  0.6766
  C  C76  1  0.209200  0.750000  0.508900  1.0  0.1146
  C  C77  1  0.045900  0.250000  0.970800  1.0  -0.0524
  C  C78  1  0.443000  0.493200  0.131200  1.0  -0.0665
  C  C79  1  0.435200  0.399400  0.038500  1.0  0.105
  C  C80  1  0.800300  0.750000  0.941600  1.0  -0.1531
  C  C81  1  0.312600  0.882300  0.133600  1.0  0.6752
  C  C82  1  0.687400  0.382300  0.866400  1.0  0.6756
  C  C83  1  0.812600  0.882300  0.366400  1.0  0.6758
  C  C84  1  0.194200  0.482700  0.539100  1.0  -0.0303
  C  C85  1  0.134600  0.250000  0.922100  1.0  -0.1331
  C  C86  1  0.646200  0.042100  0.899100  1.0  -0.1766
  C  C87  1  0.517300  0.676100  0.995700  1.0  -0.0825
  C  C88  1  0.353800  0.957900  0.100900  1.0  -0.1771
  C  C89  1  0.146200  0.042100  0.600900  1.0  -0.178
  C  C90  1  0.517300  0.823900  0.995700  1.0  -0.0825
  C  C91  1  0.897600  0.750000  0.152900  1.0  0.7465
  C  C92  1  0.017300  0.823900  0.504300  1.0  -0.0828
  C  C93  1  0.653900  0.946400  0.991600  1.0  -0.0942
  C  C94  1  0.935200  0.399400  0.461500  1.0  0.1045
  C  C95  1  0.545900  0.250000  0.529200  1.0  -0.0527
  C  C96  1  0.646200  0.457900  0.899100  1.0  -0.1777
  C  C97  1  0.146200  0.457900  0.600900  1.0  -0.1758
  C  C98  1  0.805800  0.982700  0.460900  1.0  -0.0305
  C  C99  1  0.726900  0.250000  0.367000  1.0  0.6359
  C  C100  1  0.482300  0.076400  0.100100  1.0  -0.0988
  C  C101  1  0.773100  0.750000  0.867000  1.0  0.6325
  C  C102  1  0.057000  0.506800  0.631200  1.0  -0.0665
  C  C103  1  0.064800  0.600600  0.538500  1.0  0.1052
  C  C104  1  0.853800  0.957900  0.399100  1.0  -0.1785
  C  C105  1  0.346100  0.053600  0.008400  1.0  -0.0918
  C  C106  1  0.017700  0.923600  0.600100  1.0  -0.0894
  C  C107  1  0.943000  0.493200  0.368800  1.0  -0.063
  C  C108  1  0.397600  0.750000  0.347100  1.0  0.7468
  C  C109  1  0.102400  0.250000  0.847100  1.0  0.7484
  C  C110  1  0.634600  0.250000  0.577900  1.0  -0.132
  C  C111  1  0.077700  0.250000  0.038800  1.0  -0.0522
  C  C112  1  0.454100  0.750000  0.470800  1.0  -0.0524
  C  C113  1  0.954100  0.750000  0.029200  1.0  -0.0519
  C  C114  1  0.982300  0.423600  0.399900  1.0  -0.0883
  C  C115  1  0.305800  0.982700  0.039100  1.0  -0.0293
  C  C116  1  0.346100  0.446400  0.008400  1.0  -0.0908
  C  C117  1  0.482300  0.423600  0.100100  1.0  -0.0895
  C  C118  1  0.057000  0.993200  0.631200  1.0  -0.0663
  C  C119  1  0.305800  0.517300  0.039100  1.0  -0.0309
  C  C120  1  0.935200  0.100600  0.461500  1.0  0.1046
  C  C121  1  0.557000  0.506800  0.868800  1.0  -0.0626
  C  C122  1  0.194200  0.017300  0.539100  1.0  -0.0292
  C  C123  1  0.709200  0.750000  0.991100  1.0  0.116
  C  C124  1  0.577700  0.250000  0.461200  1.0  -0.0524
  C  C125  1  0.564800  0.600600  0.961500  1.0  0.1049
  C  C126  1  0.187400  0.117700  0.633600  1.0  0.6765
  C  C127  1  0.517700  0.923600  0.899900  1.0  -0.093
  C  C128  1  0.187400  0.382300  0.633600  1.0  0.675
  C  C129  1  0.653900  0.553600  0.991600  1.0  -0.0938
  C  C130  1  0.865400  0.750000  0.077900  1.0  -0.1343
  C  C131  1  0.694200  0.482700  0.960900  1.0  -0.033
  C  C132  1  0.517700  0.576400  0.899900  1.0  -0.0903
  C  C133  1  0.017700  0.576400  0.600100  1.0  -0.097
  C  C134  1  0.300300  0.750000  0.558400  1.0  -0.1548
  C  C135  1  0.922300  0.750000  0.961200  1.0  -0.0514
  C  C136  1  0.755700  0.250000  0.559900  1.0  -0.1092
  C  C137  1  0.744300  0.750000  0.059900  1.0  -0.1095
  C  C138  1  0.353800  0.542100  0.100900  1.0  -0.1785
  C  C139  1  0.853800  0.542100  0.399100  1.0  -0.1766
  C  C140  1  0.017300  0.676100  0.504300  1.0  -0.0827
  C  C141  1  0.694200  0.017300  0.960900  1.0  -0.0284
  C  C142  1  0.435200  0.100600  0.038500  1.0  0.1051
  C  C143  1  0.982700  0.323900  0.495700  1.0  -0.0821
  C  C144  1  0.982700  0.176100  0.495700  1.0  -0.0823
  C  C145  1  0.846100  0.446400  0.491600  1.0  -0.0885
  C  C146  1  0.064800  0.899400  0.538500  1.0  0.1051
  C  C147  1  0.482700  0.176100  0.004300  1.0  -0.0829
  C  C148  1  0.982300  0.076400  0.399900  1.0  -0.0885
  C  C149  1  0.273100  0.750000  0.633000  1.0  0.6373
  C  C150  1  0.255700  0.250000  0.940100  1.0  -0.1089
  C  C151  1  0.602400  0.250000  0.652900  1.0  0.746
  C  C152  1  0.312600  0.617700  0.133600  1.0  0.6744
  C  C153  1  0.153900  0.946400  0.508400  1.0  -0.0931
  C  C154  1  0.846100  0.053600  0.491600  1.0  -0.0825
  C  C155  1  0.199700  0.250000  0.058400  1.0  -0.1535
  C  C156  1  0.557000  0.993200  0.868800  1.0  -0.0625
  C  C157  1  0.290800  0.250000  0.008900  1.0  0.1128
  C  C158  1  0.564800  0.899400  0.961500  1.0  0.1048
  C  C159  1  0.699700  0.250000  0.441600  1.0  -0.1529
  C  C160  1  0.422300  0.750000  0.538800  1.0  -0.0502
  C  C161  1  0.244300  0.750000  0.440100  1.0  -0.11
  C  C162  1  0.812600  0.617700  0.366400  1.0  0.6764
  C  C163  1  0.226900  0.250000  0.133000  1.0  0.6395
  C  C164  1  0.443000  0.006800  0.131200  1.0  -0.0659
  N  N165  1  0.581800  0.750000  0.971600  1.0  -0.2528
  N  N166  1  0.081800  0.750000  0.528400  1.0  -0.2544
  N  N167  1  0.418200  0.250000  0.028400  1.0  -0.2541
  N  N168  1  0.918200  0.250000  0.471600  1.0  -0.2532
  O  O169  1  0.186100  0.250000  0.805400  1.0  -0.7728
  O  O170  1  0.342800  0.250000  0.149700  1.0  -0.5193
  O  O171  1  0.222800  0.654700  0.109600  1.0  -0.701
  O  O172  1  0.135800  0.356100  0.686300  1.0  -0.6584
  O  O173  1  0.657200  0.750000  0.850300  1.0  -0.5198
  O  O174  1  0.647600  0.250000  0.325900  1.0  -0.4311
  O  O175  1  0.313900  0.750000  0.305400  1.0  -0.7716
  O  O176  1  0.777200  0.345300  0.890400  1.0  -0.7034
  O  O177  1  0.135800  0.143900  0.686300  1.0  -0.658
  O  O178  1  0.635800  0.356100  0.813700  1.0  -0.6551
  O  O179  1  0.492400  0.250000  0.667200  1.0  -0.743
  O  O180  1  0.635800  0.143900  0.813700  1.0  -0.6549
  O  O181  1  0.777200  0.154700  0.890400  1.0  -0.7026
  O  O182  1  0.722800  0.845300  0.390400  1.0  -0.7023
  O  O183  1  0.007600  0.750000  0.167200  1.0  -0.7446
  O  O184  1  0.222800  0.845300  0.109600  1.0  -0.7025
  O  O185  1  0.277200  0.345300  0.609600  1.0  -0.7024
  O  O186  1  0.364200  0.643900  0.186300  1.0  -0.6564
  O  O187  1  0.147600  0.250000  0.174100  1.0  -0.4324
  O  O188  1  0.722800  0.654700  0.390400  1.0  -0.7015
  O  O189  1  0.992400  0.250000  0.832800  1.0  -0.7443
  O  O190  1  0.352400  0.750000  0.674100  1.0  -0.4325
  O  O191  1  0.364200  0.856100  0.186300  1.0  -0.657
  O  O192  1  0.157200  0.750000  0.649700  1.0  -0.5211
  O  O193  1  0.852400  0.750000  0.825900  1.0  -0.4309
  O  O194  1  0.507600  0.750000  0.332800  1.0  -0.747
  O  O195  1  0.842800  0.250000  0.350300  1.0  -0.5188
  O  O196  1  0.864200  0.643900  0.313700  1.0  -0.6544
  O  O197  1  0.864200  0.856100  0.313700  1.0  -0.6544
  O  O198  1  0.277200  0.154700  0.609600  1.0  -0.6995
  O  O199  1  0.686100  0.250000  0.694600  1.0  -0.7722
  O  O200  1  0.813900  0.750000  0.194600  1.0  -0.7711
