# generated using pymatgen
data_TbH16C24NO8
_symmetry_space_group_name_H-M   'P 1'
_cell_length_a   10.91300000
_cell_length_b   16.54200000
_cell_length_c   19.79300000
_cell_angle_alpha   90.00000000
_cell_angle_beta   90.00000000
_cell_angle_gamma   90.00000000
_symmetry_Int_Tables_number   1
_chemical_formula_structural   TbH16C24NO8
_chemical_formula_sum   'Tb4 H64 C96 N4 O32'
_cell_volume   3573.08869088
_cell_formula_units_Z   4
loop_
 _symmetry_equiv_pos_site_id
 _symmetry_equiv_pos_as_xyz
  1  'x, y, z'
loop_
 _atom_site_type_symbol
 _atom_site_label
 _atom_site_symmetry_multiplicity
 _atom_site_fract_x
 _atom_site_fract_y
 _atom_site_fract_z
 _atom_site_occupancy
 _atom_site_charge
  Tb  Tb1  1  0.206710  0.750000  0.204360  1.0  2.2279
  Tb  Tb2  1  0.793290  0.250000  0.795640  1.0  2.2234
  Tb  Tb3  1  0.293290  0.250000  0.704360  1.0  2.2326
  Tb  Tb4  1  0.706710  0.750000  0.295640  1.0  2.227
  H  H5  1  0.571000  0.181600  0.014100  1.0  0.0912
  H  H6  1  0.317500  0.250000  0.905800  1.0  0.1061
  H  H7  1  0.810300  0.068500  0.531600  1.0  0.1138
  H  H8  1  0.429000  0.818400  0.985900  1.0  0.0896
  H  H9  1  0.024200  0.009900  0.672900  1.0  0.1055
  H  H10  1  0.755500  0.452100  0.980600  1.0  0.0953
  H  H11  1  0.960400  0.250000  0.957300  1.0  0.1119
  H  H12  1  0.653700  0.750000  0.808600  1.0  0.3808
  H  H13  1  0.986300  0.750000  0.930200  1.0  0.0974
  H  H14  1  0.541600  0.393500  0.122000  1.0  0.1036
  H  H15  1  0.486300  0.750000  0.569800  1.0  0.0972
  H  H16  1  0.071000  0.318400  0.485900  1.0  0.091
  H  H17  1  0.041600  0.393500  0.378000  1.0  0.1047
  H  H18  1  0.474300  0.170900  0.956000  1.0  0.0906
  H  H19  1  0.958400  0.606500  0.622000  1.0  0.1043
  H  H20  1  0.460400  0.250000  0.542700  1.0  0.1119
  H  H21  1  0.929000  0.818400  0.514100  1.0  0.0896
  H  H22  1  0.255500  0.047900  0.519400  1.0  0.0951
  H  H23  1  0.975800  0.509900  0.327100  1.0  0.1055
  H  H24  1  0.689700  0.931500  0.031600  1.0  0.1138
  H  H25  1  0.255500  0.452100  0.519400  1.0  0.0949
  H  H26  1  0.458400  0.606500  0.878000  1.0  0.1044
  H  H27  1  0.974300  0.170900  0.544000  1.0  0.0912
  H  H28  1  0.189700  0.931500  0.468400  1.0  0.1147
  H  H29  1  0.071000  0.181600  0.485900  1.0  0.0911
  H  H30  1  0.974300  0.329100  0.544000  1.0  0.0909
  H  H31  1  0.975800  0.990100  0.327100  1.0  0.1054
  H  H32  1  0.513700  0.250000  0.430200  1.0  0.0971
  H  H33  1  0.346300  0.250000  0.191400  1.0  0.3836
  H  H34  1  0.458400  0.893500  0.878000  1.0  0.104
  H  H35  1  0.810300  0.431500  0.531600  1.0  0.1135
  H  H36  1  0.429000  0.681600  0.985900  1.0  0.0897
  H  H37  1  0.846300  0.250000  0.308600  1.0  0.3814
  H  H38  1  0.039600  0.750000  0.042700  1.0  0.1103
  H  H39  1  0.182500  0.750000  0.405800  1.0  0.1066
  H  H40  1  0.525700  0.670900  0.044000  1.0  0.0913
  H  H41  1  0.475800  0.509900  0.172900  1.0  0.105
  H  H42  1  0.153700  0.750000  0.691400  1.0  0.3839
  H  H43  1  0.013700  0.250000  0.069800  1.0  0.097
  H  H44  1  0.541600  0.106500  0.122000  1.0  0.1037
  H  H45  1  0.310300  0.431500  0.968400  1.0  0.1137
  H  H46  1  0.682500  0.750000  0.094200  1.0  0.1053
  H  H47  1  0.929000  0.681600  0.514100  1.0  0.0895
  H  H48  1  0.525700  0.829100  0.044000  1.0  0.091
  H  H49  1  0.744500  0.547900  0.480600  1.0  0.0948
  H  H50  1  0.475800  0.990100  0.172900  1.0  0.1051
  H  H51  1  0.310300  0.068500  0.968400  1.0  0.114
  H  H52  1  0.744500  0.952100  0.480600  1.0  0.0949
  H  H53  1  0.025700  0.670900  0.456000  1.0  0.0913
  H  H54  1  0.571000  0.318400  0.014100  1.0  0.0913
  H  H55  1  0.755500  0.047900  0.980600  1.0  0.0953
  H  H56  1  0.958400  0.893500  0.622000  1.0  0.1043
  H  H57  1  0.817500  0.250000  0.594200  1.0  0.1058
  H  H58  1  0.689700  0.568500  0.031600  1.0  0.1139
  H  H59  1  0.041600  0.106500  0.378000  1.0  0.1049
  H  H60  1  0.524200  0.490100  0.827100  1.0  0.1055
  H  H61  1  0.244500  0.547900  0.019400  1.0  0.0946
  H  H62  1  0.524200  0.009900  0.827100  1.0  0.1056
  H  H63  1  0.024200  0.490100  0.672900  1.0  0.1056
  H  H64  1  0.474300  0.329100  0.956000  1.0  0.0907
  H  H65  1  0.539600  0.750000  0.457300  1.0  0.1102
  H  H66  1  0.189700  0.568500  0.468400  1.0  0.1149
  H  H67  1  0.244500  0.952100  0.019400  1.0  0.0944
  H  H68  1  0.025700  0.829100  0.456000  1.0  0.0913
  C  C69  1  0.397300  0.750000  0.346600  1.0  0.7515
  C  C70  1  0.518100  0.575400  0.899100  1.0  -0.11
  C  C71  1  0.655600  0.552900  0.990600  1.0  -0.1208
  C  C72  1  0.697500  0.250000  0.442400  1.0  -0.1518
  C  C73  1  0.935000  0.100600  0.460800  1.0  0.1193
  C  C74  1  0.557600  0.505300  0.868400  1.0  -0.0727
  C  C75  1  0.853100  0.956800  0.398500  1.0  -0.1961
  C  C76  1  0.984200  0.176100  0.495500  1.0  -0.0759
  C  C77  1  0.805000  0.517100  0.459800  1.0  -0.0484
  C  C78  1  0.844400  0.052900  0.490600  1.0  -0.1262
  C  C79  1  0.435000  0.399400  0.039200  1.0  0.1191
  C  C80  1  0.777100  0.750000  0.867500  1.0  0.5908
  C  C81  1  0.688600  0.381500  0.865900  1.0  0.6709
  C  C82  1  0.302500  0.750000  0.557600  1.0  -0.153
  C  C83  1  0.565000  0.899400  0.960800  1.0  0.1197
  C  C84  1  0.633700  0.250000  0.579300  1.0  -0.1475
  C  C85  1  0.646900  0.456800  0.898500  1.0  -0.1933
  C  C86  1  0.811400  0.618500  0.365900  1.0  0.6728
  C  C87  1  0.981900  0.424600  0.399100  1.0  -0.1105
  C  C88  1  0.646900  0.043200  0.898500  1.0  -0.1916
  C  C89  1  0.688600  0.118500  0.865900  1.0  0.6724
  C  C90  1  0.866300  0.750000  0.079300  1.0  -0.1484
  C  C91  1  0.188600  0.381500  0.634100  1.0  0.6718
  C  C92  1  0.210500  0.750000  0.509000  1.0  0.0778
  C  C93  1  0.655600  0.947100  0.990600  1.0  -0.1301
  C  C94  1  0.353100  0.956800  0.101500  1.0  -0.193
  C  C95  1  0.957500  0.750000  0.030300  1.0  -0.0687
  C  C96  1  0.710500  0.750000  0.991000  1.0  0.0784
  C  C97  1  0.695000  0.482900  0.959800  1.0  -0.0468
  C  C98  1  0.542500  0.250000  0.530300  1.0  -0.0687
  C  C99  1  0.057600  0.505300  0.631600  1.0  -0.073
  C  C100  1  0.305000  0.517100  0.040200  1.0  -0.0487
  C  C101  1  0.518100  0.924600  0.899100  1.0  -0.1095
  C  C102  1  0.981900  0.075400  0.399100  1.0  -0.1084
  C  C103  1  0.481900  0.075400  0.100900  1.0  -0.1135
  C  C104  1  0.344400  0.052900  0.009400  1.0  -0.1295
  C  C105  1  0.015800  0.823900  0.504500  1.0  -0.077
  C  C106  1  0.942400  0.494700  0.368400  1.0  -0.0733
  C  C107  1  0.811400  0.881500  0.365900  1.0  0.673
  C  C108  1  0.344400  0.447100  0.009400  1.0  -0.1284
  C  C109  1  0.311400  0.881500  0.134100  1.0  0.6716
  C  C110  1  0.802500  0.750000  0.942400  1.0  -0.1519
  C  C111  1  0.844400  0.447100  0.490600  1.0  -0.1278
  C  C112  1  0.256900  0.250000  0.938800  1.0  -0.1144
  C  C113  1  0.565000  0.600600  0.960800  1.0  0.1196
  C  C114  1  0.155600  0.947100  0.509400  1.0  -0.1177
  C  C115  1  0.515800  0.823900  0.995500  1.0  -0.0769
  C  C116  1  0.853100  0.543200  0.398500  1.0  -0.1937
  C  C117  1  0.155600  0.552900  0.509400  1.0  -0.118
  C  C118  1  0.102700  0.250000  0.846600  1.0  0.7523
  C  C119  1  0.897300  0.750000  0.153400  1.0  0.7504
  C  C120  1  0.695000  0.017100  0.959800  1.0  -0.0462
  C  C121  1  0.277100  0.750000  0.632500  1.0  0.5947
  C  C122  1  0.065000  0.899400  0.539200  1.0  0.1193
  C  C123  1  0.805000  0.982900  0.459800  1.0  -0.0486
  C  C124  1  0.188600  0.118500  0.634100  1.0  0.672
  C  C125  1  0.515800  0.676100  0.995500  1.0  -0.077
  C  C126  1  0.366300  0.750000  0.420700  1.0  -0.1473
  C  C127  1  0.195000  0.482900  0.540200  1.0  -0.0481
  C  C128  1  0.935000  0.399400  0.460800  1.0  0.1193
  C  C129  1  0.557600  0.994700  0.868400  1.0  -0.0726
  C  C130  1  0.575000  0.250000  0.462900  1.0  -0.0531
  C  C131  1  0.481900  0.424600  0.100900  1.0  -0.1133
  C  C132  1  0.195000  0.017100  0.540200  1.0  -0.0469
  C  C133  1  0.015800  0.676100  0.504500  1.0  -0.077
  C  C134  1  0.484200  0.323900  0.004500  1.0  -0.0762
  C  C135  1  0.018100  0.924600  0.600900  1.0  -0.1124
  C  C136  1  0.075000  0.250000  0.037100  1.0  -0.0525
  C  C137  1  0.602700  0.250000  0.653400  1.0  0.7497
  C  C138  1  0.146900  0.043200  0.601500  1.0  -0.1926
  C  C139  1  0.425000  0.750000  0.537100  1.0  -0.0499
  C  C140  1  0.722900  0.250000  0.367500  1.0  0.5931
  C  C141  1  0.442400  0.005300  0.131600  1.0  -0.0718
  C  C142  1  0.305000  0.982900  0.040200  1.0  -0.0485
  C  C143  1  0.057600  0.994700  0.631600  1.0  -0.073
  C  C144  1  0.311400  0.618500  0.134100  1.0  0.6714
  C  C145  1  0.743100  0.750000  0.061200  1.0  -0.114
  C  C146  1  0.484200  0.176100  0.004500  1.0  -0.0763
  C  C147  1  0.065000  0.600600  0.539200  1.0  0.1192
  C  C148  1  0.146900  0.456800  0.601500  1.0  -0.1905
  C  C149  1  0.197500  0.250000  0.057600  1.0  -0.1538
  C  C150  1  0.789500  0.250000  0.491000  1.0  0.0756
  C  C151  1  0.442400  0.494700  0.131600  1.0  -0.0726
  C  C152  1  0.042500  0.250000  0.969700  1.0  -0.0687
  C  C153  1  0.925000  0.750000  0.962900  1.0  -0.0509
  C  C154  1  0.353100  0.543200  0.101500  1.0  -0.1944
  C  C155  1  0.942400  0.005300  0.368400  1.0  -0.073
  C  C156  1  0.018100  0.575400  0.600900  1.0  -0.1146
  C  C157  1  0.457500  0.750000  0.469700  1.0  -0.0692
  C  C158  1  0.435000  0.100600  0.039200  1.0  0.119
  C  C159  1  0.756900  0.250000  0.561200  1.0  -0.1139
  C  C160  1  0.222900  0.250000  0.132500  1.0  0.5937
  C  C161  1  0.289500  0.250000  0.009000  1.0  0.0752
  C  C162  1  0.133700  0.250000  0.920700  1.0  -0.1469
  C  C163  1  0.243100  0.750000  0.438800  1.0  -0.1146
  C  C164  1  0.984200  0.323900  0.495500  1.0  -0.0757
  N  N165  1  0.917700  0.250000  0.471300  1.0  -0.2513
  N  N166  1  0.582300  0.750000  0.971300  1.0  -0.2514
  N  N167  1  0.417700  0.250000  0.028700  1.0  -0.2519
  N  N168  1  0.082300  0.750000  0.528700  1.0  -0.2524
  O  O169  1  0.719300  0.654900  0.388800  1.0  -0.6502
  O  O170  1  0.356900  0.750000  0.673200  1.0  -0.4326
  O  O171  1  0.635700  0.354500  0.813100  1.0  -0.6606
  O  O172  1  0.493100  0.250000  0.667900  1.0  -0.7408
  O  O173  1  0.506900  0.750000  0.332100  1.0  -0.7417
  O  O174  1  0.840700  0.250000  0.349900  1.0  -0.5207
  O  O175  1  0.188600  0.250000  0.805600  1.0  -0.7743
  O  O176  1  0.780700  0.345100  0.888800  1.0  -0.6516
  O  O177  1  0.219300  0.845100  0.111200  1.0  -0.6517
  O  O178  1  0.864300  0.645500  0.313100  1.0  -0.6593
  O  O179  1  0.780700  0.154900  0.888800  1.0  -0.6513
  O  O180  1  0.719300  0.845100  0.388800  1.0  -0.6517
  O  O181  1  0.635700  0.145500  0.813100  1.0  -0.6605
  O  O182  1  0.006900  0.750000  0.167900  1.0  -0.7414
  O  O183  1  0.219300  0.654900  0.111200  1.0  -0.6494
  O  O184  1  0.643100  0.250000  0.326800  1.0  -0.4303
  O  O185  1  0.864300  0.854500  0.313100  1.0  -0.6599
  O  O186  1  0.143100  0.250000  0.173200  1.0  -0.4321
  O  O187  1  0.364300  0.645500  0.186900  1.0  -0.6584
  O  O188  1  0.135700  0.354500  0.686900  1.0  -0.6613
  O  O189  1  0.856900  0.750000  0.826800  1.0  -0.4307
  O  O190  1  0.135700  0.145500  0.686900  1.0  -0.6609
  O  O191  1  0.280700  0.154900  0.611200  1.0  -0.6493
  O  O192  1  0.311400  0.750000  0.305600  1.0  -0.773
  O  O193  1  0.659300  0.750000  0.849900  1.0  -0.5223
  O  O194  1  0.364300  0.854500  0.186900  1.0  -0.6597
  O  O195  1  0.280700  0.345100  0.611200  1.0  -0.6499
  O  O196  1  0.688600  0.250000  0.694400  1.0  -0.7723
  O  O197  1  0.811400  0.750000  0.194400  1.0  -0.7711
  O  O198  1  0.993100  0.250000  0.832100  1.0  -0.7406
  O  O199  1  0.340700  0.250000  0.150100  1.0  -0.5207
  O  O200  1  0.159300  0.750000  0.650100  1.0  -0.5222
