# generated using pymatgen
data_TbH16C24NO8
_symmetry_space_group_name_H-M   'P 1'
_cell_length_a   10.90200000
_cell_length_b   16.71500000
_cell_length_c   19.20100000
_cell_angle_alpha   90.00000000
_cell_angle_beta   90.00000000
_cell_angle_gamma   90.00000000
_symmetry_Int_Tables_number   1
_chemical_formula_structural   TbH16C24NO8
_chemical_formula_sum   'Tb4 H64 C96 N4 O32'
_cell_volume   3498.93928293
_cell_formula_units_Z   4
loop_
 _symmetry_equiv_pos_site_id
 _symmetry_equiv_pos_as_xyz
  1  'x, y, z'
loop_
 _atom_site_type_symbol
 _atom_site_label
 _atom_site_symmetry_multiplicity
 _atom_site_fract_x
 _atom_site_fract_y
 _atom_site_fract_z
 _atom_site_occupancy
 _atom_site_charge
  Tb  Tb1  1  0.792330  0.250000  0.796350  1.0  2.2315
  Tb  Tb2  1  0.707670  0.750000  0.296350  1.0  2.2322
  Tb  Tb3  1  0.207670  0.750000  0.203650  1.0  2.2312
  Tb  Tb4  1  0.292330  0.250000  0.703650  1.0  2.2306
  H  H5  1  0.974800  0.174000  0.541200  1.0  0.082
  H  H6  1  0.073300  0.180600  0.481800  1.0  0.0915
  H  H7  1  0.038500  0.106500  0.370100  1.0  0.1142
  H  H8  1  0.966500  0.989000  0.320500  1.0  0.0992
  H  H9  1  0.749900  0.952000  0.486000  1.0  0.0966
  H  H10  1  0.821700  0.071500  0.536000  1.0  0.1039
  H  H11  1  0.525200  0.826000  0.041200  1.0  0.0815
  H  H12  1  0.426700  0.819400  0.981800  1.0  0.0892
  H  H13  1  0.461500  0.893500  0.870100  1.0  0.1136
  H  H14  1  0.533500  0.011000  0.820500  1.0  0.0992
  H  H15  1  0.750100  0.048000  0.986000  1.0  0.0968
  H  H16  1  0.678300  0.928500  0.036000  1.0  0.1039
  H  H17  1  0.025200  0.674000  0.458800  1.0  0.0825
  H  H18  1  0.926700  0.680600  0.518200  1.0  0.0892
  H  H19  1  0.961500  0.606500  0.629900  1.0  0.114
  H  H20  1  0.033500  0.489000  0.679500  1.0  0.0986
  H  H21  1  0.250100  0.452000  0.514000  1.0  0.0968
  H  H22  1  0.178300  0.571500  0.464000  1.0  0.1051
  H  H23  1  0.474800  0.326000  0.958800  1.0  0.0823
  H  H24  1  0.573300  0.319400  0.018200  1.0  0.0912
  H  H25  1  0.538500  0.393500  0.129900  1.0  0.1131
  H  H26  1  0.466500  0.511000  0.179500  1.0  0.0987
  H  H27  1  0.249900  0.548000  0.014000  1.0  0.0966
  H  H28  1  0.321700  0.428500  0.964000  1.0  0.1041
  H  H29  1  0.025200  0.826000  0.458800  1.0  0.0827
  H  H30  1  0.926700  0.819400  0.518200  1.0  0.0891
  H  H31  1  0.961500  0.893500  0.629900  1.0  0.114
  H  H32  1  0.033500  0.011000  0.679500  1.0  0.0988
  H  H33  1  0.250100  0.048000  0.514000  1.0  0.097
  H  H34  1  0.178300  0.928500  0.464000  1.0  0.105
  H  H35  1  0.474800  0.174000  0.958800  1.0  0.0821
  H  H36  1  0.573300  0.180600  0.018200  1.0  0.0915
  H  H37  1  0.538500  0.106500  0.129900  1.0  0.1132
  H  H38  1  0.466500  0.989000  0.179500  1.0  0.0986
  H  H39  1  0.249900  0.952000  0.014000  1.0  0.0964
  H  H40  1  0.321700  0.071500  0.964000  1.0  0.1041
  H  H41  1  0.974800  0.326000  0.541200  1.0  0.0817
  H  H42  1  0.073300  0.319400  0.481800  1.0  0.0913
  H  H43  1  0.038500  0.393500  0.370100  1.0  0.1141
  H  H44  1  0.966500  0.511000  0.320500  1.0  0.0993
  H  H45  1  0.749900  0.548000  0.486000  1.0  0.0964
  H  H46  1  0.821700  0.428500  0.536000  1.0  0.1037
  H  H47  1  0.525200  0.674000  0.041200  1.0  0.0818
  H  H48  1  0.426700  0.680600  0.981800  1.0  0.0894
  H  H49  1  0.461500  0.606500  0.870100  1.0  0.1138
  H  H50  1  0.533500  0.489000  0.820500  1.0  0.099
  H  H51  1  0.750100  0.452000  0.986000  1.0  0.0968
  H  H52  1  0.678300  0.571500  0.036000  1.0  0.1042
  H  H53  1  0.854400  0.250000  0.295700  1.0  0.3792
  H  H54  1  0.462100  0.250000  0.535800  1.0  0.1134
  H  H55  1  0.518300  0.250000  0.420300  1.0  0.096
  H  H56  1  0.817500  0.250000  0.588300  1.0  0.1053
  H  H57  1  0.645600  0.750000  0.795700  1.0  0.3783
  H  H58  1  0.037900  0.750000  0.035800  1.0  0.1119
  H  H59  1  0.981700  0.750000  0.920300  1.0  0.0964
  H  H60  1  0.682500  0.750000  0.088300  1.0  0.1047
  H  H61  1  0.145600  0.750000  0.704300  1.0  0.3798
  H  H62  1  0.537900  0.750000  0.464200  1.0  0.1118
  H  H63  1  0.481700  0.750000  0.579700  1.0  0.0969
  H  H64  1  0.182500  0.750000  0.411700  1.0  0.1064
  H  H65  1  0.354400  0.250000  0.204300  1.0  0.3806
  H  H66  1  0.962100  0.250000  0.964200  1.0  0.1134
  H  H67  1  0.018300  0.250000  0.079700  1.0  0.0966
  H  H68  1  0.317500  0.250000  0.911700  1.0  0.1061
  C  C69  1  0.986000  0.176700  0.491100  1.0  -0.0895
  C  C70  1  0.935400  0.100400  0.457600  1.0  0.0608
  C  C71  1  0.980400  0.075800  0.393300  1.0  -0.0868
  C  C72  1  0.937700  0.004700  0.364000  1.0  -0.0721
  C  C73  1  0.853600  0.957200  0.398300  1.0  -0.176
  C  C74  1  0.808200  0.982600  0.462800  1.0  -0.0368
  C  C75  1  0.850800  0.054900  0.492800  1.0  -0.0621
  C  C76  1  0.812200  0.882100  0.367600  1.0  0.6158
  C  C77  1  0.514000  0.823300  0.991100  1.0  -0.0903
  C  C78  1  0.564600  0.899600  0.957600  1.0  0.0611
  C  C79  1  0.519600  0.924200  0.893300  1.0  -0.0842
  C  C80  1  0.562300  0.995300  0.864000  1.0  -0.0714
  C  C81  1  0.646400  0.042800  0.898300  1.0  -0.1745
  C  C82  1  0.691800  0.017400  0.962800  1.0  -0.0358
  C  C83  1  0.649200  0.945100  0.992800  1.0  -0.0633
  C  C84  1  0.687800  0.117900  0.867600  1.0  0.6151
  C  C85  1  0.014000  0.676700  0.508900  1.0  -0.089
  C  C86  1  0.064600  0.600400  0.542400  1.0  0.0625
  C  C87  1  0.019600  0.575800  0.606700  1.0  -0.0912
  C  C88  1  0.062300  0.504700  0.636000  1.0  -0.0764
  C  C89  1  0.146400  0.457200  0.601700  1.0  -0.1735
  C  C90  1  0.191800  0.482600  0.537200  1.0  -0.0373
  C  C91  1  0.149200  0.554900  0.507200  1.0  -0.0631
  C  C92  1  0.187800  0.382100  0.632400  1.0  0.6164
  C  C93  1  0.486000  0.323300  0.008900  1.0  -0.0883
  C  C94  1  0.435400  0.399600  0.042400  1.0  0.0627
  C  C95  1  0.480400  0.424200  0.106700  1.0  -0.0911
  C  C96  1  0.437700  0.495300  0.136000  1.0  -0.0755
  C  C97  1  0.353600  0.542800  0.101700  1.0  -0.1752
  C  C98  1  0.308200  0.517400  0.037200  1.0  -0.0375
  C  C99  1  0.350800  0.445100  0.007200  1.0  -0.0636
  C  C100  1  0.312200  0.617900  0.132400  1.0  0.6141
  C  C101  1  0.014000  0.823300  0.508900  1.0  -0.0891
  C  C102  1  0.064600  0.899600  0.542400  1.0  0.0623
  C  C103  1  0.019600  0.924200  0.606700  1.0  -0.0915
  C  C104  1  0.062300  0.995300  0.636000  1.0  -0.0767
  C  C105  1  0.146400  0.042800  0.601700  1.0  -0.1756
  C  C106  1  0.191800  0.017400  0.537200  1.0  -0.0368
  C  C107  1  0.149200  0.945100  0.507200  1.0  -0.0627
  C  C108  1  0.187800  0.117900  0.632400  1.0  0.6159
  C  C109  1  0.486000  0.176700  0.008900  1.0  -0.0882
  C  C110  1  0.435400  0.100400  0.042400  1.0  0.0627
  C  C111  1  0.480400  0.075800  0.106700  1.0  -0.0907
  C  C112  1  0.437700  0.004700  0.136000  1.0  -0.0752
  C  C113  1  0.353600  0.957200  0.101700  1.0  -0.1735
  C  C114  1  0.308200  0.982600  0.037200  1.0  -0.0376
  C  C115  1  0.350800  0.054900  0.007200  1.0  -0.0642
  C  C116  1  0.312200  0.882100  0.132400  1.0  0.6147
  C  C117  1  0.986000  0.323300  0.491100  1.0  -0.0893
  C  C118  1  0.935400  0.399600  0.457600  1.0  0.0613
  C  C119  1  0.980400  0.424200  0.393300  1.0  -0.0869
  C  C120  1  0.937700  0.495300  0.364000  1.0  -0.0724
  C  C121  1  0.853600  0.542800  0.398300  1.0  -0.1733
  C  C122  1  0.808200  0.517400  0.462800  1.0  -0.0371
  C  C123  1  0.850800  0.445100  0.492800  1.0  -0.0623
  C  C124  1  0.812200  0.617900  0.367600  1.0  0.6154
  C  C125  1  0.514000  0.676700  0.991100  1.0  -0.0904
  C  C126  1  0.564600  0.600400  0.957600  1.0  0.0608
  C  C127  1  0.519600  0.575800  0.893300  1.0  -0.084
  C  C128  1  0.562300  0.504700  0.864000  1.0  -0.0711
  C  C129  1  0.646400  0.457200  0.898300  1.0  -0.1763
  C  C130  1  0.691800  0.482600  0.962800  1.0  -0.0361
  C  C131  1  0.649200  0.554900  0.992800  1.0  -0.0631
  C  C132  1  0.687800  0.382100  0.867600  1.0  0.6153
  C  C133  1  0.606500  0.250000  0.651400  1.0  0.6674
  C  C134  1  0.635000  0.250000  0.571500  1.0  -0.0961
  C  C135  1  0.544400  0.250000  0.522900  1.0  -0.0678
  C  C136  1  0.578700  0.250000  0.454400  1.0  -0.0354
  C  C137  1  0.702000  0.250000  0.434200  1.0  -0.1413
  C  C138  1  0.791600  0.250000  0.485900  1.0  0.0901
  C  C139  1  0.757900  0.250000  0.553600  1.0  -0.135
  C  C140  1  0.730300  0.250000  0.357300  1.0  0.6143
  C  C141  1  0.893500  0.750000  0.151400  1.0  0.6679
  C  C142  1  0.865000  0.750000  0.071500  1.0  -0.0976
  C  C143  1  0.955600  0.750000  0.022900  1.0  -0.0659
  C  C144  1  0.921300  0.750000  0.954400  1.0  -0.0334
  C  C145  1  0.798000  0.750000  0.934200  1.0  -0.1416
  C  C146  1  0.708400  0.750000  0.985900  1.0  0.0921
  C  C147  1  0.742100  0.750000  0.053600  1.0  -0.1351
  C  C148  1  0.769700  0.750000  0.857300  1.0  0.611
  C  C149  1  0.393500  0.750000  0.348600  1.0  0.6671
  C  C150  1  0.365000  0.750000  0.428500  1.0  -0.0958
  C  C151  1  0.455600  0.750000  0.477100  1.0  -0.0664
  C  C152  1  0.421300  0.750000  0.545600  1.0  -0.0334
  C  C153  1  0.298000  0.750000  0.565800  1.0  -0.1419
  C  C154  1  0.208400  0.750000  0.514100  1.0  0.0908
  C  C155  1  0.242100  0.750000  0.446400  1.0  -0.1351
  C  C156  1  0.269700  0.750000  0.642700  1.0  0.6153
  C  C157  1  0.106500  0.250000  0.848600  1.0  0.6677
  C  C158  1  0.135000  0.250000  0.928500  1.0  -0.0956
  C  C159  1  0.044400  0.250000  0.977100  1.0  -0.0677
  C  C160  1  0.078700  0.250000  0.045600  1.0  -0.0363
  C  C161  1  0.202000  0.250000  0.065800  1.0  -0.1429
  C  C162  1  0.291600  0.250000  0.014100  1.0  0.0895
  C  C163  1  0.257900  0.250000  0.946400  1.0  -0.1348
  C  C164  1  0.230300  0.250000  0.142700  1.0  0.6162
  N  N165  1  0.922500  0.250000  0.463300  1.0  -0.2728
  N  N166  1  0.577500  0.750000  0.963300  1.0  -0.2729
  N  N167  1  0.077500  0.750000  0.536700  1.0  -0.2768
  N  N168  1  0.422500  0.250000  0.036700  1.0  -0.2756
  O  O169  1  0.865100  0.852000  0.313500  1.0  -0.6638
  O  O170  1  0.720100  0.844500  0.393200  1.0  -0.6536
  O  O171  1  0.634900  0.148000  0.813500  1.0  -0.6642
  O  O172  1  0.779900  0.155500  0.893200  1.0  -0.6568
  O  O173  1  0.134900  0.352000  0.686500  1.0  -0.6641
  O  O174  1  0.279900  0.344500  0.606800  1.0  -0.6564
  O  O175  1  0.365100  0.648000  0.186500  1.0  -0.663
  O  O176  1  0.220100  0.655500  0.106800  1.0  -0.6537
  O  O177  1  0.134900  0.148000  0.686500  1.0  -0.6646
  O  O178  1  0.279900  0.155500  0.606800  1.0  -0.6567
  O  O179  1  0.365100  0.852000  0.186500  1.0  -0.663
  O  O180  1  0.220100  0.844500  0.106800  1.0  -0.6545
  O  O181  1  0.865100  0.648000  0.313500  1.0  -0.6637
  O  O182  1  0.720100  0.655500  0.393200  1.0  -0.653
  O  O183  1  0.634900  0.352000  0.813500  1.0  -0.6642
  O  O184  1  0.779900  0.344500  0.893200  1.0  -0.6563
  O  O185  1  0.689200  0.250000  0.694100  1.0  -0.6608
  O  O186  1  0.490000  0.250000  0.664000  1.0  -0.7118
  O  O187  1  0.849500  0.250000  0.338300  1.0  -0.526
  O  O188  1  0.647900  0.250000  0.314900  1.0  -0.4843
  O  O189  1  0.810800  0.750000  0.194100  1.0  -0.6588
  O  O190  1  0.010000  0.750000  0.164000  1.0  -0.7114
  O  O191  1  0.650500  0.750000  0.838300  1.0  -0.5274
  O  O192  1  0.852100  0.750000  0.814900  1.0  -0.4836
  O  O193  1  0.310800  0.750000  0.305900  1.0  -0.6608
  O  O194  1  0.510000  0.750000  0.336000  1.0  -0.7139
  O  O195  1  0.150500  0.750000  0.661700  1.0  -0.5279
  O  O196  1  0.352100  0.750000  0.685100  1.0  -0.4851
  O  O197  1  0.189200  0.250000  0.805900  1.0  -0.6628
  O  O198  1  0.990000  0.250000  0.836000  1.0  -0.7143
  O  O199  1  0.349500  0.250000  0.161700  1.0  -0.5265
  O  O200  1  0.147900  0.250000  0.185100  1.0  -0.4837
