# generated using pymatgen
data_EuH16C24NO8
_symmetry_space_group_name_H-M   'P 1'
_cell_length_a   10.97900000
_cell_length_b   16.65050000
_cell_length_c   19.37950000
_cell_angle_alpha   90.00000000
_cell_angle_beta   90.00000000
_cell_angle_gamma   90.00000000
_symmetry_Int_Tables_number   1
_chemical_formula_structural   EuH16C24NO8
_chemical_formula_sum   'Eu4 H64 C96 N4 O32'
_cell_volume   3542.68576659
_cell_formula_units_Z   4
loop_
 _symmetry_equiv_pos_site_id
 _symmetry_equiv_pos_as_xyz
  1  'x, y, z'
loop_
 _atom_site_type_symbol
 _atom_site_label
 _atom_site_symmetry_multiplicity
 _atom_site_fract_x
 _atom_site_fract_y
 _atom_site_fract_z
 _atom_site_occupancy
 _atom_site_charge
  Eu  Eu1  1  0.287990  0.250000  0.703640  1.0  2.119
  Eu  Eu2  1  0.212010  0.750000  0.203640  1.0  2.1184
  Eu  Eu3  1  0.712010  0.750000  0.296360  1.0  2.1191
  Eu  Eu4  1  0.787990  0.250000  0.796360  1.0  2.1195
  H  H5  1  0.567800  0.180900  0.011500  1.0  0.0872
  H  H6  1  0.469200  0.172300  0.953400  1.0  0.0915
  H  H7  1  0.540300  0.107100  0.121200  1.0  0.1088
  H  H8  1  0.478400  0.989400  0.171400  1.0  0.102
  H  H9  1  0.243400  0.954000  0.016000  1.0  0.1077
  H  H10  1  0.312100  0.069800  0.964000  1.0  0.1028
  H  H11  1  0.932200  0.819100  0.511500  1.0  0.0861
  H  H12  1  0.030800  0.827700  0.453400  1.0  0.0918
  H  H13  1  0.959700  0.892900  0.621200  1.0  0.1096
  H  H14  1  0.021600  0.010600  0.671400  1.0  0.102
  H  H15  1  0.256600  0.046000  0.516000  1.0  0.1084
  H  H16  1  0.187900  0.930200  0.464000  1.0  0.1035
  H  H17  1  0.432200  0.680900  0.988500  1.0  0.0863
  H  H18  1  0.530800  0.672300  0.046600  1.0  0.0919
  H  H19  1  0.459700  0.607100  0.878800  1.0  0.1101
  H  H20  1  0.521600  0.489400  0.828600  1.0  0.1015
  H  H21  1  0.756600  0.454000  0.984000  1.0  0.1082
  H  H22  1  0.687900  0.569800  0.036000  1.0  0.1027
  H  H23  1  0.067800  0.319100  0.488500  1.0  0.087
  H  H24  1  0.969200  0.327700  0.546600  1.0  0.0919
  H  H25  1  0.040300  0.392900  0.378800  1.0  0.1103
  H  H26  1  0.978400  0.510600  0.328600  1.0  0.1019
  H  H27  1  0.743400  0.546000  0.484000  1.0  0.108
  H  H28  1  0.812100  0.430200  0.536000  1.0  0.1019
  H  H29  1  0.432200  0.819100  0.988500  1.0  0.0862
  H  H30  1  0.530800  0.827700  0.046600  1.0  0.0917
  H  H31  1  0.459700  0.892900  0.878800  1.0  0.1096
  H  H32  1  0.521600  0.010600  0.828600  1.0  0.102
  H  H33  1  0.756600  0.046000  0.984000  1.0  0.1083
  H  H34  1  0.687900  0.930200  0.036000  1.0  0.1024
  H  H35  1  0.067800  0.180900  0.488500  1.0  0.087
  H  H36  1  0.969200  0.172300  0.546600  1.0  0.092
  H  H37  1  0.040300  0.107100  0.378800  1.0  0.1105
  H  H38  1  0.978400  0.989400  0.328600  1.0  0.1015
  H  H39  1  0.743400  0.954000  0.484000  1.0  0.1079
  H  H40  1  0.812100  0.069800  0.536000  1.0  0.1022
  H  H41  1  0.567800  0.319100  0.011500  1.0  0.0872
  H  H42  1  0.469200  0.327700  0.953400  1.0  0.0915
  H  H43  1  0.540300  0.392900  0.121200  1.0  0.1089
  H  H44  1  0.478400  0.510600  0.171400  1.0  0.102
  H  H45  1  0.243400  0.546000  0.016000  1.0  0.1081
  H  H46  1  0.312100  0.430200  0.964000  1.0  0.1024
  H  H47  1  0.932200  0.680900  0.511500  1.0  0.086
  H  H48  1  0.030800  0.672300  0.453400  1.0  0.092
  H  H49  1  0.959700  0.607100  0.621200  1.0  0.1097
  H  H50  1  0.021600  0.489400  0.671400  1.0  0.102
  H  H51  1  0.256600  0.454000  0.516000  1.0  0.1081
  H  H52  1  0.187900  0.569800  0.464000  1.0  0.1039
  H  H53  1  0.357200  0.250000  0.195800  1.0  0.3872
  H  H54  1  0.961000  0.250000  0.963300  1.0  0.1009
  H  H55  1  0.019100  0.250000  0.077900  1.0  0.1001
  H  H56  1  0.312100  0.250000  0.906700  1.0  0.1017
  H  H57  1  0.142800  0.750000  0.695800  1.0  0.3877
  H  H58  1  0.539000  0.750000  0.463300  1.0  0.0997
  H  H59  1  0.480900  0.750000  0.577900  1.0  0.1005
  H  H60  1  0.187900  0.750000  0.406700  1.0  0.1021
  H  H61  1  0.642800  0.750000  0.804200  1.0  0.3843
  H  H62  1  0.039000  0.750000  0.036700  1.0  0.0995
  H  H63  1  0.980900  0.750000  0.922100  1.0  0.1003
  H  H64  1  0.687900  0.750000  0.093300  1.0  0.101
  H  H65  1  0.857200  0.250000  0.304200  1.0  0.3853
  H  H66  1  0.461000  0.250000  0.536700  1.0  0.1009
  H  H67  1  0.519100  0.250000  0.422100  1.0  0.1001
  H  H68  1  0.812100  0.250000  0.593300  1.0  0.1014
  C  C69  1  0.481000  0.176400  0.002900  1.0  -0.0817
  C  C70  1  0.433300  0.100900  0.037200  1.0  0.1143
  C  C71  1  0.481400  0.075900  0.099500  1.0  -0.0936
  C  C72  1  0.443300  0.005700  0.130000  1.0  -0.0641
  C  C73  1  0.354500  0.959400  0.100280  1.0  -0.1378
  C  C74  1  0.304000  0.984400  0.037000  1.0  -0.0522
  C  C75  1  0.344700  0.054100  0.006200  1.0  -0.0768
  C  C76  1  0.313300  0.882200  0.132100  1.0  0.6696
  C  C77  1  0.019000  0.823600  0.502900  1.0  -0.0816
  C  C78  1  0.066700  0.899100  0.537200  1.0  0.1142
  C  C79  1  0.018600  0.924100  0.599500  1.0  -0.0922
  C  C80  1  0.056700  0.994300  0.630000  1.0  -0.065
  C  C81  1  0.145500  0.040600  0.600280  1.0  -0.1394
  C  C82  1  0.196000  0.015600  0.537000  1.0  -0.051
  C  C83  1  0.155300  0.945900  0.506200  1.0  -0.0775
  C  C84  1  0.186700  0.117800  0.632100  1.0  0.6713
  C  C85  1  0.519000  0.676400  0.997100  1.0  -0.0813
  C  C86  1  0.566700  0.600900  0.962800  1.0  0.1134
  C  C87  1  0.518600  0.575900  0.900500  1.0  -0.0863
  C  C88  1  0.556700  0.505700  0.870000  1.0  -0.0593
  C  C89  1  0.645500  0.459400  0.899720  1.0  -0.1435
  C  C90  1  0.696000  0.484400  0.963000  1.0  -0.0505
  C  C91  1  0.655300  0.554100  0.993800  1.0  -0.0781
  C  C92  1  0.686700  0.382200  0.867900  1.0  0.6691
  C  C93  1  0.981000  0.323600  0.497100  1.0  -0.0811
  C  C94  1  0.933300  0.399100  0.462800  1.0  0.1129
  C  C95  1  0.981400  0.424100  0.400500  1.0  -0.0901
  C  C96  1  0.943300  0.494300  0.370000  1.0  -0.0601
  C  C97  1  0.854500  0.540600  0.399720  1.0  -0.1413
  C  C98  1  0.804000  0.515600  0.463000  1.0  -0.0526
  C  C99  1  0.844700  0.445900  0.493800  1.0  -0.0752
  C  C100  1  0.813300  0.617800  0.367900  1.0  0.6711
  C  C101  1  0.519000  0.823600  0.997100  1.0  -0.0812
  C  C102  1  0.566700  0.899100  0.962800  1.0  0.1131
  C  C103  1  0.518600  0.924100  0.900500  1.0  -0.0868
  C  C104  1  0.556700  0.994300  0.870000  1.0  -0.0595
  C  C105  1  0.645500  0.040600  0.899720  1.0  -0.1426
  C  C106  1  0.696000  0.015600  0.963000  1.0  -0.0497
  C  C107  1  0.655300  0.945900  0.993800  1.0  -0.0773
  C  C108  1  0.686700  0.117800  0.867900  1.0  0.6698
  C  C109  1  0.981000  0.176400  0.497100  1.0  -0.0812
  C  C110  1  0.933300  0.100900  0.462800  1.0  0.1131
  C  C111  1  0.981400  0.075900  0.400500  1.0  -0.0896
  C  C112  1  0.943300  0.005700  0.370000  1.0  -0.0597
  C  C113  1  0.854500  0.959400  0.399720  1.0  -0.1434
  C  C114  1  0.804000  0.984400  0.463000  1.0  -0.0519
  C  C115  1  0.844700  0.054100  0.493800  1.0  -0.0755
  C  C116  1  0.813300  0.882200  0.367900  1.0  0.6707
  C  C117  1  0.481000  0.323600  0.002900  1.0  -0.0817
  C  C118  1  0.433300  0.399100  0.037200  1.0  0.1142
  C  C119  1  0.481400  0.424100  0.099500  1.0  -0.0937
  C  C120  1  0.443300  0.494300  0.130000  1.0  -0.0644
  C  C121  1  0.354500  0.540600  0.100280  1.0  -0.1382
  C  C122  1  0.304000  0.515600  0.037000  1.0  -0.0528
  C  C123  1  0.344700  0.445900  0.006200  1.0  -0.0766
  C  C124  1  0.313300  0.617800  0.132100  1.0  0.6705
  C  C125  1  0.019000  0.676400  0.502900  1.0  -0.0816
  C  C126  1  0.066700  0.600900  0.537200  1.0  0.1143
  C  C127  1  0.018600  0.575900  0.599500  1.0  -0.0924
  C  C128  1  0.056700  0.505700  0.630000  1.0  -0.0648
  C  C129  1  0.145500  0.459400  0.600280  1.0  -0.1382
  C  C130  1  0.196000  0.484400  0.537000  1.0  -0.052
  C  C131  1  0.155300  0.554100  0.506200  1.0  -0.0783
  C  C132  1  0.186700  0.382200  0.632100  1.0  0.6702
  C  C133  1  0.096300  0.250000  0.848800  1.0  0.7465
  C  C134  1  0.130800  0.250000  0.923500  1.0  -0.1585
  C  C135  1  0.043200  0.250000  0.974900  1.0  -0.0539
  C  C136  1  0.078300  0.250000  0.043600  1.0  -0.0545
  C  C137  1  0.201900  0.250000  0.062100  1.0  -0.1489
  C  C138  1  0.287900  0.250000  0.010200  1.0  0.0987
  C  C139  1  0.253000  0.250000  0.941200  1.0  -0.0998
  C  C140  1  0.229500  0.250000  0.138500  1.0  0.6351
  C  C141  1  0.403700  0.750000  0.348800  1.0  0.7447
  C  C142  1  0.369200  0.750000  0.423500  1.0  -0.1587
  C  C143  1  0.456800  0.750000  0.474900  1.0  -0.0535
  C  C144  1  0.421700  0.750000  0.543600  1.0  -0.052
  C  C145  1  0.298100  0.750000  0.562100  1.0  -0.1479
  C  C146  1  0.212100  0.750000  0.510200  1.0  0.0992
  C  C147  1  0.247000  0.750000  0.441200  1.0  -0.1001
  C  C148  1  0.270500  0.750000  0.638500  1.0  0.6347
  C  C149  1  0.903700  0.750000  0.151200  1.0  0.7434
  C  C150  1  0.869200  0.750000  0.076500  1.0  -0.1597
  C  C151  1  0.956800  0.750000  0.025100  1.0  -0.0526
  C  C152  1  0.921700  0.750000  0.956400  1.0  -0.0526
  C  C153  1  0.798100  0.750000  0.937900  1.0  -0.1484
  C  C154  1  0.712100  0.750000  0.989800  1.0  0.1006
  C  C155  1  0.747000  0.750000  0.058800  1.0  -0.0997
  C  C156  1  0.770500  0.750000  0.861500  1.0  0.6298
  C  C157  1  0.596300  0.250000  0.651200  1.0  0.7426
  C  C158  1  0.630800  0.250000  0.576500  1.0  -0.1585
  C  C159  1  0.543200  0.250000  0.525100  1.0  -0.0539
  C  C160  1  0.578300  0.250000  0.456400  1.0  -0.0545
  C  C161  1  0.701900  0.250000  0.437900  1.0  -0.1498
  C  C162  1  0.787900  0.250000  0.489800  1.0  0.0994
  C  C163  1  0.753000  0.250000  0.558800  1.0  -0.0999
  C  C164  1  0.729500  0.250000  0.361500  1.0  0.6337
  N  N165  1  0.418600  0.250000  0.028800  1.0  -0.2478
  N  N166  1  0.081400  0.750000  0.528800  1.0  -0.2482
  N  N167  1  0.581400  0.750000  0.971200  1.0  -0.2451
  N  N168  1  0.918600  0.250000  0.471200  1.0  -0.2453
  O  O169  1  0.369000  0.854790  0.184120  1.0  -0.7006
  O  O170  1  0.223300  0.845200  0.107270  1.0  -0.6971
  O  O171  1  0.131000  0.145210  0.684120  1.0  -0.7016
  O  O172  1  0.276700  0.154800  0.607270  1.0  -0.6973
  O  O173  1  0.631000  0.354790  0.815880  1.0  -0.7026
  O  O174  1  0.776700  0.345200  0.892730  1.0  -0.6987
  O  O175  1  0.869000  0.645210  0.315880  1.0  -0.702
  O  O176  1  0.723300  0.654800  0.392730  1.0  -0.6964
  O  O177  1  0.631000  0.145210  0.815880  1.0  -0.7027
  O  O178  1  0.776700  0.154800  0.892730  1.0  -0.6983
  O  O179  1  0.869000  0.854790  0.315880  1.0  -0.7023
  O  O180  1  0.723300  0.845200  0.392730  1.0  -0.6965
  O  O181  1  0.369000  0.645210  0.184120  1.0  -0.7004
  O  O182  1  0.223300  0.654800  0.107270  1.0  -0.6965
  O  O183  1  0.131000  0.354790  0.684120  1.0  -0.7015
  O  O184  1  0.276700  0.345200  0.607270  1.0  -0.6977
  O  O185  1  0.179600  0.250000  0.805520  1.0  -0.7691
  O  O186  1  0.985700  0.250000  0.834700  1.0  -0.7541
  O  O187  1  0.348500  0.250000  0.153800  1.0  -0.5196
  O  O188  1  0.151400  0.250000  0.181400  1.0  -0.4474
  O  O189  1  0.320400  0.750000  0.305520  1.0  -0.7674
  O  O190  1  0.514300  0.750000  0.334700  1.0  -0.7545
  O  O191  1  0.151500  0.750000  0.653800  1.0  -0.5204
  O  O192  1  0.348600  0.750000  0.681400  1.0  -0.4481
  O  O193  1  0.820400  0.750000  0.194480  1.0  -0.7661
  O  O194  1  0.014300  0.750000  0.165300  1.0  -0.753
  O  O195  1  0.651500  0.750000  0.846200  1.0  -0.5214
  O  O196  1  0.848600  0.750000  0.818600  1.0  -0.4456
  O  O197  1  0.679600  0.250000  0.694480  1.0  -0.768
  O  O198  1  0.485700  0.250000  0.665300  1.0  -0.7526
  O  O199  1  0.848500  0.250000  0.346200  1.0  -0.5207
  O  O200  1  0.651400  0.250000  0.318600  1.0  -0.4456
