# generated using pymatgen
data_TbH16C24NO8
_symmetry_space_group_name_H-M   'P 1'
_cell_length_a   10.92900000
_cell_length_b   16.58600000
_cell_length_c   19.39600000
_cell_angle_alpha   90.00000000
_cell_angle_beta   90.00000000
_cell_angle_gamma   90.00000000
_symmetry_Int_Tables_number   1
_chemical_formula_structural   TbH16C24NO8
_chemical_formula_sum   'Tb4 H64 C96 N4 O32'
_cell_volume   3515.88177002
_cell_formula_units_Z   4
loop_
 _symmetry_equiv_pos_site_id
 _symmetry_equiv_pos_as_xyz
  1  'x, y, z'
loop_
 _atom_site_type_symbol
 _atom_site_label
 _atom_site_symmetry_multiplicity
 _atom_site_fract_x
 _atom_site_fract_y
 _atom_site_fract_z
 _atom_site_occupancy
 _atom_site_charge
  Tb  Tb1  1  0.288200  0.250000  0.704070  1.0  2.2379
  Tb  Tb2  1  0.211800  0.750000  0.204070  1.0  2.2334
  Tb  Tb3  1  0.711800  0.750000  0.295930  1.0  2.2312
  Tb  Tb4  1  0.788200  0.250000  0.795930  1.0  2.2338
  H  H5  1  0.568400  0.180700  0.011000  1.0  0.0824
  H  H6  1  0.469200  0.171500  0.953000  1.0  0.0864
  H  H7  1  0.540800  0.106900  0.121200  1.0  0.1045
  H  H8  1  0.480100  0.988000  0.170800  1.0  0.0963
  H  H9  1  0.242000  0.952800  0.017500  1.0  0.0953
  H  H10  1  0.309300  0.069300  0.964900  1.0  0.1047
  H  H11  1  0.931600  0.819300  0.511000  1.0  0.0813
  H  H12  1  0.030800  0.828500  0.453000  1.0  0.0868
  H  H13  1  0.959200  0.893100  0.621200  1.0  0.1053
  H  H14  1  0.019900  0.012000  0.670800  1.0  0.0967
  H  H15  1  0.258000  0.047200  0.517500  1.0  0.0958
  H  H16  1  0.190700  0.930700  0.464900  1.0  0.1057
  H  H17  1  0.431600  0.680700  0.989000  1.0  0.0816
  H  H18  1  0.530800  0.671500  0.047000  1.0  0.0867
  H  H19  1  0.459200  0.606900  0.878800  1.0  0.1057
  H  H20  1  0.519900  0.488000  0.829200  1.0  0.0965
  H  H21  1  0.758000  0.452800  0.982500  1.0  0.0959
  H  H22  1  0.690700  0.569300  0.035100  1.0  0.1051
  H  H23  1  0.068400  0.319300  0.489000  1.0  0.0824
  H  H24  1  0.969200  0.328500  0.547000  1.0  0.087
  H  H25  1  0.040800  0.393100  0.378800  1.0  0.1061
  H  H26  1  0.980100  0.512000  0.329200  1.0  0.0969
  H  H27  1  0.742000  0.547200  0.482500  1.0  0.0956
  H  H28  1  0.809300  0.430700  0.535100  1.0  0.1043
  H  H29  1  0.431600  0.819300  0.989000  1.0  0.0816
  H  H30  1  0.530800  0.828500  0.047000  1.0  0.0865
  H  H31  1  0.459200  0.893100  0.878800  1.0  0.1053
  H  H32  1  0.519900  0.012000  0.829200  1.0  0.0969
  H  H33  1  0.758000  0.047200  0.982500  1.0  0.0959
  H  H34  1  0.690700  0.930700  0.035100  1.0  0.1048
  H  H35  1  0.068400  0.180700  0.489000  1.0  0.0824
  H  H36  1  0.969200  0.171500  0.547000  1.0  0.0871
  H  H37  1  0.040800  0.106900  0.378800  1.0  0.1063
  H  H38  1  0.980100  0.988000  0.329200  1.0  0.0966
  H  H39  1  0.742000  0.952800  0.482500  1.0  0.0956
  H  H40  1  0.809300  0.069300  0.535100  1.0  0.1045
  H  H41  1  0.568400  0.319300  0.011000  1.0  0.0825
  H  H42  1  0.469200  0.328500  0.953000  1.0  0.0867
  H  H43  1  0.540800  0.393100  0.121200  1.0  0.1043
  H  H44  1  0.480100  0.512000  0.170800  1.0  0.0964
  H  H45  1  0.242000  0.547200  0.017500  1.0  0.0956
  H  H46  1  0.309300  0.430700  0.964900  1.0  0.1046
  H  H47  1  0.931600  0.680700  0.511000  1.0  0.0812
  H  H48  1  0.030800  0.671500  0.453000  1.0  0.0866
  H  H49  1  0.959200  0.606900  0.621200  1.0  0.1054
  H  H50  1  0.019900  0.488000  0.670800  1.0  0.0965
  H  H51  1  0.258000  0.452800  0.517500  1.0  0.0956
  H  H52  1  0.190700  0.569300  0.464900  1.0  0.1059
  H  H53  1  0.354800  0.250000  0.194600  1.0  0.3751
  H  H54  1  0.959100  0.250000  0.961700  1.0  0.0977
  H  H55  1  0.016900  0.250000  0.076500  1.0  0.0957
  H  H56  1  0.312100  0.250000  0.905900  1.0  0.1013
  H  H57  1  0.145200  0.750000  0.694600  1.0  0.3758
  H  H58  1  0.540900  0.750000  0.461700  1.0  0.0962
  H  H59  1  0.483100  0.750000  0.576500  1.0  0.096
  H  H60  1  0.187900  0.750000  0.405900  1.0  0.1011
  H  H61  1  0.645200  0.750000  0.805400  1.0  0.3725
  H  H62  1  0.040900  0.750000  0.038300  1.0  0.0962
  H  H63  1  0.983100  0.750000  0.923500  1.0  0.0959
  H  H64  1  0.687900  0.750000  0.094100  1.0  0.1002
  H  H65  1  0.854800  0.250000  0.305400  1.0  0.3735
  H  H66  1  0.459100  0.250000  0.538300  1.0  0.0978
  H  H67  1  0.516900  0.250000  0.423500  1.0  0.0956
  H  H68  1  0.812100  0.250000  0.594100  1.0  0.1017
  C  C69  1  0.481200  0.175900  0.002400  1.0  -0.0883
  C  C70  1  0.433500  0.100200  0.037300  1.0  0.1108
  C  C71  1  0.481900  0.075400  0.099500  1.0  -0.1164
  C  C72  1  0.444100  0.004800  0.129800  1.0  -0.0595
  C  C73  1  0.353900  0.958800  0.100300  1.0  -0.1677
  C  C74  1  0.303100  0.983500  0.038100  1.0  -0.0419
  C  C75  1  0.343100  0.053400  0.006700  1.0  -0.1103
  C  C76  1  0.313000  0.881300  0.132900  1.0  0.6653
  C  C77  1  0.018800  0.824100  0.502400  1.0  -0.0886
  C  C78  1  0.066500  0.899800  0.537300  1.0  0.1109
  C  C79  1  0.018100  0.924600  0.599500  1.0  -0.1149
  C  C80  1  0.055900  0.995200  0.629800  1.0  -0.0604
  C  C81  1  0.146100  0.041200  0.600300  1.0  -0.1704
  C  C82  1  0.196900  0.016500  0.538100  1.0  -0.0354
  C  C83  1  0.156900  0.946600  0.506700  1.0  -0.1098
  C  C84  1  0.187000  0.118700  0.632900  1.0  0.6659
  C  C85  1  0.518800  0.675900  0.997600  1.0  -0.0887
  C  C86  1  0.566500  0.600200  0.962700  1.0  0.1093
  C  C87  1  0.518100  0.575400  0.900500  1.0  -0.1014
  C  C88  1  0.555900  0.504800  0.870200  1.0  -0.0643
  C  C89  1  0.646100  0.458800  0.899700  1.0  -0.1726
  C  C90  1  0.696900  0.483500  0.961900  1.0  -0.0344
  C  C91  1  0.656900  0.553400  0.993300  1.0  -0.1009
  C  C92  1  0.687000  0.381300  0.867100  1.0  0.6647
  C  C93  1  0.981200  0.324100  0.497600  1.0  -0.0878
  C  C94  1  0.933500  0.399800  0.462700  1.0  0.1092
  C  C95  1  0.981900  0.424600  0.400500  1.0  -0.1178
  C  C96  1  0.944100  0.495200  0.370200  1.0  -0.0611
  C  C97  1  0.853900  0.541200  0.399700  1.0  -0.1697
  C  C98  1  0.803100  0.516500  0.461900  1.0  -0.0362
  C  C99  1  0.843100  0.446600  0.493300  1.0  -0.0971
  C  C100  1  0.813000  0.618700  0.367100  1.0  0.6686
  C  C101  1  0.518800  0.824100  0.997600  1.0  -0.0885
  C  C102  1  0.566500  0.899800  0.962700  1.0  0.1094
  C  C103  1  0.518100  0.924600  0.900500  1.0  -0.1132
  C  C104  1  0.555900  0.995200  0.870200  1.0  -0.058
  C  C105  1  0.646100  0.041200  0.899700  1.0  -0.171
  C  C106  1  0.696900  0.016500  0.961900  1.0  -0.0358
  C  C107  1  0.656900  0.946600  0.993300  1.0  -0.1007
  C  C108  1  0.687000  0.118700  0.867100  1.0  0.6661
  C  C109  1  0.981200  0.175900  0.497600  1.0  -0.0879
  C  C110  1  0.933500  0.100200  0.462700  1.0  0.1091
  C  C111  1  0.981900  0.075400  0.400500  1.0  -0.1163
  C  C112  1  0.944100  0.004800  0.370200  1.0  -0.0592
  C  C113  1  0.853900  0.958800  0.399700  1.0  -0.1719
  C  C114  1  0.803100  0.983500  0.461900  1.0  -0.03
  C  C115  1  0.843100  0.053400  0.493300  1.0  -0.0976
  C  C116  1  0.813000  0.881300  0.367100  1.0  0.6676
  C  C117  1  0.481200  0.324100  0.002400  1.0  -0.0883
  C  C118  1  0.433500  0.399800  0.037300  1.0  0.1108
  C  C119  1  0.481900  0.424600  0.099500  1.0  -0.1195
  C  C120  1  0.444100  0.495200  0.129800  1.0  -0.0628
  C  C121  1  0.353900  0.541200  0.100300  1.0  -0.1683
  C  C122  1  0.303100  0.516500  0.038100  1.0  -0.0361
  C  C123  1  0.343100  0.446600  0.006700  1.0  -0.1092
  C  C124  1  0.313000  0.618700  0.132900  1.0  0.6666
  C  C125  1  0.018800  0.675900  0.502400  1.0  -0.0886
  C  C126  1  0.066500  0.600200  0.537300  1.0  0.1108
  C  C127  1  0.018100  0.575400  0.599500  1.0  -0.1063
  C  C128  1  0.055900  0.504800  0.629800  1.0  -0.0673
  C  C129  1  0.146100  0.458800  0.600300  1.0  -0.17
  C  C130  1  0.196900  0.483500  0.538100  1.0  -0.0361
  C  C131  1  0.156900  0.553400  0.506700  1.0  -0.1108
  C  C132  1  0.187000  0.381300  0.632900  1.0  0.6659
  C  C133  1  0.095600  0.250000  0.847500  1.0  0.7395
  C  C134  1  0.130100  0.250000  0.922600  1.0  -0.1662
  C  C135  1  0.041500  0.250000  0.973500  1.0  -0.0558
  C  C136  1  0.076500  0.250000  0.042300  1.0  -0.0564
  C  C137  1  0.199900  0.250000  0.060700  1.0  -0.1757
  C  C138  1  0.286900  0.250000  0.009500  1.0  0.0858
  C  C139  1  0.252700  0.250000  0.940100  1.0  -0.1121
  C  C140  1  0.228900  0.250000  0.137000  1.0  0.6382
  C  C141  1  0.404400  0.750000  0.347500  1.0  0.7377
  C  C142  1  0.369900  0.750000  0.422600  1.0  -0.166
  C  C143  1  0.458500  0.750000  0.473500  1.0  -0.0559
  C  C144  1  0.423500  0.750000  0.542300  1.0  -0.0547
  C  C145  1  0.300100  0.750000  0.560700  1.0  -0.1755
  C  C146  1  0.213100  0.750000  0.509500  1.0  0.0861
  C  C147  1  0.247300  0.750000  0.440100  1.0  -0.1118
  C  C148  1  0.271100  0.750000  0.637000  1.0  0.6361
  C  C149  1  0.904400  0.750000  0.152500  1.0  0.7363
  C  C150  1  0.869900  0.750000  0.077400  1.0  -0.1667
  C  C151  1  0.958500  0.750000  0.026500  1.0  -0.0554
  C  C152  1  0.923500  0.750000  0.957700  1.0  -0.0549
  C  C153  1  0.800100  0.750000  0.939300  1.0  -0.1759
  C  C154  1  0.713100  0.750000  0.990500  1.0  0.0868
  C  C155  1  0.747300  0.750000  0.059900  1.0  -0.1113
  C  C156  1  0.771100  0.750000  0.863000  1.0  0.6308
  C  C157  1  0.595600  0.250000  0.652500  1.0  0.7358
  C  C158  1  0.630100  0.250000  0.577400  1.0  -0.1658
  C  C159  1  0.541500  0.250000  0.526500  1.0  -0.0559
  C  C160  1  0.576500  0.250000  0.457700  1.0  -0.0566
  C  C161  1  0.699900  0.250000  0.439300  1.0  -0.177
  C  C162  1  0.786900  0.250000  0.490500  1.0  0.0857
  C  C163  1  0.752700  0.250000  0.559900  1.0  -0.112
  C  C164  1  0.728900  0.250000  0.363000  1.0  0.6339
  N  N165  1  0.417900  0.250000  0.028200  1.0  -0.2511
  N  N166  1  0.082100  0.750000  0.528200  1.0  -0.2513
  N  N167  1  0.582100  0.750000  0.971800  1.0  -0.2485
  N  N168  1  0.917900  0.250000  0.471800  1.0  -0.2488
  O  O169  1  0.368500  0.853600  0.184620  1.0  -0.6548
  O  O170  1  0.222300  0.844300  0.108600  1.0  -0.6452
  O  O171  1  0.131500  0.146400  0.684620  1.0  -0.6557
  O  O172  1  0.277700  0.155700  0.608600  1.0  -0.6469
  O  O173  1  0.631500  0.353600  0.815380  1.0  -0.6538
  O  O174  1  0.777700  0.344300  0.891400  1.0  -0.6447
  O  O175  1  0.868500  0.646400  0.315380  1.0  -0.6542
  O  O176  1  0.722300  0.655700  0.391400  1.0  -0.644
  O  O177  1  0.631500  0.146400  0.815380  1.0  -0.6545
  O  O178  1  0.777700  0.155700  0.891400  1.0  -0.6446
  O  O179  1  0.868500  0.853600  0.315380  1.0  -0.6546
  O  O180  1  0.722300  0.844300  0.391400  1.0  -0.6444
  O  O181  1  0.368500  0.646400  0.184620  1.0  -0.6548
  O  O182  1  0.222300  0.655700  0.108600  1.0  -0.6445
  O  O183  1  0.131500  0.353600  0.684620  1.0  -0.6553
  O  O184  1  0.277700  0.344300  0.608600  1.0  -0.6471
  O  O185  1  0.180400  0.250000  0.804600  1.0  -0.7588
  O  O186  1  0.985700  0.250000  0.832700  1.0  -0.7454
  O  O187  1  0.346700  0.250000  0.152600  1.0  -0.5273
  O  O188  1  0.149600  0.250000  0.180100  1.0  -0.4621
  O  O189  1  0.319600  0.750000  0.304600  1.0  -0.7581
  O  O190  1  0.514300  0.750000  0.332700  1.0  -0.7464
  O  O191  1  0.153300  0.750000  0.652600  1.0  -0.5261
  O  O192  1  0.350400  0.750000  0.680100  1.0  -0.4636
  O  O193  1  0.819600  0.750000  0.195400  1.0  -0.7565
  O  O194  1  0.014300  0.750000  0.167300  1.0  -0.7459
  O  O195  1  0.653300  0.750000  0.847400  1.0  -0.5282
  O  O196  1  0.850400  0.750000  0.819900  1.0  -0.4633
  O  O197  1  0.680400  0.250000  0.695400  1.0  -0.7572
  O  O198  1  0.485700  0.250000  0.667300  1.0  -0.7442
  O  O199  1  0.846700  0.250000  0.347400  1.0  -0.5279
  O  O200  1  0.649600  0.250000  0.319900  1.0  -0.4629
