# generated using pymatgen
data_EuH16C24NO8
_symmetry_space_group_name_H-M   'P 1'
_cell_length_a   11.04800000
_cell_length_b   16.70200000
_cell_length_c   18.73900000
_cell_angle_alpha   90.00000000
_cell_angle_beta   90.00000000
_cell_angle_gamma   90.00000000
_symmetry_Int_Tables_number   1
_chemical_formula_structural   EuH16C24NO8
_chemical_formula_sum   'Eu4 H64 C96 N4 O32'
_cell_volume   3457.78953934
_cell_formula_units_Z   4
loop_
 _symmetry_equiv_pos_site_id
 _symmetry_equiv_pos_as_xyz
  1  'x, y, z'
loop_
 _atom_site_type_symbol
 _atom_site_label
 _atom_site_symmetry_multiplicity
 _atom_site_fract_x
 _atom_site_fract_y
 _atom_site_fract_z
 _atom_site_occupancy
 _atom_site_charge
  Eu  Eu1  1  0.797120  0.250000  0.795240  1.0  2.1334
  Eu  Eu2  1  0.297120  0.250000  0.704760  1.0  2.135
  Eu  Eu3  1  0.202880  0.750000  0.204760  1.0  2.1342
  Eu  Eu4  1  0.702880  0.750000  0.295240  1.0  2.1328
  H  H5  1  0.926000  0.679000  0.518300  1.0  0.0992
  H  H6  1  0.325700  0.070300  0.958600  1.0  0.1215
  H  H7  1  0.174300  0.929700  0.458600  1.0  0.1223
  H  H8  1  0.955300  0.510100  0.319000  1.0  0.1018
  H  H9  1  0.455300  0.989900  0.181000  1.0  0.1013
  H  H10  1  0.544700  0.010100  0.819000  1.0  0.1016
  H  H11  1  0.525100  0.393100  0.135600  1.0  0.1245
  H  H12  1  0.529400  0.750000  0.474300  1.0  0.1024
  H  H13  1  0.020600  0.827600  0.456100  1.0  0.0953
  H  H14  1  0.248000  0.954200  0.012000  1.0  0.1015
  H  H15  1  0.674300  0.929700  0.041400  1.0  0.1208
  H  H16  1  0.979400  0.327600  0.543900  1.0  0.0948
  H  H17  1  0.574000  0.321000  0.018300  1.0  0.101
  H  H18  1  0.825700  0.070300  0.541400  1.0  0.1214
  H  H19  1  0.426000  0.821000  0.981700  1.0  0.0994
  H  H20  1  0.317400  0.250000  0.909300  1.0  0.1161
  H  H21  1  0.817400  0.250000  0.590700  1.0  0.1153
  H  H22  1  0.748000  0.545800  0.488000  1.0  0.1016
  H  H23  1  0.074000  0.321000  0.481700  1.0  0.1011
  H  H24  1  0.682600  0.750000  0.090700  1.0  0.1151
  H  H25  1  0.325700  0.429700  0.958600  1.0  0.1212
  H  H26  1  0.174300  0.570300  0.458600  1.0  0.1221
  H  H27  1  0.470600  0.750000  0.588100  1.0  0.1063
  H  H28  1  0.455300  0.510100  0.181000  1.0  0.1012
  H  H29  1  0.525100  0.106900  0.135600  1.0  0.1245
  H  H30  1  0.182600  0.750000  0.409300  1.0  0.1166
  H  H31  1  0.748000  0.954200  0.488000  1.0  0.1016
  H  H32  1  0.020600  0.672400  0.456100  1.0  0.0953
  H  H33  1  0.044700  0.010100  0.681000  1.0  0.1012
  H  H34  1  0.825700  0.429700  0.541400  1.0  0.1209
  H  H35  1  0.529400  0.250000  0.411900  1.0  0.1056
  H  H36  1  0.544700  0.489900  0.819000  1.0  0.1017
  H  H37  1  0.426000  0.679000  0.981700  1.0  0.0996
  H  H38  1  0.029400  0.750000  0.025700  1.0  0.1022
  H  H39  1  0.970600  0.250000  0.974300  1.0  0.1038
  H  H40  1  0.674300  0.570300  0.041400  1.0  0.1214
  H  H41  1  0.474900  0.893100  0.864400  1.0  0.125
  H  H42  1  0.752000  0.454200  0.988000  1.0  0.1021
  H  H43  1  0.974900  0.893100  0.635600  1.0  0.1254
  H  H44  1  0.474900  0.606900  0.864400  1.0  0.1257
  H  H45  1  0.029400  0.250000  0.088100  1.0  0.1059
  H  H46  1  0.127100  0.750000  0.707200  1.0  0.3812
  H  H47  1  0.520600  0.672400  0.043900  1.0  0.0952
  H  H48  1  0.979400  0.172400  0.543900  1.0  0.095
  H  H49  1  0.926000  0.821000  0.518300  1.0  0.0992
  H  H50  1  0.372900  0.250000  0.207200  1.0  0.3812
  H  H51  1  0.970600  0.750000  0.911900  1.0  0.106
  H  H52  1  0.752000  0.045800  0.988000  1.0  0.1019
  H  H53  1  0.470600  0.250000  0.525700  1.0  0.1038
  H  H54  1  0.044700  0.489900  0.681000  1.0  0.1013
  H  H55  1  0.025100  0.393100  0.364400  1.0  0.126
  H  H56  1  0.955300  0.989900  0.319000  1.0  0.1019
  H  H57  1  0.252000  0.454200  0.512000  1.0  0.1022
  H  H58  1  0.252000  0.045800  0.512000  1.0  0.1024
  H  H59  1  0.479400  0.172400  0.956100  1.0  0.0946
  H  H60  1  0.025100  0.106900  0.364400  1.0  0.1262
  H  H61  1  0.574000  0.179000  0.018300  1.0  0.1011
  H  H62  1  0.974900  0.606900  0.635600  1.0  0.1256
  H  H63  1  0.479400  0.327600  0.956100  1.0  0.0946
  H  H64  1  0.248000  0.545800  0.012000  1.0  0.102
  H  H65  1  0.520600  0.827600  0.043900  1.0  0.095
  H  H66  1  0.074000  0.179000  0.481700  1.0  0.1013
  H  H67  1  0.627100  0.750000  0.792800  1.0  0.3795
  H  H68  1  0.872900  0.250000  0.292800  1.0  0.38
  C  C69  1  0.936700  0.100700  0.458900  1.0  0.1282
  C  C70  1  0.759500  0.250000  0.554600  1.0  -0.2
  C  C71  1  0.571600  0.993600  0.863600  1.0  -0.0454
  C  C72  1  0.846400  0.959600  0.399200  1.0  -0.1026
  C  C73  1  0.436700  0.399300  0.041100  1.0  0.1288
  C  C74  1  0.511700  0.675400  0.992500  1.0  -0.0701
  C  C75  1  0.447300  0.750000  0.485100  1.0  -0.0949
  C  C76  1  0.936700  0.399300  0.458900  1.0  0.1282
  C  C77  1  0.746800  0.250000  0.348100  1.0  0.638
  C  C78  1  0.912100  0.750000  0.947500  1.0  -0.0873
  C  C79  1  0.063300  0.600700  0.541100  1.0  0.1291
  C  C80  1  0.704800  0.750000  0.981500  1.0  0.0951
  C  C81  1  0.346400  0.540400  0.100800  1.0  -0.1006
  C  C82  1  0.795200  0.250000  0.481500  1.0  0.0921
  C  C83  1  0.028200  0.575800  0.609000  1.0  -0.1643
  C  C84  1  0.153600  0.040400  0.600800  1.0  -0.1027
  C  C85  1  0.851800  0.054800  0.496300  1.0  -0.1086
  C  C86  1  0.087900  0.250000  0.052500  1.0  -0.0794
  C  C87  1  0.740500  0.750000  0.054600  1.0  -0.1975
  C  C88  1  0.471800  0.424200  0.109000  1.0  -0.1746
  C  C89  1  0.860900  0.750000  0.070900  1.0  -0.1318
  C  C90  1  0.563300  0.899300  0.958900  1.0  0.1284
  C  C91  1  0.346400  0.959600  0.100800  1.0  -0.0991
  C  C92  1  0.428400  0.006400  0.136400  1.0  -0.0458
  C  C93  1  0.846400  0.540400  0.399200  1.0  -0.101
  C  C94  1  0.360900  0.750000  0.429100  1.0  -0.1256
  C  C95  1  0.428400  0.493600  0.136400  1.0  -0.047
  C  C96  1  0.928400  0.006400  0.363600  1.0  -0.0501
  C  C97  1  0.195800  0.382400  0.631000  1.0  0.6673
  C  C98  1  0.246800  0.250000  0.151900  1.0  0.6385
  C  C99  1  0.253200  0.750000  0.651900  1.0  0.6365
  C  C100  1  0.648200  0.945200  0.996300  1.0  -0.1071
  C  C101  1  0.988300  0.324600  0.492500  1.0  -0.0688
  C  C102  1  0.295200  0.250000  0.018500  1.0  0.0913
  C  C103  1  0.240500  0.750000  0.445400  1.0  -0.197
  C  C104  1  0.711400  0.250000  0.427800  1.0  -0.1122
  C  C105  1  0.753200  0.750000  0.848100  1.0  0.6357
  C  C106  1  0.804200  0.617600  0.369000  1.0  0.6696
  C  C107  1  0.100700  0.250000  0.852700  1.0  0.7606
  C  C108  1  0.653600  0.459600  0.899200  1.0  -0.1033
  C  C109  1  0.528200  0.924200  0.891000  1.0  -0.1584
  C  C110  1  0.971800  0.424200  0.391000  1.0  -0.1596
  C  C111  1  0.693700  0.015800  0.964200  1.0  -0.0664
  C  C112  1  0.351800  0.445200  0.003700  1.0  -0.1106
  C  C113  1  0.653600  0.040400  0.899200  1.0  -0.1029
  C  C114  1  0.639100  0.250000  0.570900  1.0  -0.1283
  C  C115  1  0.351800  0.054800  0.003700  1.0  -0.103
  C  C116  1  0.288600  0.750000  0.572200  1.0  -0.1124
  C  C117  1  0.211400  0.250000  0.072200  1.0  -0.1121
  C  C118  1  0.695800  0.382400  0.869000  1.0  0.6679
  C  C119  1  0.193700  0.484200  0.535800  1.0  -0.0667
  C  C120  1  0.028200  0.924200  0.609000  1.0  -0.1643
  C  C121  1  0.804200  0.882400  0.369000  1.0  0.6695
  C  C122  1  0.204800  0.750000  0.518500  1.0  0.0942
  C  C123  1  0.306300  0.515800  0.035800  1.0  -0.0709
  C  C124  1  0.304200  0.882400  0.131000  1.0  0.6679
  C  C125  1  0.511700  0.824600  0.992500  1.0  -0.0695
  C  C126  1  0.528200  0.575800  0.891000  1.0  -0.1587
  C  C127  1  0.063300  0.899300  0.541100  1.0  0.1289
  C  C128  1  0.899300  0.750000  0.147300  1.0  0.7585
  C  C129  1  0.928400  0.493600  0.363600  1.0  -0.046
  C  C130  1  0.600700  0.250000  0.647300  1.0  0.7583
  C  C131  1  0.259500  0.250000  0.945400  1.0  -0.203
  C  C132  1  0.071600  0.993600  0.636400  1.0  -0.0467
  C  C133  1  0.806300  0.515800  0.464200  1.0  -0.0676
  C  C134  1  0.193700  0.015800  0.535800  1.0  -0.07
  C  C135  1  0.195800  0.117600  0.631000  1.0  0.6684
  C  C136  1  0.552700  0.250000  0.514900  1.0  -0.0973
  C  C137  1  0.648200  0.554800  0.996300  1.0  -0.1065
  C  C138  1  0.071600  0.506400  0.636400  1.0  -0.0469
  C  C139  1  0.153600  0.459600  0.600800  1.0  -0.101
  C  C140  1  0.011700  0.824600  0.507500  1.0  -0.0712
  C  C141  1  0.695800  0.117600  0.869000  1.0  0.6676
  C  C142  1  0.806300  0.984200  0.464200  1.0  -0.0683
  C  C143  1  0.412100  0.750000  0.552500  1.0  -0.0779
  C  C144  1  0.788600  0.750000  0.927800  1.0  -0.1124
  C  C145  1  0.488300  0.175400  0.007500  1.0  -0.0691
  C  C146  1  0.139100  0.250000  0.929100  1.0  -0.1281
  C  C147  1  0.436700  0.100700  0.041100  1.0  0.129
  C  C148  1  0.471800  0.075800  0.109000  1.0  -0.1744
  C  C149  1  0.306300  0.984200  0.035800  1.0  -0.0683
  C  C150  1  0.971800  0.075800  0.391000  1.0  -0.1602
  C  C151  1  0.304200  0.617600  0.131000  1.0  0.668
  C  C152  1  0.148200  0.554800  0.503700  1.0  -0.1073
  C  C153  1  0.571600  0.506400  0.863600  1.0  -0.0451
  C  C154  1  0.148200  0.945200  0.503700  1.0  -0.109
  C  C155  1  0.587900  0.250000  0.447500  1.0  -0.0779
  C  C156  1  0.693700  0.484200  0.964200  1.0  -0.0681
  C  C157  1  0.399300  0.750000  0.352700  1.0  0.7592
  C  C158  1  0.011700  0.675400  0.507500  1.0  -0.0697
  C  C159  1  0.563300  0.600700  0.958900  1.0  0.1283
  C  C160  1  0.988300  0.175400  0.492500  1.0  -0.069
  C  C161  1  0.851800  0.445200  0.496300  1.0  -0.0996
  C  C162  1  0.052700  0.250000  0.985100  1.0  -0.0956
  C  C163  1  0.947300  0.750000  0.014900  1.0  -0.0946
  C  C164  1  0.488300  0.324600  0.007500  1.0  -0.069
  N  N165  1  0.924200  0.250000  0.465000  1.0  -0.2401
  N  N166  1  0.575800  0.750000  0.965000  1.0  -0.2412
  N  N167  1  0.424200  0.250000  0.035000  1.0  -0.2403
  N  N168  1  0.075800  0.750000  0.535000  1.0  -0.2421
  O  O169  1  0.831000  0.750000  0.804100  1.0  -0.4676
  O  O170  1  0.360400  0.649500  0.181800  1.0  -0.7081
  O  O171  1  0.009100  0.750000  0.161600  1.0  -0.7635
  O  O172  1  0.361000  0.250000  0.164100  1.0  -0.4958
  O  O173  1  0.183900  0.250000  0.807300  1.0  -0.696
  O  O174  1  0.139600  0.350500  0.681800  1.0  -0.7075
  O  O175  1  0.139600  0.149500  0.681800  1.0  -0.7077
  O  O176  1  0.360400  0.850500  0.181800  1.0  -0.7083
  O  O177  1  0.860400  0.850500  0.318200  1.0  -0.7073
  O  O178  1  0.211800  0.652100  0.106600  1.0  -0.6988
  O  O179  1  0.331000  0.750000  0.695900  1.0  -0.4687
  O  O180  1  0.711800  0.847900  0.393400  1.0  -0.7019
  O  O181  1  0.509100  0.750000  0.338400  1.0  -0.764
  O  O182  1  0.861000  0.250000  0.335900  1.0  -0.4963
  O  O183  1  0.139000  0.750000  0.664100  1.0  -0.497
  O  O184  1  0.788200  0.347900  0.893400  1.0  -0.7049
  O  O185  1  0.639600  0.350500  0.818200  1.0  -0.7067
  O  O186  1  0.669000  0.250000  0.304100  1.0  -0.4669
  O  O187  1  0.788200  0.152100  0.893400  1.0  -0.7044
  O  O188  1  0.288200  0.152100  0.606600  1.0  -0.7012
  O  O189  1  0.860400  0.649500  0.318200  1.0  -0.7075
  O  O190  1  0.288200  0.347900  0.606600  1.0  -0.7044
  O  O191  1  0.990900  0.250000  0.838400  1.0  -0.7631
  O  O192  1  0.639600  0.149500  0.818200  1.0  -0.7067
  O  O193  1  0.316100  0.750000  0.307300  1.0  -0.6952
  O  O194  1  0.490900  0.250000  0.661600  1.0  -0.7628
  O  O195  1  0.639000  0.750000  0.835900  1.0  -0.4973
  O  O196  1  0.683900  0.250000  0.692700  1.0  -0.6942
  O  O197  1  0.211800  0.847900  0.106600  1.0  -0.7027
  O  O198  1  0.711800  0.652100  0.393400  1.0  -0.7013
  O  O199  1  0.816100  0.750000  0.192700  1.0  -0.6932
  O  O200  1  0.169000  0.250000  0.195900  1.0  -0.468
