# generated using pymatgen
data_TbH15(C10O3)3
_symmetry_space_group_name_H-M   'P 1'
_cell_length_a   8.48700000
_cell_length_b   17.92400000
_cell_length_c   26.56160000
_cell_angle_alpha   87.83280000
_cell_angle_beta   80.80760000
_cell_angle_gamma   76.30570000
_symmetry_Int_Tables_number   1
_chemical_formula_structural   TbH15(C10O3)3
_chemical_formula_sum   'Tb4 H60 C120 O36'
_cell_volume   3875.29792631
_cell_formula_units_Z   4
loop_
 _symmetry_equiv_pos_site_id
 _symmetry_equiv_pos_as_xyz
  1  'x, y, z'
loop_
 _atom_site_type_symbol
 _atom_site_label
 _atom_site_symmetry_multiplicity
 _atom_site_fract_x
 _atom_site_fract_y
 _atom_site_fract_z
 _atom_site_occupancy
 _atom_site_charge
  Tb  Tb1  1  0.881320  0.500000  0.237360  1.0  2.2764
  Tb  Tb2  1  0.131320  0.000000  0.737360  1.0  2.2764
  Tb  Tb3  1  0.605650  0.000000  0.788700  1.0  2.318
  Tb  Tb4  1  0.355650  0.500000  0.288700  1.0  2.318
  H  H5  1  0.370200  0.612600  0.505000  1.0  0.1079
  H  H6  1  0.622800  0.240400  0.331200  1.0  0.1115
  H  H7  1  0.728900  0.794200  0.205800  1.0  0.0861
  H  H8  1  0.998600  0.174200  0.725600  1.0  0.0979
  H  H9  1  0.801000  0.119400  0.979800  1.0  0.1155
  H  H10  1  0.559400  0.226400  0.713600  1.0  0.1091
  H  H11  1  0.749700  0.402400  0.391600  1.0  0.1045
  H  H12  1  0.849800  0.619400  0.479800  1.0  0.114
  H  H13  1  0.250600  0.726400  0.213600  1.0  0.1093
  H  H14  1  0.373700  0.600800  0.417800  1.0  0.1215
  H  H15  1  0.538800  0.340400  0.672400  1.0  0.0969
  H  H16  1  0.706200  0.677800  0.136600  1.0  0.119
  H  H17  1  0.545300  0.617800  0.810000  1.0  0.1265
  H  H18  1  0.812700  0.359400  0.654200  1.0  0.116
  H  H19  1  0.357700  0.100800  0.917800  1.0  0.122
  H  H20  1  0.134000  0.822200  0.636600  1.0  0.1194
  H  H21  1  0.500100  0.501200  0.545000  1.0  0.1115
  H  H22  1  0.954900  0.498800  0.545000  1.0  0.1118
  H  H23  1  0.206300  0.902400  0.891600  1.0  0.1057
  H  H24  1  0.913100  0.882200  0.310000  1.0  0.1266
  H  H25  1  0.273100  0.705800  0.705800  1.0  0.0863
  H  H26  1  0.208500  0.399200  0.417800  1.0  0.1217
  H  H27  1  0.776900  0.117800  0.310000  1.0  0.1265
  H  H28  1  0.902100  0.097600  0.891600  1.0  0.1052
  H  H29  1  0.216800  0.291000  0.593200  1.0  0.1181
  H  H30  1  0.922100  0.140600  0.154200  1.0  0.1148
  H  H31  1  0.260000  0.956200  0.191800  1.0  0.1269
  H  H32  1  0.046000  0.759600  0.331200  1.0  0.1112
  H  H33  1  0.548200  0.043800  0.191800  1.0  0.1267
  H  H34  1  0.732800  0.887400  0.005000  1.0  0.1077
  H  H35  1  0.021100  0.294200  0.705800  1.0  0.0854
  H  H36  1  0.670400  0.380600  0.479800  1.0  0.1163
  H  H37  1  0.157200  0.322200  0.136600  1.0  0.1206
  H  H38  1  0.198400  0.840400  0.172400  1.0  0.0973
  H  H39  1  0.644700  0.382200  0.810000  1.0  0.1268
  H  H40  1  0.535800  0.273600  0.213600  1.0  0.1084
  H  H41  1  0.613200  0.259600  0.831200  1.0  0.1114
  H  H42  1  0.219200  0.880600  0.979800  1.0  0.115
  H  H43  1  0.257800  0.209000  0.093200  1.0  0.1183
  H  H44  1  0.124800  0.387400  0.505000  1.0  0.1064
  H  H45  1  0.275800  0.825800  0.725600  1.0  0.0982
  H  H46  1  0.190000  0.709000  0.593200  1.0  0.1175
  H  H47  1  0.751300  0.998800  0.045000  1.0  0.1115
  H  H48  1  0.858700  0.597600  0.391600  1.0  0.1062
  H  H49  1  0.262200  0.112600  0.005000  1.0  0.1072
  H  H50  1  0.923700  0.859400  0.154200  1.0  0.1157
  H  H51  1  0.727000  0.773600  0.713600  1.0  0.1085
  H  H52  1  0.788800  0.659600  0.672400  1.0  0.0973
  H  H53  1  0.629200  0.159600  0.172400  1.0  0.097
  H  H54  1  0.342000  0.456200  0.691800  1.0  0.1268
  H  H55  1  0.065300  0.205800  0.205800  1.0  0.0854
  H  H56  1  0.966200  0.543800  0.691800  1.0  0.1269
  H  H57  1  0.555600  0.740400  0.831200  1.0  0.1118
  H  H58  1  0.724500  0.899200  0.917800  1.0  0.1209
  H  H59  1  0.229400  0.177800  0.636600  1.0  0.1193
  H  H60  1  0.922800  0.325800  0.225600  1.0  0.0982
  H  H61  1  0.649000  0.791000  0.093200  1.0  0.1168
  H  H62  1  0.851600  0.674200  0.225600  1.0  0.0976
  H  H63  1  0.533100  0.640600  0.654200  1.0  0.1143
  H  H64  1  0.203700  0.001200  0.045000  1.0  0.1118
  C  C65  1  0.205400  0.076400  0.841400  1.0  0.7121
  C  C66  1  0.022400  0.068400  0.238400  1.0  0.2612
  C  C67  1  0.050500  0.079800  0.092800  1.0  -0.0213
  C  C68  1  0.736800  0.948000  0.182000  1.0  -0.0542
  C  C69  1  0.923700  0.215200  0.742800  1.0  -0.1624
  C  C70  1  0.803800  0.159800  0.292200  1.0  -0.0803
  C  C71  1  0.630800  0.033000  0.116800  1.0  0.0193
  C  C72  1  0.381500  0.899400  0.098600  1.0  0.2603
  C  C73  1  0.483300  0.690600  0.179600  1.0  -0.0848
  C  C74  1  0.859200  0.692600  0.665000  1.0  -0.1396
  C  C75  1  0.420800  0.568400  0.738400  1.0  0.2603
  C  C76  1  0.503000  0.597400  0.644400  1.0  -0.0936
  C  C77  1  0.883200  0.448000  0.682000  1.0  -0.0538
  C  C78  1  0.982300  0.766200  0.305200  1.0  -0.0446
  C  C79  1  0.100000  0.398600  0.430600  1.0  -0.0805
  C  C80  1  0.388900  0.486400  0.667200  1.0  -0.0469
  C  C81  1  0.569700  0.778600  0.118200  1.0  -0.0162
  C  C82  1  0.770500  0.122200  0.789200  1.0  0.6716
  C  C83  1  0.904000  0.840200  0.292200  1.0  -0.0825
  C  C84  1  0.494200  0.659800  0.792200  1.0  -0.0795
  C  C85  1  0.469400  0.601400  0.430600  1.0  -0.0826
  C  C86  1  0.452000  0.170800  0.129600  1.0  -0.0372
  C  C87  1  0.888900  0.284800  0.242800  1.0  -0.1635
  C  C88  1  0.488400  0.239600  0.689600  1.0  -0.0856
  C  C89  1  0.713600  0.340200  0.792200  1.0  -0.0812
  C  C90  1  0.988600  0.873600  0.057600  1.0  0.3154
  C  C91  1  0.953800  0.126400  0.057600  1.0  0.3133
  C  C92  1  0.434800  0.552000  0.682000  1.0  -0.0543
  C  C93  1  0.850400  0.902600  0.144400  1.0  -0.0941
  C  C94  1  0.112900  0.899200  0.914400  1.0  -0.0343
  C  C95  1  0.292900  0.210800  0.643600  1.0  -0.0563
  C  C96  1  0.795900  0.787200  0.231000  1.0  -0.139
  C  C97  1  0.997600  0.670800  0.629600  1.0  -0.0378
  C  C98  1  0.332400  0.739600  0.189600  1.0  -0.0864
  C  C99  1  0.301800  0.807400  0.165000  1.0  -0.139
  C  C100  1  0.466600  0.610400  0.482400  1.0  -0.08
  C  C101  1  0.602700  0.710800  0.143600  1.0  -0.0556
  C  C102  1  0.312100  0.221400  0.118200  1.0  -0.0141
  C  C103  1  0.081200  0.052000  0.182000  1.0  -0.0539
  C  C104  1  0.969400  0.533000  0.616800  1.0  0.0193
  C  C105  1  0.912400  0.113200  0.967600  1.0  -0.0319
  C  C106  1  0.413800  0.467000  0.616800  1.0  0.019
  C  C107  1  0.931200  0.149400  0.253600  1.0  0.0321
  C  C108  1  0.840800  0.431600  0.738400  1.0  0.2593
  C  C109  1  0.884100  0.886400  0.706200  1.0  0.728
  C  C110  1  0.415800  0.649400  0.753600  1.0  0.027
  C  C111  1  0.626800  0.576400  0.341400  1.0  0.7126
  C  C112  1  0.409700  0.113600  0.706200  1.0  0.7265
  C  C113  1  0.830200  0.373600  0.557600  1.0  0.3145
  C  C114  1  0.696300  0.266200  0.805200  1.0  -0.0473
  C  C115  1  0.273300  0.386400  0.206200  1.0  0.7259
  C  C116  1  0.752400  0.298800  0.280200  1.0  -0.0621
  C  C117  1  0.005200  0.097400  0.144400  1.0  -0.0931
  C  C118  1  0.139600  0.093600  0.897600  1.0  -0.1223
  C  C119  1  0.030900  0.600600  0.598600  1.0  0.2603
  C  C120  1  0.822000  0.760400  0.689600  1.0  -0.0867
  C  C121  1  0.098300  0.721400  0.618200  1.0  -0.0142
  C  C122  1  0.885500  0.384200  0.500800  1.0  -0.0109
  C  C123  1  0.120000  0.886800  0.967600  1.0  -0.0319
  C  C124  1  0.856700  0.920200  0.092800  1.0  -0.0209
  C  C125  1  0.739200  0.931600  0.238400  1.0  0.2591
  C  C126  1  0.712500  0.233800  0.305200  1.0  -0.0485
  C  C127  1  0.967400  0.701200  0.280200  1.0  -0.0583
  C  C128  1  0.642700  0.377800  0.289200  1.0  0.6729
  C  C129  1  0.253700  0.289200  0.143600  1.0  -0.0539
  C  C130  1  0.520500  0.613600  0.206200  1.0  0.7261
  C  C131  1  0.880300  0.420200  0.592800  1.0  -0.0215
  C  C132  1  0.333100  0.712800  0.731000  1.0  -0.1392
  C  C133  1  0.068100  0.622200  0.289200  1.0  0.6742
  C  C134  1  0.852600  0.402600  0.644400  1.0  -0.093
  C  C135  1  0.820800  0.898600  0.930600  1.0  -0.0825
  C  C136  1  0.935900  0.287200  0.731000  1.0  -0.1377
  C  C137  1  0.762100  0.600800  0.414400  1.0  -0.0323
  C  C138  1  0.519900  0.100600  0.098600  1.0  0.2612
  C  C139  1  0.172600  0.014600  0.079200  1.0  -0.0499
  C  C140  1  0.372800  0.329200  0.629600  1.0  -0.0368
  C  C141  1  0.207500  0.986400  0.167200  1.0  -0.0437
  C  C142  1  0.333500  0.784800  0.742800  1.0  -0.1628
  C  C143  1  0.827000  0.889600  0.982400  1.0  -0.0786
  C  C144  1  0.418600  0.798800  0.780200  1.0  -0.0582
  C  C145  1  0.625300  0.013600  0.167200  1.0  -0.0459
  C  C146  1  0.283500  0.278600  0.618200  1.0  -0.0151
  C  C147  1  0.823500  0.399200  0.414400  1.0  -0.0326
  C  C148  1  0.973100  0.212800  0.231000  1.0  -0.1379
  C  C149  1  0.337100  0.309400  0.179600  1.0  -0.0868
  C  C150  1  0.953200  0.923600  0.841400  1.0  0.7123
  C  C151  1  0.031800  0.423600  0.341400  1.0  0.7117
  C  C152  1  0.815200  0.850600  0.253600  1.0  0.0256
  C  C153  1  0.370500  0.399400  0.598600  1.0  0.2611
  C  C154  1  0.252400  0.967000  0.116800  1.0  0.0193
  C  C155  1  0.801200  0.201200  0.780200  1.0  -0.0623
  C  C156  1  0.612200  0.626400  0.557600  1.0  0.3183
  C  C157  1  0.483600  0.514600  0.579200  1.0  -0.0495
  C  C158  1  0.019700  0.115800  0.000800  1.0  -0.0137
  C  C159  1  0.526900  0.579800  0.592800  1.0  -0.0204
  C  C160  1  0.440300  0.877800  0.789200  1.0  0.6733
  C  C161  1  0.830600  0.350600  0.753600  1.0  0.0308
  C  C162  1  0.943900  0.513600  0.667200  1.0  -0.0431
  C  C163  1  0.051000  0.389600  0.482400  1.0  -0.0789
  C  C164  1  0.396500  0.190600  0.679600  1.0  -0.0861
  C  C165  1  0.190600  0.110400  0.982400  1.0  -0.0795
  C  C166  1  0.983200  0.406400  0.397600  1.0  -0.1211
  C  C167  1  0.619200  0.593600  0.397600  1.0  -0.1226
  C  C168  1  0.868300  0.715200  0.242800  1.0  -0.1621
  C  C169  1  0.923900  0.809400  0.679600  1.0  -0.085
  C  C170  1  0.756800  0.613200  0.467600  1.0  -0.032
  C  C171  1  0.063500  0.789200  0.643600  1.0  -0.0611
  C  C172  1  0.937200  0.485400  0.579200  1.0  -0.0502
  C  C173  1  0.418400  0.829200  0.129600  1.0  -0.0374
  C  C174  1  0.248600  0.101400  0.930600  1.0  -0.0839
  C  C175  1  0.498500  0.733800  0.805200  1.0  -0.0472
  C  C176  1  0.972700  0.100800  0.914400  1.0  -0.0321
  C  C177  1  0.475800  0.307400  0.665000  1.0  -0.1388
  C  C178  1  0.533200  0.192600  0.165000  1.0  -0.1392
  C  C179  1  0.478000  0.260400  0.189600  1.0  -0.085
  C  C180  1  0.748200  0.985400  0.079200  1.0  -0.0497
  C  C181  1  0.775600  0.386800  0.467600  1.0  -0.0306
  C  C182  1  0.613700  0.615800  0.500800  1.0  -0.0138
  C  C183  1  0.962800  0.906400  0.897600  1.0  -0.1213
  C  C184  1  0.979500  0.884200  0.000800  1.0  -0.011
  O  O185  1  0.686450  0.670200  0.569900  1.0  -0.4169
  O  O186  1  0.805500  0.940800  0.832800  1.0  -0.6957
  O  O187  1  0.331630  0.402400  0.554940  1.0  -0.5469
  O  O188  1  0.385580  0.933240  0.761400  1.0  -0.7386
  O  O189  1  0.361700  0.059200  0.832800  1.0  -0.6966
  O  O190  1  0.746200  0.575800  0.311000  1.0  -0.6211
  O  O191  1  0.042000  0.017800  0.269400  1.0  -0.409
  O  O192  1  0.809800  0.482200  0.769400  1.0  -0.4093
  O  O193  1  0.823450  0.170200  0.069900  1.0  -0.4154
  O  O194  1  0.072000  0.924200  0.811000  1.0  -0.6217
  O  O195  1  0.461030  0.902400  0.054940  1.0  -0.5474
  O  O196  1  0.378900  0.416000  0.223600  1.0  -0.6625
  O  O197  1  0.496300  0.559200  0.332800  1.0  -0.6958
  O  O198  1  0.525900  0.884800  0.823000  1.0  -0.6187
  O  O199  1  0.170900  0.440800  0.332800  1.0  -0.6966
  O  O200  1  0.420800  0.517800  0.769400  1.0  -0.4089
  O  O201  1  0.117000  0.075800  0.811000  1.0  -0.6203
  O  O202  1  0.731500  0.916000  0.723600  1.0  -0.6633
  O  O203  1  0.068820  0.566760  0.261400  1.0  -0.7391
  O  O204  1  0.669900  0.583400  0.207400  1.0  -0.7218
  O  O205  1  0.743650  0.329800  0.569900  1.0  -0.4157
  O  O206  1  0.516300  0.384800  0.323000  1.0  -0.6146
  O  O207  1  0.003300  0.916600  0.707400  1.0  -0.7216
  O  O208  1  0.942800  0.424200  0.311000  1.0  -0.6207
  O  O209  1  0.289300  0.083400  0.707400  1.0  -0.7221
  O  O210  1  0.853020  0.066760  0.761400  1.0  -0.737
  O  O211  1  0.397500  0.584000  0.223600  1.0  -0.6639
  O  O212  1  0.484030  0.097600  0.054940  1.0  -0.5472
  O  O213  1  0.544900  0.084000  0.723600  1.0  -0.6624
  O  O214  1  0.106650  0.829800  0.069900  1.0  -0.4166
  O  O215  1  0.651100  0.115200  0.823000  1.0  -0.6152
  O  O216  1  0.669780  0.433240  0.261400  1.0  -0.7361
  O  O217  1  0.122700  0.416600  0.207400  1.0  -0.7213
  O  O218  1  0.688600  0.982200  0.269400  1.0  -0.4101
  O  O219  1  0.160700  0.615200  0.323000  1.0  -0.6191
  O  O220  1  0.113430  0.597600  0.554940  1.0  -0.5479
