# generated using pymatgen
data_Cu3H4C4(N8Cl)2
_symmetry_space_group_name_H-M   'P 1'
_cell_length_a   11.61190000
_cell_length_b   8.61160000
_cell_length_c   8.87610000
_cell_angle_alpha   90.00000000
_cell_angle_beta   90.00000000
_cell_angle_gamma   90.00000000
_symmetry_Int_Tables_number   1
_chemical_formula_structural   Cu3H4C4(N8Cl)2
_chemical_formula_sum   'Cu6 H8 C8 N32 Cl4'
_cell_volume   887.58370935
_cell_formula_units_Z   2
loop_
 _symmetry_equiv_pos_site_id
 _symmetry_equiv_pos_as_xyz
  1  'x, y, z'
loop_
 _atom_site_type_symbol
 _atom_site_label
 _atom_site_symmetry_multiplicity
 _atom_site_fract_x
 _atom_site_fract_y
 _atom_site_fract_z
 _atom_site_occupancy
 _atom_site_charge
  Cu  Cu1  1  0.731670  0.756050  0.500000  1.0  0.6738
  Cu  Cu2  1  0.268330  0.243950  0.500000  1.0  0.6751
  Cu  Cu3  1  0.768330  0.256050  0.000000  1.0  0.6751
  Cu  Cu4  1  0.231670  0.743950  0.000000  1.0  0.6738
  Cu  Cu5  1  0.500000  0.500000  0.500000  1.0  0.5359
  Cu  Cu6  1  0.000000  0.000000  0.000000  1.0  0.5359
  H  H7  1  0.852700  0.571200  0.195000  1.0  0.1346
  H  H8  1  0.147300  0.428800  0.195000  1.0  0.1346
  H  H9  1  0.647300  0.071200  0.305000  1.0  0.1341
  H  H10  1  0.352700  0.928800  0.305000  1.0  0.1347
  H  H11  1  0.147300  0.428800  0.805000  1.0  0.1343
  H  H12  1  0.852700  0.571200  0.805000  1.0  0.1345
  H  H13  1  0.352700  0.928800  0.695000  1.0  0.1348
  H  H14  1  0.647300  0.071200  0.695000  1.0  0.1344
  C  C15  1  0.782200  0.530700  0.225700  1.0  0.256
  C  C16  1  0.217800  0.469300  0.225700  1.0  0.2559
  C  C17  1  0.717800  0.030700  0.274300  1.0  0.2554
  C  C18  1  0.282200  0.969300  0.274300  1.0  0.2565
  C  C19  1  0.217800  0.469300  0.774300  1.0  0.2558
  C  C20  1  0.782200  0.530700  0.774300  1.0  0.256
  C  C21  1  0.282200  0.969300  0.725700  1.0  0.2564
  C  C22  1  0.717800  0.030700  0.725700  1.0  0.2556
  N  N23  1  0.719800  0.584700  0.339500  1.0  -0.3328
  N  N24  1  0.625600  0.493000  0.342400  1.0  0.0516
  N  N25  1  0.630600  0.388900  0.236700  1.0  -0.1162
  N  N26  1  0.729600  0.410500  0.161900  1.0  -0.2107
  N  N27  1  0.280200  0.415300  0.339500  1.0  -0.3338
  N  N28  1  0.374400  0.507000  0.342400  1.0  0.0518
  N  N29  1  0.369400  0.611100  0.236700  1.0  -0.1157
  N  N30  1  0.270400  0.589500  0.161900  1.0  -0.2096
  N  N31  1  0.780200  0.084700  0.160500  1.0  -0.3328
  N  N32  1  0.874400  0.993000  0.157600  1.0  0.0512
  N  N33  1  0.869400  0.888900  0.263300  1.0  -0.1165
  N  N34  1  0.770400  0.910500  0.338100  1.0  -0.2104
  N  N35  1  0.219800  0.915300  0.160500  1.0  -0.3327
  N  N36  1  0.125600  0.007000  0.157600  1.0  0.0514
  N  N37  1  0.130600  0.111100  0.263300  1.0  -0.1156
  N  N38  1  0.229600  0.089500  0.338100  1.0  -0.2103
  N  N39  1  0.280200  0.415300  0.660500  1.0  -0.3342
  N  N40  1  0.374400  0.507000  0.657600  1.0  0.0511
  N  N41  1  0.369400  0.611100  0.763300  1.0  -0.1166
  N  N42  1  0.270400  0.589500  0.838100  1.0  -0.21
  N  N43  1  0.719800  0.584700  0.660500  1.0  -0.3333
  N  N44  1  0.625600  0.493000  0.657600  1.0  0.0513
  N  N45  1  0.630600  0.388900  0.763300  1.0  -0.1162
  N  N46  1  0.729600  0.410500  0.838100  1.0  -0.2107
  N  N47  1  0.219800  0.915300  0.839500  1.0  -0.3323
  N  N48  1  0.125600  0.007000  0.842400  1.0  0.0516
  N  N49  1  0.130600  0.111100  0.736700  1.0  -0.1147
  N  N50  1  0.229600  0.089500  0.661900  1.0  -0.2101
  N  N51  1  0.780200  0.084700  0.839500  1.0  -0.3323
  N  N52  1  0.874400  0.993000  0.842400  1.0  0.0519
  N  N53  1  0.869400  0.888900  0.736700  1.0  -0.1166
  N  N54  1  0.770400  0.910500  0.661900  1.0  -0.2102
  Cl  Cl55  1  0.521220  0.801140  0.500000  1.0  -0.5074
  Cl  Cl56  1  0.478780  0.198860  0.500000  1.0  -0.5078
  Cl  Cl57  1  0.978780  0.301140  0.000000  1.0  -0.5077
  Cl  Cl58  1  0.021220  0.698860  0.000000  1.0  -0.5075
