# generated using pymatgen
data_Cu5H9(CN4)9
_symmetry_space_group_name_H-M   'P 1'
_cell_length_a   12.32750000
_cell_length_b   12.32750000
_cell_length_c   12.54150000
_cell_angle_alpha   90.00000000
_cell_angle_beta   90.00000000
_cell_angle_gamma   120.00000000
_symmetry_Int_Tables_number   1
_chemical_formula_structural   Cu5H9(CN4)9
_chemical_formula_sum   'Cu10 H18 C18 N72'
_cell_volume   1650.55551713
_cell_formula_units_Z   2
loop_
 _symmetry_equiv_pos_site_id
 _symmetry_equiv_pos_as_xyz
  1  'x, y, z'
loop_
 _atom_site_type_symbol
 _atom_site_label
 _atom_site_symmetry_multiplicity
 _atom_site_fract_x
 _atom_site_fract_y
 _atom_site_fract_z
 _atom_site_occupancy
 _atom_site_charge
  Cu  Cu1  1  0.500000  0.500000  0.000000  1.0  0.423
  Cu  Cu2  1  0.500000  0.000000  0.000000  1.0  0.423
  Cu  Cu3  1  0.000000  0.500000  0.000000  1.0  0.423
  Cu  Cu4  1  0.500000  0.500000  0.500000  1.0  0.423
  Cu  Cu5  1  0.000000  0.500000  0.500000  1.0  0.423
  Cu  Cu6  1  0.500000  0.000000  0.500000  1.0  0.423
  Cu  Cu7  1  0.666667  0.333333  0.900790  1.0  0.5832
  Cu  Cu8  1  0.666667  0.333333  0.599210  1.0  0.5831
  Cu  Cu9  1  0.333333  0.666667  0.099210  1.0  0.5831
  Cu  Cu10  1  0.333333  0.666667  0.400790  1.0  0.5832
  H  H11  1  0.294700  0.047800  0.128500  1.0  0.0908
  H  H12  1  0.952200  0.246900  0.128500  1.0  0.0906
  H  H13  1  0.753100  0.705300  0.128500  1.0  0.0922
  H  H14  1  0.952200  0.705300  0.371500  1.0  0.093
  H  H15  1  0.753100  0.047800  0.371500  1.0  0.0897
  H  H16  1  0.294700  0.246900  0.371500  1.0  0.091
  H  H17  1  0.705300  0.952200  0.871500  1.0  0.0902
  H  H18  1  0.047800  0.753100  0.871500  1.0  0.0911
  H  H19  1  0.246900  0.294700  0.871500  1.0  0.0927
  H  H20  1  0.047800  0.294700  0.628500  1.0  0.0919
  H  H21  1  0.246900  0.952200  0.628500  1.0  0.0914
  H  H22  1  0.705300  0.753100  0.628500  1.0  0.0905
  H  H23  1  0.447300  0.552700  0.750000  1.0  0.0867
  H  H24  1  0.447300  0.894600  0.750000  1.0  0.0864
  H  H25  1  0.105400  0.552700  0.750000  1.0  0.0867
  H  H26  1  0.552700  0.447300  0.250000  1.0  0.0864
  H  H27  1  0.552700  0.105400  0.250000  1.0  0.0862
  H  H28  1  0.894600  0.447300  0.250000  1.0  0.0865
  C  C29  1  0.351500  0.120500  0.092800  1.0  0.2515
  C  C30  1  0.879500  0.231000  0.092800  1.0  0.2512
  C  C31  1  0.769000  0.648500  0.092800  1.0  0.2502
  C  C32  1  0.879500  0.648500  0.407200  1.0  0.251
  C  C33  1  0.769000  0.120500  0.407200  1.0  0.2506
  C  C34  1  0.351500  0.231000  0.407200  1.0  0.2516
  C  C35  1  0.648500  0.879500  0.907200  1.0  0.251
  C  C36  1  0.120500  0.769000  0.907200  1.0  0.2526
  C  C37  1  0.231000  0.351500  0.907200  1.0  0.25
  C  C38  1  0.120500  0.351500  0.592800  1.0  0.2501
  C  C39  1  0.231000  0.879500  0.592800  1.0  0.2513
  C  C40  1  0.648500  0.769000  0.592800  1.0  0.2521
  C  C41  1  0.490800  0.509200  0.750000  1.0  0.2423
  C  C42  1  0.490800  0.981600  0.750000  1.0  0.2424
  C  C43  1  0.018400  0.509200  0.750000  1.0  0.2423
  C  C44  1  0.509200  0.490800  0.250000  1.0  0.2423
  C  C45  1  0.509200  0.018400  0.250000  1.0  0.2429
  C  C46  1  0.981600  0.490800  0.250000  1.0  0.2428
  N  N47  1  0.351100  0.226700  0.093200  1.0  -0.168
  N  N48  1  0.445800  0.308900  0.032600  1.0  -0.1814
  N  N49  1  0.503000  0.250500  0.996500  1.0  -0.0798
  N  N50  1  0.446700  0.133800  0.033000  1.0  -0.1814
  N  N51  1  0.527400  0.473500  0.836100  1.0  -0.2064
  N  N52  1  0.587900  0.412600  0.801600  1.0  -0.0916
  N  N53  1  0.773300  0.124400  0.093200  1.0  -0.1718
  N  N54  1  0.691100  0.136900  0.032600  1.0  -0.181
  N  N55  1  0.749500  0.252500  0.996500  1.0  -0.0819
  N  N56  1  0.866200  0.312900  0.033000  1.0  -0.1805
  N  N57  1  0.526500  0.053900  0.836100  1.0  -0.2058
  N  N58  1  0.587400  0.175300  0.801600  1.0  -0.0912
  N  N59  1  0.875600  0.648900  0.093200  1.0  -0.1658
  N  N60  1  0.863100  0.554200  0.032600  1.0  -0.1845
  N  N61  1  0.747500  0.497000  0.996500  1.0  -0.0829
  N  N62  1  0.687100  0.553300  0.033000  1.0  -0.1828
  N  N63  1  0.946100  0.472600  0.836100  1.0  -0.206
  N  N64  1  0.824700  0.412100  0.801600  1.0  -0.0911
  N  N65  1  0.773300  0.648900  0.406800  1.0  -0.1667
  N  N66  1  0.691100  0.554200  0.467400  1.0  -0.1845
  N  N67  1  0.749500  0.497000  0.503500  1.0  -0.0833
  N  N68  1  0.866200  0.553300  0.467000  1.0  -0.1833
  N  N69  1  0.526500  0.472600  0.663900  1.0  -0.2068
  N  N70  1  0.587400  0.412100  0.698400  1.0  -0.0914
  N  N71  1  0.875600  0.226700  0.406800  1.0  -0.1718
  N  N72  1  0.863100  0.308900  0.467400  1.0  -0.1813
  N  N73  1  0.747500  0.250500  0.503500  1.0  -0.0822
  N  N74  1  0.687100  0.133800  0.467000  1.0  -0.182
  N  N75  1  0.946100  0.473500  0.663900  1.0  -0.2067
  N  N76  1  0.824700  0.412600  0.698400  1.0  -0.091
  N  N77  1  0.351100  0.124400  0.406800  1.0  -0.1711
  N  N78  1  0.445800  0.136900  0.467400  1.0  -0.1814
  N  N79  1  0.503000  0.252500  0.503500  1.0  -0.0794
  N  N80  1  0.446700  0.312900  0.467000  1.0  -0.1818
  N  N81  1  0.527400  0.053900  0.663900  1.0  -0.2064
  N  N82  1  0.587900  0.175300  0.698400  1.0  -0.0908
  N  N83  1  0.648900  0.773300  0.906800  1.0  -0.1715
  N  N84  1  0.554200  0.691100  0.967400  1.0  -0.182
  N  N85  1  0.497000  0.749500  0.003500  1.0  -0.0824
  N  N86  1  0.553300  0.866200  0.967000  1.0  -0.1818
  N  N87  1  0.472600  0.526500  0.163900  1.0  -0.2067
  N  N88  1  0.412100  0.587400  0.198400  1.0  -0.0908
  N  N89  1  0.226700  0.875600  0.906800  1.0  -0.1716
  N  N90  1  0.308900  0.863100  0.967400  1.0  -0.1812
  N  N91  1  0.250500  0.747500  0.003500  1.0  -0.0794
  N  N92  1  0.133800  0.687100  0.967000  1.0  -0.1823
  N  N93  1  0.473500  0.946100  0.163900  1.0  -0.2063
  N  N94  1  0.412600  0.824700  0.198400  1.0  -0.0908
  N  N95  1  0.124400  0.351100  0.906800  1.0  -0.1667
  N  N96  1  0.136900  0.445800  0.967400  1.0  -0.1847
  N  N97  1  0.252500  0.503000  0.003500  1.0  -0.0825
  N  N98  1  0.312900  0.446700  0.967000  1.0  -0.1828
  N  N99  1  0.053900  0.527400  0.163900  1.0  -0.2068
  N  N100  1  0.175300  0.587900  0.198400  1.0  -0.0913
  N  N101  1  0.226700  0.351100  0.593200  1.0  -0.1653
  N  N102  1  0.308900  0.445800  0.532600  1.0  -0.1844
  N  N103  1  0.250500  0.503000  0.496500  1.0  -0.0823
  N  N104  1  0.133800  0.446700  0.533000  1.0  -0.1829
  N  N105  1  0.473500  0.527400  0.336100  1.0  -0.2059
  N  N106  1  0.412600  0.587900  0.301600  1.0  -0.0909
  N  N107  1  0.124400  0.773300  0.593200  1.0  -0.1678
  N  N108  1  0.136900  0.691100  0.532600  1.0  -0.1823
  N  N109  1  0.252500  0.749500  0.496500  1.0  -0.08
  N  N110  1  0.312900  0.866200  0.533000  1.0  -0.1815
  N  N111  1  0.053900  0.526500  0.336100  1.0  -0.2062
  N  N112  1  0.175300  0.587400  0.301600  1.0  -0.0916
  N  N113  1  0.648900  0.875600  0.593200  1.0  -0.1726
  N  N114  1  0.554200  0.863100  0.532600  1.0  -0.181
  N  N115  1  0.497000  0.747500  0.496500  1.0  -0.082
  N  N116  1  0.553300  0.687100  0.533000  1.0  -0.182
  N  N117  1  0.472600  0.946100  0.336100  1.0  -0.206
  N  N118  1  0.412100  0.824700  0.301600  1.0  -0.091
