# generated using pymatgen
data_Cd9H12C18(N15O8)2
_symmetry_space_group_name_H-M   'P 1'
_cell_length_a   7.37810000
_cell_length_b   13.57400000
_cell_length_c   13.57800000
_cell_angle_alpha   113.18100000
_cell_angle_beta   103.84100000
_cell_angle_gamma   90.95200000
_symmetry_Int_Tables_number   1
_chemical_formula_structural   Cd9H12C18(N15O8)2
_chemical_formula_sum   'Cd9 H12 C18 N30 O16'
_cell_volume   1204.37287432
_cell_formula_units_Z   1
loop_
 _symmetry_equiv_pos_site_id
 _symmetry_equiv_pos_as_xyz
  1  'x, y, z'
loop_
 _atom_site_type_symbol
 _atom_site_label
 _atom_site_symmetry_multiplicity
 _atom_site_fract_x
 _atom_site_fract_y
 _atom_site_fract_z
 _atom_site_occupancy
 _atom_site_charge
  Cd  Cd1  1  0.315650  0.227850  0.985770  1.0  1.069
  Cd  Cd2  1  0.365730  0.768450  0.605020  1.0  0.9426
  Cd  Cd3  1  0.820320  0.244990  0.004160  1.0  1.0338
  Cd  Cd4  1  0.600710  0.437710  0.237740  1.0  1.0425
  Cd  Cd5  1  0.179680  0.755010  0.995840  1.0  1.0343
  Cd  Cd6  1  0.399290  0.562290  0.762260  1.0  1.043
  Cd  Cd7  1  0.684350  0.772150  0.014230  1.0  1.0686
  Cd  Cd8  1  0.634270  0.231550  0.394980  1.0  0.9448
  Cd  Cd9  1  0.500000  0.500000  0.500000  1.0  1.049
  H  H10  1  0.080400  0.225300  0.518500  1.0  0.1535
  H  H11  1  0.783800  0.400200  0.753600  1.0  0.1544
  H  H12  1  0.806500  0.716900  0.356300  1.0  0.152
  H  H13  1  0.904600  0.405200  0.867300  1.0  0.1598
  H  H14  1  0.825800  0.893700  0.733800  1.0  0.1317
  H  H15  1  0.070600  0.999200  0.165400  1.0  0.1419
  H  H16  1  0.095400  0.594800  0.132700  1.0  0.1615
  H  H17  1  0.919600  0.774700  0.481500  1.0  0.154
  H  H18  1  0.174200  0.106300  0.266200  1.0  0.1337
  H  H19  1  0.216200  0.599800  0.246400  1.0  0.1545
  H  H20  1  0.929400  0.000800  0.834600  1.0  0.1387
  H  H21  1  0.193500  0.283100  0.643700  1.0  0.1529
  C  C22  1  0.958900  0.617600  0.411700  1.0  0.3926
  C  C23  1  0.371600  0.596800  0.142500  1.0  0.4069
  C  C24  1  0.830900  0.941400  0.809900  1.0  -0.4088
  C  C25  1  0.666900  0.693900  0.460400  1.0  0.7841
  C  C26  1  0.628400  0.403200  0.857500  1.0  0.4091
  C  C27  1  0.169100  0.058600  0.190100  1.0  -0.4099
  C  C28  1  0.646800  0.984500  0.814000  1.0  0.3833
  C  C29  1  0.198800  0.565400  0.166600  1.0  -0.4015
  C  C30  1  0.157000  0.291400  0.574100  1.0  -0.4556
  C  C31  1  0.140200  0.444900  0.128000  1.0  0.7308
  C  C32  1  0.333100  0.306100  0.539600  1.0  0.7845
  C  C33  1  0.353200  0.015500  0.186000  1.0  0.3842
  C  C34  1  0.801200  0.434600  0.833400  1.0  -0.4036
  C  C35  1  0.859800  0.555100  0.872000  1.0  0.7397
  C  C36  1  0.122300  0.120600  0.116100  1.0  0.7398
  C  C37  1  0.041100  0.382400  0.588300  1.0  0.3945
  C  C38  1  0.843000  0.708600  0.425900  1.0  -0.4558
  C  C39  1  0.877700  0.879400  0.883900  1.0  0.7408
  N  N40  1  0.626600  0.082200  0.882900  1.0  -0.2932
  N  N41  1  0.658300  0.606900  0.132000  1.0  -0.1755
  N  N42  1  0.348300  0.989200  0.794400  1.0  -0.1407
  N  N43  1  0.048100  0.814400  0.211300  1.0  0.5511
  N  N44  1  0.884900  0.166500  0.698800  1.0  -0.3908
  N  N45  1  0.189000  0.527500  0.431900  1.0  -0.0726
  N  N46  1  0.437700  0.082300  0.868700  1.0  0.0053
  N  N47  1  0.042900  0.458100  0.364500  1.0  -0.1166
  N  N48  1  0.651700  0.010800  0.205600  1.0  -0.1384
  N  N49  1  0.985400  0.791300  0.115400  1.0  -0.5401
  N  N50  1  0.102000  0.486100  0.648600  1.0  -0.1519
  N  N51  1  0.614600  0.334900  0.904100  1.0  -0.3047
  N  N52  1  0.341700  0.393100  0.868000  1.0  -0.17
  N  N53  1  0.373400  0.917800  0.117100  1.0  -0.296
  N  N54  1  0.951900  0.185600  0.788700  1.0  0.5522
  N  N55  1  0.537900  0.559100  0.164700  1.0  -0.2629
  N  N56  1  0.115100  0.833500  0.301200  1.0  -0.3911
  N  N57  1  0.565700  0.669200  0.090400  1.0  -0.03
  N  N58  1  0.957100  0.541900  0.635500  1.0  -0.1181
  N  N59  1  0.462100  0.440900  0.835300  1.0  -0.2616
  N  N60  1  0.811000  0.472500  0.568100  1.0  -0.0727
  N  N61  1  0.385400  0.665100  0.095900  1.0  -0.3056
  N  N62  1  0.860100  0.372000  0.537400  1.0  -0.2375
  N  N63  1  0.562300  0.917700  0.131300  1.0  0.0047
  N  N64  1  0.898000  0.513900  0.351400  1.0  -0.1505
  N  N65  1  0.014600  0.208700  0.884600  1.0  -0.5392
  N  N66  1  0.139900  0.628000  0.462600  1.0  -0.2381
  N  N67  1  0.520400  0.073600  0.242100  1.0  -0.2583
  N  N68  1  0.479600  0.926400  0.757900  1.0  -0.2565
  N  N69  1  0.434300  0.330800  0.909600  1.0  -0.0322
  O  O70  1  0.573100  0.601000  0.411500  1.0  -0.6673
  O  O71  1  0.620600  0.773700  0.530400  1.0  -0.6307
  O  O72  1  0.028800  0.837600  0.885000  1.0  -0.6122
  O  O73  1  0.426900  0.399000  0.588500  1.0  -0.6661
  O  O74  1  0.269500  0.384700  0.133500  1.0  -0.731
  O  O75  1  0.502800  0.641100  0.660600  1.0  -0.6974
  O  O76  1  0.379400  0.226300  0.469600  1.0  -0.633
  O  O77  1  0.610200  0.276100  0.108000  1.0  -0.7149
  O  O78  1  0.765100  0.877000  0.937700  1.0  -0.6403
  O  O79  1  0.234900  0.123000  0.062300  1.0  -0.6393
  O  O80  1  0.970100  0.414400  0.096000  1.0  -0.5758
  O  O81  1  0.497200  0.358900  0.339400  1.0  -0.6967
  O  O82  1  0.730500  0.615300  0.866500  1.0  -0.7322
  O  O83  1  0.029900  0.585600  0.904000  1.0  -0.5782
  O  O84  1  0.389800  0.723900  0.892000  1.0  -0.715
  O  O85  1  0.971200  0.162400  0.115000  1.0  -0.6101
