# generated using pymatgen
data_ZnH7C8N5O2
_symmetry_space_group_name_H-M   'P 1'
_cell_length_a   16.85200000
_cell_length_b   17.11600000
_cell_length_c   9.71030000
_cell_angle_alpha   90.00000000
_cell_angle_beta   118.68300000
_cell_angle_gamma   90.00000000
_symmetry_Int_Tables_number   1
_chemical_formula_structural   ZnH7C8N5O2
_chemical_formula_sum   'Zn8 H56 C64 N40 O16'
_cell_volume   2457.13414437
_cell_formula_units_Z   8
loop_
 _symmetry_equiv_pos_site_id
 _symmetry_equiv_pos_as_xyz
  1  'x, y, z'
loop_
 _atom_site_type_symbol
 _atom_site_label
 _atom_site_symmetry_multiplicity
 _atom_site_fract_x
 _atom_site_fract_y
 _atom_site_fract_z
 _atom_site_occupancy
 _atom_site_charge
  Zn  Zn1  1  0.733160  0.392110  0.155790  1.0  0.8238
  Zn  Zn2  1  0.233160  0.892110  0.155790  1.0  0.8238
  Zn  Zn3  1  0.733160  0.607890  0.655790  1.0  0.8236
  Zn  Zn4  1  0.233160  0.107890  0.655790  1.0  0.8236
  Zn  Zn5  1  0.266840  0.392110  0.344210  1.0  0.8214
  Zn  Zn6  1  0.766840  0.892110  0.344210  1.0  0.8214
  Zn  Zn7  1  0.266840  0.607890  0.844210  1.0  0.8214
  Zn  Zn8  1  0.766840  0.107890  0.844210  1.0  0.8214
  H  H9  1  0.934000  0.399300  0.378600  1.0  0.0747
  H  H10  1  0.773700  0.223700  0.172700  1.0  0.0853
  H  H11  1  0.891400  0.136700  0.301800  1.0  0.0991
  H  H12  1  0.581800  0.448500  0.315100  1.0  0.128
  H  H13  1  0.633100  0.454900  0.498600  1.0  0.133
  H  H14  1  0.655100  0.386200  0.415600  1.0  0.1391
  H  H15  1  0.056500  0.317900  0.510100  1.0  0.1173
  H  H16  1  0.434000  0.899300  0.378600  1.0  0.0747
  H  H17  1  0.273700  0.723700  0.172700  1.0  0.0853
  H  H18  1  0.391400  0.636700  0.301800  1.0  0.0991
  H  H19  1  0.081800  0.948500  0.315100  1.0  0.128
  H  H20  1  0.133100  0.954900  0.498600  1.0  0.133
  H  H21  1  0.155100  0.886200  0.415600  1.0  0.1391
  H  H22  1  0.556500  0.817900  0.510100  1.0  0.1173
  H  H23  1  0.934000  0.600700  0.878600  1.0  0.076
  H  H24  1  0.773700  0.776300  0.672700  1.0  0.0853
  H  H25  1  0.891400  0.863300  0.801800  1.0  0.0989
  H  H26  1  0.581800  0.551500  0.815100  1.0  0.1283
  H  H27  1  0.633100  0.545100  0.998600  1.0  0.1328
  H  H28  1  0.655100  0.613800  0.915600  1.0  0.1409
  H  H29  1  0.056500  0.682100  0.010100  1.0  0.1175
  H  H30  1  0.434000  0.100700  0.878600  1.0  0.076
  H  H31  1  0.273700  0.276300  0.672700  1.0  0.0853
  H  H32  1  0.391400  0.363300  0.801800  1.0  0.0989
  H  H33  1  0.081800  0.051500  0.815100  1.0  0.1283
  H  H34  1  0.133100  0.045100  0.998600  1.0  0.1328
  H  H35  1  0.155100  0.113800  0.915600  1.0  0.1409
  H  H36  1  0.556500  0.182100  0.010100  1.0  0.1175
  H  H37  1  0.066000  0.399300  0.121400  1.0  0.0749
  H  H38  1  0.226300  0.223700  0.327300  1.0  0.085
  H  H39  1  0.108600  0.136700  0.198200  1.0  0.0986
  H  H40  1  0.418200  0.448500  0.184900  1.0  0.1288
  H  H41  1  0.366900  0.454900  0.001400  1.0  0.1316
  H  H42  1  0.344900  0.386200  0.084400  1.0  0.1386
  H  H43  1  0.943500  0.317900  0.989900  1.0  0.1167
  H  H44  1  0.566000  0.899300  0.121400  1.0  0.0749
  H  H45  1  0.726300  0.723700  0.327300  1.0  0.085
  H  H46  1  0.608600  0.636700  0.198200  1.0  0.0986
  H  H47  1  0.918200  0.948500  0.184900  1.0  0.1288
  H  H48  1  0.866900  0.954900  0.001400  1.0  0.1316
  H  H49  1  0.844900  0.886200  0.084400  1.0  0.1386
  H  H50  1  0.443500  0.817900  0.989900  1.0  0.1167
  H  H51  1  0.066000  0.600700  0.621400  1.0  0.0757
  H  H52  1  0.226300  0.776300  0.827300  1.0  0.0848
  H  H53  1  0.108600  0.863300  0.698200  1.0  0.0984
  H  H54  1  0.418200  0.551500  0.684900  1.0  0.1284
  H  H55  1  0.366900  0.545100  0.501400  1.0  0.1316
  H  H56  1  0.344900  0.613800  0.584400  1.0  0.1411
  H  H57  1  0.943500  0.682100  0.489900  1.0  0.1172
  H  H58  1  0.566000  0.100700  0.621400  1.0  0.0757
  H  H59  1  0.726300  0.276300  0.827300  1.0  0.0848
  H  H60  1  0.608600  0.363300  0.698200  1.0  0.0984
  H  H61  1  0.918200  0.051500  0.684900  1.0  0.1284
  H  H62  1  0.866900  0.045100  0.501400  1.0  0.1316
  H  H63  1  0.844900  0.113800  0.584400  1.0  0.1411
  H  H64  1  0.443500  0.182100  0.489900  1.0  0.1172
  C  C65  1  0.063000  0.160100  0.502800  1.0  0.6677
  C  C66  1  0.925400  0.345700  0.363000  1.0  0.1564
  C  C67  1  0.830900  0.242600  0.242200  1.0  0.1654
  C  C68  1  0.901600  0.190100  0.319000  1.0  -0.0853
  C  C69  1  0.709100  0.488800  0.400600  1.0  0.4312
  C  C70  1  0.986500  0.217200  0.420100  1.0  -0.0686
  C  C71  1  0.638600  0.440300  0.408100  1.0  -0.4572
  C  C72  1  0.999700  0.297400  0.443200  1.0  -0.1484
  C  C73  1  0.563000  0.660100  0.502800  1.0  0.6677
  C  C74  1  0.425400  0.845700  0.363000  1.0  0.1564
  C  C75  1  0.330900  0.742600  0.242200  1.0  0.1654
  C  C76  1  0.401600  0.690100  0.319000  1.0  -0.0853
  C  C77  1  0.209100  0.988800  0.400600  1.0  0.4312
  C  C78  1  0.486500  0.717200  0.420100  1.0  -0.0686
  C  C79  1  0.138600  0.940300  0.408100  1.0  -0.4572
  C  C80  1  0.499700  0.797400  0.443200  1.0  -0.1484
  C  C81  1  0.063000  0.839900  0.002800  1.0  0.6679
  C  C82  1  0.925400  0.654300  0.863000  1.0  0.1565
  C  C83  1  0.830900  0.757400  0.742200  1.0  0.1653
  C  C84  1  0.901600  0.809900  0.819000  1.0  -0.085
  C  C85  1  0.709100  0.511200  0.900600  1.0  0.4313
  C  C86  1  0.986500  0.782800  0.920100  1.0  -0.0689
  C  C87  1  0.638600  0.559700  0.908100  1.0  -0.4564
  C  C88  1  0.999700  0.702600  0.943200  1.0  -0.1484
  C  C89  1  0.563000  0.339900  0.002800  1.0  0.6679
  C  C90  1  0.425400  0.154300  0.863000  1.0  0.1565
  C  C91  1  0.330900  0.257400  0.742200  1.0  0.1653
  C  C92  1  0.401600  0.309900  0.819000  1.0  -0.085
  C  C93  1  0.209100  0.011200  0.900600  1.0  0.4313
  C  C94  1  0.486500  0.282800  0.920100  1.0  -0.0689
  C  C95  1  0.138600  0.059700  0.908100  1.0  -0.4564
  C  C96  1  0.499700  0.202600  0.943200  1.0  -0.1484
  C  C97  1  0.937000  0.160100  0.997200  1.0  0.6682
  C  C98  1  0.074600  0.345700  0.137000  1.0  0.158
  C  C99  1  0.169100  0.242600  0.257800  1.0  0.1653
  C  C100  1  0.098400  0.190100  0.181000  1.0  -0.0854
  C  C101  1  0.290900  0.488800  0.099400  1.0  0.4322
  C  C102  1  0.013500  0.217200  0.079900  1.0  -0.0692
  C  C103  1  0.361400  0.440300  0.091900  1.0  -0.4568
  C  C104  1  0.000300  0.297400  0.056800  1.0  -0.1492
  C  C105  1  0.437000  0.660100  0.997200  1.0  0.6682
  C  C106  1  0.574600  0.845700  0.137000  1.0  0.158
  C  C107  1  0.669100  0.742600  0.257800  1.0  0.1653
  C  C108  1  0.598400  0.690100  0.181000  1.0  -0.0854
  C  C109  1  0.790900  0.988800  0.099400  1.0  0.4322
  C  C110  1  0.513500  0.717200  0.079900  1.0  -0.0692
  C  C111  1  0.861400  0.940300  0.091900  1.0  -0.4568
  C  C112  1  0.500300  0.797400  0.056800  1.0  -0.1492
  C  C113  1  0.937000  0.839900  0.497200  1.0  0.6683
  C  C114  1  0.074600  0.654300  0.637000  1.0  0.157
  C  C115  1  0.169100  0.757400  0.757800  1.0  0.1653
  C  C116  1  0.098400  0.809900  0.681000  1.0  -0.0852
  C  C117  1  0.290900  0.511200  0.599400  1.0  0.4323
  C  C118  1  0.013500  0.782800  0.579900  1.0  -0.0691
  C  C119  1  0.361400  0.559700  0.591900  1.0  -0.4559
  C  C120  1  0.000300  0.702600  0.556800  1.0  -0.1487
  C  C121  1  0.437000  0.339900  0.497200  1.0  0.6683
  C  C122  1  0.574600  0.154300  0.637000  1.0  0.157
  C  C123  1  0.669100  0.257400  0.757800  1.0  0.1653
  C  C124  1  0.598400  0.309900  0.681000  1.0  -0.0852
  C  C125  1  0.790900  0.011200  0.599400  1.0  0.4323
  C  C126  1  0.513500  0.282800  0.579900  1.0  -0.0691
  C  C127  1  0.861400  0.059700  0.591900  1.0  -0.4559
  C  C128  1  0.500300  0.202600  0.556800  1.0  -0.1487
  N  N129  1  0.745300  0.475200  0.309600  1.0  -0.2882
  N  N130  1  0.843200  0.320200  0.265800  1.0  -0.3113
  N  N131  1  0.746300  0.553200  0.485500  1.0  -0.3196
  N  N132  1  0.806900  0.532800  0.338300  1.0  -0.1039
  N  N133  1  0.807000  0.579400  0.443800  1.0  -0.1041
  N  N134  1  0.245300  0.975200  0.309600  1.0  -0.2882
  N  N135  1  0.343200  0.820200  0.265800  1.0  -0.3113
  N  N136  1  0.246300  0.053200  0.485500  1.0  -0.3196
  N  N137  1  0.306900  0.032800  0.338300  1.0  -0.1039
  N  N138  1  0.307000  0.079400  0.443800  1.0  -0.1041
  N  N139  1  0.745300  0.524800  0.809600  1.0  -0.2879
  N  N140  1  0.843200  0.679800  0.765800  1.0  -0.3132
  N  N141  1  0.746300  0.446800  0.985500  1.0  -0.3204
  N  N142  1  0.806900  0.467200  0.838300  1.0  -0.105
  N  N143  1  0.807000  0.420600  0.943800  1.0  -0.1042
  N  N144  1  0.245300  0.024800  0.809600  1.0  -0.2879
  N  N145  1  0.343200  0.179800  0.765800  1.0  -0.3132
  N  N146  1  0.246300  0.946800  0.985500  1.0  -0.3204
  N  N147  1  0.306900  0.967200  0.838300  1.0  -0.105
  N  N148  1  0.307000  0.920600  0.943800  1.0  -0.1042
  N  N149  1  0.254700  0.475200  0.190400  1.0  -0.2872
  N  N150  1  0.156800  0.320200  0.234200  1.0  -0.3129
  N  N151  1  0.253700  0.553200  0.014500  1.0  -0.3211
  N  N152  1  0.193100  0.532800  0.161700  1.0  -0.1036
  N  N153  1  0.193000  0.579400  0.056200  1.0  -0.1006
  N  N154  1  0.754700  0.975200  0.190400  1.0  -0.2872
  N  N155  1  0.656800  0.820200  0.234200  1.0  -0.3129
  N  N156  1  0.753700  0.053200  0.014500  1.0  -0.3211
  N  N157  1  0.693100  0.032800  0.161700  1.0  -0.1036
  N  N158  1  0.693000  0.079400  0.056200  1.0  -0.1006
  N  N159  1  0.254700  0.524800  0.690400  1.0  -0.2872
  N  N160  1  0.156800  0.679800  0.734200  1.0  -0.3136
  N  N161  1  0.253700  0.446800  0.514500  1.0  -0.3223
  N  N162  1  0.193100  0.467200  0.661700  1.0  -0.104
  N  N163  1  0.193000  0.420600  0.556200  1.0  -0.1
  N  N164  1  0.754700  0.024800  0.690400  1.0  -0.2872
  N  N165  1  0.656800  0.179800  0.734200  1.0  -0.3136
  N  N166  1  0.753700  0.946800  0.514500  1.0  -0.3223
  N  N167  1  0.693100  0.967200  0.661700  1.0  -0.104
  N  N168  1  0.693000  0.920600  0.556200  1.0  -0.1
  O  O169  1  0.140400  0.189100  0.593600  1.0  -0.6059
  O  O170  1  0.048300  0.090000  0.477400  1.0  -0.5282
  O  O171  1  0.640400  0.689100  0.593600  1.0  -0.6059
  O  O172  1  0.548300  0.590000  0.477400  1.0  -0.5282
  O  O173  1  0.140400  0.810900  0.093600  1.0  -0.6048
  O  O174  1  0.048300  0.910000  0.977400  1.0  -0.5286
  O  O175  1  0.640400  0.310900  0.093600  1.0  -0.6048
  O  O176  1  0.548300  0.410000  0.977400  1.0  -0.5286
  O  O177  1  0.859600  0.189100  0.906400  1.0  -0.6059
  O  O178  1  0.951700  0.090000  0.022600  1.0  -0.5294
  O  O179  1  0.359600  0.689100  0.906400  1.0  -0.6059
  O  O180  1  0.451700  0.590000  0.022600  1.0  -0.5294
  O  O181  1  0.859600  0.810900  0.406400  1.0  -0.606
  O  O182  1  0.951700  0.910000  0.522600  1.0  -0.5294
  O  O183  1  0.359600  0.310900  0.406400  1.0  -0.606
  O  O184  1  0.451700  0.410000  0.522600  1.0  -0.5294
