# generated using pymatgen
data_Fe3H14C32O15
_symmetry_space_group_name_H-M   'P 1'
_cell_length_a   9.89180000
_cell_length_b   23.57000000
_cell_length_c   15.36680000
_cell_angle_alpha   90.00000000
_cell_angle_beta   90.00000000
_cell_angle_gamma   90.00000000
_symmetry_Int_Tables_number   1
_chemical_formula_structural   Fe3H14C32O15
_chemical_formula_sum   'Fe6 H28 C64 O30'
_cell_volume   3582.76520950
_cell_formula_units_Z   2
loop_
 _symmetry_equiv_pos_site_id
 _symmetry_equiv_pos_as_xyz
  1  'x, y, z'
loop_
 _atom_site_type_symbol
 _atom_site_label
 _atom_site_symmetry_multiplicity
 _atom_site_fract_x
 _atom_site_fract_y
 _atom_site_fract_z
 _atom_site_occupancy
 _atom_site_charge
  Fe  Fe1  1  0.295280  0.569280  0.136810  1.0  1.2106
  Fe  Fe2  1  0.490710  0.500000  0.274230  1.0  1.1606
  Fe  Fe3  1  0.704720  0.930720  0.636810  1.0  1.2099
  Fe  Fe4  1  0.704720  0.069280  0.636810  1.0  1.21
  Fe  Fe5  1  0.509290  0.000000  0.774230  1.0  1.1612
  Fe  Fe6  1  0.295280  0.430720  0.136810  1.0  1.2108
  H  H7  1  0.612900  0.796900  0.071600  1.0  0.141
  H  H8  1  0.086400  0.247500  0.409300  1.0  0.1465
  H  H9  1  0.913600  0.252500  0.909300  1.0  0.1464
  H  H10  1  0.131700  0.674900  0.319000  1.0  0.1314
  H  H11  1  0.131700  0.325100  0.319000  1.0  0.1313
  H  H12  1  0.004500  0.210100  0.537500  1.0  0.1398
  H  H13  1  0.913600  0.747500  0.909300  1.0  0.1463
  H  H14  1  0.567600  0.874500  0.981300  1.0  0.132
  H  H15  1  0.592100  0.302000  0.079800  1.0  0.1348
  H  H16  1  0.842600  0.426700  0.163300  1.0  0.1362
  H  H17  1  0.432400  0.374500  0.481300  1.0  0.1323
  H  H18  1  0.612900  0.203100  0.071600  1.0  0.1411
  H  H19  1  0.432400  0.625500  0.481300  1.0  0.1319
  H  H20  1  0.407900  0.198000  0.579800  1.0  0.1352
  H  H21  1  0.157400  0.926700  0.663300  1.0  0.1363
  H  H22  1  0.387100  0.296900  0.571600  1.0  0.1406
  H  H23  1  0.567600  0.125500  0.981300  1.0  0.1317
  H  H24  1  0.868300  0.174900  0.819000  1.0  0.1315
  H  H25  1  0.995500  0.289900  0.037500  1.0  0.1392
  H  H26  1  0.157400  0.073300  0.663300  1.0  0.1365
  H  H27  1  0.842600  0.573300  0.163300  1.0  0.1364
  H  H28  1  0.004500  0.789900  0.537500  1.0  0.1397
  H  H29  1  0.592100  0.698000  0.079800  1.0  0.1351
  H  H30  1  0.387100  0.703100  0.571600  1.0  0.1405
  H  H31  1  0.086400  0.752500  0.409300  1.0  0.1466
  H  H32  1  0.995500  0.710100  0.037500  1.0  0.1398
  H  H33  1  0.407900  0.802000  0.579800  1.0  0.1349
  H  H34  1  0.868300  0.825100  0.819000  1.0  0.1316
  C  C35  1  0.829370  0.608720  0.135000  1.0  0.0388
  C  C36  1  0.920160  0.310050  0.060100  1.0  -0.0789
  C  C37  1  0.790570  0.712200  0.051780  1.0  0.0517
  C  C38  1  0.209430  0.212200  0.551780  1.0  0.0518
  C  C39  1  0.920160  0.689950  0.060100  1.0  -0.076
  C  C40  1  0.362200  0.651260  0.466660  1.0  -0.0217
  C  C41  1  0.232520  0.735170  0.499000  1.0  0.05
  C  C42  1  0.286350  0.357130  0.391620  1.0  -0.12
  C  C43  1  0.939470  0.361810  0.101600  1.0  -0.1277
  C  C44  1  0.300150  0.131050  0.627000  1.0  -0.1295
  C  C45  1  0.767480  0.764830  0.999000  1.0  0.0508
  C  C46  1  0.420300  0.902390  0.657100  1.0  0.7543
  C  C47  1  0.170630  0.108720  0.635000  1.0  0.0389
  C  C48  1  0.325900  0.400610  0.326500  1.0  0.7328
  C  C49  1  0.664730  0.197410  0.020340  1.0  -0.1081
  C  C50  1  0.713650  0.857130  0.891620  1.0  -0.1199
  C  C51  1  0.209430  0.787800  0.551780  1.0  0.0517
  C  C52  1  0.767480  0.235170  0.999000  1.0  0.0501
  C  C53  1  0.843400  0.773280  0.923900  1.0  -0.1207
  C  C54  1  0.183500  0.319370  0.370270  1.0  -0.0562
  C  C55  1  0.183500  0.680630  0.370270  1.0  -0.0558
  C  C56  1  0.335270  0.697410  0.520340  1.0  -0.1028
  C  C57  1  0.327700  0.500000  0.879800  1.0  -0.0418
  C  C58  1  0.816500  0.819370  0.870270  1.0  -0.0556
  C  C59  1  0.699850  0.368950  0.127000  1.0  -0.1296
  C  C60  1  0.079840  0.810050  0.560100  1.0  -0.0794
  C  C61  1  0.672300  0.000000  0.379800  1.0  -0.0416
  C  C62  1  0.319440  0.182770  0.585360  1.0  -0.0616
  C  C63  1  0.713650  0.142870  0.891620  1.0  -0.1199
  C  C64  1  0.790570  0.287800  0.051780  1.0  0.0518
  C  C65  1  0.579700  0.597610  0.157100  1.0  0.764
  C  C66  1  0.079840  0.189950  0.560100  1.0  -0.0769
  C  C67  1  0.232520  0.264830  0.499000  1.0  0.0507
  C  C68  1  0.060530  0.138190  0.601600  1.0  -0.1275
  C  C69  1  0.335270  0.302590  0.520340  1.0  -0.1067
  C  C70  1  0.664730  0.802590  0.020340  1.0  -0.1076
  C  C71  1  0.816500  0.180630  0.870270  1.0  -0.0558
  C  C72  1  0.325900  0.599390  0.326500  1.0  0.7323
  C  C73  1  0.680560  0.317230  0.085360  1.0  -0.0627
  C  C74  1  0.579700  0.402390  0.157100  1.0  0.7645
  C  C75  1  0.170630  0.891280  0.635000  1.0  0.0372
  C  C76  1  0.319440  0.817230  0.585360  1.0  -0.0644
  C  C77  1  0.843400  0.226720  0.923900  1.0  -0.1211
  C  C78  1  0.923600  0.113250  0.612000  1.0  0.6683
  C  C79  1  0.686500  0.000000  0.473200  1.0  0.7065
  C  C80  1  0.156600  0.273280  0.423900  1.0  -0.1213
  C  C81  1  0.699850  0.631050  0.127000  1.0  -0.1298
  C  C82  1  0.156600  0.726720  0.423900  1.0  -0.1211
  C  C83  1  0.829370  0.391280  0.135000  1.0  0.0374
  C  C84  1  0.637800  0.848740  0.966660  1.0  -0.0232
  C  C85  1  0.680560  0.682770  0.085360  1.0  -0.0617
  C  C86  1  0.674100  0.900610  0.826500  1.0  0.7333
  C  C87  1  0.076400  0.386750  0.112000  1.0  0.6673
  C  C88  1  0.923600  0.886750  0.612000  1.0  0.6683
  C  C89  1  0.060530  0.861810  0.601600  1.0  -0.1274
  C  C90  1  0.637800  0.151260  0.966660  1.0  -0.0222
  C  C91  1  0.420300  0.097610  0.657100  1.0  0.7644
  C  C92  1  0.362200  0.348740  0.466660  1.0  -0.022
  C  C93  1  0.286350  0.642870  0.391620  1.0  -0.12
  C  C94  1  0.076400  0.613250  0.112000  1.0  0.6675
  C  C95  1  0.674100  0.099390  0.826500  1.0  0.7328
  C  C96  1  0.939470  0.638190  0.101600  1.0  -0.1278
  C  C97  1  0.313500  0.500000  0.973200  1.0  0.706
  C  C98  1  0.300150  0.868950  0.627000  1.0  -0.1294
  O  O99  1  0.646000  0.000000  0.682800  1.0  -1.0685
  O  O100  1  0.180390  0.358750  0.092430  1.0  -0.5151
  O  O101  1  0.088520  0.437160  0.138200  1.0  -0.5404
  O  O102  1  0.271200  0.395600  0.251970  1.0  -0.6134
  O  O103  1  0.308400  0.546400  0.012390  1.0  -0.5855
  O  O104  1  0.088520  0.562840  0.138200  1.0  -0.54
  O  O105  1  0.593820  0.939360  0.847460  1.0  -0.5925
  O  O106  1  0.271200  0.604400  0.251970  1.0  -0.6139
  O  O107  1  0.601750  0.441150  0.210990  1.0  -0.6184
  O  O108  1  0.911480  0.937160  0.638200  1.0  -0.5404
  O  O109  1  0.354000  0.500000  0.182800  1.0  -1.0681
  O  O110  1  0.531250  0.889660  0.623700  1.0  -0.5673
  O  O111  1  0.819610  0.858750  0.592430  1.0  -0.514
  O  O112  1  0.601750  0.558850  0.210990  1.0  -0.619
  O  O113  1  0.728800  0.104400  0.751970  1.0  -0.6134
  O  O114  1  0.468750  0.389660  0.123700  1.0  -0.5667
  O  O115  1  0.406180  0.439360  0.347460  1.0  -0.5922
  O  O116  1  0.819610  0.141250  0.592430  1.0  -0.513
  O  O117  1  0.308400  0.453600  0.012390  1.0  -0.5834
  O  O118  1  0.180390  0.641250  0.092430  1.0  -0.5137
  O  O119  1  0.406180  0.560640  0.347460  1.0  -0.5917
  O  O120  1  0.593820  0.060640  0.847460  1.0  -0.5916
  O  O121  1  0.691600  0.953600  0.512390  1.0  -0.5833
  O  O122  1  0.468750  0.610340  0.123700  1.0  -0.5661
  O  O123  1  0.911480  0.062840  0.638200  1.0  -0.5407
  O  O124  1  0.531250  0.110340  0.623700  1.0  -0.5668
  O  O125  1  0.691600  0.046400  0.512390  1.0  -0.5854
  O  O126  1  0.398250  0.058850  0.710990  1.0  -0.6202
  O  O127  1  0.398250  0.941150  0.710990  1.0  -0.6199
  O  O128  1  0.728800  0.895600  0.751970  1.0  -0.6126
