# generated using pymatgen
data_Fe3H32C54N2O13
_symmetry_space_group_name_H-M   'P 1'
_cell_length_a   27.00500000
_cell_length_b   18.56400000
_cell_length_c   36.38900000
_cell_angle_alpha   90.00000000
_cell_angle_beta   98.84800000
_cell_angle_gamma   90.00000000
_symmetry_Int_Tables_number   1
_chemical_formula_structural   Fe3H32C54N2O13
_chemical_formula_sum   'Fe12 H128 C216 N8 O52'
_cell_volume   18025.47443590
_cell_formula_units_Z   4
loop_
 _symmetry_equiv_pos_site_id
 _symmetry_equiv_pos_as_xyz
  1  'x, y, z'
loop_
 _atom_site_type_symbol
 _atom_site_label
 _atom_site_symmetry_multiplicity
 _atom_site_fract_x
 _atom_site_fract_y
 _atom_site_fract_z
 _atom_site_occupancy
 _atom_site_charge
  Fe  Fe1  1  0.238860  0.091770  0.201500  1.0  1.1742
  Fe  Fe2  1  0.296510  0.149020  0.133290  1.0  1.1149
  Fe  Fe3  1  0.190520  0.223900  0.146850  1.0  1.3258
  Fe  Fe4  1  0.761140  0.591770  0.298500  1.0  1.1729
  Fe  Fe5  1  0.703490  0.649020  0.366710  1.0  1.1151
  Fe  Fe6  1  0.809480  0.723900  0.353150  1.0  1.3253
  Fe  Fe7  1  0.761140  0.908230  0.798500  1.0  1.174
  Fe  Fe8  1  0.703490  0.850980  0.866710  1.0  1.115
  Fe  Fe9  1  0.809480  0.776100  0.853150  1.0  1.3196
  Fe  Fe10  1  0.238860  0.408230  0.701500  1.0  1.175
  Fe  Fe11  1  0.296510  0.350980  0.633290  1.0  1.1151
  Fe  Fe12  1  0.190520  0.276100  0.646850  1.0  1.3217
  H  H13  1  0.553900  0.318600  0.314200  1.0  0.321
  H  H14  1  0.508000  0.276100  0.296600  1.0  0.3484
  H  H15  1  0.976600  0.974300  0.063800  1.0  0.3136
  H  H16  1  0.934700  0.943400  0.035400  1.0  0.3432
  H  H17  1  0.376300  0.081200  0.280600  1.0  0.1136
  H  H18  1  0.453800  0.087700  0.319300  1.0  0.1151
  H  H19  1  0.509300  0.203200  0.242600  1.0  0.1174
  H  H20  1  0.432800  0.193500  0.202600  1.0  0.1166
  H  H21  1  0.549600  0.037100  0.311400  1.0  0.1175
  H  H22  1  0.671900  0.150800  0.357500  1.0  0.1142
  H  H23  1  0.583200  0.954800  0.357400  1.0  0.1196
  H  H24  1  0.625300  0.847200  0.369100  1.0  0.1081
  H  H25  1  0.751400  0.939100  0.345700  1.0  0.1141
  H  H26  1  0.709400  0.048700  0.336400  1.0  0.1163
  H  H27  1  0.693300  0.261000  0.310300  1.0  0.1156
  H  H28  1  0.731600  0.373700  0.314000  1.0  0.1038
  H  H29  1  0.641200  0.437300  0.382700  1.0  0.1048
  H  H30  1  0.600900  0.328300  0.376800  1.0  0.0997
  H  H31  1  0.047200  0.127000  0.120100  1.0  0.12
  H  H32  1  0.974600  0.059800  0.102800  1.0  0.114
  H  H33  1  0.033300  0.897300  0.168900  1.0  0.1231
  H  H34  1  0.106800  0.964500  0.184600  1.0  0.1145
  H  H35  1  0.942000  0.905000  0.177900  1.0  0.1086
  H  H36  1  0.829800  0.823300  0.104200  1.0  0.115
  H  H37  1  0.835400  0.736100  0.151300  1.0  0.1062
  H  H38  1  0.803300  0.682200  0.200100  1.0  0.1182
  H  H39  1  0.848900  0.851100  0.264500  1.0  0.1161
  H  H40  1  0.876700  0.906800  0.214400  1.0  0.1156
  H  H41  1  0.914300  0.813700  0.024600  1.0  0.0978
  H  H42  1  0.879000  0.793800  0.963800  1.0  0.1242
  H  H43  1  0.755400  0.897600  0.982900  1.0  0.1145
  H  H44  1  0.792200  0.916900  0.044400  1.0  0.1241
  H  H45  1  0.446100  0.818600  0.185800  1.0  0.3214
  H  H46  1  0.492000  0.776100  0.203400  1.0  0.3486
  H  H47  1  0.023400  0.474300  0.436200  1.0  0.3155
  H  H48  1  0.065300  0.443400  0.464600  1.0  0.3585
  H  H49  1  0.623700  0.581200  0.219400  1.0  0.1136
  H  H50  1  0.546200  0.587700  0.180700  1.0  0.1161
  H  H51  1  0.490700  0.703200  0.257400  1.0  0.1168
  H  H52  1  0.567200  0.693500  0.297400  1.0  0.1164
  H  H53  1  0.450400  0.537100  0.188600  1.0  0.1176
  H  H54  1  0.328100  0.650800  0.142500  1.0  0.1139
  H  H55  1  0.416800  0.454800  0.142600  1.0  0.1204
  H  H56  1  0.374700  0.347200  0.130900  1.0  0.1072
  H  H57  1  0.248600  0.439100  0.154300  1.0  0.1129
  H  H58  1  0.290600  0.548700  0.163600  1.0  0.1167
  H  H59  1  0.306700  0.761000  0.189700  1.0  0.1161
  H  H60  1  0.268400  0.873700  0.186000  1.0  0.1034
  H  H61  1  0.358800  0.937300  0.117300  1.0  0.1047
  H  H62  1  0.399100  0.828300  0.123200  1.0  0.0993
  H  H63  1  0.952800  0.627000  0.379900  1.0  0.1194
  H  H64  1  0.025400  0.559800  0.397200  1.0  0.1146
  H  H65  1  0.966700  0.397300  0.331100  1.0  0.1225
  H  H66  1  0.893200  0.464500  0.315400  1.0  0.1136
  H  H67  1  0.058000  0.405000  0.322100  1.0  0.109
  H  H68  1  0.170200  0.323300  0.395800  1.0  0.1156
  H  H69  1  0.164600  0.236100  0.348700  1.0  0.1098
  H  H70  1  0.196700  0.182200  0.299900  1.0  0.1182
  H  H71  1  0.151100  0.351100  0.235500  1.0  0.1156
  H  H72  1  0.123300  0.406800  0.285600  1.0  0.1158
  H  H73  1  0.085700  0.313700  0.475400  1.0  0.0979
  H  H74  1  0.121000  0.293800  0.536200  1.0  0.1256
  H  H75  1  0.244600  0.397600  0.517100  1.0  0.115
  H  H76  1  0.207800  0.416900  0.455600  1.0  0.1206
  H  H77  1  0.446100  0.681400  0.685800  1.0  0.3219
  H  H78  1  0.492000  0.723900  0.703400  1.0  0.3485
  H  H79  1  0.023400  0.025700  0.936200  1.0  0.316
  H  H80  1  0.065300  0.056600  0.964600  1.0  0.3452
  H  H81  1  0.623700  0.918800  0.719400  1.0  0.114
  H  H82  1  0.546200  0.912300  0.680700  1.0  0.115
  H  H83  1  0.490700  0.796800  0.757400  1.0  0.1187
  H  H84  1  0.567200  0.806500  0.797400  1.0  0.117
  H  H85  1  0.450400  0.962900  0.688600  1.0  0.1176
  H  H86  1  0.328100  0.849200  0.642500  1.0  0.115
  H  H87  1  0.416800  0.045200  0.642600  1.0  0.1195
  H  H88  1  0.374700  0.152800  0.630900  1.0  0.1079
  H  H89  1  0.248600  0.060900  0.654300  1.0  0.1134
  H  H90  1  0.290600  0.951300  0.663600  1.0  0.1165
  H  H91  1  0.306700  0.739000  0.689700  1.0  0.1157
  H  H92  1  0.268400  0.626300  0.686000  1.0  0.103
  H  H93  1  0.358800  0.562700  0.617300  1.0  0.1045
  H  H94  1  0.399100  0.671700  0.623200  1.0  0.0996
  H  H95  1  0.952800  0.873000  0.879900  1.0  0.1189
  H  H96  1  0.025400  0.940200  0.897200  1.0  0.1142
  H  H97  1  0.966700  0.102700  0.831100  1.0  0.123
  H  H98  1  0.893200  0.035500  0.815400  1.0  0.114
  H  H99  1  0.058000  0.095000  0.822100  1.0  0.1081
  H  H100  1  0.170200  0.176700  0.895800  1.0  0.1155
  H  H101  1  0.164600  0.263900  0.848700  1.0  0.1063
  H  H102  1  0.196700  0.317800  0.799900  1.0  0.1185
  H  H103  1  0.151100  0.148900  0.735500  1.0  0.1167
  H  H104  1  0.123300  0.093200  0.785600  1.0  0.115
  H  H105  1  0.085700  0.186300  0.975400  1.0  0.0984
  H  H106  1  0.121000  0.206200  0.036200  1.0  0.125
  H  H107  1  0.244600  0.102400  0.017100  1.0  0.1147
  H  H108  1  0.207800  0.083100  0.955600  1.0  0.123
  H  H109  1  0.553900  0.181400  0.814200  1.0  0.3211
  H  H110  1  0.508000  0.223900  0.796600  1.0  0.3484
  H  H111  1  0.976600  0.525700  0.563800  1.0  0.3138
  H  H112  1  0.934700  0.556600  0.535400  1.0  0.3583
  H  H113  1  0.376300  0.418800  0.780600  1.0  0.1134
  H  H114  1  0.453800  0.412300  0.819300  1.0  0.1153
  H  H115  1  0.509300  0.296800  0.742600  1.0  0.1152
  H  H116  1  0.432800  0.306500  0.702600  1.0  0.1166
  H  H117  1  0.549600  0.462900  0.811400  1.0  0.1183
  H  H118  1  0.671900  0.349200  0.857500  1.0  0.1126
  H  H119  1  0.583200  0.545200  0.857400  1.0  0.1192
  H  H120  1  0.625300  0.652800  0.869100  1.0  0.1077
  H  H121  1  0.751400  0.560900  0.845700  1.0  0.1135
  H  H122  1  0.709400  0.451300  0.836400  1.0  0.1163
  H  H123  1  0.693300  0.239000  0.810300  1.0  0.1157
  H  H124  1  0.731600  0.126300  0.814000  1.0  0.1036
  H  H125  1  0.641200  0.062700  0.882700  1.0  0.1051
  H  H126  1  0.600900  0.171700  0.876800  1.0  0.1003
  H  H127  1  0.047200  0.373000  0.620100  1.0  0.1191
  H  H128  1  0.974600  0.440200  0.602800  1.0  0.1136
  H  H129  1  0.033300  0.602700  0.668900  1.0  0.1232
  H  H130  1  0.106800  0.535500  0.684600  1.0  0.1145
  H  H131  1  0.942000  0.595000  0.677900  1.0  0.1097
  H  H132  1  0.829800  0.676700  0.604200  1.0  0.1153
  H  H133  1  0.835400  0.763900  0.651300  1.0  0.1094
  H  H134  1  0.803300  0.817800  0.700100  1.0  0.1189
  H  H135  1  0.848900  0.648900  0.764500  1.0  0.1151
  H  H136  1  0.876700  0.593200  0.714400  1.0  0.115
  H  H137  1  0.914300  0.686300  0.524600  1.0  0.0975
  H  H138  1  0.879000  0.706200  0.463800  1.0  0.1255
  H  H139  1  0.755400  0.602400  0.482900  1.0  0.1143
  H  H140  1  0.792200  0.583100  0.544400  1.0  0.121
  C  C141  1  0.348190  0.129960  0.212190  1.0  0.7454
  C  C142  1  0.396890  0.135480  0.237970  1.0  -0.1052
  C  C143  1  0.403470  0.105410  0.272150  1.0  -0.0671
  C  C144  1  0.450000  0.109500  0.295380  1.0  -0.1154
  C  C145  1  0.489780  0.143850  0.284540  1.0  0.0682
  C  C146  1  0.482590  0.176700  0.250290  1.0  -0.0866
  C  C147  1  0.436650  0.171900  0.226550  1.0  -0.0493
  C  C148  1  0.541310  0.145740  0.307640  1.0  -0.0364
  C  C149  1  0.566010  0.081750  0.317460  1.0  -0.0932
  C  C150  1  0.615510  0.082560  0.336500  1.0  0.0503
  C  C151  1  0.638450  0.149530  0.344750  1.0  -0.1273
  C  C152  1  0.614550  0.212780  0.335090  1.0  -0.0266
  C  C153  1  0.565580  0.211560  0.316960  1.0  0.1491
  C  C154  1  0.641630  0.013800  0.345380  1.0  0.036
  C  C155  1  0.617760  0.952400  0.355100  1.0  -0.1591
  C  C156  1  0.642780  0.887690  0.361520  1.0  -0.0665
  C  C157  1  0.691840  0.880300  0.357280  1.0  -0.0992
  C  C158  1  0.716900  0.941800  0.348120  1.0  -0.0809
  C  C159  1  0.691620  0.007300  0.342450  1.0  -0.1449
  C  C160  1  0.719470  0.809600  0.361540  1.0  0.7424
  C  C161  1  0.641120  0.283670  0.341920  1.0  0.1376
  C  C162  1  0.680880  0.297860  0.324590  1.0  -0.1417
  C  C163  1  0.704350  0.365570  0.327100  1.0  -0.0838
  C  C164  1  0.689380  0.418920  0.347430  1.0  -0.0702
  C  C165  1  0.651680  0.402270  0.366500  1.0  -0.0666
  C  C166  1  0.627830  0.336400  0.363310  1.0  -0.0489
  C  C167  1  0.710570  0.491940  0.346260  1.0  0.7503
  C  C168  1  0.131430  0.092300  0.162650  1.0  0.7444
  C  C169  1  0.083970  0.051100  0.153060  1.0  -0.1022
  C  C170  1  0.044790  0.079800  0.129740  1.0  -0.057
  C  C171  1  0.001180  0.040000  0.119940  1.0  -0.1758
  C  C172  1  0.995640  0.972200  0.134530  1.0  0.0905
  C  C173  1  0.035750  0.944000  0.158670  1.0  -0.1345
  C  C174  1  0.079650  0.984000  0.167890  1.0  -0.0346
  C  C175  1  0.947690  0.930340  0.125120  1.0  -0.0333
  C  C176  1  0.925890  0.898980  0.152980  1.0  -0.1188
  C  C177  1  0.881910  0.859100  0.147030  1.0  0.0211
  C  C178  1  0.860040  0.850040  0.109590  1.0  -0.118
  C  C179  1  0.881290  0.878980  0.080200  1.0  0.0257
  C  C180  1  0.924930  0.919500  0.088710  1.0  0.0672
  C  C181  1  0.860730  0.825200  0.177420  1.0  0.091
  C  C182  1  0.838340  0.760600  0.174450  1.0  -0.1254
  C  C183  1  0.819210  0.727900  0.203620  1.0  -0.1029
  C  C184  1  0.823320  0.761900  0.237670  1.0  -0.1218
  C  C185  1  0.845330  0.827000  0.241210  1.0  -0.0572
  C  C186  1  0.862890  0.859700  0.211410  1.0  -0.1695
  C  C187  1  0.805870  0.723700  0.269580  1.0  0.735
  C  C188  1  0.857470  0.866550  0.041000  1.0  0.0901
  C  C189  1  0.881350  0.831000  0.016360  1.0  -0.1013
  C  C190  1  0.860540  0.818650  0.980050  1.0  -0.1146
  C  C191  1  0.812810  0.842470  0.967510  1.0  -0.1039
  C  C192  1  0.788110  0.879520  0.991380  1.0  -0.0571
  C  C193  1  0.810190  0.891320  0.028060  1.0  -0.1458
  C  C194  1  0.790070  0.829760  0.928760  1.0  0.7516
  C  C195  1  0.651810  0.629960  0.287810  1.0  0.745
  C  C196  1  0.603110  0.635480  0.262030  1.0  -0.106
  C  C197  1  0.596530  0.605410  0.227850  1.0  -0.0669
  C  C198  1  0.550000  0.609500  0.204620  1.0  -0.1166
  C  C199  1  0.510220  0.643850  0.215460  1.0  0.0684
  C  C200  1  0.517410  0.676700  0.249710  1.0  -0.0875
  C  C201  1  0.563350  0.671900  0.273450  1.0  -0.0492
  C  C202  1  0.458690  0.645740  0.192360  1.0  -0.0361
  C  C203  1  0.433990  0.581750  0.182540  1.0  -0.0919
  C  C204  1  0.384490  0.582560  0.163500  1.0  0.0513
  C  C205  1  0.361550  0.649530  0.155250  1.0  -0.1272
  C  C206  1  0.385450  0.712780  0.164910  1.0  -0.0267
  C  C207  1  0.434420  0.711560  0.183040  1.0  0.1498
  C  C208  1  0.358370  0.513800  0.154620  1.0  0.0363
  C  C209  1  0.382240  0.452400  0.144900  1.0  -0.1589
  C  C210  1  0.357220  0.387690  0.138480  1.0  -0.0718
  C  C211  1  0.308160  0.380300  0.142720  1.0  -0.1
  C  C212  1  0.283100  0.441800  0.151880  1.0  -0.0823
  C  C213  1  0.308380  0.507300  0.157550  1.0  -0.1474
  C  C214  1  0.280530  0.309600  0.138460  1.0  0.7417
  C  C215  1  0.358880  0.783670  0.158080  1.0  0.138
  C  C216  1  0.319120  0.797860  0.175410  1.0  -0.1415
  C  C217  1  0.295650  0.865570  0.172900  1.0  -0.083
  C  C218  1  0.310620  0.918920  0.152570  1.0  -0.0696
  C  C219  1  0.348320  0.902270  0.133500  1.0  -0.0682
  C  C220  1  0.372170  0.836400  0.136690  1.0  -0.0482
  C  C221  1  0.289430  0.991940  0.153740  1.0  0.7512
  C  C222  1  0.868570  0.592300  0.337350  1.0  0.7453
  C  C223  1  0.916030  0.551100  0.346940  1.0  -0.1035
  C  C224  1  0.955210  0.579800  0.370260  1.0  -0.0549
  C  C225  1  0.998820  0.540000  0.380060  1.0  -0.1742
  C  C226  1  0.004360  0.472200  0.365470  1.0  0.0903
  C  C227  1  0.964250  0.444000  0.341330  1.0  -0.134
  C  C228  1  0.920350  0.484000  0.332110  1.0  -0.0354
  C  C229  1  0.052310  0.430340  0.374880  1.0  -0.0332
  C  C230  1  0.074110  0.398980  0.347020  1.0  -0.1177
  C  C231  1  0.118090  0.359100  0.352970  1.0  0.0218
  C  C232  1  0.139960  0.350040  0.390410  1.0  -0.1177
  C  C233  1  0.118710  0.378980  0.419800  1.0  0.0252
  C  C234  1  0.075070  0.419500  0.411290  1.0  0.0662
  C  C235  1  0.139270  0.325200  0.322580  1.0  0.0909
  C  C236  1  0.161660  0.260600  0.325550  1.0  -0.1236
  C  C237  1  0.180790  0.227900  0.296380  1.0  -0.1031
  C  C238  1  0.176680  0.261900  0.262330  1.0  -0.1226
  C  C239  1  0.154670  0.327000  0.258790  1.0  -0.0565
  C  C240  1  0.137110  0.359700  0.288590  1.0  -0.1713
  C  C241  1  0.194130  0.223700  0.230420  1.0  0.7351
  C  C242  1  0.142530  0.366550  0.459000  1.0  0.0909
  C  C243  1  0.118650  0.331000  0.483640  1.0  -0.1023
  C  C244  1  0.139460  0.318650  0.519950  1.0  -0.1131
  C  C245  1  0.187190  0.342470  0.532490  1.0  -0.1013
  C  C246  1  0.211890  0.379520  0.508620  1.0  -0.0588
  C  C247  1  0.189810  0.391320  0.471940  1.0  -0.1446
  C  C248  1  0.209930  0.329760  0.571240  1.0  0.7513
  C  C249  1  0.651810  0.870040  0.787810  1.0  0.745
  C  C250  1  0.603110  0.864520  0.762030  1.0  -0.106
  C  C251  1  0.596530  0.894590  0.727850  1.0  -0.0663
  C  C252  1  0.550000  0.890500  0.704620  1.0  -0.1162
  C  C253  1  0.510220  0.856150  0.715460  1.0  0.0687
  C  C254  1  0.517410  0.823300  0.749710  1.0  -0.0873
  C  C255  1  0.563350  0.828100  0.773450  1.0  -0.0482
  C  C256  1  0.458690  0.854260  0.692360  1.0  -0.0359
  C  C257  1  0.433990  0.918250  0.682540  1.0  -0.0921
  C  C258  1  0.384490  0.917440  0.663500  1.0  0.051
  C  C259  1  0.361550  0.850470  0.655250  1.0  -0.1275
  C  C260  1  0.385450  0.787220  0.664910  1.0  -0.0272
  C  C261  1  0.434420  0.788440  0.683040  1.0  0.1498
  C  C262  1  0.358370  0.986200  0.654620  1.0  0.0365
  C  C263  1  0.382240  0.047600  0.644900  1.0  -0.1583
  C  C264  1  0.357220  0.112310  0.638480  1.0  -0.0662
  C  C265  1  0.308160  0.119700  0.642720  1.0  -0.1006
  C  C266  1  0.283100  0.058200  0.651880  1.0  -0.0818
  C  C267  1  0.308380  0.992700  0.657550  1.0  -0.1459
  C  C268  1  0.280530  0.190400  0.638460  1.0  0.742
  C  C269  1  0.358880  0.716330  0.658080  1.0  0.1386
  C  C270  1  0.319120  0.702140  0.675410  1.0  -0.142
  C  C271  1  0.295650  0.634430  0.672900  1.0  -0.0826
  C  C272  1  0.310620  0.581080  0.652570  1.0  -0.0701
  C  C273  1  0.348320  0.597730  0.633500  1.0  -0.0674
  C  C274  1  0.372170  0.663600  0.636690  1.0  -0.049
  C  C275  1  0.289430  0.508060  0.653740  1.0  0.7516
  C  C276  1  0.868570  0.907700  0.837350  1.0  0.7452
  C  C277  1  0.916030  0.948900  0.846940  1.0  -0.1035
  C  C278  1  0.955210  0.920200  0.870260  1.0  -0.0565
  C  C279  1  0.998820  0.960000  0.880060  1.0  -0.1764
  C  C280  1  0.004360  0.027800  0.865470  1.0  0.0906
  C  C281  1  0.964250  0.056000  0.841330  1.0  -0.134
  C  C282  1  0.920350  0.016000  0.832110  1.0  -0.0352
  C  C283  1  0.052310  0.069660  0.874880  1.0  -0.0337
  C  C284  1  0.074110  0.101020  0.847020  1.0  -0.1176
  C  C285  1  0.118090  0.140900  0.852970  1.0  0.0218
  C  C286  1  0.139960  0.149960  0.890410  1.0  -0.1174
  C  C287  1  0.118710  0.121020  0.919800  1.0  0.0256
  C  C288  1  0.075070  0.080500  0.911290  1.0  0.0665
  C  C289  1  0.139270  0.174800  0.822580  1.0  0.0905
  C  C290  1  0.161660  0.239400  0.825550  1.0  -0.1234
  C  C291  1  0.180790  0.272100  0.796380  1.0  -0.1023
  C  C292  1  0.176680  0.238100  0.762330  1.0  -0.1224
  C  C293  1  0.154670  0.173000  0.758790  1.0  -0.0565
  C  C294  1  0.137110  0.140300  0.788590  1.0  -0.1698
  C  C295  1  0.194130  0.276300  0.730420  1.0  0.7356
  C  C296  1  0.142530  0.133450  0.959000  1.0  0.0907
  C  C297  1  0.118650  0.169000  0.983640  1.0  -0.1019
  C  C298  1  0.139460  0.181350  0.019950  1.0  -0.1142
  C  C299  1  0.187190  0.157530  0.032490  1.0  -0.1017
  C  C300  1  0.211890  0.120480  0.008620  1.0  -0.0588
  C  C301  1  0.189810  0.108680  0.971940  1.0  -0.1441
  C  C302  1  0.209930  0.170240  0.071240  1.0  0.7513
  C  C303  1  0.348190  0.370040  0.712190  1.0  0.7455
  C  C304  1  0.396890  0.364520  0.737970  1.0  -0.1051
  C  C305  1  0.403470  0.394590  0.772150  1.0  -0.0672
  C  C306  1  0.450000  0.390500  0.795380  1.0  -0.1161
  C  C307  1  0.489780  0.356150  0.784540  1.0  0.0685
  C  C308  1  0.482590  0.323300  0.750290  1.0  -0.0866
  C  C309  1  0.436650  0.328100  0.726550  1.0  -0.0483
  C  C310  1  0.541310  0.354260  0.807640  1.0  -0.036
  C  C311  1  0.566010  0.418250  0.817460  1.0  -0.0928
  C  C312  1  0.615510  0.417440  0.836500  1.0  0.05
  C  C313  1  0.638450  0.350470  0.844750  1.0  -0.1272
  C  C314  1  0.614550  0.287220  0.835090  1.0  -0.0271
  C  C315  1  0.565580  0.288440  0.816960  1.0  0.1492
  C  C316  1  0.641630  0.486200  0.845380  1.0  0.0361
  C  C317  1  0.617760  0.547600  0.855100  1.0  -0.1616
  C  C318  1  0.642780  0.612310  0.861520  1.0  -0.0707
  C  C319  1  0.691840  0.619700  0.857280  1.0  -0.1008
  C  C320  1  0.716900  0.558200  0.848120  1.0  -0.0809
  C  C321  1  0.691620  0.492700  0.842450  1.0  -0.1446
  C  C322  1  0.719470  0.690400  0.861540  1.0  0.7425
  C  C323  1  0.641120  0.216330  0.841920  1.0  0.1377
  C  C324  1  0.680880  0.202140  0.824590  1.0  -0.1412
  C  C325  1  0.704350  0.134430  0.827100  1.0  -0.0842
  C  C326  1  0.689380  0.081080  0.847430  1.0  -0.0693
  C  C327  1  0.651680  0.097730  0.866500  1.0  -0.0647
  C  C328  1  0.627830  0.163600  0.863310  1.0  -0.0494
  C  C329  1  0.710570  0.008060  0.846260  1.0  0.7507
  C  C330  1  0.131430  0.407700  0.662650  1.0  0.7441
  C  C331  1  0.083970  0.448900  0.653060  1.0  -0.1017
  C  C332  1  0.044790  0.420200  0.629740  1.0  -0.0568
  C  C333  1  0.001180  0.460000  0.619940  1.0  -0.177
  C  C334  1  0.995640  0.527800  0.634530  1.0  0.0908
  C  C335  1  0.035750  0.556000  0.658670  1.0  -0.1339
  C  C336  1  0.079650  0.516000  0.667890  1.0  -0.0338
  C  C337  1  0.947690  0.569660  0.625120  1.0  -0.0336
  C  C338  1  0.925890  0.601020  0.652980  1.0  -0.1187
  C  C339  1  0.881910  0.640900  0.647030  1.0  0.0213
  C  C340  1  0.860040  0.649960  0.609590  1.0  -0.1176
  C  C341  1  0.881290  0.621020  0.580200  1.0  0.0262
  C  C342  1  0.924930  0.580500  0.588710  1.0  0.0675
  C  C343  1  0.860730  0.674800  0.677420  1.0  0.0906
  C  C344  1  0.838340  0.739400  0.674450  1.0  -0.125
  C  C345  1  0.819210  0.772100  0.703620  1.0  -0.1031
  C  C346  1  0.823320  0.738100  0.737670  1.0  -0.1222
  C  C347  1  0.845330  0.673000  0.741210  1.0  -0.0573
  C  C348  1  0.862890  0.640300  0.711410  1.0  -0.1691
  C  C349  1  0.805870  0.776300  0.769580  1.0  0.735
  C  C350  1  0.857470  0.633450  0.541000  1.0  0.09
  C  C351  1  0.881350  0.669000  0.516360  1.0  -0.0995
  C  C352  1  0.860540  0.681350  0.480050  1.0  -0.1147
  C  C353  1  0.812810  0.657530  0.467510  1.0  -0.1037
  C  C354  1  0.788110  0.620480  0.491380  1.0  -0.0571
  C  C355  1  0.810190  0.608680  0.528060  1.0  -0.1441
  C  C356  1  0.790070  0.670240  0.428760  1.0  0.7515
  N  N357  1  0.539130  0.277000  0.308150  1.0  -0.6993
  N  N358  1  0.948540  0.949700  0.058660  1.0  -0.7164
  N  N359  1  0.460870  0.777000  0.191850  1.0  -0.7008
  N  N360  1  0.051460  0.449700  0.441340  1.0  -0.7163
  N  N361  1  0.460870  0.723000  0.691850  1.0  -0.7011
  N  N362  1  0.051460  0.050300  0.941340  1.0  -0.7172
  N  N363  1  0.539130  0.223000  0.808150  1.0  -0.702
  N  N364  1  0.948540  0.550300  0.558660  1.0  -0.7152
  O  O365  1  0.311750  0.106450  0.224920  1.0  -0.5951
  O  O366  1  0.348840  0.151480  0.179450  1.0  -0.6059
  O  O367  1  0.694970  0.757120  0.371060  1.0  -0.6228
  O  O368  1  0.763430  0.807420  0.355160  1.0  -0.6047
  O  O369  1  0.696610  0.538900  0.367170  1.0  -0.6152
  O  O370  1  0.741070  0.502450  0.324680  1.0  -0.594
  O  O371  1  0.165910  0.063600  0.184700  1.0  -0.609
  O  O372  1  0.134090  0.152070  0.147030  1.0  -0.6216
  O  O373  1  0.816420  0.754880  0.300750  1.0  -0.6142
  O  O374  1  0.781980  0.666667  0.263990  1.0  -0.6129
  O  O375  1  0.813950  0.793660  0.908240  1.0  -0.6281
  O  O376  1  0.747360  0.857020  0.917600  1.0  -0.6165
  O  O377  1  0.241640  0.155250  0.160390  1.0  -1.1332
  O  O378  1  0.688250  0.606450  0.275080  1.0  -0.5969
  O  O379  1  0.651160  0.651480  0.320550  1.0  -0.6065
  O  O380  1  0.305030  0.257120  0.128940  1.0  -0.6222
  O  O381  1  0.236570  0.307420  0.144840  1.0  -0.6049
  O  O382  1  0.303390  0.038900  0.132830  1.0  -0.6155
  O  O383  1  0.258930  0.002450  0.175320  1.0  -0.5931
  O  O384  1  0.834090  0.563600  0.315300  1.0  -0.6095
  O  O385  1  0.865910  0.652070  0.352970  1.0  -0.6208
  O  O386  1  0.183580  0.254880  0.199250  1.0  -0.6155
  O  O387  1  0.218020  0.166650  0.236010  1.0  -0.6117
  O  O388  1  0.186050  0.293660  0.591760  1.0  -0.6283
  O  O389  1  0.252640  0.357020  0.582400  1.0  -0.6169
  O  O390  1  0.758360  0.655250  0.339610  1.0  -1.1322
  O  O391  1  0.688250  0.893550  0.775080  1.0  -0.5967
  O  O392  1  0.651160  0.848520  0.820550  1.0  -0.6062
  O  O393  1  0.305030  0.242880  0.628940  1.0  -0.6219
  O  O394  1  0.236570  0.192580  0.644840  1.0  -0.6047
  O  O395  1  0.303390  0.461100  0.632830  1.0  -0.616
  O  O396  1  0.258930  0.497550  0.675320  1.0  -0.5929
  O  O397  1  0.834090  0.936400  0.815300  1.0  -0.6092
  O  O398  1  0.865910  0.847930  0.852970  1.0  -0.6207
  O  O399  1  0.183580  0.245120  0.699250  1.0  -0.6152
  O  O400  1  0.218020  0.333333  0.736010  1.0  -0.6123
  O  O401  1  0.186050  0.206340  0.091760  1.0  -0.628
  O  O402  1  0.252640  0.142980  0.082400  1.0  -0.6165
  O  O403  1  0.758360  0.844750  0.839610  1.0  -1.1321
  O  O404  1  0.311750  0.393550  0.724920  1.0  -0.5952
  O  O405  1  0.348840  0.348520  0.679450  1.0  -0.606
  O  O406  1  0.694970  0.742880  0.871060  1.0  -0.6223
  O  O407  1  0.763430  0.692580  0.855160  1.0  -0.6047
  O  O408  1  0.696610  0.961100  0.867170  1.0  -0.6151
  O  O409  1  0.741070  0.997550  0.824680  1.0  -0.5943
  O  O410  1  0.165910  0.436400  0.684700  1.0  -0.609
  O  O411  1  0.134090  0.347930  0.647030  1.0  -0.6213
  O  O412  1  0.816420  0.745120  0.800750  1.0  -0.6146
  O  O413  1  0.781980  0.833350  0.763990  1.0  -0.6136
  O  O414  1  0.813950  0.706340  0.408240  1.0  -0.6287
  O  O415  1  0.747360  0.642980  0.417600  1.0  -0.6168
  O  O416  1  0.241640  0.344750  0.660390  1.0  -1.1331
