# generated using pymatgen
data_Fe3SiH24C32O15
_symmetry_space_group_name_H-M   'P 1'
_cell_length_a   23.09000000
_cell_length_b   24.24000000
_cell_length_c   23.97000000
_cell_angle_alpha   104.27400000
_cell_angle_beta   90.00000000
_cell_angle_gamma   90.00000000
_symmetry_Int_Tables_number   1
_chemical_formula_structural   Fe3SiH24C32O15
_chemical_formula_sum   'Fe24 Si8 H192 C256 O120'
_cell_volume   13001.86333106
_cell_formula_units_Z   8
loop_
 _symmetry_equiv_pos_site_id
 _symmetry_equiv_pos_as_xyz
  1  'x, y, z'
loop_
 _atom_site_type_symbol
 _atom_site_label
 _atom_site_symmetry_multiplicity
 _atom_site_fract_x
 _atom_site_fract_y
 _atom_site_fract_z
 _atom_site_occupancy
 _atom_site_charge
  Fe  Fe1  1  0.794850  0.468100  0.238670  1.0  1.1769
  Fe  Fe2  1  0.236600  0.025230  0.698420  1.0  1.1118
  Fe  Fe3  1  0.789300  0.854830  0.342300  1.0  1.0688
  Fe  Fe4  1  0.303010  0.392060  0.227700  1.0  1.1003
  Fe  Fe5  1  0.076830  0.468580  0.746690  1.0  1.1522
  Fe  Fe6  1  0.767000  0.975610  0.439530  1.0  1.1473
  Fe  Fe7  1  0.205150  0.531900  0.761330  1.0  1.1748
  Fe  Fe8  1  0.696990  0.607940  0.772300  1.0  1.1024
  Fe  Fe9  1  0.803010  0.607940  0.272300  1.0  1.1031
  Fe  Fe10  1  0.263400  0.025230  0.198420  1.0  1.112
  Fe  Fe11  1  0.267000  0.024390  0.060470  1.0  1.1449
  Fe  Fe12  1  0.289300  0.145170  0.157700  1.0  1.0747
  Fe  Fe13  1  0.196990  0.392060  0.727700  1.0  1.0991
  Fe  Fe14  1  0.736600  0.974770  0.801580  1.0  1.1109
  Fe  Fe15  1  0.733000  0.975610  0.939530  1.0  1.1486
  Fe  Fe16  1  0.423170  0.468580  0.246690  1.0  1.1518
  Fe  Fe17  1  0.233000  0.024390  0.560470  1.0  1.1466
  Fe  Fe18  1  0.210700  0.145170  0.657700  1.0  1.0765
  Fe  Fe19  1  0.294850  0.531900  0.261330  1.0  1.1765
  Fe  Fe20  1  0.576830  0.531420  0.753310  1.0  1.1521
  Fe  Fe21  1  0.763400  0.974770  0.301580  1.0  1.1112
  Fe  Fe22  1  0.705150  0.468100  0.738670  1.0  1.1752
  Fe  Fe23  1  0.710700  0.854830  0.842300  1.0  1.0704
  Fe  Fe24  1  0.923170  0.531420  0.253310  1.0  1.1518
  Si  Si25  1  0.499000  0.761000  0.532900  1.0  1.1709
  Si  Si26  1  0.501000  0.239000  0.467100  1.0  1.1712
  Si  Si27  1  0.992600  0.749600  0.594600  1.0  1.192
  Si  Si28  1  0.999000  0.239000  0.967100  1.0  1.1713
  Si  Si29  1  0.007400  0.250400  0.405400  1.0  1.1916
  Si  Si30  1  0.507400  0.749600  0.094600  1.0  1.1922
  Si  Si31  1  0.492600  0.250400  0.905400  1.0  1.1915
  Si  Si32  1  0.001000  0.761000  0.032900  1.0  1.1709
  H  H33  1  0.548400  0.872300  0.564200  1.0  0.1162
  H  H34  1  0.899500  0.768400  0.099700  1.0  0.1086
  H  H35  1  0.058200  0.817900  0.147600  1.0  0.1179
  H  H36  1  0.700100  0.575900  0.420800  1.0  0.1931
  H  H37  1  0.200100  0.424100  0.079200  1.0  0.1901
  H  H38  1  0.972300  0.445900  0.720300  1.0  0.5021
  H  H39  1  0.159200  0.229900  0.090500  1.0  0.1182
  H  H40  1  0.459100  0.669500  0.998800  1.0  0.1191
  H  H41  1  0.169500  0.414200  0.359900  1.0  0.1655
  H  H42  1  0.071700  0.164300  0.796600  1.0  0.1458
  H  H43  1  0.957100  0.640100  0.612000  1.0  0.1196
  H  H44  1  0.859200  0.529200  0.650900  1.0  0.1712
  H  H45  1  0.448700  0.683300  0.594500  1.0  0.1194
  H  H46  1  0.355200  0.293700  0.061300  1.0  0.1234
  H  H47  1  0.993300  0.380300  0.591500  1.0  0.1173
  H  H48  1  0.626900  0.109600  0.324800  1.0  0.117
  H  H49  1  0.999600  0.428900  0.348500  1.0  0.1194
  H  H50  1  0.384800  0.899200  0.187600  1.0  0.1253
  H  H51  1  0.758800  0.044100  0.033900  1.0  0.5026
  H  H52  1  0.932100  0.897700  0.518600  1.0  0.157
  H  H53  1  0.988200  0.370500  0.846200  1.0  0.117
  H  H54  1  0.140000  0.285500  0.841000  1.0  0.12
  H  H55  1  0.110800  0.882400  0.515100  1.0  0.1222
  H  H56  1  0.042900  0.359900  0.388000  1.0  0.1184
  H  H57  1  0.340800  0.229900  0.590500  1.0  0.1186
  H  H58  1  0.011800  0.629500  0.153800  1.0  0.1166
  H  H59  1  0.728400  0.040900  0.243600  1.0  0.506
  H  H60  1  0.503200  0.423700  0.604300  1.0  0.1221
  H  H61  1  0.312900  0.475200  0.899700  1.0  0.1814
  H  H62  1  0.585200  0.832700  0.991000  1.0  0.1454
  H  H63  1  0.959100  0.330500  0.501200  1.0  0.1193
  H  H64  1  0.392200  0.741700  0.477900  1.0  0.1169
  H  H65  1  0.558100  0.900500  0.703600  1.0  0.1556
  H  H66  1  0.367100  0.091300  0.814100  1.0  0.1261
  H  H67  1  0.441800  0.817900  0.647600  1.0  0.118
  H  H68  1  0.830500  0.585800  0.640100  1.0  0.1677
  H  H69  1  0.105800  0.731900  0.636900  1.0  0.1114
  H  H70  1  0.870900  0.088900  0.987500  1.0  0.1242
  H  H71  1  0.499600  0.571100  0.151500  1.0  0.1191
  H  H72  1  0.228400  0.959100  0.256400  1.0  0.5058
  H  H73  1  0.996800  0.423700  0.104300  1.0  0.1219
  H  H74  1  0.771600  0.040900  0.743600  1.0  0.5038
  H  H75  1  0.144800  0.293700  0.561300  1.0  0.1228
  H  H76  1  0.644800  0.706300  0.938700  1.0  0.123
  H  H77  1  0.373100  0.890400  0.675200  1.0  0.1174
  H  H78  1  0.551300  0.316700  0.405500  1.0  0.1195
  H  H79  1  0.140800  0.470800  0.349100  1.0  0.1701
  H  H80  1  0.834600  0.760000  0.728800  1.0  0.1252
  H  H81  1  0.589200  0.716800  0.169600  1.0  0.1154
  H  H82  1  0.952600  0.194800  0.495200  1.0  0.1154
  H  H83  1  0.047400  0.805200  0.504800  1.0  0.1158
  H  H84  1  0.394200  0.731900  0.136900  1.0  0.111
  H  H85  1  0.939600  0.161400  0.015100  1.0  0.1217
  H  H86  1  0.414800  0.167300  0.009000  1.0  0.1446
  H  H87  1  0.867100  0.908700  0.685900  1.0  0.1266
  H  H88  1  0.085200  0.167300  0.509000  1.0  0.1445
  H  H89  1  0.000400  0.571100  0.651500  1.0  0.1187
  H  H90  1  0.914800  0.832700  0.491000  1.0  0.1455
  H  H91  1  0.640000  0.714500  0.659000  1.0  0.1197
  H  H92  1  0.606400  0.865800  0.661200  1.0  0.1444
  H  H93  1  0.558200  0.182100  0.352400  1.0  0.1177
  H  H94  1  0.039600  0.351200  0.033600  1.0  0.1215
  H  H95  1  0.889200  0.117600  0.484900  1.0  0.122
  H  H96  1  0.299900  0.424100  0.579200  1.0  0.1904
  H  H97  1  0.610600  0.756000  0.029000  1.0  0.1185
  H  H98  1  0.600500  0.768400  0.599700  1.0  0.1091
  H  H99  1  0.855200  0.706300  0.438700  1.0  0.1237
  H  H100  1  0.741200  0.044100  0.533900  1.0  0.5055
  H  H101  1  0.149100  0.662900  0.676400  1.0  0.1196
  H  H102  1  0.359200  0.470800  0.849100  1.0  0.1715
  H  H103  1  0.941900  0.900500  0.203600  1.0  0.1563
  H  H104  1  0.389200  0.882400  0.015100  1.0  0.122
  H  H105  1  0.110600  0.244000  0.471000  1.0  0.1186
  H  H106  1  0.360000  0.285500  0.341000  1.0  0.1198
  H  H107  1  0.349300  0.669100  0.407100  1.0  0.1176
  H  H108  1  0.812900  0.524800  0.600300  1.0  0.1791
  H  H109  1  0.443300  0.134600  0.873300  1.0  0.1167
  H  H110  1  0.419400  0.273600  0.556900  1.0  0.1176
  H  H111  1  0.626900  0.915900  0.530600  1.0  0.1235
  H  H112  1  0.051300  0.683300  0.094500  1.0  0.1192
  H  H113  1  0.472300  0.554100  0.779700  1.0  0.5025
  H  H114  1  0.178400  0.487700  0.106300  1.0  0.1933
  H  H115  1  0.849300  0.330900  0.092900  1.0  0.1177
  H  H116  1  0.894200  0.268100  0.363100  1.0  0.1104
  H  H117  1  0.556700  0.865400  0.126700  1.0  0.1171
  H  H118  1  0.610800  0.117600  0.984900  1.0  0.122
  H  H119  1  0.165400  0.240000  0.271200  1.0  0.1251
  H  H120  1  0.321600  0.487700  0.606300  1.0  0.1941
  H  H121  1  0.488200  0.629500  0.653800  1.0  0.1171
  H  H122  1  0.547400  0.194800  0.995200  1.0  0.115
  H  H123  1  0.056700  0.134600  0.373300  1.0  0.1166
  H  H124  1  0.150700  0.669100  0.907100  1.0  0.1176
  H  H125  1  0.928300  0.835700  0.203400  1.0  0.1462
  H  H126  1  0.893600  0.865800  0.161200  1.0  0.1447
  H  H127  1  0.356200  0.435100  0.619400  1.0  0.1854
  H  H128  1  0.951600  0.872300  0.064200  1.0  0.1165
  H  H129  1  0.260400  0.631800  0.305800  1.0  0.5046
  H  H130  1  0.551800  0.178000  0.822800  1.0  0.1185
  H  H131  1  0.511800  0.370500  0.346200  1.0  0.1171
  H  H132  1  0.373100  0.084100  0.469400  1.0  0.1233
  H  H133  1  0.350900  0.662900  0.176400  1.0  0.1199
  H  H134  1  0.649100  0.337100  0.823600  1.0  0.12
  H  H135  1  0.126900  0.890400  0.175200  1.0  0.1174
  H  H136  1  0.943300  0.865400  0.626700  1.0  0.117
  H  H137  1  0.393600  0.134200  0.338800  1.0  0.1458
  H  H138  1  0.506700  0.380300  0.091500  1.0  0.1174
  H  H139  1  0.129100  0.911100  0.012500  1.0  0.1244
  H  H140  1  0.571700  0.835700  0.703400  1.0  0.1461
  H  H141  1  0.048400  0.127700  0.935800  1.0  0.1156
  H  H142  1  0.060400  0.838600  0.984900  1.0  0.1218
  H  H143  1  0.058100  0.099500  0.796400  1.0  0.1553
  H  H144  1  0.860000  0.714500  0.159000  1.0  0.1197
  H  H145  1  0.632900  0.908700  0.185900  1.0  0.1265
  H  H146  1  0.873100  0.109600  0.824800  1.0  0.1169
  H  H147  1  0.258800  0.955900  0.466100  1.0  0.5029
  H  H148  1  0.496800  0.576300  0.395700  1.0  0.1222
  H  H149  1  0.040900  0.669500  0.498800  1.0  0.1196
  H  H150  1  0.370900  0.911100  0.512500  1.0  0.1244
  H  H151  1  0.448200  0.822000  0.177200  1.0  0.1209
  H  H152  1  0.665400  0.760000  0.228800  1.0  0.125
  H  H153  1  0.540900  0.330500  0.001200  1.0  0.1198
  H  H154  1  0.089200  0.283200  0.330400  1.0  0.117
  H  H155  1  0.006700  0.619700  0.408500  1.0  0.1172
  H  H156  1  0.539600  0.648800  0.466400  1.0  0.1221
  H  H157  1  0.957300  0.865200  0.457000  1.0  0.1555
  H  H158  1  0.493300  0.619700  0.908500  1.0  0.1171
  H  H159  1  0.457100  0.359900  0.888000  1.0  0.1192
  H  H160  1  0.948200  0.178000  0.322800  1.0  0.1186
  H  H161  1  0.910800  0.716800  0.669600  1.0  0.1166
  H  H162  1  0.067900  0.102300  0.481400  1.0  0.1567
  H  H163  1  0.410800  0.283200  0.830400  1.0  0.1172
  H  H164  1  0.330500  0.414200  0.859900  1.0  0.1664
  H  H165  1  0.629100  0.088900  0.487500  1.0  0.1245
  H  H166  1  0.271600  0.959100  0.756400  1.0  0.5037
  H  H167  1  0.884800  0.100800  0.312400  1.0  0.1248
  H  H168  1  0.919400  0.726400  0.943100  1.0  0.1175
  H  H169  1  0.659200  0.770100  0.409500  1.0  0.1182
  H  H170  1  0.960400  0.648800  0.966400  1.0  0.1227
  H  H171  1  0.500400  0.428900  0.848500  1.0  0.1196
  H  H172  1  0.873100  0.915900  0.030600  1.0  0.1234
  H  H173  1  0.669500  0.585800  0.140100  1.0  0.1671
  H  H174  1  0.441900  0.099500  0.296400  1.0  0.1552
  H  H175  1  0.027700  0.554100  0.279700  1.0  0.5013
  H  H176  1  0.457300  0.134800  0.043000  1.0  0.1551
  H  H177  1  0.334600  0.240000  0.771200  1.0  0.1252
  H  H178  1  0.542900  0.640100  0.112000  1.0  0.1188
  H  H179  1  0.560400  0.161400  0.515100  1.0  0.1211
  H  H180  1  0.580600  0.726400  0.443100  1.0  0.1201
  H  H181  1  0.439600  0.838600  0.484900  1.0  0.1221
  H  H182  1  0.428300  0.164300  0.296600  1.0  0.1463
  H  H183  1  0.850900  0.337100  0.323600  1.0  0.1203
  H  H184  1  0.856200  0.564900  0.880600  1.0  0.187
  H  H185  1  0.451600  0.127700  0.435800  1.0  0.1164
  H  H186  1  0.687100  0.524800  0.100300  1.0  0.1788
  H  H187  1  0.643800  0.564900  0.380600  1.0  0.1807
  H  H188  1  0.760400  0.368200  0.194200  1.0  0.4953
  H  H189  1  0.542700  0.865200  0.957000  1.0  0.1544
  H  H190  1  0.187100  0.475200  0.399700  1.0  0.1815
  H  H191  1  0.640800  0.529200  0.150900  1.0  0.1708
  H  H192  1  0.399500  0.231600  0.400300  1.0  0.1087
  H  H193  1  0.115200  0.899200  0.687600  1.0  0.1254
  H  H194  1  0.605800  0.268100  0.863100  1.0  0.1112
  H  H195  1  0.106400  0.134200  0.838800  1.0  0.1453
  H  H196  1  0.239600  0.631800  0.805800  1.0  0.4977
  H  H197  1  0.840800  0.770100  0.909500  1.0  0.1179
  H  H198  1  0.527700  0.445900  0.220300  1.0  0.5021
  H  H199  1  0.241200  0.955900  0.966100  1.0  0.5058
  H  H200  1  0.892200  0.258300  0.022100  1.0  0.117
  H  H201  1  0.650700  0.330900  0.592900  1.0  0.1173
  H  H202  1  0.615200  0.100800  0.812400  1.0  0.125
  H  H203  1  0.143800  0.435100  0.119400  1.0  0.1801
  H  H204  1  0.132900  0.091300  0.314100  1.0  0.1262
  H  H205  1  0.080600  0.273600  0.056900  1.0  0.1196
  H  H206  1  0.107800  0.741700  0.977900  1.0  0.1172
  H  H207  1  0.567900  0.897700  0.018600  1.0  0.1567
  H  H208  1  0.432100  0.102300  0.981400  1.0  0.1569
  H  H209  1  0.126900  0.084100  0.969400  1.0  0.1235
  H  H210  1  0.452600  0.805200  0.004800  1.0  0.1149
  H  H211  1  0.678400  0.512300  0.393700  1.0  0.1941
  H  H212  1  0.941800  0.182100  0.852400  1.0  0.1174
  H  H213  1  0.889400  0.756000  0.529000  1.0  0.1192
  H  H214  1  0.003200  0.576300  0.895700  1.0  0.122
  H  H215  1  0.739600  0.368200  0.694200  1.0  0.5034
  H  H216  1  0.100500  0.231600  0.900300  1.0  0.1098
  H  H217  1  0.948700  0.316700  0.905500  1.0  0.1193
  H  H218  1  0.389400  0.244000  0.971000  1.0  0.1185
  H  H219  1  0.799900  0.575900  0.920800  1.0  0.1924
  H  H220  1  0.821600  0.512300  0.893700  1.0  0.1941
  H  H221  1  0.042700  0.134800  0.543000  1.0  0.155
  H  H222  1  0.051800  0.822000  0.677200  1.0  0.1202
  H  H223  1  0.607800  0.258300  0.522100  1.0  0.1175
  H  H224  1  0.460400  0.351200  0.533600  1.0  0.1221
  C  C225  1  0.927400  0.163200  0.879800  1.0  -0.0218
  C  C226  1  0.134100  0.108700  0.754900  1.0  0.6054
  C  C227  1  0.921200  0.389500  0.332300  1.0  -0.1158
  C  C228  1  0.511000  0.657700  0.642800  1.0  -0.0189
  C  C229  1  0.482900  0.352600  0.067000  1.0  -0.0218
  C  C230  1  0.112000  0.665000  0.919200  1.0  -0.052
  C  C231  1  0.394500  0.566900  0.193400  1.0  0.7441
  C  C232  1  0.520900  0.731000  0.591500  1.0  -0.2863
  C  C233  1  0.072600  0.836800  0.120200  1.0  -0.0199
  C  C234  1  0.067900  0.333100  0.838000  1.0  -0.1359
  C  C235  1  0.885300  0.107800  0.960100  1.0  -0.0379
  C  C236  1  0.349600  0.152900  0.533100  1.0  -0.1359
  C  C237  1  0.095900  0.369300  0.641000  1.0  0.7521
  C  C238  1  0.572600  0.163200  0.379800  1.0  -0.0196
  C  C239  1  0.119000  0.898100  0.602300  1.0  -0.1287
  C  C240  1  0.561200  0.175700  0.958100  1.0  -0.0332
  C  C241  1  0.849600  0.847100  0.966900  1.0  -0.136
  C  C242  1  0.612000  0.335000  0.580800  1.0  -0.0514
  C  C243  1  0.577700  0.740200  0.610700  1.0  -0.0348
  C  C244  1  0.182200  0.449600  0.112900  1.0  -0.4412
  C  C245  1  0.224400  0.458600  0.319400  1.0  0.7321
  C  C246  1  0.724400  0.541400  0.180600  1.0  0.7327
  C  C247  1  0.478200  0.603700  0.148600  1.0  -0.0409
  C  C248  1  0.156300  0.161600  0.287100  1.0  -0.0971
  C  C249  1  0.898600  0.119800  0.349500  1.0  -0.085
  C  C250  1  0.398800  0.291800  0.354100  1.0  -0.033
  C  C251  1  0.524500  0.390200  0.587600  1.0  -0.0254
  C  C252  1  0.365900  0.108700  0.254900  1.0  0.6079
  C  C253  1  0.365500  0.907600  0.596400  1.0  -0.1351
  C  C254  1  0.088600  0.128400  0.800700  1.0  -0.3972
  C  C255  1  0.996100  0.644700  0.625100  1.0  -0.0559
  C  C256  1  0.975500  0.390200  0.087600  1.0  -0.0246
  C  C257  1  0.503200  0.323100  0.013400  1.0  -0.0621
  C  C258  1  0.421200  0.610500  0.167700  1.0  -0.1161
  C  C259  1  0.429100  0.148500  0.467200  1.0  -0.0382
  C  C260  1  0.817800  0.550400  0.887100  1.0  -0.4453
  C  C261  1  0.012500  0.689700  0.107600  1.0  -0.02
  C  C262  1  0.594400  0.632400  0.699800  1.0  0.7542
  C  C263  1  0.020900  0.269000  0.908500  1.0  -0.2858
  C  C264  1  0.503900  0.644700  0.125100  1.0  -0.0585
  C  C265  1  0.084400  0.699200  0.639900  1.0  -0.0584
  C  C266  1  0.076400  0.130600  0.517400  1.0  -0.3874
  C  C267  1  0.543700  0.193600  0.909900  1.0  -0.2053
  C  C268  1  0.565800  0.787100  0.142600  1.0  -0.3545
  C  C269  1  0.521800  0.396300  0.851400  1.0  -0.0406
  C  C270  1  0.027400  0.692500  0.620700  1.0  -0.3282
  C  C271  1  0.921300  0.844000  0.647400  1.0  -0.0262
  C  C272  1  0.356600  0.218600  0.791900  1.0  -0.0627
  C  C273  1  0.475500  0.609800  0.412400  1.0  -0.0255
  C  C274  1  0.942900  0.795200  0.006800  1.0  -0.1816
  C  C275  1  0.487500  0.689700  0.607600  1.0  -0.0191
  C  C276  1  0.201300  0.134800  0.243000  1.0  0.7184
  C  C277  1  0.598800  0.129800  0.952000  1.0  -0.0392
  C  C278  1  0.017100  0.352600  0.567000  1.0  -0.0226
  C  C279  1  0.869300  0.889900  0.452100  1.0  0.5138
  C  C280  1  0.432100  0.333100  0.338000  1.0  -0.1356
  C  C281  1  0.978200  0.396300  0.351400  1.0  -0.0394
  C  C282  1  0.150400  0.152900  0.033100  1.0  -0.1366
  C  C283  1  0.317800  0.449600  0.612900  1.0  -0.4425
  C  C284  1  0.423600  0.130600  0.017400  1.0  -0.3887
  C  C285  1  0.098800  0.870200  0.548000  1.0  -0.0396
  C  C286  1  0.843700  0.838400  0.712900  1.0  -0.0959
  C  C287  1  0.413200  0.271600  0.995400  1.0  -0.0272
  C  C288  1  0.619000  0.101900  0.897700  1.0  -0.1288
  C  C289  1  0.101400  0.880200  0.650500  1.0  -0.0848
  C  C290  1  0.178900  0.954600  0.110000  1.0  0.7298
  C  C291  1  0.388000  0.665000  0.419200  1.0  -0.0529
  C  C292  1  0.901900  0.755800  0.672900  1.0  -0.0302
  C  C293  1  0.605500  0.433100  0.806600  1.0  0.7435
  C  C294  1  0.063800  0.834300  0.644300  1.0  -0.0681
  C  C295  1  0.043700  0.806400  0.590100  1.0  -0.2065
  C  C296  1  0.413400  0.708100  0.461200  1.0  -0.114
  C  C297  1  0.421300  0.156000  0.852600  1.0  -0.024
  C  C298  1  0.385300  0.892200  0.539900  1.0  -0.0379
  C  C299  1  0.321100  0.954600  0.610000  1.0  0.728
  C  C300  1  0.840400  0.054700  0.386900  1.0  0.7556
  C  C301  1  0.442900  0.204800  0.493200  1.0  -0.1821
  C  C302  1  0.701300  0.865200  0.257000  1.0  0.7187
  C  C303  1  0.426100  0.849100  0.523500  1.0  -0.0603
  C  C304  1  0.030100  0.702100  0.978800  1.0  -0.2474
  C  C305  1  0.086600  0.708100  0.961200  1.0  -0.1115
  C  C306  1  0.198500  0.124800  0.058600  1.0  0.7581
  C  C307  1  0.659600  0.054700  0.886900  1.0  0.7548
  C  C308  1  0.527400  0.307500  0.879300  1.0  -0.34
  C  C309  1  0.898800  0.708200  0.145900  1.0  -0.0329
  C  C310  1  0.578800  0.389500  0.832300  1.0  -0.1162
  C  C311  1  0.073900  0.849100  0.023500  1.0  -0.0594
  C  C312  1  0.070900  0.148500  0.967200  1.0  -0.0389
  C  C313  1  0.636700  0.790800  0.440900  1.0  -0.0612
  C  C314  1  0.886600  0.120100  0.863500  1.0  -0.0437
  C  C315  1  0.469900  0.702100  0.478800  1.0  -0.2468
  C  C316  1  0.090000  0.235100  0.039100  1.0  -0.0266
  C  C317  1  0.436200  0.834300  0.144300  1.0  -0.0668
  C  C318  1  0.094400  0.367600  0.800200  1.0  0.7563
  C  C319  1  0.865900  0.891300  0.245100  1.0  0.6046
  C  C320  1  0.501000  0.653000  0.454400  1.0  -0.0469
  C  C321  1  0.892900  0.698800  0.450900  1.0  -0.0706
  C  C322  1  0.613400  0.120100  0.363500  1.0  -0.0449
  C  C323  1  0.856600  0.781400  0.708100  1.0  -0.0622
  C  C324  1  0.989000  0.657700  0.142800  1.0  -0.018
  C  C325  1  0.512500  0.310300  0.392400  1.0  -0.0199
  C  C326  1  0.136700  0.209200  0.059100  1.0  -0.061
  C  C327  1  0.404100  0.369300  0.141000  1.0  0.752
  C  C328  1  0.634500  0.092400  0.403600  1.0  -0.1349
  C  C329  1  0.876000  0.869700  0.682600  1.0  -0.0634
  C  C330  1  0.072300  0.341700  0.584900  1.0  -0.1264
  C  C331  1  0.926100  0.150900  0.976500  1.0  -0.0606
  C  C332  1  0.656300  0.838400  0.212900  1.0  -0.095
  C  C333  1  0.823700  0.545700  0.639400  1.0  -0.4505
  C  C334  1  0.143400  0.218600  0.291900  1.0  -0.063
  C  C335  1  0.389900  0.658300  0.163300  1.0  -0.0576
  C  C336  1  0.573900  0.150900  0.476500  1.0  -0.0599
  C  C337  1  0.911400  0.871600  0.199300  1.0  -0.3984
  C  C338  1  0.323700  0.454300  0.860600  1.0  -0.4497
  C  C339  1  0.563800  0.165700  0.855700  1.0  -0.0689
  C  C340  1  0.780200  0.547500  0.834900  1.0  0.678
  C  C341  1  0.472600  0.692500  0.120700  1.0  -0.3393
  C  C342  1  0.456300  0.806400  0.090100  1.0  -0.2045
  C  C343  1  0.929100  0.851500  0.032800  1.0  -0.038
  C  C344  1  0.915600  0.300800  0.360100  1.0  -0.0562
  C  C345  1  0.489000  0.342300  0.357200  1.0  -0.0172
  C  C346  1  0.077700  0.259800  0.889300  1.0  -0.0342
  C  C347  1  0.968400  0.717400  0.522400  1.0  -0.3244
  C  C348  1  0.605600  0.429300  0.654300  1.0  0.7346
  C  C349  1  0.889900  0.341700  0.336700  1.0  -0.0585
  C  C350  1  0.410000  0.235100  0.539100  1.0  -0.0276
  C  C351  1  0.438800  0.824300  0.041900  1.0  -0.0315
  C  C352  1  0.982900  0.647400  0.433000  1.0  -0.0226
  C  C353  1  0.634100  0.891300  0.745100  1.0  0.6069
  C  C354  1  0.601400  0.119800  0.849500  1.0  -0.0841
  C  C355  1  0.301500  0.124800  0.558600  1.0  0.7576
  C  C356  1  0.419000  0.615900  0.394800  1.0  -0.1134
  C  C357  1  0.590000  0.764900  0.460900  1.0  -0.0263
  C  C358  1  0.078700  0.156000  0.352600  1.0  -0.0236
  C  C359  1  0.936200  0.165700  0.355700  1.0  -0.067
  C  C360  1  0.052800  0.821400  0.063700  1.0  -0.2377
  C  C361  1  0.110100  0.658300  0.663300  1.0  -0.0555
  C  C362  1  0.598100  0.755800  0.172900  1.0  -0.0289
  C  C363  1  0.134500  0.907600  0.096400  1.0  -0.1348
  C  C364  1  0.999000  0.653000  0.954400  1.0  -0.0453
  C  C365  1  0.496100  0.355300  0.874900  1.0  -0.0567
  C  C366  1  0.557100  0.795200  0.506800  1.0  -0.183
  C  C367  1  0.343700  0.161600  0.787100  1.0  -0.097
  C  C368  1  0.398600  0.880200  0.150500  1.0  -0.0868
  C  C369  1  0.003900  0.355300  0.374900  1.0  -0.0565
  C  C370  1  0.427700  0.341700  0.084900  1.0  -0.1267
  C  C371  1  0.011000  0.342300  0.857200  1.0  -0.0184
  C  C372  1  0.003200  0.676900  0.486600  1.0  -0.0613
  C  C373  1  0.340400  0.945300  0.113100  1.0  0.7557
  C  C374  1  0.530100  0.297900  0.521200  1.0  -0.2471
  C  C375  1  0.105500  0.566900  0.693400  1.0  0.7441
  C  C376  1  0.376000  0.130300  0.817400  1.0  -0.0624
  C  C377  1  0.894500  0.433100  0.306600  1.0  0.7434
  C  C378  1  0.381000  0.898100  0.102300  1.0  -0.129
  C  C379  1  0.719800  0.547500  0.334900  1.0  0.6794
  C  C380  1  0.065800  0.212900  0.357400  1.0  -0.3548
  C  C381  1  0.386600  0.879900  0.636500  1.0  -0.0458
  C  C382  1  0.607100  0.698800  0.950900  1.0  -0.0686
  C  C383  1  0.932100  0.666900  0.162000  1.0  -0.1354
  C  C384  1  0.698500  0.875200  0.441400  1.0  0.7562
  C  C385  1  0.901200  0.129800  0.452000  1.0  -0.0411
  C  C386  1  0.567900  0.666900  0.662000  1.0  -0.1357
  C  C387  1  0.107100  0.301200  0.549100  1.0  -0.0681
  C  C388  1  0.913200  0.728400  0.504600  1.0  -0.0277
  C  C389  1  0.176300  0.454300  0.360600  1.0  -0.4517
  C  C390  1  0.382500  0.122500  0.487100  1.0  -0.0516
  C  C391  1  0.682200  0.550400  0.387100  1.0  -0.4447
  C  C392  1  0.159600  0.945300  0.613100  1.0  0.755
  C  C393  1  0.922300  0.740200  0.110700  1.0  -0.0353
  C  C394  1  0.894400  0.429300  0.154300  1.0  0.7344
  C  C395  1  0.411400  0.128400  0.300700  1.0  -0.3979
  C  C396  1  0.630700  0.889900  0.952100  1.0  0.5163
  C  C397  1  0.105600  0.570700  0.845700  1.0  0.7356
  C  C398  1  0.369300  0.110100  0.047900  1.0  0.515
  C  C399  1  0.614700  0.107800  0.460100  1.0  -0.0364
  C  C400  1  0.904100  0.630700  0.359000  1.0  0.7501
  C  C401  1  0.938800  0.175700  0.458100  1.0  -0.0337
  C  C402  1  0.113400  0.879900  0.136500  1.0  -0.0452
  C  C403  1  0.298700  0.134800  0.743000  1.0  0.7185
  C  C404  1  0.124000  0.130300  0.317400  1.0  -0.0636
  C  C405  1  0.882500  0.877500  0.012900  1.0  -0.0539
  C  C406  1  0.584400  0.300800  0.860100  1.0  -0.057
  C  C407  1  0.586800  0.728400  0.004600  1.0  -0.0274
  C  C408  1  0.595900  0.630700  0.859000  1.0  0.75
  C  C409  1  0.578700  0.844000  0.147400  1.0  -0.0252
  C  C410  1  0.947200  0.178600  0.936300  1.0  -0.234
  C  C411  1  0.572300  0.658300  0.915100  1.0  -0.1277
  C  C412  1  0.280200  0.452500  0.665100  1.0  0.6844
  C  C413  1  0.586600  0.291900  0.538800  1.0  -0.1106
  C  C414  1  0.363300  0.209200  0.559100  1.0  -0.061
  C  C415  1  0.617500  0.877500  0.512900  1.0  -0.0528
  C  C416  1  0.101200  0.291800  0.854100  1.0  -0.0321
  C  C417  1  0.798700  0.865200  0.757000  1.0  0.7187
  C  C418  1  0.927700  0.658300  0.415100  1.0  -0.1281
  C  C419  1  0.775600  0.541400  0.680600  1.0  0.7311
  C  C420  1  0.650400  0.847100  0.466900  1.0  -0.1369
  C  C421  1  0.078800  0.610500  0.667700  1.0  -0.1162
  C  C422  1  0.219800  0.452500  0.165100  1.0  0.6851
  C  C423  1  0.496800  0.676900  0.986600  1.0  -0.0592
  C  C424  1  0.905600  0.632400  0.199800  1.0  0.7534
  C  C425  1  0.499000  0.347000  0.545600  1.0  -0.0467
  C  C426  1  0.031600  0.282600  0.477600  1.0  -0.3257
  C  C427  1  0.865500  0.092400  0.903600  1.0  -0.1357
  C  C428  1  0.001000  0.347000  0.045600  1.0  -0.0477
  C  C429  1  0.275600  0.458600  0.819400  1.0  0.7307
  C  C430  1  0.479100  0.269000  0.408500  1.0  -0.2861
  C  C431  1  0.098100  0.244200  0.327100  1.0  -0.0281
  C  C432  1  0.610100  0.341700  0.836700  1.0  -0.0573
  C  C433  1  0.923600  0.869400  0.482600  1.0  -0.3882
  C  C434  1  0.910000  0.764900  0.960900  1.0  -0.026
  C  C435  1  0.422300  0.259800  0.389300  1.0  -0.0348
  C  C436  1  0.676300  0.545700  0.139400  1.0  -0.4506
  C  C437  1  0.801500  0.875200  0.941400  1.0  0.7578
  C  C438  1  0.401200  0.870200  0.048000  1.0  -0.039
  C  C439  1  0.581000  0.384100  0.605200  1.0  -0.1127
  C  C440  1  0.678900  0.045400  0.390000  1.0  0.7265
  C  C441  1  0.934200  0.787100  0.642600  1.0  -0.3487
  C  C442  1  0.888000  0.335000  0.080800  1.0  -0.0529
  C  C443  1  0.913400  0.291900  0.038800  1.0  -0.1128
  C  C444  1  0.552800  0.178600  0.436300  1.0  -0.2368
  C  C445  1  0.987500  0.310300  0.892400  1.0  -0.0211
  C  C446  1  0.024500  0.609800  0.912400  1.0  -0.0245
  C  C447  1  0.969900  0.297900  0.021200  1.0  -0.2477
  C  C448  1  0.588600  0.871600  0.699300  1.0  -0.3981
  C  C449  1  0.863300  0.790800  0.940900  1.0  -0.0598
  C  C450  1  0.057100  0.204800  0.993200  1.0  -0.1832
  C  C451  1  0.117500  0.122500  0.987100  1.0  -0.0524
  C  C452  1  0.996800  0.323100  0.513400  1.0  -0.0607
  C  C453  1  0.061200  0.824300  0.541900  1.0  -0.0328
  C  C454  1  0.576400  0.869400  0.982600  1.0  -0.3864
  C  C455  1  0.517100  0.647400  0.933000  1.0  -0.0228
  C  C456  1  0.081000  0.615900  0.894800  1.0  -0.1124
  C  C457  1  0.130700  0.110100  0.547900  1.0  0.518
  C  C458  1  0.821100  0.045400  0.890000  1.0  0.7254
  C  C459  1  0.434200  0.212900  0.857400  1.0  -0.3536
  C  C460  1  0.643400  0.781400  0.208100  1.0  -0.0613
  C  C461  1  0.624000  0.869700  0.182600  1.0  -0.0622
  C  C462  1  0.392900  0.301200  0.049100  1.0  -0.07
  C  C463  1  0.972600  0.307500  0.379300  1.0  -0.3402
  C  C464  1  0.114700  0.892200  0.039900  1.0  -0.0387
  C  C465  1  0.570900  0.851500  0.532800  1.0  -0.0387
  C  C466  1  0.979100  0.731000  0.091500  1.0  -0.2861
  C  C467  1  0.956300  0.193600  0.409900  1.0  -0.2031
  C  C468  1  0.601200  0.708200  0.645900  1.0  -0.0319
  C  C469  1  0.919000  0.384100  0.105200  1.0  -0.1124
  C  C470  1  0.401900  0.244200  0.827100  1.0  -0.0301
  C  C471  1  0.086800  0.271600  0.495400  1.0  -0.0278
  C  C472  1  0.447200  0.821400  0.563700  1.0  -0.2353
  C  C473  1  0.531600  0.717400  0.022400  1.0  -0.3242
  C  C474  1  0.394400  0.570700  0.345700  1.0  0.7357
  C  C475  1  0.405600  0.367600  0.300200  1.0  0.7547
  C  C476  1  0.468400  0.282600  0.977600  1.0  -0.3192
  C  C477  1  0.415600  0.699200  0.139900  1.0  -0.0575
  C  C478  1  0.021800  0.603700  0.648600  1.0  -0.038
  C  C479  1  0.881000  0.101900  0.397700  1.0  -0.1297
  C  C480  1  0.427400  0.836800  0.620200  1.0  -0.0211
  O  O481  1  0.229800  0.065400  0.637800  1.0  -1.0149
  O  O482  1  0.745400  0.587300  0.207600  1.0  -0.5992
  O  O483  1  0.574000  0.471100  0.796800  1.0  -0.6055
  O  O484  1  0.708200  0.914400  0.251600  1.0  -0.6103
  O  O485  1  0.857200  0.855200  0.406300  1.0  -0.621
  O  O486  1  0.067200  0.408000  0.672400  1.0  -0.6043
  O  O487  1  0.342700  0.572100  0.332300  1.0  -0.5891
  O  O488  1  0.924800  0.471000  0.176800  1.0  -0.5915
  O  O489  1  0.767800  0.843800  0.907600  1.0  -0.5964
  O  O490  1  0.567200  0.592000  0.827600  1.0  -0.6042
  O  O491  1  0.164300  0.065000  0.745300  1.0  -0.631
  O  O492  1  0.926000  0.471100  0.296800  1.0  -0.6052
  O  O493  1  0.817600  0.037500  0.338900  1.0  -0.6006
  O  O494  1  0.335700  0.065000  0.245300  1.0  -0.6305
  O  O495  1  0.642900  0.859900  0.777900  1.0  -0.6271
  O  O496  1  0.644700  0.638300  0.840800  1.0  -0.6196
  O  O497  1  0.229900  0.409200  0.182500  1.0  -0.5761
  O  O498  1  0.270200  0.065400  0.137800  1.0  -1.015
  O  O499  1  0.280100  0.151700  0.701300  1.0  -0.5923
  O  O500  1  0.656700  0.429700  0.790500  1.0  -0.5803
  O  O501  1  0.241300  0.498400  0.191800  1.0  -0.6008
  O  O502  1  0.294300  0.073500  0.535900  1.0  -0.5654
  O  O503  1  0.144300  0.358600  0.781000  1.0  -0.6157
  O  O504  1  0.432800  0.408000  0.172400  1.0  -0.6051
  O  O505  1  0.657300  0.427900  0.667700  1.0  -0.5916
  O  O506  1  0.256800  0.981400  0.263200  1.0  -0.6591
  O  O507  1  0.194600  0.970200  0.160900  1.0  -0.5867
  O  O508  1  0.753300  0.391700  0.723000  1.0  -0.6528
  O  O509  1  0.074000  0.528900  0.703200  1.0  -0.6042
  O  O510  1  0.798600  0.033000  0.932300  1.0  -0.582
  O  O511  1  0.355700  0.358600  0.281000  1.0  -0.6148
  O  O512  1  0.674800  0.038000  0.929500  1.0  -0.6103
  O  O513  1  0.664300  0.935000  0.754700  1.0  -0.6302
  O  O514  1  0.142900  0.140100  0.722100  1.0  -0.6249
  O  O515  1  0.729800  0.934600  0.862200  1.0  -1.0142
  O  O516  1  0.424800  0.529000  0.323200  1.0  -0.5899
  O  O517  1  0.258700  0.498400  0.691800  1.0  -0.5991
  O  O518  1  0.160400  0.066400  0.532300  1.0  -0.6274
  O  O519  1  0.794300  0.926500  0.964100  1.0  -0.5656
  O  O520  1  0.694600  0.029800  0.339100  1.0  -0.5884
  O  O521  1  0.652900  0.534700  0.755400  1.0  -1.0001
  O  O522  1  0.741100  0.494400  0.186300  1.0  -0.5795
  O  O523  1  0.245400  0.412700  0.292400  1.0  -0.5975
  O  O524  1  0.855300  0.638300  0.340800  1.0  -0.6192
  O  O525  1  0.682400  0.037500  0.838900  1.0  -0.6013
  O  O526  1  0.219900  0.151700  0.201300  1.0  -0.5927
  O  O527  1  0.435800  0.407700  0.293500  1.0  -0.5979
  O  O528  1  0.075200  0.529000  0.823200  1.0  -0.5892
  O  O529  1  0.780100  0.848300  0.798700  1.0  -0.5921
  O  O530  1  0.741300  0.501600  0.308200  1.0  -0.6013
  O  O531  1  0.232200  0.156200  0.092400  1.0  -0.596
  O  O532  1  0.660400  0.933600  0.967700  1.0  -0.6271
  O  O533  1  0.729900  0.590800  0.317500  1.0  -0.5767
  O  O534  1  0.746700  0.391700  0.223000  1.0  -0.6569
  O  O535  1  0.174800  0.962000  0.570500  1.0  -0.6088
  O  O536  1  0.343300  0.570300  0.209500  1.0  -0.578
  O  O537  1  0.705700  0.926500  0.464100  1.0  -0.566
  O  O538  1  0.791800  0.914400  0.751600  1.0  -0.61
  O  O539  1  0.985300  0.469200  0.749500  1.0  -0.7156
  O  O540  1  0.325200  0.962000  0.070500  1.0  -0.6087
  O  O541  1  0.835700  0.935000  0.254700  1.0  -0.6291
  O  O542  1  0.347100  0.465300  0.244600  1.0  -1.0006
  O  O543  1  0.768100  0.020000  0.527400  1.0  -0.651
  O  O544  1  0.564200  0.592300  0.706500  1.0  -0.5985
  O  O545  1  0.514700  0.469200  0.249500  1.0  -0.7123
  O  O546  1  0.231900  0.980000  0.472600  1.0  -0.6544
  O  O547  1  0.253300  0.608300  0.777000  1.0  -0.6541
  O  O548  1  0.719900  0.848300  0.298700  1.0  -0.5918
  O  O549  1  0.208200  0.085600  0.248400  1.0  -0.6095
  O  O550  1  0.805400  0.029800  0.839100  1.0  -0.588
  O  O551  1  0.014700  0.530800  0.250500  1.0  -0.7106
  O  O552  1  0.254600  0.412700  0.792400  1.0  -0.597
  O  O553  1  0.357100  0.140100  0.222100  1.0  -0.6243
  O  O554  1  0.270100  0.409200  0.682500  1.0  -0.5773
  O  O555  1  0.152900  0.465300  0.744600  1.0  -1.0001
  O  O556  1  0.339600  0.066400  0.032300  1.0  -0.6282
  O  O557  1  0.246700  0.608300  0.277000  1.0  -0.6572
  O  O558  1  0.156700  0.570300  0.709500  1.0  -0.5815
  O  O559  1  0.754600  0.587300  0.707600  1.0  -0.5991
  O  O560  1  0.305400  0.970200  0.660900  1.0  -0.5858
  O  O561  1  0.317600  0.962500  0.161100  1.0  -0.6002
  O  O562  1  0.857100  0.859900  0.277900  1.0  -0.6263
  O  O563  1  0.842700  0.427900  0.167700  1.0  -0.5887
  O  O564  1  0.732200  0.843800  0.407600  1.0  -0.5972
  O  O565  1  0.355300  0.361700  0.159200  1.0  -0.6184
  O  O566  1  0.701400  0.033000  0.432300  1.0  -0.5826
  O  O567  1  0.756800  0.018600  0.236800  1.0  -0.6609
  O  O568  1  0.426000  0.528900  0.203200  1.0  -0.6044
  O  O569  1  0.770100  0.590800  0.817500  1.0  -0.576
  O  O570  1  0.064200  0.407700  0.793500  1.0  -0.5975
  O  O571  1  0.267800  0.156200  0.592400  1.0  -0.5953
  O  O572  1  0.241100  0.505600  0.313700  1.0  -0.5794
  O  O573  1  0.843300  0.429700  0.290500  1.0  -0.5774
  O  O574  1  0.839600  0.933600  0.467700  1.0  -0.6269
  O  O575  1  0.268100  0.980000  0.972600  1.0  -0.6499
  O  O576  1  0.825200  0.038000  0.429500  1.0  -0.6101
  O  O577  1  0.731900  0.020000  0.027400  1.0  -0.6554
  O  O578  1  0.575200  0.471000  0.676800  1.0  -0.5901
  O  O579  1  0.935800  0.592300  0.206500  1.0  -0.5991
  O  O580  1  0.243200  0.981400  0.763200  1.0  -0.6616
  O  O581  1  0.932800  0.592000  0.327600  1.0  -0.6048
  O  O582  1  0.642800  0.855200  0.906300  1.0  -0.6216
  O  O583  1  0.743200  0.018600  0.736800  1.0  -0.663
  O  O584  1  0.644300  0.641400  0.719000  1.0  -0.6168
  O  O585  1  0.855700  0.641400  0.219000  1.0  -0.6152
  O  O586  1  0.182400  0.962500  0.661100  1.0  -0.6016
  O  O587  1  0.258900  0.505600  0.813700  1.0  -0.5773
  O  O588  1  0.770200  0.934600  0.362200  1.0  -1.0144
  O  O589  1  0.485300  0.530800  0.750500  1.0  -0.7142
  O  O590  1  0.758900  0.494400  0.686300  1.0  -0.5787
  O  O591  1  0.298600  0.967000  0.567700  1.0  -0.5811
  O  O592  1  0.357200  0.144800  0.093700  1.0  -0.6227
  O  O593  1  0.291800  0.085600  0.748400  1.0  -0.6099
  O  O594  1  0.758700  0.501600  0.808200  1.0  -0.5992
  O  O595  1  0.157300  0.572100  0.832300  1.0  -0.5918
  O  O596  1  0.847100  0.534700  0.255400  1.0  -1.0006
  O  O597  1  0.205700  0.073500  0.035900  1.0  -0.5657
  O  O598  1  0.144700  0.361700  0.659200  1.0  -0.6184
  O  O599  1  0.142800  0.144800  0.593700  1.0  -0.6231
  O  O600  1  0.201400  0.967000  0.067700  1.0  -0.5816
