# generated using pymatgen
data_V8FeP8H24C4(N2O23)2
_symmetry_space_group_name_H-M   'P 1'
_cell_length_a   10.15000000
_cell_length_b   14.38300000
_cell_length_c   18.35500000
_cell_angle_alpha   90.39000000
_cell_angle_beta   90.00000000
_cell_angle_gamma   90.00000000
_symmetry_Int_Tables_number   1
_chemical_formula_structural   V8FeP8H24C4(N2O23)2
_chemical_formula_sum   'V16 Fe2 P16 H48 C8 N8 O92'
_cell_volume   2679.53756897
_cell_formula_units_Z   2
loop_
 _symmetry_equiv_pos_site_id
 _symmetry_equiv_pos_as_xyz
  1  'x, y, z'
loop_
 _atom_site_type_symbol
 _atom_site_label
 _atom_site_symmetry_multiplicity
 _atom_site_fract_x
 _atom_site_fract_y
 _atom_site_fract_z
 _atom_site_occupancy
 _atom_site_charge
  V  V1  1  0.816200  0.758900  0.896000  1.0  2.0375
  V  V2  1  0.301700  0.712200  0.803500  1.0  2.0824
  V  V3  1  0.651500  0.746900  0.196600  1.0  1.896
  V  V4  1  0.138900  0.746900  0.107300  1.0  2.0843
  V  V5  1  0.316200  0.741100  0.604000  1.0  2.0215
  V  V6  1  0.801700  0.787800  0.696500  1.0  2.066
  V  V7  1  0.151500  0.753100  0.303400  1.0  1.879
  V  V8  1  0.638900  0.753100  0.392700  1.0  2.0599
  V  V9  1  0.183800  0.241100  0.104000  1.0  2.0215
  V  V10  1  0.698300  0.287800  0.196500  1.0  2.066
  V  V11  1  0.348500  0.253100  0.803400  1.0  1.8794
  V  V12  1  0.861100  0.253100  0.892700  1.0  2.0605
  V  V13  1  0.683800  0.258900  0.396000  1.0  2.0384
  V  V14  1  0.198300  0.212200  0.303500  1.0  2.0824
  V  V15  1  0.848500  0.246900  0.696600  1.0  1.8958
  V  V16  1  0.361100  0.246900  0.607300  1.0  2.0843
  Fe  Fe17  1  0.000000  0.000000  0.000000  1.0  0.7137
  Fe  Fe18  1  0.500000  0.500000  0.500000  1.0  0.7137
  P  P19  1  0.363000  0.846500  0.199000  1.0  1.7904
  P  P20  1  0.571800  0.835300  0.813300  1.0  1.7581
  P  P21  1  0.856400  0.816600  0.069300  1.0  1.7565
  P  P22  1  0.111800  0.802100  0.933600  1.0  1.7555
  P  P23  1  0.863000  0.653500  0.301000  1.0  1.7912
  P  P24  1  0.071800  0.664700  0.686700  1.0  1.7558
  P  P25  1  0.356400  0.683400  0.430700  1.0  1.7575
  P  P26  1  0.611800  0.697900  0.566400  1.0  1.7526
  P  P27  1  0.637000  0.153500  0.801000  1.0  1.7903
  P  P28  1  0.428200  0.164700  0.186700  1.0  1.7569
  P  P29  1  0.143600  0.183400  0.930700  1.0  1.7584
  P  P30  1  0.888200  0.197900  0.066400  1.0  1.7519
  P  P31  1  0.137000  0.346500  0.699000  1.0  1.789
  P  P32  1  0.928200  0.335300  0.313300  1.0  1.7584
  P  P33  1  0.643600  0.316600  0.569300  1.0  1.7572
  P  P34  1  0.388200  0.302100  0.433600  1.0  1.7549
  H  H35  1  0.386200  0.977700  0.225500  1.0  0.3533
  H  H36  1  0.496000  0.931800  0.750600  1.0  0.3733
  H  H37  1  0.886200  0.522300  0.274500  1.0  0.3533
  H  H38  1  0.996000  0.568200  0.749400  1.0  0.3701
  H  H39  1  0.613800  0.022300  0.774500  1.0  0.3528
  H  H40  1  0.504000  0.068200  0.249400  1.0  0.3726
  H  H41  1  0.113800  0.477700  0.725500  1.0  0.3528
  H  H42  1  0.004000  0.431800  0.250600  1.0  0.3756
  H  H43  1  0.680100  0.049300  0.178700  1.0  0.2024
  H  H44  1  0.731000  0.955100  0.174400  1.0  0.1972
  H  H45  1  0.806700  0.031800  0.144300  1.0  0.1863
  H  H46  1  0.824800  0.094000  0.255800  1.0  0.0792
  H  H47  1  0.757200  0.004400  0.285100  1.0  0.0701
  H  H48  1  0.925500  0.922000  0.266700  1.0  0.0783
  H  H49  1  0.970600  0.012700  0.306300  1.0  0.0653
  H  H50  1  0.026700  0.964800  0.168200  1.0  0.1844
  H  H51  1  0.119800  0.981100  0.227100  1.0  0.1894
  H  H52  1  0.049800  0.058800  0.194900  1.0  0.1964
  H  H53  1  0.180100  0.450700  0.321300  1.0  0.2011
  H  H54  1  0.231000  0.544900  0.325600  1.0  0.1986
  H  H55  1  0.306700  0.468200  0.355700  1.0  0.189
  H  H56  1  0.324800  0.406000  0.244200  1.0  0.0793
  H  H57  1  0.257200  0.495600  0.214900  1.0  0.0676
  H  H58  1  0.425500  0.578000  0.233300  1.0  0.0793
  H  H59  1  0.470600  0.487300  0.193700  1.0  0.0657
  H  H60  1  0.526700  0.535200  0.331800  1.0  0.1857
  H  H61  1  0.619800  0.518900  0.272900  1.0  0.1893
  H  H62  1  0.549800  0.441200  0.305100  1.0  0.2005
  H  H63  1  0.319900  0.950700  0.821300  1.0  0.2065
  H  H64  1  0.269000  0.044900  0.825600  1.0  0.1986
  H  H65  1  0.193300  0.968200  0.855700  1.0  0.1891
  H  H66  1  0.175200  0.906000  0.744200  1.0  0.0783
  H  H67  1  0.242800  0.995600  0.714900  1.0  0.0684
  H  H68  1  0.074500  0.078000  0.733300  1.0  0.0798
  H  H69  1  0.029400  0.987300  0.693700  1.0  0.0659
  H  H70  1  0.973300  0.035200  0.831800  1.0  0.1868
  H  H71  1  0.880200  0.018900  0.772900  1.0  0.1875
  H  H72  1  0.950200  0.941200  0.805100  1.0  0.1955
  H  H73  1  0.819900  0.549300  0.678700  1.0  0.2061
  H  H74  1  0.769000  0.455100  0.674400  1.0  0.1979
  H  H75  1  0.693300  0.531800  0.644300  1.0  0.186
  H  H76  1  0.675200  0.594000  0.755800  1.0  0.0787
  H  H77  1  0.742800  0.504400  0.785100  1.0  0.0689
  H  H78  1  0.574500  0.422000  0.766700  1.0  0.0781
  H  H79  1  0.529400  0.512700  0.806300  1.0  0.0653
  H  H80  1  0.473300  0.464800  0.668200  1.0  0.1866
  H  H81  1  0.380200  0.481100  0.727100  1.0  0.1878
  H  H82  1  0.450200  0.558800  0.694900  1.0  0.1964
  C  C83  1  0.816300  0.027500  0.247800  1.0  0.0027
  C  C84  1  0.938800  0.988300  0.260200  1.0  -0.0266
  C  C85  1  0.316300  0.472500  0.252200  1.0  0.0035
  C  C86  1  0.438800  0.511700  0.239800  1.0  -0.0305
  C  C87  1  0.183700  0.972500  0.752200  1.0  0.0029
  C  C88  1  0.061200  0.011700  0.739800  1.0  -0.0305
  C  C89  1  0.683700  0.527500  0.747800  1.0  0.0035
  C  C90  1  0.561200  0.488300  0.760200  1.0  -0.0282
  N  N91  1  0.752800  0.014700  0.180100  1.0  -0.2759
  N  N92  1  0.043900  0.999300  0.207500  1.0  -0.2464
  N  N93  1  0.252800  0.485300  0.319900  1.0  -0.276
  N  N94  1  0.543900  0.500700  0.292500  1.0  -0.2455
  N  N95  1  0.247200  0.985300  0.819900  1.0  -0.2743
  N  N96  1  0.956100  0.000700  0.792500  1.0  -0.2469
  N  N97  1  0.747200  0.514700  0.680100  1.0  -0.2738
  N  N98  1  0.456100  0.499300  0.707500  1.0  -0.2497
  O  O99  1  0.751200  0.655600  0.890500  1.0  -0.616
  O  O100  1  0.612000  0.658000  0.148500  1.0  -0.6582
  O  O101  1  0.184700  0.641100  0.113700  1.0  -0.6331
  O  O102  1  0.318300  0.610800  0.832100  1.0  -0.6355
  O  O103  1  0.293200  0.824700  0.127100  1.0  -0.833
  O  O104  1  0.511500  0.842600  0.187300  1.0  -0.8525
  O  O105  1  0.325300  0.772900  0.256500  1.0  -0.8257
  O  O106  1  0.322000  0.943100  0.225500  1.0  -0.6205
  O  O107  1  0.675500  0.847800  0.872000  1.0  -0.8263
  O  O108  1  0.627800  0.788400  0.745600  1.0  -0.8083
  O  O109  1  0.460500  0.774800  0.840000  1.0  -0.8459
  O  O110  1  0.514700  0.930600  0.794100  1.0  -0.6356
  O  O111  1  0.786000  0.803200  0.997100  1.0  -0.8404
  O  O112  1  0.946400  0.733000  0.085200  1.0  -0.7883
  O  O113  1  0.750500  0.828900  0.129100  1.0  -0.8328
  O  O114  1  0.941800  0.905500  0.071100  1.0  -0.8255
  O  O115  1  0.001100  0.730800  0.918300  1.0  -0.79
  O  O116  1  0.216600  0.793800  0.874100  1.0  -0.8429
  O  O117  1  0.174800  0.783500  0.007100  1.0  -0.8419
  O  O118  1  0.056000  0.902200  0.929600  1.0  -0.8121
  O  O119  1  0.884700  0.784000  0.794500  1.0  -0.6444
  O  O120  1  0.573800  0.718300  0.293700  1.0  -0.7004
  O  O121  1  0.825300  0.002900  0.951300  1.0  -0.4027
  O  O122  1  0.251200  0.844400  0.609500  1.0  -0.6139
  O  O123  1  0.112000  0.842000  0.351500  1.0  -0.6525
  O  O124  1  0.684700  0.858900  0.386300  1.0  -0.6317
  O  O125  1  0.818300  0.889200  0.667900  1.0  -0.6386
  O  O126  1  0.793200  0.675300  0.372900  1.0  -0.8332
  O  O127  1  0.011500  0.657400  0.312700  1.0  -0.8524
  O  O128  1  0.825300  0.727100  0.243500  1.0  -0.8244
  O  O129  1  0.822000  0.556900  0.274500  1.0  -0.6211
  O  O130  1  0.175500  0.652200  0.628000  1.0  -0.8283
  O  O131  1  0.127800  0.711600  0.754400  1.0  -0.808
  O  O132  1  0.960500  0.725200  0.660000  1.0  -0.8506
  O  O133  1  0.014700  0.569400  0.705900  1.0  -0.6382
  O  O134  1  0.286000  0.696800  0.502900  1.0  -0.8408
  O  O135  1  0.446400  0.767000  0.414800  1.0  -0.7873
  O  O136  1  0.250500  0.671100  0.370900  1.0  -0.8343
  O  O137  1  0.441800  0.594500  0.428900  1.0  -0.8262
  O  O138  1  0.501100  0.769200  0.581700  1.0  -0.7894
  O  O139  1  0.716600  0.706200  0.625900  1.0  -0.8425
  O  O140  1  0.674800  0.716500  0.492900  1.0  -0.8406
  O  O141  1  0.556000  0.597800  0.570400  1.0  -0.8146
  O  O142  1  0.384700  0.716000  0.705500  1.0  -0.6438
  O  O143  1  0.073800  0.781700  0.206300  1.0  -0.6992
  O  O144  1  0.325300  0.497100  0.548700  1.0  -0.4021
  O  O145  1  0.248800  0.344400  0.109500  1.0  -0.6139
  O  O146  1  0.388000  0.342000  0.851500  1.0  -0.6523
  O  O147  1  0.815300  0.358900  0.886300  1.0  -0.6322
  O  O148  1  0.681700  0.389200  0.167900  1.0  -0.6377
  O  O149  1  0.706800  0.175300  0.872900  1.0  -0.834
  O  O150  1  0.488500  0.157400  0.812700  1.0  -0.8511
  O  O151  1  0.674700  0.227100  0.743500  1.0  -0.8258
  O  O152  1  0.678000  0.056900  0.774500  1.0  -0.6189
  O  O153  1  0.324500  0.152200  0.128000  1.0  -0.8291
  O  O154  1  0.372200  0.211600  0.254400  1.0  -0.8079
  O  O155  1  0.539500  0.225200  0.160000  1.0  -0.8502
  O  O156  1  0.485300  0.069400  0.205900  1.0  -0.6395
  O  O157  1  0.214000  0.196800  0.002900  1.0  -0.8412
  O  O158  1  0.053600  0.267000  0.914800  1.0  -0.7867
  O  O159  1  0.249500  0.171100  0.870900  1.0  -0.8335
  O  O160  1  0.058200  0.094500  0.928900  1.0  -0.8255
  O  O161  1  0.998900  0.269200  0.081700  1.0  -0.7902
  O  O162  1  0.783400  0.206200  0.125900  1.0  -0.8431
  O  O163  1  0.825200  0.216500  0.992900  1.0  -0.8413
  O  O164  1  0.944000  0.097800  0.070400  1.0  -0.8143
  O  O165  1  0.115300  0.216000  0.205500  1.0  -0.6425
  O  O166  1  0.426200  0.281700  0.706300  1.0  -0.6997
  O  O167  1  0.174700  0.997100  0.048700  1.0  -0.4001
  O  O168  1  0.748800  0.155600  0.390500  1.0  -0.6163
  O  O169  1  0.888000  0.158000  0.648500  1.0  -0.6577
  O  O170  1  0.315300  0.141100  0.613700  1.0  -0.6331
  O  O171  1  0.181700  0.110800  0.332100  1.0  -0.6353
  O  O172  1  0.206800  0.324700  0.627100  1.0  -0.8331
  O  O173  1  0.988500  0.342600  0.687300  1.0  -0.8517
  O  O174  1  0.174700  0.272900  0.756500  1.0  -0.8239
  O  O175  1  0.178000  0.443100  0.725500  1.0  -0.6176
  O  O176  1  0.824500  0.347800  0.372000  1.0  -0.8253
  O  O177  1  0.872200  0.288400  0.245600  1.0  -0.8083
  O  O178  1  0.039500  0.274800  0.340000  1.0  -0.8456
  O  O179  1  0.985300  0.430600  0.294100  1.0  -0.637
  O  O180  1  0.714000  0.303200  0.497100  1.0  -0.8408
  O  O181  1  0.553600  0.233000  0.585200  1.0  -0.7872
  O  O182  1  0.749500  0.328900  0.629100  1.0  -0.833
  O  O183  1  0.558200  0.405500  0.571100  1.0  -0.8259
  O  O184  1  0.498900  0.230800  0.418300  1.0  -0.7899
  O  O185  1  0.283400  0.293800  0.374100  1.0  -0.8451
  O  O186  1  0.325200  0.283500  0.507100  1.0  -0.8424
  O  O187  1  0.444000  0.402200  0.429600  1.0  -0.8119
  O  O188  1  0.615300  0.284000  0.294500  1.0  -0.6432
  O  O189  1  0.926200  0.218300  0.793700  1.0  -0.7011
  O  O190  1  0.674700  0.502900  0.451300  1.0  -0.4005
