# generated using pymatgen
data_FeH10C18O5
_symmetry_space_group_name_H-M   'P 1'
_cell_length_a   18.37500000
_cell_length_b   24.68800000
_cell_length_c   35.25700000
_cell_angle_alpha   90.34500000
_cell_angle_beta   90.00000000
_cell_angle_gamma   90.00000000
_symmetry_Int_Tables_number   1
_chemical_formula_structural   FeH10C18O5
_chemical_formula_sum   'Fe12 H120 C216 O60'
_cell_volume   15993.76604593
_cell_formula_units_Z   12
loop_
 _symmetry_equiv_pos_site_id
 _symmetry_equiv_pos_as_xyz
  1  'x, y, z'
loop_
 _atom_site_type_symbol
 _atom_site_label
 _atom_site_symmetry_multiplicity
 _atom_site_fract_x
 _atom_site_fract_y
 _atom_site_fract_z
 _atom_site_occupancy
 _atom_site_charge
  Fe  Fe1  1  0.340490  0.828190  0.891280  1.0  1.1775
  Fe  Fe2  1  0.765920  0.293040  0.621370  1.0  1.2587
  Fe  Fe3  1  0.904550  0.254340  0.674610  1.0  1.2902
  Fe  Fe4  1  0.404550  0.745660  0.825390  1.0  1.2904
  Fe  Fe5  1  0.840490  0.171810  0.608720  1.0  1.1764
  Fe  Fe6  1  0.234080  0.706960  0.378630  1.0  1.2536
  Fe  Fe7  1  0.595450  0.254340  0.174610  1.0  1.2907
  Fe  Fe8  1  0.734080  0.293040  0.121370  1.0  1.2547
  Fe  Fe9  1  0.159510  0.828190  0.391280  1.0  1.1777
  Fe  Fe10  1  0.095450  0.745660  0.325390  1.0  1.2932
  Fe  Fe11  1  0.659510  0.171810  0.108720  1.0  1.1766
  Fe  Fe12  1  0.265920  0.706960  0.878630  1.0  1.2579
  H  H13  1  0.289600  0.954900  0.809500  1.0  0.1077
  H  H14  1  0.565000  0.356100  0.767200  1.0  0.1099
  H  H15  1  0.411400  0.927800  0.694500  1.0  0.12
  H  H16  1  0.436300  0.750700  0.067800  1.0  0.1158
  H  H17  1  0.781600  0.979900  0.738900  1.0  0.1211
  H  H18  1  0.323100  0.645000  0.974500  1.0  0.1144
  H  H19  1  0.081000  0.863000  0.242700  1.0  0.1093
  H  H20  1  0.784100  0.004600  0.296800  1.0  0.3961
  H  H21  1  0.536800  0.044700  0.635300  1.0  0.1152
  H  H22  1  0.571800  0.514700  0.836300  1.0  0.1214
  H  H23  1  0.591200  0.537300  0.096500  1.0  0.1136
  H  H24  1  0.718400  0.979900  0.238900  1.0  0.1211
  H  H25  1  0.071800  0.485300  0.663700  1.0  0.1211
  H  H26  1  0.581000  0.137000  0.257300  1.0  0.1102
  H  H27  1  0.448000  0.765800  0.367700  1.0  0.118
  H  H28  1  0.453600  0.029900  0.688800  1.0  0.121
  H  H29  1  0.101400  0.789800  0.511200  1.0  0.1116
  H  H30  1  0.763500  0.316300  0.332900  1.0  0.1115
  H  H31  1  0.935000  0.356100  0.267200  1.0  0.111
  H  H32  1  0.065000  0.643900  0.732800  1.0  0.1105
  H  H33  1  0.419000  0.863000  0.742700  1.0  0.1098
  H  H34  1  0.131700  0.664400  0.786400  1.0  0.1123
  H  H35  1  0.601400  0.210200  0.988800  1.0  0.1105
  H  H36  1  0.558600  0.808300  0.353000  1.0  0.1152
  H  H37  1  0.088600  0.927800  0.194500  1.0  0.1196
  H  H38  1  0.875900  0.768300  0.349500  1.0  0.1154
  H  H39  1  0.514200  0.598800  0.831000  1.0  0.1104
  H  H40  1  0.440800  0.575200  0.183700  1.0  0.1089
  H  H41  1  0.215900  0.995400  0.703200  1.0  0.3937
  H  H42  1  0.823100  0.355000  0.525500  1.0  0.1149
  H  H43  1  0.656000  0.953000  0.875500  1.0  0.1181
  H  H44  1  0.588600  0.072200  0.305500  1.0  0.1198
  H  H45  1  0.803600  0.293400  0.778800  1.0  0.1181
  H  H46  1  0.919000  0.137000  0.757300  1.0  0.1099
  H  H47  1  0.715900  0.004600  0.796800  1.0  0.3929
  H  H48  1  0.898600  0.210200  0.488800  1.0  0.1117
  H  H49  1  0.176900  0.645000  0.474500  1.0  0.115
  H  H50  1  0.853300  0.086900  0.119200  1.0  0.1145
  H  H51  1  0.485800  0.401200  0.169000  1.0  0.1106
  H  H52  1  0.940800  0.424800  0.316300  1.0  0.1084
  H  H53  1  0.941400  0.808300  0.853000  1.0  0.1148
  H  H54  1  0.463200  0.955300  0.364700  1.0  0.1154
  H  H55  1  0.063700  0.750700  0.567800  1.0  0.1212
  H  H56  1  0.631700  0.335600  0.713600  1.0  0.1091
  H  H57  1  0.736500  0.316300  0.832900  1.0  0.1116
  H  H58  1  0.985800  0.598800  0.331000  1.0  0.1102
  H  H59  1  0.908800  0.537300  0.596500  1.0  0.1138
  H  H60  1  0.141000  0.701000  0.624400  1.0  0.1188
  H  H61  1  0.368300  0.664400  0.286400  1.0  0.1084
  H  H62  1  0.526800  0.450300  0.943800  1.0  0.4019
  H  H63  1  0.156000  0.047000  0.624500  1.0  0.1181
  H  H64  1  0.473200  0.549700  0.056200  1.0  0.3999
  H  H65  1  0.973200  0.450300  0.443800  1.0  0.4016
  H  H66  1  0.359000  0.701000  0.124400  1.0  0.1187
  H  H67  1  0.624100  0.768300  0.849500  1.0  0.1157
  H  H68  1  0.696400  0.293400  0.278800  1.0  0.118
  H  H69  1  0.646700  0.086900  0.619200  1.0  0.1143
  H  H70  1  0.963200  0.044700  0.135300  1.0  0.1146
  H  H71  1  0.408800  0.462700  0.903500  1.0  0.1137
  H  H72  1  0.036800  0.955300  0.864700  1.0  0.1148
  H  H73  1  0.844000  0.953000  0.375500  1.0  0.1181
  H  H74  1  0.868300  0.335600  0.213600  1.0  0.1126
  H  H75  1  0.563700  0.249300  0.932200  1.0  0.116
  H  H76  1  0.281600  0.020100  0.761100  1.0  0.1211
  H  H77  1  0.139300  0.605800  0.531400  1.0  0.1103
  H  H78  1  0.124100  0.231700  0.650500  1.0  0.1158
  H  H79  1  0.026800  0.549700  0.556200  1.0  0.4004
  H  H80  1  0.046400  0.029900  0.188800  1.0  0.1219
  H  H81  1  0.263500  0.683700  0.167100  1.0  0.1116
  H  H82  1  0.398600  0.789800  0.011200  1.0  0.1108
  H  H83  1  0.911400  0.072200  0.805500  1.0  0.1193
  H  H84  1  0.375900  0.231700  0.150500  1.0  0.1155
  H  H85  1  0.639300  0.394200  0.968600  1.0  0.1112
  H  H86  1  0.043700  0.088800  0.612300  1.0  0.112
  H  H87  1  0.146700  0.913100  0.880800  1.0  0.1156
  H  H88  1  0.860700  0.394200  0.468600  1.0  0.1102
  H  H89  1  0.710400  0.045100  0.190500  1.0  0.1081
  H  H90  1  0.052000  0.765800  0.867700  1.0  0.1175
  H  H91  1  0.236500  0.683700  0.667100  1.0  0.1112
  H  H92  1  0.641000  0.299000  0.875600  1.0  0.1192
  H  H93  1  0.014200  0.401200  0.669000  1.0  0.1102
  H  H94  1  0.344000  0.047000  0.124500  1.0  0.118
  H  H95  1  0.158600  0.140300  0.126900  1.0  0.1188
  H  H96  1  0.352200  0.546800  0.899100  1.0  0.1114
  H  H97  1  0.091200  0.462700  0.403500  1.0  0.1142
  H  H98  1  0.353300  0.913100  0.380800  1.0  0.1152
  H  H99  1  0.559200  0.424800  0.816300  1.0  0.1086
  H  H100  1  0.236700  0.190400  0.661400  1.0  0.1155
  H  H101  1  0.456300  0.088800  0.112300  1.0  0.1121
  H  H102  1  0.441400  0.191700  0.647000  1.0  0.1152
  H  H103  1  0.841400  0.859700  0.873100  1.0  0.1199
  H  H104  1  0.360700  0.605800  0.031400  1.0  0.1117
  H  H105  1  0.676900  0.355000  0.025500  1.0  0.1143
  H  H106  1  0.552000  0.234200  0.632300  1.0  0.118
  H  H107  1  0.059200  0.575200  0.683700  1.0  0.1084
  H  H108  1  0.428200  0.485300  0.163700  1.0  0.1217
  H  H109  1  0.647800  0.453200  0.100900  1.0  0.1111
  H  H110  1  0.852200  0.453200  0.600900  1.0  0.1107
  H  H111  1  0.058600  0.191700  0.147000  1.0  0.1151
  H  H112  1  0.789600  0.045100  0.690500  1.0  0.109
  H  H113  1  0.341400  0.140300  0.626900  1.0  0.1178
  H  H114  1  0.948000  0.234200  0.132300  1.0  0.118
  H  H115  1  0.736700  0.809600  0.838600  1.0  0.1151
  H  H116  1  0.936300  0.249300  0.432200  1.0  0.1213
  H  H117  1  0.763300  0.809600  0.338600  1.0  0.1154
  H  H118  1  0.218400  0.020100  0.261100  1.0  0.1203
  H  H119  1  0.196400  0.706600  0.221200  1.0  0.1189
  H  H120  1  0.303600  0.706600  0.721200  1.0  0.1188
  H  H121  1  0.147800  0.546800  0.399100  1.0  0.1114
  H  H122  1  0.658600  0.859700  0.373100  1.0  0.1189
  H  H123  1  0.435000  0.643900  0.232800  1.0  0.1101
  H  H124  1  0.284100  0.995400  0.203200  1.0  0.3953
  H  H125  1  0.263300  0.190400  0.161400  1.0  0.1161
  H  H126  1  0.546400  0.970100  0.311200  1.0  0.121
  H  H127  1  0.956300  0.911200  0.387700  1.0  0.1126
  H  H128  1  0.953600  0.970100  0.811200  1.0  0.1211
  H  H129  1  0.928200  0.514700  0.336300  1.0  0.1218
  H  H130  1  0.859000  0.299000  0.375600  1.0  0.119
  H  H131  1  0.210400  0.954900  0.309500  1.0  0.1088
  H  H132  1  0.543700  0.911200  0.887700  1.0  0.1131
  C  C133  1  0.886280  0.343910  0.269830  1.0  -0.1407
  C  C134  1  0.890800  0.247770  0.484760  1.0  -0.047
  C  C135  1  0.223290  0.089190  0.156770  1.0  -0.0158
  C  C136  1  0.136740  0.861880  0.311350  1.0  0.7172
  C  C137  1  0.714920  0.320110  0.808570  1.0  -0.1299
  C  C138  1  0.197240  0.169560  0.651800  1.0  -0.1345
  C  C139  1  0.154010  0.666520  0.493440  1.0  -0.0561
  C  C140  1  0.830280  0.253300  0.548180  1.0  0.7394
  C  C141  1  0.516910  0.829690  0.358520  1.0  -0.1248
  C  C142  1  0.631510  0.356650  0.972690  1.0  -0.1287
  C  C143  1  0.395000  0.891860  0.375050  1.0  -0.0534
  C  C144  1  0.542200  0.399000  0.905710  1.0  0.232
  C  C145  1  0.276710  0.089190  0.656770  1.0  -0.0161
  C  C146  1  0.908720  0.955010  0.819330  1.0  -0.087
  C  C147  1  0.658100  0.889500  0.356100  1.0  -0.1305
  C  C148  1  0.504510  0.519120  0.129200  1.0  0.0929
  C  C149  1  0.390800  0.752230  0.015240  1.0  -0.045
  C  C150  1  0.605000  0.108140  0.624950  1.0  -0.0533
  C  C151  1  0.814570  0.050630  0.713750  1.0  -0.0281
  C  C152  1  0.857390  0.278310  0.512450  1.0  -0.1438
  C  C153  1  0.466900  0.572920  0.128300  1.0  0.0282
  C  C154  1  0.266500  0.700730  0.793330  1.0  0.7182
  C  C155  1  0.886430  0.331590  0.374600  1.0  -0.1292
  C  C156  1  0.492640  0.571210  0.845920  1.0  -0.0435
  C  C157  1  0.613570  0.331590  0.874600  1.0  -0.1267
  C  C158  1  0.539350  0.083070  0.634350  1.0  -0.1074
  C  C159  1  0.394850  0.641810  0.160020  1.0  0.0339
  C  C160  1  0.417210  0.109390  0.122570  1.0  -0.0445
  C  C161  1  0.766500  0.299270  0.706670  1.0  0.7186
  C  C162  1  0.346800  0.668690  0.262060  1.0  -0.0517
  C  C163  1  0.608740  0.104980  0.253460  1.0  -0.0363
  C  C164  1  0.222450  0.045750  0.181910  1.0  0.2615
  C  C165  1  0.564800  0.406120  0.839550  1.0  -0.1631
  C  C166  1  0.654390  0.019810  0.276540  1.0  0.0222
  C  C167  1  0.850290  0.915470  0.370230  1.0  -0.1096
  C  C168  1  0.341900  0.110500  0.643900  1.0  -0.1315
  C  C169  1  0.356500  0.660770  0.194130  1.0  0.0186
  C  C170  1  0.369280  0.194240  0.145130  1.0  -0.0624
  C  C171  1  0.149710  0.084530  0.629770  1.0  -0.1102
  C  C172  1  0.391980  0.635810  0.862580  1.0  0.7382
  C  C173  1  0.157170  0.023450  0.193810  1.0  -0.0767
  C  C174  1  0.004510  0.480880  0.370800  1.0  0.093
  C  C175  1  0.809720  0.011740  0.742700  1.0  -0.1316
  C  C176  1  0.154390  0.980190  0.223460  1.0  0.0223
  C  C177  1  0.408320  0.088760  0.655550  1.0  0.0411
  C  C178  1  0.391140  0.835780  0.375970  1.0  -0.1343
  C  C179  1  0.016910  0.170310  0.141480  1.0  -0.1233
  C  C180  1  0.572770  0.418710  0.135600  1.0  -0.1497
  C  C181  1  0.072770  0.581290  0.364400  1.0  -0.1497
  C  C182  1  0.391260  0.895020  0.746540  1.0  -0.0365
  C  C183  1  0.895000  0.108140  0.124950  1.0  -0.0572
  C  C184  1  0.158100  0.110500  0.143900  1.0  -0.1315
  C  C185  1  0.435200  0.593880  0.160450  1.0  -0.1639
  C  C186  1  0.908320  0.911240  0.844450  1.0  0.0411
  C  C187  1  0.657170  0.976550  0.306190  1.0  -0.0761
  C  C188  1  0.669720  0.253300  0.048180  1.0  0.7369
  C  C189  1  0.457800  0.601000  0.094290  1.0  0.2371
  C  C190  1  0.022140  0.113690  0.142370  1.0  0.0417
  C  C191  1  0.401800  0.673970  0.054990  1.0  0.0382
  C  C192  1  0.342830  0.023450  0.693810  1.0  -0.0772
  C  C193  1  0.082790  0.109390  0.622570  1.0  -0.0437
  C  C194  1  0.048740  0.804200  0.867450  1.0  -0.0607
  C  C195  1  0.894850  0.358190  0.339980  1.0  0.0337
  C  C196  1  0.573540  0.836760  0.869650  1.0  -0.1124
  C  C197  1  0.108860  0.835780  0.875970  1.0  -0.1306
  C  C198  1  0.863260  0.138120  0.688650  1.0  0.7167
  C  C199  1  0.451260  0.804200  0.367450  1.0  -0.0588
  C  C200  1  0.144500  0.903330  0.280840  1.0  -0.1235
  C  C201  1  0.598200  0.326030  0.945010  1.0  0.038
  C  C202  1  0.935200  0.406120  0.339550  1.0  -0.1638
  C  C203  1  0.064800  0.593880  0.660450  1.0  -0.1637
  C  C204  1  0.527010  0.521160  0.849040  1.0  -0.1452
  C  C205  1  0.109200  0.752230  0.515240  1.0  -0.0461
  C  C206  1  0.603330  0.459500  0.113910  1.0  -0.0551
  C  C207  1  0.654010  0.333480  0.006560  1.0  -0.0563
  C  C208  1  0.608020  0.364190  0.137420  1.0  0.7377
  C  C209  1  0.643500  0.339230  0.805870  1.0  0.0192
  C  C210  1  0.285080  0.679890  0.191430  1.0  -0.1316
  C  C211  1  0.293100  0.114500  0.144540  1.0  0.055
  C  C212  1  0.548740  0.195800  0.632550  1.0  -0.0604
  C  C213  1  0.690280  0.011740  0.242700  1.0  -0.1308
  C  C214  1  0.886650  0.066550  0.782200  1.0  -0.1487
  C  C215  1  0.350290  0.084530  0.129770  1.0  -0.1101
  C  C216  1  0.483090  0.170310  0.641480  1.0  -0.1245
  C  C217  1  0.569340  0.509480  0.111090  1.0  -0.1064
  C  C218  1  0.999280  0.189400  0.628590  1.0  0.7204
  C  C219  1  0.723290  0.910810  0.343230  1.0  -0.0159
  C  C220  1  0.842830  0.976550  0.806190  1.0  -0.0764
  C  C221  1  0.649710  0.915470  0.870230  1.0  -0.1095
  C  C222  1  0.777550  0.954250  0.818090  1.0  0.2551
  C  C223  1  0.190280  0.988260  0.257300  1.0  -0.1304
  C  C224  1  0.591680  0.911240  0.344450  1.0  0.0411
  C  C225  1  0.302760  0.169560  0.151800  1.0  -0.1366
  C  C226  1  0.613720  0.343910  0.769830  1.0  -0.142
  C  C227  1  0.495490  0.480880  0.870800  1.0  0.0923
  C  C228  1  0.891140  0.164220  0.124030  1.0  -0.1308
  C  C229  1  0.007360  0.571210  0.345920  1.0  -0.0437
  C  C230  1  0.930660  0.509480  0.611090  1.0  -0.1073
  C  C231  1  0.255190  0.693450  0.723560  1.0  -0.0553
  C  C232  1  0.427230  0.581290  0.864400  1.0  -0.1502
  C  C233  1  0.913220  0.270890  0.451090  1.0  -0.1357
  C  C234  1  0.472990  0.478840  0.150960  1.0  -0.1494
  C  C235  1  0.706900  0.885500  0.855460  1.0  0.0545
  C  C236  1  0.417480  0.647920  0.092750  1.0  -0.0571
  C  C237  1  0.723800  0.312420  0.740730  1.0  -0.1285
  C  C238  1  0.582790  0.890610  0.877430  1.0  -0.0439
  C  C239  1  0.977860  0.886310  0.857630  1.0  0.042
  C  C240  1  0.855500  0.096670  0.719160  1.0  -0.1234
  C  C241  1  0.355500  0.903330  0.780840  1.0  -0.1234
  C  C242  1  0.636740  0.138120  0.188650  1.0  0.717
  C  C243  1  0.642610  0.278310  0.012450  1.0  -0.1376
  C  C244  1  0.113570  0.668410  0.625400  1.0  -0.1303
  C  C245  1  0.793100  0.885500  0.355460  1.0  0.0552
  C  C246  1  0.244810  0.693450  0.223560  1.0  -0.0572
  C  C247  1  0.098200  0.673970  0.554990  1.0  0.0377
  C  C248  1  0.605150  0.358190  0.839980  1.0  0.0337
  C  C249  1  0.386430  0.668410  0.125400  1.0  -0.1303
  C  C250  1  0.185430  0.949370  0.286250  1.0  -0.0278
  C  C251  1  0.586780  0.270890  0.951090  1.0  -0.1362
  C  C252  1  0.679000  0.191360  0.615170  1.0  0.742
  C  C253  1  0.869280  0.805760  0.354870  1.0  -0.0618
  C  C254  1  0.960650  0.083070  0.134350  1.0  -0.1078
  C  C255  1  0.039350  0.916930  0.865650  1.0  -0.1072
  C  C256  1  0.179000  0.808640  0.884830  1.0  0.7349
  C  C257  1  0.856500  0.339230  0.305870  1.0  0.0192
  C  C258  1  0.917210  0.890610  0.377430  1.0  -0.0421
  C  C259  1  0.130720  0.194240  0.645130  1.0  -0.0628
  C  C260  1  0.108020  0.635810  0.362580  1.0  0.7381
  C  C261  1  0.330280  0.746700  0.951820  1.0  0.7336
  C  C262  1  0.755190  0.306550  0.776440  1.0  -0.0555
  C  C263  1  0.426460  0.163240  0.130350  1.0  -0.1125
  C  C264  1  0.082520  0.647920  0.592750  1.0  -0.0554
  C  C265  1  0.697240  0.830440  0.848200  1.0  -0.1347
  C  C266  1  0.917480  0.352080  0.407250  1.0  -0.0556
  C  C267  1  0.314570  0.949370  0.786250  1.0  -0.0281
  C  C268  1  0.386280  0.656090  0.230170  1.0  -0.141
  C  C269  1  0.276200  0.687580  0.259270  1.0  -0.1283
  C  C270  1  0.722450  0.954250  0.318090  1.0  0.2596
  C  C271  1  0.153200  0.668690  0.762060  1.0  -0.053
  C  C272  1  0.644500  0.096670  0.219160  1.0  -0.1236
  C  C273  1  0.460650  0.916930  0.365650  1.0  -0.1076
  C  C274  1  0.744810  0.306550  0.276440  1.0  -0.0576
  C  C275  1  0.143500  0.660770  0.694130  1.0  0.0186
  C  C276  1  0.321000  0.808640  0.384830  1.0  0.7438
  C  C277  1  0.105000  0.891860  0.875050  1.0  -0.0558
  C  C278  1  0.785080  0.320110  0.308570  1.0  -0.1309
  C  C279  1  0.499280  0.810600  0.871410  1.0  0.72
  C  C280  1  0.113720  0.656090  0.730170  1.0  -0.1422
  C  C281  1  0.277550  0.045750  0.681910  1.0  0.2584
  C  C282  1  0.233500  0.700730  0.293330  1.0  0.7189
  C  C283  1  0.966900  0.427080  0.371700  1.0  0.0285
  C  C284  1  0.846800  0.331310  0.237940  1.0  -0.0552
  C  C285  1  0.169720  0.746700  0.451820  1.0  0.738
  C  C286  1  0.821000  0.191360  0.115170  1.0  0.7364
  C  C287  1  0.027010  0.478840  0.650960  1.0  -0.1461
  C  C288  1  0.891260  0.104980  0.753460  1.0  -0.0354
  C  C289  1  0.841900  0.889500  0.856100  1.0  -0.1261
  C  C290  1  0.033100  0.572920  0.628300  1.0  0.0274
  C  C291  1  0.363260  0.861880  0.811350  1.0  0.717
  C  C292  1  0.896670  0.459500  0.613910  1.0  -0.0549
  C  C293  1  0.630720  0.805760  0.854870  1.0  -0.0632
  C  C294  1  0.776710  0.910810  0.843230  1.0  -0.0158
  C  C295  1  0.500720  0.189400  0.128590  1.0  0.7204
  C  C296  1  0.368490  0.643350  0.027310  1.0  -0.1279
  C  C297  1  0.927230  0.418710  0.635600  1.0  -0.1504
  C  C298  1  0.868490  0.356650  0.472690  1.0  -0.1293
  C  C299  1  0.309720  0.988260  0.757300  1.0  -0.1326
  C  C300  1  0.214920  0.679890  0.691430  1.0  -0.1311
  C  C301  1  0.357390  0.721690  0.987550  1.0  -0.1368
  C  C302  1  0.591280  0.955010  0.319330  1.0  -0.0871
  C  C303  1  0.901800  0.326030  0.445010  1.0  0.0386
  C  C304  1  0.206900  0.114500  0.644540  1.0  0.0542
  C  C305  1  0.477860  0.113690  0.642370  1.0  0.0417
  C  C306  1  0.091680  0.088760  0.155550  1.0  0.0411
  C  C307  1  0.972990  0.521160  0.349040  1.0  -0.149
  C  C308  1  0.802760  0.830440  0.348200  1.0  -0.134
  C  C309  1  0.951260  0.195800  0.132550  1.0  -0.0596
  C  C310  1  0.223800  0.687580  0.759270  1.0  -0.1282
  C  C311  1  0.733500  0.299270  0.206670  1.0  0.7194
  C  C312  1  0.091280  0.044990  0.180670  1.0  -0.0864
  C  C313  1  0.042200  0.601000  0.594290  1.0  0.231
  C  C314  1  0.086780  0.729110  0.548910  1.0  -0.1382
  C  C315  1  0.582520  0.352080  0.907250  1.0  -0.0587
  C  C316  1  0.992640  0.428790  0.654080  1.0  -0.0419
  C  C317  1  0.142610  0.721690  0.487550  1.0  -0.1428
  C  C318  1  0.845990  0.333480  0.506560  1.0  -0.0566
  C  C319  1  0.000720  0.810600  0.371410  1.0  0.7194
  C  C320  1  0.073540  0.163240  0.630350  1.0  -0.1127
  C  C321  1  0.609200  0.247770  0.984760  1.0  -0.0474
  C  C322  1  0.386650  0.933450  0.717800  1.0  -0.1492
  C  C323  1  0.613350  0.066550  0.282200  1.0  -0.1499
  C  C324  1  0.685430  0.050630  0.213750  1.0  -0.0292
  C  C325  1  0.105150  0.641810  0.660020  1.0  0.0338
  C  C326  1  0.533100  0.427080  0.871700  1.0  0.0278
  C  C327  1  0.608860  0.164220  0.624030  1.0  -0.1332
  C  C328  1  0.891980  0.364190  0.637420  1.0  0.7377
  C  C329  1  0.983090  0.829690  0.858520  1.0  -0.1236
  C  C330  1  0.845610  0.019810  0.776540  1.0  0.0224
  C  C331  1  0.926460  0.836760  0.369650  1.0  -0.1121
  C  C332  1  0.653200  0.331310  0.737940  1.0  -0.0535
  C  C333  1  0.103330  0.540500  0.386090  1.0  -0.0545
  C  C334  1  0.108740  0.895020  0.246540  1.0  -0.0356
  C  C335  1  0.522140  0.886310  0.357630  1.0  0.042
  C  C336  1  0.345990  0.666520  0.993440  1.0  -0.0561
  C  C337  1  0.413220  0.729110  0.048910  1.0  -0.1377
  C  C338  1  0.131510  0.643350  0.527310  1.0  -0.1276
  C  C339  1  0.957800  0.399000  0.405710  1.0  0.232
  C  C340  1  0.995490  0.519120  0.629200  1.0  0.0923
  C  C341  1  0.776200  0.312420  0.240730  1.0  -0.1286
  C  C342  1  0.396670  0.540500  0.886090  1.0  -0.056
  C  C343  1  0.069340  0.490520  0.388910  1.0  -0.1066
  C  C344  1  0.408720  0.044990  0.680670  1.0  -0.0865
  C  C345  1  0.507360  0.428790  0.154080  1.0  -0.0425
  C  C346  1  0.113350  0.933450  0.217800  1.0  -0.1493
  C  C347  1  0.430660  0.490520  0.888910  1.0  -0.1077
  C  C348  1  0.345610  0.980190  0.723460  1.0  0.0223
  O  O349  1  0.835920  0.238180  0.634710  1.0  -1.1
  O  O350  1  0.450840  0.838510  0.887900  1.0  -0.6207
  O  O351  1  0.098030  0.821530  0.304840  1.0  -0.5907
  O  O352  1  0.164080  0.761820  0.365290  1.0  -1.1
  O  O353  1  0.992100  0.420320  0.438130  1.0  -0.5378
  O  O354  1  0.507900  0.420320  0.938130  1.0  -0.5354
  O  O355  1  0.318350  0.758250  0.377830  1.0  -0.6187
  O  O356  1  0.818350  0.241750  0.122170  1.0  -0.6184
  O  O357  1  0.509430  0.234570  0.142930  1.0  -0.582
  O  O358  1  0.335920  0.761820  0.865290  1.0  -1.0999
  O  O359  1  0.258570  0.687480  0.325420  1.0  -0.6247
  O  O360  1  0.950840  0.161490  0.612100  1.0  -0.6219
  O  O361  1  0.855220  0.208480  0.557830  1.0  -0.5929
  O  O362  1  0.420700  0.667960  0.838690  1.0  -0.6261
  O  O363  1  0.268300  0.836110  0.396020  1.0  -0.6093
  O  O364  1  0.681650  0.241750  0.622170  1.0  -0.6191
  O  O365  1  0.668800  0.128190  0.157950  1.0  -0.5886
  O  O366  1  0.009430  0.765430  0.357070  1.0  -0.5819
  O  O367  1  0.289320  0.026420  0.193930  1.0  -0.4833
  O  O368  1  0.231700  0.836110  0.896020  1.0  -0.6096
  O  O369  1  0.549160  0.161490  0.112100  1.0  -0.6213
  O  O370  1  0.163160  0.644710  0.381500  1.0  -0.5855
  O  O371  1  0.664080  0.238180  0.134710  1.0  -1.1002
  O  O372  1  0.768300  0.163890  0.103980  1.0  -0.6102
  O  O373  1  0.731700  0.163890  0.603980  1.0  -0.609
  O  O374  1  0.490570  0.765430  0.857070  1.0  -0.5822
  O  O375  1  0.049160  0.838510  0.387900  1.0  -0.6213
  O  O376  1  0.401970  0.821530  0.804840  1.0  -0.5913
  O  O377  1  0.336840  0.644710  0.881500  1.0  -0.585
  O  O378  1  0.355220  0.791520  0.942170  1.0  -0.5932
  O  O379  1  0.492100  0.579680  0.061870  1.0  -0.5376
  O  O380  1  0.144780  0.791520  0.442170  1.0  -0.5939
  O  O381  1  0.831200  0.128190  0.657950  1.0  -0.5888
  O  O382  1  0.990570  0.234570  0.642930  1.0  -0.5808
  O  O383  1  0.716680  0.280940  0.066510  1.0  -0.6086
  O  O384  1  0.331200  0.871810  0.842050  1.0  -0.5881
  O  O385  1  0.827530  0.274930  0.711690  1.0  -0.6064
  O  O386  1  0.168800  0.871810  0.342050  1.0  -0.5882
  O  O387  1  0.007900  0.579680  0.561870  1.0  -0.54
  O  O388  1  0.672470  0.274930  0.211690  1.0  -0.6065
  O  O389  1  0.598030  0.178470  0.195160  1.0  -0.5904
  O  O390  1  0.741430  0.312520  0.674580  1.0  -0.6247
  O  O391  1  0.836840  0.355290  0.618500  1.0  -0.5849
  O  O392  1  0.920700  0.332040  0.661310  1.0  -0.6258
  O  O393  1  0.241430  0.687480  0.825420  1.0  -0.6254
  O  O394  1  0.710680  0.973580  0.806070  1.0  -0.4834
  O  O395  1  0.758570  0.312520  0.174580  1.0  -0.624
  O  O396  1  0.783320  0.280940  0.566510  1.0  -0.6071
  O  O397  1  0.181650  0.758250  0.877830  1.0  -0.6175
  O  O398  1  0.216680  0.719060  0.433490  1.0  -0.6087
  O  O399  1  0.789320  0.973580  0.306070  1.0  -0.4846
  O  O400  1  0.283320  0.719060  0.933490  1.0  -0.6101
  O  O401  1  0.663160  0.355290  0.118500  1.0  -0.5859
  O  O402  1  0.210680  0.026420  0.693930  1.0  -0.4853
  O  O403  1  0.901970  0.178470  0.695160  1.0  -0.5905
  O  O404  1  0.579300  0.332040  0.161310  1.0  -0.6263
  O  O405  1  0.079300  0.667960  0.338690  1.0  -0.6261
  O  O406  1  0.327530  0.725070  0.788310  1.0  -0.6067
  O  O407  1  0.172470  0.725070  0.288310  1.0  -0.6061
  O  O408  1  0.644780  0.208480  0.057830  1.0  -0.5938
