# generated using pymatgen
data_Fe3H41(C4O)15
_symmetry_space_group_name_H-M   'P 1'
_cell_length_a   18.54900000
_cell_length_b   25.08500000
_cell_length_c   35.49400000
_cell_angle_alpha   91.60700000
_cell_angle_beta   90.00000000
_cell_angle_gamma   90.00000000
_symmetry_Int_Tables_number   1
_chemical_formula_structural   Fe3H41(C4O)15
_chemical_formula_sum   'Fe12 H164 C240 O60'
_cell_volume   16508.92172292
_cell_formula_units_Z   4
loop_
 _symmetry_equiv_pos_site_id
 _symmetry_equiv_pos_as_xyz
  1  'x, y, z'
loop_
 _atom_site_type_symbol
 _atom_site_label
 _atom_site_symmetry_multiplicity
 _atom_site_fract_x
 _atom_site_fract_y
 _atom_site_fract_z
 _atom_site_occupancy
 _atom_site_charge
  Fe  Fe1  1  0.722650  0.704240  0.626510  1.0  1.2673
  Fe  Fe2  1  0.148510  0.177590  0.884850  1.0  1.1282
  Fe  Fe3  1  0.411460  0.256690  0.319370  1.0  1.2742
  Fe  Fe4  1  0.851490  0.822410  0.115150  1.0  1.1287
  Fe  Fe5  1  0.088540  0.256690  0.819370  1.0  1.2761
  Fe  Fe6  1  0.648510  0.822410  0.615150  1.0  1.1287
  Fe  Fe7  1  0.777350  0.704240  0.126510  1.0  1.2693
  Fe  Fe8  1  0.351490  0.177590  0.384850  1.0  1.1284
  Fe  Fe9  1  0.911460  0.743310  0.180630  1.0  1.2706
  Fe  Fe10  1  0.277350  0.295760  0.373490  1.0  1.2708
  Fe  Fe11  1  0.588540  0.743310  0.680630  1.0  1.2698
  Fe  Fe12  1  0.222650  0.295760  0.873490  1.0  1.2687
  H  H13  1  0.199700  0.003600  0.596900  1.0  0.1117
  H  H14  1  0.672800  0.967000  0.865000  1.0  0.1177
  H  H15  1  0.246300  0.964500  0.189300  1.0  0.1241
  H  H16  1  0.831800  0.055500  0.873700  1.0  0.1073
  H  H17  1  0.635300  0.547700  0.601700  1.0  0.1165
  H  H18  1  0.753700  0.035500  0.810700  1.0  0.1249
  H  H19  1  0.776600  0.874100  0.355300  1.0  0.1002
  H  H20  1  0.286600  0.983300  0.256700  1.0  0.1223
  H  H21  1  0.190600  0.297000  0.716500  1.0  0.1176
  H  H22  1  0.706900  0.948500  0.697200  1.0  0.1197
  H  H23  1  0.431700  0.061300  0.193100  1.0  0.1252
  H  H24  1  0.201900  0.038000  0.128100  1.0  0.0965
  H  H25  1  0.798400  0.842300  0.911700  1.0  0.1014
  H  H26  1  0.565700  0.577000  0.315300  1.0  0.1249
  H  H27  1  0.567400  0.763000  0.138300  1.0  0.1208
  H  H28  1  0.253700  0.964500  0.689300  1.0  0.1245
  H  H29  1  0.172600  0.357500  0.973100  1.0  0.1184
  H  H30  1  0.419200  0.536300  0.403800  1.0  0.1216
  H  H31  1  0.327200  0.033000  0.135000  1.0  0.1192
  H  H32  1  0.864700  0.547700  0.101700  1.0  0.1159
  H  H33  1  0.206900  0.051500  0.802800  1.0  0.1198
  H  H34  1  0.241800  0.319100  0.163500  1.0  0.1277
  H  H35  1  0.080800  0.536300  0.903800  1.0  0.1218
  H  H36  1  0.464700  0.963500  0.185700  1.0  0.1297
  H  H37  1  0.964700  0.036500  0.314300  1.0  0.1298
  H  H38  1  0.632400  0.234100  0.343800  1.0  0.1205
  H  H39  1  0.898800  0.850200  0.858800  1.0  0.0766
  H  H40  1  0.524900  0.584600  0.427500  1.0  0.1272
  H  H41  1  0.568300  0.938700  0.806900  1.0  0.1263
  H  H42  1  0.540700  0.947500  0.127900  1.0  0.1232
  H  H43  1  0.543700  0.196700  0.848100  1.0  0.1252
  H  H44  1  0.802300  0.889100  0.841600  1.0  0.0973
  H  H45  1  0.362000  0.332200  0.783500  1.0  0.1183
  H  H46  1  0.061700  0.129600  0.739300  1.0  0.1207
  H  H47  1  0.945400  0.094700  0.882000  1.0  0.1178
  H  H48  1  0.068300  0.061300  0.693100  1.0  0.1243
  H  H49  1  0.475100  0.415400  0.572500  1.0  0.1267
  H  H50  1  0.563200  0.747900  0.436400  1.0  0.1123
  H  H51  1  0.859200  0.604900  0.968100  1.0  0.1315
  H  H52  1  0.398800  0.149800  0.641200  1.0  0.0784
  H  H53  1  0.848200  0.907100  0.614300  1.0  0.117
  H  H54  1  0.367600  0.765900  0.656200  1.0  0.1196
  H  H55  1  0.959300  0.947500  0.627900  1.0  0.1229
  H  H56  1  0.151800  0.092900  0.385700  1.0  0.1171
  H  H57  1  0.425300  0.512100  0.669700  1.0  0.1269
  H  H58  1  0.712500  0.932100  0.410500  1.0  0.0908
  H  H59  1  0.827200  0.967000  0.365000  1.0  0.1185
  H  H60  1  0.672600  0.642500  0.526900  1.0  0.1194
  H  H61  1  0.862800  0.770700  0.831400  1.0  0.1146
  H  H62  1  0.938300  0.870400  0.260700  1.0  0.1207
  H  H63  1  0.035300  0.963500  0.685700  1.0  0.1304
  H  H64  1  0.434300  0.423000  0.684700  1.0  0.1247
  H  H65  1  0.432600  0.237000  0.861700  1.0  0.1215
  H  H66  1  0.227600  0.195700  0.122500  1.0  0.0909
  H  H67  1  0.201600  0.157700  0.088300  1.0  0.1025
  H  H68  1  0.594900  0.785400  0.495100  1.0  0.1182
  H  H69  1  0.140800  0.395100  0.031900  1.0  0.1314
  H  H70  1  0.934300  0.577000  0.815300  1.0  0.1241
  H  H71  1  0.300300  0.003600  0.096900  1.0  0.1123
  H  H72  1  0.138000  0.332200  0.283500  1.0  0.1184
  H  H73  1  0.223400  0.125900  0.644700  1.0  0.1018
  H  H74  1  0.907100  0.823100  0.898900  1.0  0.0948
  H  H75  1  0.092900  0.176900  0.101100  1.0  0.0941
  H  H76  1  0.276600  0.125900  0.144700  1.0  0.1005
  H  H77  1  0.456300  0.803300  0.151900  1.0  0.1246
  H  H78  1  0.254000  0.805100  0.664600  1.0  0.129
  H  H79  1  0.336700  0.061400  0.095500  1.0  0.1106
  H  H80  1  0.798100  0.962000  0.871900  1.0  0.0959
  H  H81  1  0.668200  0.055500  0.373700  1.0  0.1083
  H  H82  1  0.065700  0.423000  0.184700  1.0  0.124
  H  H83  1  0.862000  0.667800  0.716500  1.0  0.1189
  H  H84  1  0.827400  0.642500  0.026900  1.0  0.1179
  H  H85  1  0.741800  0.680900  0.336500  1.0  0.1275
  H  H86  1  0.429500  0.354200  0.730500  1.0  0.1249
  H  H87  1  0.758200  0.680900  0.836500  1.0  0.1285
  H  H88  1  0.197700  0.110900  0.158400  1.0  0.0958
  H  H89  1  0.405100  0.214600  0.504900  1.0  0.1181
  H  H90  1  0.520300  0.403900  0.324700  1.0  0.1192
  H  H91  1  0.925300  0.487900  0.830300  1.0  0.1274
  H  H92  1  0.932600  0.763000  0.638300  1.0  0.1214
  H  H93  1  0.929500  0.645800  0.769500  1.0  0.1246
  H  H94  1  0.836700  0.938600  0.404500  1.0  0.1098
  H  H95  1  0.438300  0.129600  0.239300  1.0  0.1209
  H  H96  1  0.561700  0.870400  0.760700  1.0  0.12
  H  H97  1  0.786600  0.016700  0.243300  1.0  0.1228
  H  H98  1  0.723400  0.874100  0.855300  1.0  0.1011
  H  H99  1  0.931700  0.938700  0.306900  1.0  0.1242
  H  H100  1  0.302300  0.110900  0.658400  1.0  0.096
  H  H101  1  0.793100  0.948500  0.197200  1.0  0.1197
  H  H102  1  0.701600  0.842300  0.411700  1.0  0.1014
  H  H103  1  0.905100  0.785400  0.995100  1.0  0.1182
  H  H104  1  0.638000  0.667800  0.216500  1.0  0.1184
  H  H105  1  0.309400  0.297000  0.216500  1.0  0.1176
  H  H106  1  0.070500  0.354200  0.230500  1.0  0.125
  H  H107  1  0.574700  0.487900  0.330300  1.0  0.1269
  H  H108  1  0.135300  0.452300  0.898300  1.0  0.116
  H  H109  1  0.054600  0.905300  0.118000  1.0  0.118
  H  H110  1  0.956300  0.196700  0.348100  1.0  0.1257
  H  H111  1  0.094900  0.214600  0.004900  1.0  0.1181
  H  H112  1  0.809400  0.703000  0.283500  1.0  0.1179
  H  H113  1  0.663300  0.938600  0.904500  1.0  0.1099
  H  H114  1  0.746000  0.194900  0.335400  1.0  0.1294
  H  H115  1  0.746300  0.035500  0.310700  1.0  0.1243
  H  H116  1  0.213400  0.983300  0.756700  1.0  0.1224
  H  H117  1  0.690600  0.703000  0.783500  1.0  0.1179
  H  H118  1  0.439200  0.236300  0.648600  1.0  0.106
  H  H119  1  0.640800  0.604900  0.468100  1.0  0.1315
  H  H120  1  0.293100  0.051500  0.302800  1.0  0.1199
  H  H121  1  0.272400  0.195700  0.622500  1.0  0.091
  H  H122  1  0.331800  0.944500  0.626300  1.0  0.1079
  H  H123  1  0.772400  0.804300  0.877500  1.0  0.0907
  H  H124  1  0.800300  0.996400  0.403100  1.0  0.1137
  H  H125  1  0.172800  0.033000  0.635000  1.0  0.1188
  H  H126  1  0.132400  0.765900  0.156200  1.0  0.1198
  H  H127  1  0.651800  0.907100  0.114300  1.0  0.1186
  H  H128  1  0.867600  0.234100  0.843800  1.0  0.1203
  H  H129  1  0.939200  0.763700  0.851400  1.0  0.1077
  H  H130  1  0.364700  0.452300  0.398300  1.0  0.1163
  H  H131  1  0.020300  0.596100  0.175300  1.0  0.1188
  H  H132  1  0.601200  0.850200  0.358800  1.0  0.0769
  H  H133  1  0.246000  0.805100  0.164600  1.0  0.1294
  H  H134  1  0.298400  0.157700  0.588300  1.0  0.1025
  H  H135  1  0.701900  0.962000  0.371900  1.0  0.0971
  H  H136  1  0.560800  0.763700  0.351400  1.0  0.1072
  H  H137  1  0.060800  0.236300  0.148600  1.0  0.1088
  H  H138  1  0.580800  0.463700  0.596200  1.0  0.1219
  H  H139  1  0.554600  0.094700  0.382000  1.0  0.1178
  H  H140  1  0.101200  0.149800  0.141200  1.0  0.0761
  H  H141  1  0.727600  0.804300  0.377500  1.0  0.091
  H  H142  1  0.063200  0.252100  0.063600  1.0  0.114
  H  H143  1  0.348200  0.092900  0.885700  1.0  0.1177
  H  H144  1  0.979700  0.403900  0.824700  1.0  0.1189
  H  H145  1  0.697700  0.889100  0.341600  1.0  0.0973
  H  H146  1  0.212500  0.067900  0.089500  1.0  0.09
  H  H147  1  0.975100  0.584600  0.927500  1.0  0.1268
  H  H148  1  0.040700  0.052500  0.372100  1.0  0.1228
  H  H149  1  0.362800  0.229300  0.668600  1.0  0.112
  H  H150  1  0.298100  0.038000  0.628100  1.0  0.0953
  H  H151  1  0.535300  0.036500  0.814300  1.0  0.1306
  H  H152  1  0.359200  0.395100  0.531900  1.0  0.1314
  H  H153  1  0.592900  0.823100  0.398900  1.0  0.097
  H  H154  1  0.067400  0.237000  0.361700  1.0  0.1216
  H  H155  1  0.713400  0.016700  0.743300  1.0  0.1228
  H  H156  1  0.287500  0.067900  0.589500  1.0  0.0894
  H  H157  1  0.043700  0.803300  0.651900  1.0  0.1248
  H  H158  1  0.327400  0.357500  0.473100  1.0  0.1198
  H  H159  1  0.787500  0.932100  0.910500  1.0  0.0886
  H  H160  1  0.407100  0.176900  0.601100  1.0  0.0971
  H  H161  1  0.074700  0.512100  0.169700  1.0  0.1268
  H  H162  1  0.436800  0.252100  0.563600  1.0  0.1129
  H  H163  1  0.445400  0.905300  0.618000  1.0  0.1183
  H  H164  1  0.754000  0.194900  0.835400  1.0  0.13
  H  H165  1  0.479700  0.596100  0.675300  1.0  0.1192
  H  H166  1  0.570500  0.645800  0.269500  1.0  0.1254
  H  H167  1  0.699700  0.996400  0.903100  1.0  0.1141
  H  H168  1  0.137200  0.229300  0.168600  1.0  0.1129
  H  H169  1  0.919200  0.463700  0.096200  1.0  0.1219
  H  H170  1  0.258200  0.319100  0.663500  1.0  0.1269
  H  H171  1  0.936800  0.747900  0.936400  1.0  0.1149
  H  H172  1  0.459300  0.052500  0.872100  1.0  0.1225
  H  H173  1  0.024900  0.415400  0.072500  1.0  0.1259
  H  H174  1  0.637200  0.770700  0.331400  1.0  0.1152
  H  H175  1  0.163300  0.061400  0.595500  1.0  0.1091
  H  H176  1  0.168200  0.944500  0.126300  1.0  0.1086
  C  C177  1  0.160900  0.908240  0.132370  1.0  -0.1255
  C  C178  1  0.419780  0.948440  0.178160  1.0  -0.1147
  C  C179  1  0.273400  0.301300  0.288570  1.0  0.6956
  C  C180  1  0.597400  0.632400  0.642770  1.0  0.7485
  C  C181  1  0.366280  0.097000  0.275400  1.0  -0.1202
  C  C182  1  0.914620  0.726490  0.954730  1.0  -0.1315
  C  C183  1  0.650370  0.663880  0.508480  1.0  -0.0862
  C  C184  1  0.429700  0.405080  0.660880  1.0  -0.1179
  C  C185  1  0.062000  0.199580  0.363850  1.0  -0.0572
  C  C186  1  0.929700  0.594920  0.839120  1.0  -0.1184
  C  C187  1  0.114360  0.330980  0.122950  1.0  0.0609
  C  C188  1  0.104250  0.251200  0.010360  1.0  -0.0382
  C  C189  1  0.120020  0.168750  0.375020  1.0  -0.1204
  C  C190  1  0.641460  0.984120  0.779450  1.0  0.0835
  C  C191  1  0.360300  0.802160  0.650130  1.0  -0.0392
  C  C192  1  0.118960  0.342640  0.227650  1.0  -0.1635
  C  C193  1  0.730000  0.687480  0.245020  1.0  -0.1096
  C  C194  1  0.230000  0.312520  0.254980  1.0  -0.11
  C  C195  1  0.121100  0.177500  0.124800  1.0  -0.0869
  C  C196  1  0.821220  0.946470  0.219430  1.0  -0.0381
  C  C197  1  0.270000  0.312520  0.754980  1.0  -0.109
  C  C198  1  0.307800  0.198200  0.880740  1.0  0.7243
  C  C199  1  0.855800  0.028930  0.308730  1.0  0.0683
  C  C200  1  0.092630  0.459540  0.884470  1.0  -0.0392
  C  C201  1  0.636750  0.717490  0.516520  1.0  -0.137
  C  C202  1  0.226600  0.301300  0.788570  1.0  0.6956
  C  C203  1  0.583500  0.647310  0.408840  1.0  -0.0198
  C  C204  1  0.604250  0.748800  0.489640  1.0  -0.0401
  C  C205  1  0.004000  0.824400  0.644250  1.0  -0.1231
  C  C206  1  0.618960  0.657360  0.272350  1.0  -0.1643
  C  C207  1  0.887300  0.770000  0.856200  1.0  0.0455
  C  C208  1  0.871400  0.859900  0.194790  1.0  0.734
  C  C209  1  0.782210  0.121540  0.853790  1.0  0.029
  C  C210  1  0.502100  0.520000  0.367600  1.0  0.0474
  C  C211  1  0.039400  0.426800  0.129090  1.0  0.0502
  C  C212  1  0.881040  0.657360  0.772350  1.0  -0.1642
  C  C213  1  0.918000  0.096200  0.345920  1.0  -0.0193
  C  C214  1  0.128600  0.140100  0.805210  1.0  0.7339
  C  C215  1  0.999700  0.569210  0.159210  1.0  -0.03
  C  C216  1  0.093470  0.884990  0.127410  1.0  -0.0389
  C  C217  1  0.131500  0.358420  0.026430  1.0  -0.1384
  C  C218  1  0.760870  0.691340  0.280680  1.0  -0.034
  C  C219  1  0.739130  0.691340  0.780680  1.0  -0.0339
  C  C220  1  0.988090  0.120790  0.358820  1.0  0.0337
  C  C221  1  0.717790  0.121540  0.353790  1.0  0.0275
  C  C222  1  0.288270  0.904400  0.156230  1.0  -0.0018
  C  C223  1  0.292840  0.825420  0.655090  1.0  -0.1119
  C  C224  1  0.141460  0.015880  0.720550  1.0  0.084
  C  C225  1  0.720800  0.678220  0.312170  1.0  -0.0858
  C  C226  1  0.321220  0.053530  0.280570  1.0  -0.0388
  C  C227  1  0.991800  0.194200  0.864340  1.0  0.7247
  C  C228  1  0.582840  0.168050  0.363710  1.0  -0.12
  C  C229  1  0.085380  0.273510  0.045270  1.0  -0.1313
  C  C230  1  0.070300  0.405080  0.160880  1.0  -0.118
  C  C231  1  0.868500  0.641580  0.973570  1.0  -0.1399
  C  C232  1  0.460600  0.426800  0.629090  1.0  0.0509
  C  C233  1  0.953990  0.599400  0.905770  1.0  -0.0694
  C  C234  1  0.939700  0.490570  0.112220  1.0  -0.114
  C  C235  1  0.350200  0.338770  0.691990  1.0  0.0469
  C  C236  1  0.802600  0.835700  0.884100  1.0  -0.1478
  C  C237  1  0.272400  0.116300  0.635700  1.0  -0.1301
  C  C238  1  0.339200  0.261200  0.446890  1.0  0.7383
  C  C239  1  0.790050  0.050950  0.319690  1.0  -0.1139
  C  C240  1  0.612700  0.770000  0.356200  1.0  0.046
  C  C241  1  0.080220  0.948440  0.678160  1.0  -0.1159
  C  C242  1  0.385640  0.330980  0.622950  1.0  0.0623
  C  C243  1  0.592630  0.540460  0.615530  1.0  -0.0379
  C  C244  1  0.839100  0.091760  0.867630  1.0  -0.1232
  C  C245  1  0.560300  0.490570  0.612220  1.0  -0.113
  C  C246  1  0.849630  0.663880  0.008480  1.0  -0.0868
  C  C247  1  0.644200  0.028930  0.808730  1.0  0.0673
  C  C248  1  0.707160  0.174580  0.344910  1.0  -0.1133
  C  C249  1  0.631500  0.641580  0.473570  1.0  -0.1366
  C  C250  1  0.772400  0.883700  0.864300  1.0  -0.1281
  C  C251  1  0.733200  0.936500  0.385000  1.0  -0.0861
  C  C252  1  0.008200  0.805800  0.135660  1.0  0.7242
  C  C253  1  0.500300  0.569210  0.659210  1.0  -0.0302
  C  C254  1  0.099000  0.327120  0.053300  1.0  0.0396
  C  C255  1  0.807800  0.801800  0.619260  1.0  0.7262
  C  C256  1  0.211730  0.904400  0.656230  1.0  -0.0013
  C  C257  1  0.406530  0.884990  0.627410  1.0  -0.0381
  C  C258  1  0.092530  0.099900  0.742800  1.0  -0.0467
  C  C259  1  0.358540  0.015880  0.220550  1.0  0.0835
  C  C260  1  0.339100  0.908240  0.632370  1.0  -0.1247
  C  C261  1  0.082000  0.903800  0.654080  1.0  -0.0205
  C  C262  1  0.917160  0.168050  0.863710  1.0  -0.1209
  C  C263  1  0.863250  0.717490  0.016520  1.0  -0.1373
  C  C264  1  0.392250  0.357180  0.657810  1.0  0.0034
  C  C265  1  0.919780  0.051560  0.321840  1.0  -0.1145
  C  C266  1  0.879980  0.831250  0.624980  1.0  -0.1197
  C  C267  1  0.317350  0.012980  0.253150  1.0  -0.1312
  C  C268  1  0.546010  0.599400  0.405770  1.0  -0.0706
  C  C269  1  0.907370  0.540460  0.115530  1.0  -0.0384
  C  C270  1  0.546100  0.910040  0.130010  1.0  -0.1053
  C  C271  1  0.607750  0.642820  0.342190  1.0  0.0027
  C  C272  1  0.403600  0.059340  0.215380  1.0  -0.1317
  C  C273  1  0.682650  0.987020  0.746850  1.0  -0.1319
  C  C274  1  0.178780  0.053530  0.780570  1.0  -0.039
  C  C275  1  0.649800  0.661230  0.308010  1.0  0.0455
  C  C276  1  0.147760  0.881770  0.643120  1.0  0.0584
  C  C277  1  0.032100  0.519320  0.155890  1.0  -0.1449
  C  C278  1  0.997900  0.520000  0.867600  1.0  0.0486
  C  C279  1  0.182650  0.012980  0.753150  1.0  -0.1304
  C  C280  1  0.766800  0.936500  0.885000  1.0  -0.0855
  C  C281  1  0.395750  0.251200  0.510360  1.0  -0.0379
  C  C282  1  0.467900  0.519320  0.655890  1.0  -0.1476
  C  C283  1  0.592530  0.900100  0.757200  1.0  -0.047
  C  C284  1  0.060300  0.509430  0.887780  1.0  -0.1118
  C  C285  1  0.697400  0.835700  0.384100  1.0  -0.1445
  C  C286  1  0.453990  0.400600  0.594230  1.0  -0.0699
  C  C287  1  0.082840  0.831950  0.136290  1.0  -0.1208
  C  C288  1  0.159100  0.329510  0.259150  1.0  -0.0342
  C  C289  1  0.770000  0.687480  0.745020  1.0  -0.109
  C  C290  1  0.788270  0.095600  0.343770  1.0  -0.0007
  C  C291  1  0.878900  0.822500  0.875200  1.0  -0.0868
  C  C292  1  0.858540  0.984120  0.279450  1.0  0.0822
  C  C293  1  0.996000  0.175600  0.355750  1.0  -0.1242
  C  C294  1  0.937400  0.579780  0.139030  1.0  -0.1181
  C  C295  1  0.439700  0.509430  0.387780  1.0  -0.1138
  C  C296  1  0.901000  0.672880  0.946700  1.0  0.0406
  C  C297  1  0.233200  0.063500  0.115000  1.0  -0.0855
  C  C298  1  0.046010  0.400600  0.094230  1.0  -0.0709
  C  C299  1  0.860300  0.197840  0.849870  1.0  -0.0384
  C  C300  1  0.491800  0.805800  0.635660  1.0  0.7249
  C  C301  1  0.352240  0.881770  0.143120  1.0  0.0575
  C  C302  1  0.349630  0.336120  0.491520  1.0  -0.0858
  C  C303  1  0.209950  0.949050  0.680310  1.0  -0.1123
  C  C304  1  0.817350  0.987020  0.246850  1.0  -0.1316
  C  C305  1  0.220800  0.321780  0.187830  1.0  -0.086
  C  C306  1  0.792840  0.174580  0.844910  1.0  -0.1137
  C  C307  1  0.305500  0.038200  0.110200  1.0  -0.3127
  C  C308  1  0.779200  0.678220  0.812170  1.0  -0.0861
  C  C309  1  0.002100  0.480000  0.132400  1.0  0.0478
  C  C310  1  0.378900  0.177500  0.624800  1.0  -0.0867
  C  C311  1  0.511910  0.120790  0.858820  1.0  0.0331
  C  C312  1  0.144200  0.971070  0.691270  1.0  0.0669
  C  C313  1  0.192200  0.198200  0.380740  1.0  0.7245
  C  C314  1  0.773400  0.698700  0.211430  1.0  0.6955
  C  C315  1  0.852240  0.118230  0.356880  1.0  0.0576
  C  C316  1  0.866280  0.903000  0.224600  1.0  -0.1205
  C  C317  1  0.160800  0.261200  0.946890  1.0  0.7383
  C  C318  1  0.107750  0.357180  0.157810  1.0  0.0033
  C  C319  1  0.496000  0.824400  0.144250  1.0  -0.1223
  C  C320  1  0.207160  0.825420  0.155090  1.0  -0.1132
  C  C321  1  0.660900  0.091760  0.367630  1.0  -0.1246
  C  C322  1  0.562600  0.579780  0.639030  1.0  -0.1179
  C  C323  1  0.938000  0.800420  0.636150  1.0  -0.0527
  C  C324  1  0.368500  0.358420  0.526430  1.0  -0.1395
  C  C325  1  0.580220  0.051560  0.821840  1.0  -0.1151
  C  C326  1  0.585380  0.726490  0.454730  1.0  -0.1312
  C  C327  1  0.387300  0.230000  0.643800  1.0  0.0481
  C  C328  1  0.194500  0.038200  0.610200  1.0  -0.3132
  C  C329  1  0.562000  0.800420  0.136150  1.0  -0.0572
  C  C330  1  0.659100  0.670490  0.240850  1.0  -0.0326
  C  C331  1  0.136750  0.282510  0.983480  1.0  -0.1381
  C  C332  1  0.416500  0.352690  0.591160  1.0  -0.0194
  C  C333  1  0.895750  0.748800  0.989640  1.0  -0.0383
  C  C334  1  0.096400  0.059340  0.715380  1.0  -0.1336
  C  C335  1  0.960600  0.573200  0.870910  1.0  0.0509
  C  C336  1  0.805500  0.961800  0.389800  1.0  -0.3111
  C  C337  1  0.903600  0.940660  0.284620  1.0  -0.1324
  C  C338  1  0.371400  0.140100  0.305210  1.0  0.734
  C  C339  1  0.062600  0.420220  0.860970  1.0  -0.1173
  C  C340  1  0.414620  0.273510  0.545270  1.0  -0.1318
  C  C341  1  0.387890  0.113940  0.878090  1.0  -0.0409
  C  C342  1  0.499700  0.430790  0.340790  1.0  -0.031
  C  C343  1  0.438000  0.199580  0.863850  1.0  -0.0524
  C  C344  1  0.508200  0.194200  0.364340  1.0  0.7238
  C  C345  1  0.727600  0.883700  0.364300  1.0  -0.1264
  C  C346  1  0.694500  0.961800  0.889800  1.0  -0.3138
  C  C347  1  0.417160  0.831950  0.636290  1.0  -0.1207
  C  C348  1  0.916500  0.647310  0.908840  1.0  -0.0189
  C  C349  1  0.711730  0.095600  0.843770  1.0  -0.0005
  C  C350  1  0.355800  0.971070  0.191270  1.0  0.0679
  C  C351  1  0.112110  0.113940  0.378090  1.0  -0.0413
  C  C352  1  0.097400  0.367600  0.857230  1.0  0.7485
  C  C353  1  0.227600  0.116300  0.135700  1.0  -0.1277
  C  C354  1  0.628600  0.859900  0.694790  1.0  0.7338
  C  C355  1  0.620020  0.831250  0.124980  1.0  -0.1197
  C  C356  1  0.892250  0.642820  0.842190  1.0  0.0027
  C  C357  1  0.902600  0.632400  0.142770  1.0  0.7487
  C  C358  1  0.570300  0.594920  0.339120  1.0  -0.1184
  C  C359  1  0.363250  0.282510  0.483480  1.0  -0.1384
  C  C360  1  0.279200  0.321780  0.687830  1.0  -0.0866
  C  C361  1  0.850200  0.661230  0.808010  1.0  0.0462
  C  C362  1  0.418000  0.903800  0.154080  1.0  -0.0197
  C  C363  1  0.381040  0.342640  0.727650  1.0  -0.1632
  C  C364  1  0.582000  0.096200  0.845920  1.0  -0.0198
  C  C365  1  0.612110  0.886060  0.121910  1.0  -0.0414
  C  C366  1  0.633720  0.903000  0.724600  1.0  -0.1199
  C  C367  1  0.011910  0.879210  0.641180  1.0  0.033
  C  C368  1  0.596400  0.940660  0.784620  1.0  -0.1344
  C  C369  1  0.139700  0.802160  0.150130  1.0  -0.0401
  C  C370  1  0.290050  0.949050  0.180310  1.0  -0.1137
  C  C371  1  0.593470  0.115010  0.372590  1.0  -0.0378
  C  C372  1  0.504000  0.175600  0.855750  1.0  -0.1228
  C  C373  1  0.599000  0.672880  0.446700  1.0  0.0397
  C  C374  1  0.678780  0.946470  0.719430  1.0  -0.0394
  C  C375  1  0.453900  0.089960  0.869990  1.0  -0.1045
  C  C376  1  0.967900  0.480680  0.844110  1.0  -0.1467
  C  C377  1  0.239130  0.308660  0.719320  1.0  -0.0336
  C  C378  1  0.046100  0.089960  0.369990  1.0  -0.1035
  C  C379  1  0.614360  0.669020  0.377050  1.0  0.0593
  C  C380  1  0.539400  0.573200  0.370910  1.0  0.0499
  C  C381  1  0.621100  0.822500  0.375200  1.0  -0.0874
  C  C382  1  0.660800  0.738800  0.553110  1.0  0.7384
  C  C383  1  0.149800  0.338770  0.191990  1.0  0.0467
  C  C384  1  0.407370  0.459540  0.384470  1.0  -0.04
  C  C385  1  0.953900  0.910040  0.630010  1.0  -0.1057
  C  C386  1  0.726600  0.698700  0.711430  1.0  0.6957
  C  C387  1  0.000300  0.430790  0.840790  1.0  -0.0299
  C  C388  1  0.302600  0.164300  0.615900  1.0  -0.1447
  C  C389  1  0.402600  0.367600  0.357230  1.0  0.7486
  C  C390  1  0.488090  0.879210  0.141180  1.0  0.0339
  C  C391  1  0.197400  0.164300  0.115900  1.0  -0.1423
  C  C392  1  0.497900  0.480000  0.632400  1.0  0.0487
  C  C393  1  0.709950  0.050950  0.819690  1.0  -0.1129
  C  C394  1  0.437400  0.420220  0.360970  1.0  -0.1177
  C  C395  1  0.840900  0.670490  0.740850  1.0  -0.0332
  C  C396  1  0.340900  0.329510  0.759150  1.0  -0.033
  C  C397  1  0.266800  0.063500  0.615000  1.0  -0.0855
  C  C398  1  0.692200  0.801800  0.119260  1.0  0.7264
  C  C399  1  0.407470  0.099900  0.242800  1.0  -0.0462
  C  C400  1  0.260870  0.308660  0.219320  1.0  -0.0341
  C  C401  1  0.401000  0.327120  0.553300  1.0  0.0407
  C  C402  1  0.150370  0.336120  0.991520  1.0  -0.0857
  C  C403  1  0.906530  0.115010  0.872590  1.0  -0.0371
  C  C404  1  0.379980  0.168750  0.875020  1.0  -0.1195
  C  C405  1  0.083500  0.352690  0.091160  1.0  -0.0204
  C  C406  1  0.885640  0.669020  0.877050  1.0  0.0607
  C  C407  1  0.647760  0.118230  0.856880  1.0  0.0584
  C  C408  1  0.639700  0.197840  0.349870  1.0  -0.0389
  C  C409  1  0.839200  0.738800  0.053110  1.0  0.7382
  C  C410  1  0.887890  0.886060  0.621910  1.0  -0.0419
  C  C411  1  0.532100  0.480680  0.344110  1.0  -0.1456
  C  C412  1  0.217790  0.878460  0.146210  1.0  0.0272
  C  C413  1  0.907470  0.900100  0.257200  1.0  -0.048
  C  C414  1  0.133720  0.097000  0.775400  1.0  -0.1195
  C  C415  1  0.282210  0.878460  0.646210  1.0  0.028
  C  C416  1  0.112700  0.230000  0.143800  1.0  0.046
  O  O417  1  0.248740  0.313440  0.321320  1.0  -0.6323
  O  O418  1  0.796560  0.712260  0.071640  1.0  -0.5848
  O  O419  1  0.256110  0.168120  0.891060  1.0  -0.6207
  O  O420  1  0.305420  0.246650  0.874190  1.0  -0.6032
  O  O421  1  0.166170  0.278260  0.782770  1.0  -0.6086
  O  O422  1  0.141300  0.274200  0.122840  1.0  -0.4335
  O  O423  1  0.154370  0.243570  0.859010  1.0  -1.1021
  O  O424  1  0.364210  0.215340  0.436100  1.0  -0.6003
  O  O425  1  0.069050  0.333333  0.834350  1.0  -0.6156
  O  O426  1  0.243890  0.168120  0.391060  1.0  -0.62
  O  O427  1  0.845630  0.756430  0.140990  1.0  -1.103
  O  O428  1  0.864210  0.784660  0.063900  1.0  -0.6003
  O  O429  1  0.805420  0.753350  0.625810  1.0  -0.6038
  O  O430  1  0.349500  0.839050  0.112860  1.0  -0.587
  O  O431  1  0.833830  0.721740  0.217230  1.0  -0.6087
  O  O432  1  0.000430  0.237870  0.848350  1.0  -0.575
  O  O433  1  0.846010  0.641310  0.125120  1.0  -0.5945
  O  O434  1  0.999570  0.762130  0.151650  1.0  -0.5745
  O  O435  1  0.654370  0.756430  0.640990  1.0  -1.103
  O  O436  1  0.666170  0.721740  0.717230  1.0  -0.6088
  O  O437  1  0.203440  0.287740  0.928360  1.0  -0.5832
  O  O438  1  0.040170  0.167430  0.881200  1.0  -0.6022
  O  O439  1  0.748740  0.686560  0.178680  1.0  -0.6311
  O  O440  1  0.653990  0.641310  0.625120  1.0  -0.5958
  O  O441  1  0.743890  0.831880  0.108940  1.0  -0.6188
  O  O442  1  0.358700  0.274200  0.622840  1.0  -0.4332
  O  O443  1  0.756110  0.831880  0.608940  1.0  -0.6185
  O  O444  1  0.153990  0.358690  0.874880  1.0  -0.5951
  O  O445  1  0.194580  0.246650  0.374190  1.0  -0.6031
  O  O446  1  0.849500  0.160950  0.387140  1.0  -0.5869
  O  O447  1  0.635790  0.784660  0.563900  1.0  -0.5999
  O  O448  1  0.540170  0.832570  0.618800  1.0  -0.6018
  O  O449  1  0.641300  0.725800  0.377160  1.0  -0.4332
  O  O450  1  0.296560  0.287740  0.428360  1.0  -0.5838
  O  O451  1  0.703440  0.712260  0.571640  1.0  -0.5843
  O  O452  1  0.593090  0.818390  0.703430  1.0  -0.6123
  O  O453  1  0.459830  0.167430  0.381200  1.0  -0.6018
  O  O454  1  0.430950  0.333333  0.334350  1.0  -0.6139
  O  O455  1  0.157500  0.133030  0.836020  1.0  -0.5863
  O  O456  1  0.906910  0.818390  0.203430  1.0  -0.6124
  O  O457  1  0.858700  0.725800  0.877160  1.0  -0.4327
  O  O458  1  0.093090  0.181610  0.796570  1.0  -0.6122
  O  O459  1  0.500430  0.762130  0.651650  1.0  -0.5748
  O  O460  1  0.342500  0.133030  0.336020  1.0  -0.5857
  O  O461  1  0.346010  0.358690  0.374880  1.0  -0.5939
  O  O462  1  0.333830  0.278260  0.282770  1.0  -0.6088
  O  O463  1  0.150500  0.839050  0.612860  1.0  -0.5874
  O  O464  1  0.135790  0.215340  0.936100  1.0  -0.6002
  O  O465  1  0.569050  0.666667  0.665650  1.0  -0.6149
  O  O466  1  0.751260  0.686560  0.678680  1.0  -0.6298
  O  O467  1  0.499570  0.237870  0.348350  1.0  -0.5743
  O  O468  1  0.406910  0.181610  0.296570  1.0  -0.6126
  O  O469  1  0.930950  0.666667  0.165650  1.0  -0.6133
  O  O470  1  0.251260  0.313440  0.821320  1.0  -0.6311
  O  O471  1  0.694580  0.753350  0.125810  1.0  -0.6021
  O  O472  1  0.345630  0.243570  0.359010  1.0  -1.1021
  O  O473  1  0.959830  0.832570  0.118800  1.0  -0.602
  O  O474  1  0.650500  0.160950  0.887140  1.0  -0.5884
  O  O475  1  0.842500  0.866970  0.163980  1.0  -0.5865
  O  O476  1  0.657500  0.866970  0.663980  1.0  -0.5871
