# generated using pymatgen
data_Fe3H28C50N2O13
_symmetry_space_group_name_H-M   'P 1'
_cell_length_a   24.95270000
_cell_length_b   24.95270000
_cell_length_c   24.95270000
_cell_angle_alpha   87.98660000
_cell_angle_beta   87.98660000
_cell_angle_gamma   87.98660000
_symmetry_Int_Tables_number   1
_chemical_formula_structural   Fe3H28C50N2O13
_chemical_formula_sum   'Fe9 H84 C150 N6 O39'
_cell_volume   15508.36247590
_cell_formula_units_Z   3
loop_
 _symmetry_equiv_pos_site_id
 _symmetry_equiv_pos_as_xyz
  1  'x, y, z'
loop_
 _atom_site_type_symbol
 _atom_site_label
 _atom_site_symmetry_multiplicity
 _atom_site_fract_x
 _atom_site_fract_y
 _atom_site_fract_z
 _atom_site_occupancy
 _atom_site_charge
  Fe  Fe1  1  0.870020  0.869930  0.352660  1.0  1.2292
  Fe  Fe2  1  0.322650  0.746270  0.841260  1.0  1.1533
  Fe  Fe3  1  0.352660  0.870020  0.869930  1.0  1.2281
  Fe  Fe4  1  0.746570  0.322890  0.841260  1.0  1.2337
  Fe  Fe5  1  0.841260  0.746570  0.322890  1.0  1.2316
  Fe  Fe6  1  0.841260  0.322650  0.746270  1.0  1.1503
  Fe  Fe7  1  0.322890  0.841260  0.746570  1.0  1.232
  Fe  Fe8  1  0.746270  0.841260  0.322650  1.0  1.1521
  Fe  Fe9  1  0.869930  0.352660  0.870020  1.0  1.2263
  H  H10  1  0.222700  0.966100  0.728400  1.0  0.1451
  H  H11  1  0.937700  0.540800  0.642400  1.0  0.1434
  H  H12  1  0.800200  0.179000  0.685300  1.0  0.1386
  H  H13  1  0.459600  0.676300  0.903700  1.0  0.137
  H  H14  1  0.029100  0.136200  0.734800  1.0  0.1467
  H  H15  1  0.936000  0.501100  0.827200  1.0  0.1336
  H  H16  1  0.995300  0.886000  0.227900  1.0  0.1423
  H  H17  1  0.561900  0.560300  0.678000  1.0  0.1253
  H  H18  1  0.879700  0.003800  0.248800  1.0  0.1358
  H  H19  1  0.742300  0.034500  0.625500  1.0  0.1265
  H  H20  1  0.826000  0.498300  0.946000  1.0  0.1389
  H  H21  1  0.516400  0.722200  0.610500  1.0  0.1449
  H  H22  1  0.625500  0.742300  0.034500  1.0  0.1271
  H  H23  1  0.884100  0.065600  0.176000  1.0  0.1482
  H  H24  1  0.691900  0.478000  0.584700  1.0  0.1459
  H  H25  1  0.501100  0.827200  0.936000  1.0  0.1345
  H  H26  1  0.792600  0.583100  0.970500  1.0  0.1428
  H  H27  1  0.676300  0.903700  0.459600  1.0  0.137
  H  H28  1  0.065600  0.176000  0.884100  1.0  0.1472
  H  H29  1  0.003800  0.248800  0.879700  1.0  0.1351
  H  H30  1  0.793400  0.968900  0.582700  1.0  0.1419
  H  H31  1  0.560300  0.678000  0.561900  1.0  0.1254
  H  H32  1  0.967100  0.208900  0.730100  1.0  0.1372
  H  H33  1  0.746000  0.629100  0.029600  1.0  0.1309
  H  H34  1  0.886000  0.227900  0.995300  1.0  0.1428
  H  H35  1  0.208900  0.730100  0.967100  1.0  0.1361
  H  H36  1  0.459300  0.905500  0.676600  1.0  0.138
  H  H37  1  0.768800  0.658500  0.448500  1.0  0.1335
  H  H38  1  0.176000  0.884100  0.065600  1.0  0.1476
  H  H39  1  0.739900  0.410100  0.631300  1.0  0.1311
  H  H40  1  0.627100  0.627800  0.923000  1.0  0.1417
  H  H41  1  0.448500  0.768800  0.658500  1.0  0.1343
  H  H42  1  0.068800  0.874200  0.168900  1.0  0.1385
  H  H43  1  0.584700  0.691900  0.478000  1.0  0.1463
  H  H44  1  0.540600  0.940100  0.642900  1.0  0.1429
  H  H45  1  0.610500  0.516400  0.722200  1.0  0.1452
  H  H46  1  0.034500  0.625500  0.742300  1.0  0.1272
  H  H47  1  0.582700  0.793400  0.968900  1.0  0.1433
  H  H48  1  0.676600  0.459300  0.905500  1.0  0.137
  H  H49  1  0.678000  0.561900  0.560300  1.0  0.1245
  H  H50  1  0.410100  0.631300  0.739900  1.0  0.1318
  H  H51  1  0.498300  0.946000  0.826000  1.0  0.1375
  H  H52  1  0.478000  0.584700  0.691900  1.0  0.1454
  H  H53  1  0.827200  0.936000  0.501100  1.0  0.1334
  H  H54  1  0.631300  0.739900  0.410100  1.0  0.1311
  H  H55  1  0.642900  0.540600  0.940100  1.0  0.143
  H  H56  1  0.659600  0.775800  0.094100  1.0  0.1361
  H  H57  1  0.968900  0.582700  0.793400  1.0  0.1431
  H  H58  1  0.039200  0.716700  0.163100  1.0  0.1446
  H  H59  1  0.940100  0.642900  0.540600  1.0  0.1438
  H  H60  1  0.163100  0.039200  0.716700  1.0  0.1444
  H  H61  1  0.966100  0.728400  0.222700  1.0  0.1446
  H  H62  1  0.179000  0.685300  0.800200  1.0  0.1394
  H  H63  1  0.656400  0.094200  0.773800  1.0  0.1357
  H  H64  1  0.540800  0.642400  0.937700  1.0  0.1423
  H  H65  1  0.775800  0.094100  0.659600  1.0  0.1354
  H  H66  1  0.178700  0.800200  0.681700  1.0  0.1366
  H  H67  1  0.227900  0.995300  0.886000  1.0  0.1416
  H  H68  1  0.728400  0.222700  0.966100  1.0  0.1444
  H  H69  1  0.136200  0.734800  0.029100  1.0  0.1479
  H  H70  1  0.722200  0.610500  0.516400  1.0  0.1429
  H  H71  1  0.642400  0.937700  0.540800  1.0  0.1432
  H  H72  1  0.583100  0.970500  0.792600  1.0  0.1444
  H  H73  1  0.734800  0.029100  0.136200  1.0  0.1481
  H  H74  1  0.905500  0.676600  0.459300  1.0  0.1375
  H  H75  1  0.903700  0.459600  0.676300  1.0  0.1373
  H  H76  1  0.716700  0.163100  0.039200  1.0  0.1444
  H  H77  1  0.029600  0.746000  0.629100  1.0  0.1303
  H  H78  1  0.629100  0.029600  0.746000  1.0  0.1302
  H  H79  1  0.658500  0.448500  0.768800  1.0  0.1339
  H  H80  1  0.874200  0.168900  0.068800  1.0  0.1377
  H  H81  1  0.970500  0.792600  0.583100  1.0  0.1435
  H  H82  1  0.946000  0.826000  0.498300  1.0  0.1394
  H  H83  1  0.685300  0.800200  0.179000  1.0  0.1381
  H  H84  1  0.681700  0.178700  0.800200  1.0  0.138
  H  H85  1  0.730100  0.967100  0.208900  1.0  0.1376
  H  H86  1  0.800200  0.681700  0.178700  1.0  0.1372
  H  H87  1  0.168900  0.068800  0.874200  1.0  0.1371
  H  H88  1  0.627800  0.923000  0.627100  1.0  0.1419
  H  H89  1  0.923000  0.627100  0.627800  1.0  0.1412
  H  H90  1  0.773800  0.656400  0.094200  1.0  0.1367
  H  H91  1  0.094100  0.659600  0.775800  1.0  0.1372
  H  H92  1  0.094200  0.773800  0.656400  1.0  0.1377
  H  H93  1  0.248800  0.879700  0.003800  1.0  0.1372
  C  C94  1  0.375710  0.733100  0.730690  1.0  0.7587
  C  C95  1  0.703670  0.422950  0.704480  1.0  -0.1265
  C  C96  1  0.794570  0.159860  0.060300  1.0  0.1789
  C  C97  1  0.917020  0.484610  0.700040  1.0  -0.0467
  C  C98  1  0.622020  0.685070  0.472020  1.0  -0.1409
  C  C99  1  0.665230  0.454510  0.731400  1.0  -0.0431
  C  C100  1  0.225950  0.850140  0.008960  1.0  -0.0532
  C  C101  1  0.844580  0.179580  0.047630  1.0  -0.0906
  C  C102  1  0.916430  0.472910  0.754960  1.0  -0.13
  C  C103  1  0.688140  0.756640  0.111240  1.0  -0.136
  C  C104  1  0.769580  0.955720  0.557750  1.0  -0.1379
  C  C105  1  0.621110  0.972930  0.690120  1.0  0.0458
  C  C106  1  0.030180  0.751280  0.176210  1.0  -0.1948
  C  C107  1  0.578590  0.577640  0.647570  1.0  -0.1569
  C  C108  1  0.700210  0.484040  0.919370  1.0  -0.0443
  C  C109  1  0.688570  0.039690  0.688680  1.0  0.0799
  C  C110  1  0.952720  0.642800  0.643340  1.0  -0.1254
  C  C111  1  0.937110  0.532840  0.679930  1.0  -0.1597
  C  C112  1  0.804490  0.980040  0.235300  1.0  -0.0165
  C  C113  1  0.975890  0.618500  0.688270  1.0  0.0558
  C  C114  1  0.932900  0.806800  0.272300  1.0  0.6643
  C  C115  1  0.060300  0.794570  0.159860  1.0  0.1808
  C  C116  1  0.086650  0.713430  0.713040  1.0  0.0508
  C  C117  1  0.202240  0.761440  0.987240  1.0  -0.0571
  C  C118  1  0.231110  0.974190  0.808230  1.0  -0.0406
  C  C119  1  0.747600  0.183400  0.749700  1.0  0.0231
  C  C120  1  0.646610  0.503600  0.648970  1.0  0.0515
  C  C121  1  0.211680  0.987030  0.758180  1.0  -0.1402
  C  C122  1  0.803100  0.935700  0.273200  1.0  0.7586
  C  C123  1  0.749700  0.747600  0.183400  1.0  0.0244
  C  C124  1  0.150540  0.809780  0.052250  1.0  0.2598
  C  C125  1  0.711160  0.019040  0.641710  1.0  -0.1496
  C  C126  1  0.636700  0.494820  0.703690  1.0  -0.1268
  C  C127  1  0.237300  0.768500  0.753200  1.0  0.1889
  C  C128  1  0.642800  0.643340  0.952720  1.0  -0.1245
  C  C129  1  0.052250  0.150540  0.809780  1.0  0.2597
  C  C130  1  0.509300  0.789660  0.936060  1.0  -0.0442
  C  C131  1  0.730690  0.375710  0.733100  1.0  0.7588
  C  C132  1  0.789050  0.507730  0.942110  1.0  -0.0634
  C  C133  1  0.753200  0.237300  0.768500  1.0  0.1931
  C  C134  1  0.955890  0.769410  0.558350  1.0  -0.1554
  C  C135  1  0.809780  0.052250  0.150540  1.0  0.2591
  C  C136  1  0.533600  0.936490  0.680510  1.0  -0.1448
  C  C137  1  0.972930  0.690120  0.621110  1.0  0.0442
  C  C138  1  0.713570  0.431720  0.649780  1.0  -0.0191
  C  C139  1  0.703690  0.636700  0.494820  1.0  -0.1263
  C  C140  1  0.680510  0.533600  0.936490  1.0  -0.1502
  C  C141  1  0.182910  0.852830  0.045500  1.0  -0.1347
  C  C142  1  0.472020  0.622020  0.685070  1.0  -0.1394
  C  C143  1  0.454510  0.731400  0.665230  1.0  -0.0434
  C  C144  1  0.704720  0.772420  0.160720  1.0  -0.0556
  C  C145  1  0.111240  0.688140  0.756640  1.0  -0.1356
  C  C146  1  0.555870  0.624850  0.625780  1.0  -0.005
  C  C147  1  0.649780  0.713570  0.431720  1.0  -0.0174
  C  C148  1  0.641710  0.711160  0.019040  1.0  -0.1493
  C  C149  1  0.273200  0.803100  0.935700  1.0  0.7571
  C  C150  1  0.942110  0.789050  0.507730  1.0  -0.0626
  C  C151  1  0.503600  0.648970  0.646610  1.0  0.0494
  C  C152  1  0.008960  0.225950  0.850140  1.0  -0.0493
  C  C153  1  0.974190  0.808230  0.231110  1.0  -0.0429
  C  C154  1  0.704480  0.703670  0.422950  1.0  -0.1267
  C  C155  1  0.507730  0.942110  0.789050  1.0  -0.0663
  C  C156  1  0.685070  0.472020  0.622020  1.0  -0.1392
  C  C157  1  0.472910  0.754960  0.916430  1.0  -0.1287
  C  C158  1  0.643970  0.016150  0.713290  1.0  -0.1717
  C  C159  1  0.647570  0.578590  0.577640  1.0  -0.1573
  C  C160  1  0.756640  0.111240  0.688140  1.0  -0.1339
  C  C161  1  0.898820  0.770320  0.420020  1.0  0.6982
  C  C162  1  0.179580  0.047630  0.844580  1.0  -0.0934
  C  C163  1  0.688270  0.975890  0.618500  1.0  0.0561
  C  C164  1  0.713040  0.086650  0.713430  1.0  0.0502
  C  C165  1  0.851460  0.214860  0.004360  1.0  -0.034
  C  C166  1  0.919370  0.700210  0.484040  1.0  -0.0468
  C  C167  1  0.045500  0.182910  0.852830  1.0  -0.1338
  C  C168  1  0.690120  0.621110  0.972930  1.0  0.044
  C  C169  1  0.159860  0.060300  0.794570  1.0  0.182
  C  C170  1  0.713290  0.643970  0.016150  1.0  -0.1757
  C  C171  1  0.987240  0.202240  0.761440  1.0  -0.0556
  C  C172  1  0.569450  0.714690  0.956280  1.0  0.053
  C  C173  1  0.769930  0.896230  0.420330  1.0  0.6846
  C  C174  1  0.624850  0.625780  0.555870  1.0  -0.0038
  C  C175  1  0.935700  0.273200  0.803100  1.0  0.7548
  C  C176  1  0.731400  0.665230  0.454510  1.0  -0.0434
  C  C177  1  0.272300  0.932900  0.806800  1.0  0.6624
  C  C178  1  0.688680  0.688570  0.039690  1.0  0.0803
  C  C179  1  0.948320  0.715880  0.573010  1.0  0.0514
  C  C180  1  0.484610  0.700040  0.917020  1.0  -0.0465
  C  C181  1  0.754690  0.470810  0.922730  1.0  -0.1094
  C  C182  1  0.625780  0.555870  0.624850  1.0  -0.0046
  C  C183  1  0.679930  0.937110  0.532840  1.0  -0.1607
  C  C184  1  0.751280  0.176210  0.030180  1.0  -0.1909
  C  C185  1  0.761440  0.987240  0.202240  1.0  -0.0552
  C  C186  1  0.004360  0.851460  0.214860  1.0  -0.0371
  C  C187  1  0.557750  0.769580  0.955720  1.0  -0.1394
  C  C188  1  0.758180  0.211680  0.987030  1.0  -0.1433
  C  C189  1  0.733100  0.730690  0.375710  1.0  0.7588
  C  C190  1  0.494820  0.703690  0.636700  1.0  -0.1279
  C  C191  1  0.214860  0.004360  0.851460  1.0  -0.0352
  C  C192  1  0.956280  0.569450  0.714690  1.0  0.0537
  C  C193  1  0.047630  0.844580  0.179580  1.0  -0.0931
  C  C194  1  0.484040  0.919370  0.700210  1.0  -0.0451
  C  C195  1  0.754960  0.916430  0.472910  1.0  -0.1293
  C  C196  1  0.685910  0.111210  0.756110  1.0  -0.1543
  C  C197  1  0.176210  0.030180  0.751280  1.0  -0.1926
  C  C198  1  0.573010  0.948320  0.715880  1.0  0.0504
  C  C199  1  0.532840  0.679930  0.937110  1.0  -0.1615
  C  C200  1  0.111210  0.756110  0.685910  1.0  -0.1518
  C  C201  1  0.159290  0.764190  0.023810  1.0  -0.0943
  C  C202  1  0.160570  0.772890  0.701910  1.0  -0.1465
  C  C203  1  0.019040  0.641710  0.711160  1.0  -0.1484
  C  C204  1  0.789660  0.936060  0.509300  1.0  -0.0423
  C  C205  1  0.850140  0.008960  0.225950  1.0  -0.0494
  C  C206  1  0.235300  0.804490  0.980040  1.0  -0.0148
  C  C207  1  0.770320  0.420020  0.898820  1.0  0.6947
  C  C208  1  0.577640  0.647570  0.578590  1.0  -0.1557
  C  C209  1  0.756110  0.685910  0.111210  1.0  -0.1498
  C  C210  1  0.764190  0.023810  0.159290  1.0  -0.0906
  C  C211  1  0.980040  0.235300  0.804490  1.0  -0.0139
  C  C212  1  0.160720  0.704720  0.772420  1.0  -0.0529
  C  C213  1  0.769410  0.558350  0.955890  1.0  -0.154
  C  C214  1  0.715880  0.573010  0.948320  1.0  0.0508
  C  C215  1  0.643340  0.952720  0.642800  1.0  -0.1222
  C  C216  1  0.806800  0.272300  0.932900  1.0  0.6627
  C  C217  1  0.896230  0.420330  0.769930  1.0  0.6824
  C  C218  1  0.936060  0.509300  0.789660  1.0  -0.0421
  C  C219  1  0.470810  0.922730  0.754690  1.0  -0.1109
  C  C220  1  0.701910  0.160570  0.772890  1.0  -0.1455
  C  C221  1  0.558350  0.955890  0.769410  1.0  -0.1551
  C  C222  1  0.713430  0.713040  0.086650  1.0  0.0503
  C  C223  1  0.420330  0.769930  0.896230  1.0  0.6835
  C  C224  1  0.922730  0.754690  0.470810  1.0  -0.1142
  C  C225  1  0.422950  0.704480  0.703670  1.0  -0.1268
  C  C226  1  0.714690  0.956280  0.569450  1.0  0.0527
  C  C227  1  0.936490  0.680510  0.533600  1.0  -0.1504
  C  C228  1  0.772890  0.701910  0.160570  1.0  -0.1472
  C  C229  1  0.772420  0.160720  0.704720  1.0  -0.052
  C  C230  1  0.987030  0.758180  0.211680  1.0  -0.1428
  C  C231  1  0.420020  0.898820  0.770320  1.0  0.6946
  C  C232  1  0.852830  0.045500  0.182910  1.0  -0.1308
  C  C233  1  0.808230  0.231110  0.974190  1.0  -0.0433
  C  C234  1  0.016150  0.713290  0.643970  1.0  -0.1702
  C  C235  1  0.039690  0.688680  0.688570  1.0  0.08
  C  C236  1  0.700040  0.917020  0.484610  1.0  -0.0461
  C  C237  1  0.768500  0.753200  0.237300  1.0  0.1945
  C  C238  1  0.618500  0.688270  0.975890  1.0  0.0559
  C  C239  1  0.023810  0.159290  0.764190  1.0  -0.0916
  C  C240  1  0.648970  0.646610  0.503600  1.0  0.0511
  C  C241  1  0.183400  0.749700  0.747600  1.0  0.0238
  C  C242  1  0.955720  0.557750  0.769580  1.0  -0.1377
  C  C243  1  0.431720  0.649780  0.713570  1.0  -0.0206
  N  N244  1  0.812580  0.088750  0.107610  1.0  -0.2454
  N  N245  1  0.124330  0.102800  0.779320  1.0  -0.1798
  N  N246  1  0.779320  0.124330  0.102800  1.0  -0.1769
  N  N247  1  0.102800  0.779320  0.124330  1.0  -0.1762
  N  N248  1  0.088750  0.107610  0.812580  1.0  -0.2468
  N  N249  1  0.107610  0.812580  0.088750  1.0  -0.2437
  O  O250  1  0.847520  0.923920  0.294920  1.0  -0.6056
  O  O251  1  0.251390  0.742990  0.793990  1.0  -0.6404
  O  O252  1  0.793990  0.251390  0.742990  1.0  -0.6392
  O  O253  1  0.845990  0.293890  0.923690  1.0  -0.6271
  O  O254  1  0.763580  0.910480  0.280280  1.0  -0.5836
  O  O255  1  0.910480  0.280280  0.763580  1.0  -0.5805
  O  O256  1  0.774590  0.360220  0.714110  1.0  -0.59
  O  O257  1  0.413460  0.904290  0.823280  1.0  -0.5874
  O  O258  1  0.387330  0.741020  0.881640  1.0  -0.5711
  O  O259  1  0.282230  0.911030  0.760930  1.0  -0.574
  O  O260  1  0.739320  0.388530  0.881540  1.0  -0.5716
  O  O261  1  0.741020  0.881640  0.387330  1.0  -0.5702
  O  O262  1  0.293890  0.923690  0.845990  1.0  -0.6289
  O  O263  1  0.714110  0.774590  0.360220  1.0  -0.5915
  O  O264  1  0.901640  0.413480  0.823960  1.0  -0.5859
  O  O265  1  0.820750  0.335420  0.820760  1.0  -1.0607
  O  O266  1  0.252360  0.802970  0.738200  1.0  -0.6664
  O  O267  1  0.714510  0.359400  0.775760  1.0  -0.5648
  O  O268  1  0.923690  0.845990  0.293890  1.0  -0.633
  O  O269  1  0.742990  0.793990  0.251390  1.0  -0.6414
  O  O270  1  0.388530  0.881540  0.739320  1.0  -0.5705
  O  O271  1  0.911030  0.760930  0.282230  1.0  -0.5745
  O  O272  1  0.335420  0.820760  0.820750  1.0  -1.0608
  O  O273  1  0.823280  0.413460  0.904290  1.0  -0.5877
  O  O274  1  0.923920  0.294920  0.847520  1.0  -0.6065
  O  O275  1  0.820760  0.820750  0.335420  1.0  -1.0615
  O  O276  1  0.802970  0.738200  0.252360  1.0  -0.6671
  O  O277  1  0.359400  0.775760  0.714510  1.0  -0.5662
  O  O278  1  0.881540  0.739320  0.388530  1.0  -0.572
  O  O279  1  0.738200  0.252360  0.802970  1.0  -0.6679
  O  O280  1  0.360220  0.714110  0.774590  1.0  -0.5889
  O  O281  1  0.904290  0.823280  0.413460  1.0  -0.5884
  O  O282  1  0.760930  0.282230  0.911030  1.0  -0.5752
  O  O283  1  0.881640  0.387330  0.741020  1.0  -0.5695
  O  O284  1  0.775760  0.714510  0.359400  1.0  -0.5659
  O  O285  1  0.294920  0.847520  0.923920  1.0  -0.6058
  O  O286  1  0.413480  0.823960  0.901640  1.0  -0.5862
  O  O287  1  0.823960  0.901640  0.413480  1.0  -0.5829
  O  O288  1  0.280280  0.763580  0.910480  1.0  -0.5832
