# generated using pymatgen
data_Fe3H28C50O13
_symmetry_space_group_name_H-M   'P 1'
_cell_length_a   20.52270000
_cell_length_b   20.52270000
_cell_length_c   20.52270000
_cell_angle_alpha   107.11900000
_cell_angle_beta   107.11900000
_cell_angle_gamma   107.11900000
_symmetry_Int_Tables_number   1
_chemical_formula_structural   Fe3H28C50O13
_chemical_formula_sum   'Fe9 H84 C150 O39'
_cell_volume   7175.12285053
_cell_formula_units_Z   3
loop_
 _symmetry_equiv_pos_site_id
 _symmetry_equiv_pos_as_xyz
  1  'x, y, z'
loop_
 _atom_site_type_symbol
 _atom_site_label
 _atom_site_symmetry_multiplicity
 _atom_site_fract_x
 _atom_site_fract_y
 _atom_site_fract_z
 _atom_site_occupancy
 _atom_site_charge
  Fe  Fe1  1  0.524110  0.425110  0.975850  1.0  1.2882
  Fe  Fe2  1  0.975850  0.524110  0.425110  1.0  1.295
  Fe  Fe3  1  0.371210  0.371210  0.824570  1.0  1.2257
  Fe  Fe4  1  0.425110  0.975850  0.524110  1.0  1.2858
  Fe  Fe5  1  0.824570  0.371210  0.371210  1.0  1.2239
  Fe  Fe6  1  0.425110  0.524110  0.975850  1.0  1.2935
  Fe  Fe7  1  0.524110  0.975850  0.425110  1.0  1.2908
  Fe  Fe8  1  0.371210  0.824570  0.371210  1.0  1.2232
  Fe  Fe9  1  0.975850  0.425110  0.524110  1.0  1.2872
  H  H10  1  0.999900  0.411300  0.106500  1.0  0.1205
  H  H11  1  0.987400  0.463800  0.216200  1.0  0.123
  H  H12  1  0.463800  0.987400  0.216200  1.0  0.1228
  H  H13  1  0.610200  0.732800  0.080900  1.0  0.1144
  H  H14  1  0.490900  0.368600  0.263900  1.0  0.1271
  H  H15  1  0.163200  0.822000  0.264300  1.0  0.1153
  H  H16  1  0.414500  0.732600  0.792400  1.0  0.1585
  H  H17  1  0.211900  0.834800  0.052200  1.0  0.1215
  H  H18  1  0.172700  0.522200  0.400000  1.0  0.1137
  H  H19  1  0.792400  0.414500  0.732600  1.0  0.1567
  H  H20  1  0.326650  0.326650  0.449400  1.0  0.1402
  H  H21  1  0.358100  0.548500  0.607200  1.0  0.1164
  H  H22  1  0.822000  0.264300  0.163200  1.0  0.1144
  H  H23  1  0.834800  0.052200  0.211900  1.0  0.1209
  H  H24  1  0.146700  0.719900  0.842900  1.0  0.1262
  H  H25  1  0.368600  0.263900  0.490900  1.0  0.1269
  H  H26  1  0.052200  0.211900  0.834800  1.0  0.1212
  H  H27  1  0.202900  0.811900  0.934400  1.0  0.114
  H  H28  1  0.476200  0.351200  0.676200  1.0  0.1111
  H  H29  1  0.080900  0.610200  0.732800  1.0  0.1135
  H  H30  1  0.264300  0.822000  0.163200  1.0  0.1146
  H  H31  1  0.490900  0.263900  0.368600  1.0  0.1278
  H  H32  1  0.610200  0.080900  0.732800  1.0  0.113
  H  H33  1  0.358100  0.607200  0.548500  1.0  0.1167
  H  H34  1  0.163200  0.264300  0.822000  1.0  0.1151
  H  H35  1  0.676200  0.476200  0.351200  1.0  0.1123
  H  H36  1  0.548500  0.358100  0.607200  1.0  0.1162
  H  H37  1  0.400000  0.522200  0.172700  1.0  0.1144
  H  H38  1  0.732600  0.792400  0.414500  1.0  0.1565
  H  H39  1  0.860000  0.660000  0.405400  1.0  0.116
  H  H40  1  0.660000  0.405400  0.860000  1.0  0.1146
  H  H41  1  0.476200  0.676200  0.351200  1.0  0.1118
  H  H42  1  0.106500  0.999900  0.411300  1.0  0.1223
  H  H43  1  0.607200  0.548500  0.358100  1.0  0.1154
  H  H44  1  0.172700  0.400000  0.522200  1.0  0.1141
  H  H45  1  0.263900  0.490900  0.368600  1.0  0.1274
  H  H46  1  0.732800  0.080900  0.610200  1.0  0.113
  H  H47  1  0.349100  0.030900  0.030900  1.0  0.1159
  H  H48  1  0.080900  0.732800  0.610200  1.0  0.1131
  H  H49  1  0.411300  0.999900  0.106500  1.0  0.1199
  H  H50  1  0.719900  0.842900  0.146700  1.0  0.1224
  H  H51  1  0.792400  0.732600  0.414500  1.0  0.157
  H  H52  1  0.934400  0.811900  0.202900  1.0  0.1146
  H  H53  1  0.660000  0.860000  0.405400  1.0  0.1159
  H  H54  1  0.842900  0.146700  0.719900  1.0  0.1227
  H  H55  1  0.030900  0.030900  0.349100  1.0  0.1162
  H  H56  1  0.934400  0.202900  0.811900  1.0  0.1141
  H  H57  1  0.351200  0.676200  0.476200  1.0  0.112
  H  H58  1  0.860000  0.405400  0.660000  1.0  0.1155
  H  H59  1  0.822000  0.163200  0.264300  1.0  0.115
  H  H60  1  0.405400  0.860000  0.660000  1.0  0.1164
  H  H61  1  0.216200  0.987400  0.463800  1.0  0.1235
  H  H62  1  0.052200  0.834800  0.211900  1.0  0.1214
  H  H63  1  0.732800  0.610200  0.080900  1.0  0.1144
  H  H64  1  0.030900  0.349100  0.030900  1.0  0.1153
  H  H65  1  0.719900  0.146700  0.842900  1.0  0.125
  H  H66  1  0.607200  0.358100  0.548500  1.0  0.1156
  H  H67  1  0.811900  0.202900  0.934400  1.0  0.114
  H  H68  1  0.449400  0.326650  0.326650  1.0  0.1392
  H  H69  1  0.368600  0.490900  0.263900  1.0  0.1255
  H  H70  1  0.351200  0.476200  0.676200  1.0  0.112
  H  H71  1  0.106500  0.411300  0.999900  1.0  0.121
  H  H72  1  0.676200  0.351200  0.476200  1.0  0.1116
  H  H73  1  0.522200  0.400000  0.172700  1.0  0.1138
  H  H74  1  0.411300  0.106500  0.999900  1.0  0.1191
  H  H75  1  0.842900  0.719900  0.146700  1.0  0.1219
  H  H76  1  0.811900  0.934400  0.202900  1.0  0.1147
  H  H77  1  0.732600  0.414500  0.792400  1.0  0.1553
  H  H78  1  0.987400  0.216200  0.463800  1.0  0.1225
  H  H79  1  0.463800  0.216200  0.987400  1.0  0.1217
  H  H80  1  0.400000  0.172700  0.522200  1.0  0.1147
  H  H81  1  0.999900  0.106500  0.411300  1.0  0.1207
  H  H82  1  0.522200  0.172700  0.400000  1.0  0.114
  H  H83  1  0.326650  0.449400  0.326650  1.0  0.138
  H  H84  1  0.264300  0.163200  0.822000  1.0  0.1147
  H  H85  1  0.146700  0.842900  0.719900  1.0  0.1238
  H  H86  1  0.211900  0.052200  0.834800  1.0  0.1207
  H  H87  1  0.216200  0.463800  0.987400  1.0  0.1222
  H  H88  1  0.548500  0.607200  0.358100  1.0  0.117
  H  H89  1  0.263900  0.368600  0.490900  1.0  0.1293
  H  H90  1  0.834800  0.211900  0.052200  1.0  0.1216
  H  H91  1  0.405400  0.660000  0.860000  1.0  0.1147
  H  H92  1  0.202900  0.934400  0.811900  1.0  0.1143
  H  H93  1  0.414500  0.792400  0.732600  1.0  0.1595
  C  C94  1  0.318930  0.391960  0.391960  1.0  0.0246
  C  C95  1  0.396000  0.637400  0.808600  1.0  -0.0368
  C  C96  1  0.865770  0.085530  0.263100  1.0  -0.1386
  C  C97  1  0.660500  0.660500  0.073800  1.0  -0.144
  C  C98  1  0.306200  0.918300  0.067900  1.0  0.0452
  C  C99  1  0.280500  0.993600  0.920200  1.0  0.0035
  C  C100  1  0.819500  0.518000  0.384500  1.0  0.7216
  C  C101  1  0.918300  0.306200  0.067900  1.0  0.0452
  C  C102  1  0.571400  0.658700  0.368300  1.0  -0.1066
  C  C103  1  0.401500  0.768700  0.680500  1.0  -0.1161
  C  C104  1  0.095100  0.470200  0.470200  1.0  0.7135
  C  C105  1  0.518000  0.384500  0.819500  1.0  0.7223
  C  C106  1  0.637400  0.396000  0.808600  1.0  -0.036
  C  C107  1  0.768700  0.680500  0.401500  1.0  -0.1166
  C  C108  1  0.268600  0.400100  0.895200  1.0  0.7682
  C  C109  1  0.368300  0.571400  0.658700  1.0  -0.1135
  C  C110  1  0.377000  0.774700  0.561000  1.0  -0.1564
  C  C111  1  0.381300  0.963600  0.117900  1.0  -0.1264
  C  C112  1  0.400100  0.268600  0.895200  1.0  0.7667
  C  C113  1  0.085530  0.865770  0.263100  1.0  -0.1427
  C  C114  1  0.487510  0.415030  0.188160  1.0  -0.0426
  C  C115  1  0.263100  0.865770  0.085530  1.0  -0.1431
  C  C116  1  0.343290  0.416250  0.343290  1.0  -0.0939
  C  C117  1  0.183100  0.956500  0.412600  1.0  -0.0706
  C  C118  1  0.647400  0.387800  0.693100  1.0  -0.0123
  C  C119  1  0.067900  0.918300  0.306200  1.0  0.0446
  C  C120  1  0.222700  0.858200  0.931000  1.0  -0.1829
  C  C121  1  0.242530  0.469150  0.396420  1.0  -0.1243
  C  C122  1  0.455400  0.156510  0.455400  1.0  -0.0887
  C  C123  1  0.680500  0.768700  0.401500  1.0  -0.1169
  C  C124  1  0.151800  0.294200  0.858100  1.0  -0.0859
  C  C125  1  0.094100  0.730230  0.657470  1.0  -0.0341
  C  C126  1  0.193600  0.863550  0.863550  1.0  0.2254
  C  C127  1  0.792050  0.153000  0.792050  1.0  0.0472
  C  C128  1  0.455400  0.455400  0.156510  1.0  -0.0905
  C  C129  1  0.133200  0.722510  0.795590  1.0  -0.1282
  C  C130  1  0.722510  0.795590  0.133200  1.0  -0.1255
  C  C131  1  0.895200  0.400100  0.268600  1.0  0.7675
  C  C132  1  0.819500  0.384500  0.518000  1.0  0.7223
  C  C133  1  0.774700  0.561000  0.377000  1.0  -0.1561
  C  C134  1  0.931000  0.858200  0.222700  1.0  -0.1851
  C  C135  1  0.309600  0.988250  0.988250  1.0  -0.1133
  C  C136  1  0.416250  0.343290  0.343290  1.0  -0.0926
  C  C137  1  0.858100  0.294200  0.151800  1.0  -0.0857
  C  C138  1  0.133200  0.795590  0.722510  1.0  -0.1261
  C  C139  1  0.795590  0.722510  0.133200  1.0  -0.1282
  C  C140  1  0.487510  0.188160  0.415030  1.0  -0.044
  C  C141  1  0.993600  0.280500  0.920200  1.0  0.0021
  C  C142  1  0.401500  0.680500  0.768700  1.0  -0.1178
  C  C143  1  0.469150  0.242530  0.396420  1.0  -0.1208
  C  C144  1  0.774700  0.377000  0.561000  1.0  -0.1558
  C  C145  1  0.067900  0.306200  0.918300  1.0  0.0441
  C  C146  1  0.988250  0.309600  0.988250  1.0  -0.1152
  C  C147  1  0.571400  0.368300  0.658700  1.0  -0.1085
  C  C148  1  0.384500  0.819500  0.518000  1.0  0.7223
  C  C149  1  0.693100  0.387800  0.647400  1.0  -0.0129
  C  C150  1  0.963600  0.117900  0.381300  1.0  -0.1255
  C  C151  1  0.188160  0.487510  0.415030  1.0  -0.0454
  C  C152  1  0.920200  0.280500  0.993600  1.0  0.0024
  C  C153  1  0.183100  0.412600  0.956500  1.0  -0.0723
  C  C154  1  0.920200  0.993600  0.280500  1.0  0.0029
  C  C155  1  0.156510  0.455400  0.455400  1.0  -0.0888
  C  C156  1  0.657470  0.094100  0.730230  1.0  -0.0334
  C  C157  1  0.699700  0.528200  0.363600  1.0  -0.0439
  C  C158  1  0.363600  0.699700  0.528200  1.0  -0.0462
  C  C159  1  0.469150  0.396420  0.242530  1.0  -0.1224
  C  C160  1  0.306200  0.067900  0.918300  1.0  0.0455
  C  C161  1  0.768700  0.401500  0.680500  1.0  -0.1146
  C  C162  1  0.073800  0.660500  0.660500  1.0  -0.1438
  C  C163  1  0.657470  0.730230  0.094100  1.0  -0.0344
  C  C164  1  0.722510  0.133200  0.795590  1.0  -0.1288
  C  C165  1  0.033200  0.589300  0.589300  1.0  0.7386
  C  C166  1  0.200450  0.903350  0.368900  1.0  -0.1237
  C  C167  1  0.561000  0.774700  0.377000  1.0  -0.1556
  C  C168  1  0.918300  0.067900  0.306200  1.0  0.0457
  C  C169  1  0.387800  0.647400  0.693100  1.0  -0.0133
  C  C170  1  0.895200  0.268600  0.400100  1.0  0.7671
  C  C171  1  0.343290  0.343290  0.416250  1.0  -0.0954
  C  C172  1  0.956500  0.412600  0.183100  1.0  -0.0758
  C  C173  1  0.117900  0.381300  0.963600  1.0  -0.1292
  C  C174  1  0.377000  0.561000  0.774700  1.0  -0.1567
  C  C175  1  0.637400  0.808600  0.396000  1.0  -0.0393
  C  C176  1  0.363600  0.528200  0.699700  1.0  -0.0442
  C  C177  1  0.268600  0.895200  0.400100  1.0  0.7666
  C  C178  1  0.561000  0.377000  0.774700  1.0  -0.1567
  C  C179  1  0.368900  0.903350  0.200450  1.0  -0.1253
  C  C180  1  0.730230  0.094100  0.657470  1.0  -0.0345
  C  C181  1  0.368300  0.658700  0.571400  1.0  -0.1092
  C  C182  1  0.693100  0.647400  0.387800  1.0  -0.0127
  C  C183  1  0.808600  0.396000  0.637400  1.0  -0.0355
  C  C184  1  0.518000  0.819500  0.384500  1.0  0.7204
  C  C185  1  0.265440  0.418780  0.418780  1.0  0.0301
  C  C186  1  0.415030  0.487510  0.188160  1.0  -0.0448
  C  C187  1  0.660500  0.073800  0.660500  1.0  -0.1442
  C  C188  1  0.387800  0.693100  0.647400  1.0  -0.0134
  C  C189  1  0.085530  0.263100  0.865770  1.0  -0.1416
  C  C190  1  0.368900  0.200450  0.903350  1.0  -0.1236
  C  C191  1  0.858200  0.222700  0.931000  1.0  -0.1849
  C  C192  1  0.188160  0.415030  0.487510  1.0  -0.0492
  C  C193  1  0.294200  0.151800  0.858100  1.0  -0.0849
  C  C194  1  0.730230  0.657470  0.094100  1.0  -0.0317
  C  C195  1  0.931000  0.222700  0.858200  1.0  -0.1854
  C  C196  1  0.647400  0.693100  0.387800  1.0  -0.0126
  C  C197  1  0.658700  0.368300  0.571400  1.0  -0.1071
  C  C198  1  0.412600  0.183100  0.956500  1.0  -0.0704
  C  C199  1  0.280500  0.920200  0.993600  1.0  0.0022
  C  C200  1  0.151800  0.858100  0.294200  1.0  -0.0882
  C  C201  1  0.391960  0.318930  0.391960  1.0  0.0243
  C  C202  1  0.396420  0.242530  0.469150  1.0  -0.1212
  C  C203  1  0.415030  0.188160  0.487510  1.0  -0.0471
  C  C204  1  0.903350  0.368900  0.200450  1.0  -0.1233
  C  C205  1  0.858100  0.151800  0.294200  1.0  -0.085
  C  C206  1  0.418780  0.265440  0.418780  1.0  0.0307
  C  C207  1  0.956500  0.183100  0.412600  1.0  -0.0739
  C  C208  1  0.963600  0.381300  0.117900  1.0  -0.1276
  C  C209  1  0.242530  0.396420  0.469150  1.0  -0.1217
  C  C210  1  0.863550  0.863550  0.193600  1.0  0.2269
  C  C211  1  0.470200  0.095100  0.470200  1.0  0.7152
  C  C212  1  0.263100  0.085530  0.865770  1.0  -0.1393
  C  C213  1  0.418780  0.418780  0.265440  1.0  0.0298
  C  C214  1  0.795590  0.133200  0.722510  1.0  -0.1287
  C  C215  1  0.699700  0.363600  0.528200  1.0  -0.0468
  C  C216  1  0.396420  0.469150  0.242530  1.0  -0.1213
  C  C217  1  0.400100  0.895200  0.268600  1.0  0.7688
  C  C218  1  0.412600  0.956500  0.183100  1.0  -0.0744
  C  C219  1  0.808600  0.637400  0.396000  1.0  -0.0365
  C  C220  1  0.865770  0.263100  0.085530  1.0  -0.1413
  C  C221  1  0.117900  0.963600  0.381300  1.0  -0.1261
  C  C222  1  0.589300  0.033200  0.589300  1.0  0.7391
  C  C223  1  0.680500  0.401500  0.768700  1.0  -0.1154
  C  C224  1  0.792050  0.792050  0.153000  1.0  0.0477
  C  C225  1  0.381300  0.117900  0.963600  1.0  -0.1253
  C  C226  1  0.589300  0.589300  0.033200  1.0  0.7386
  C  C227  1  0.988250  0.988250  0.309600  1.0  -0.1142
  C  C228  1  0.153000  0.792050  0.792050  1.0  0.0451
  C  C229  1  0.294200  0.858100  0.151800  1.0  -0.0874
  C  C230  1  0.200450  0.368900  0.903350  1.0  -0.1234
  C  C231  1  0.396000  0.808600  0.637400  1.0  -0.0392
  C  C232  1  0.222700  0.931000  0.858200  1.0  -0.1851
  C  C233  1  0.094100  0.657470  0.730230  1.0  -0.0325
  C  C234  1  0.993600  0.920200  0.280500  1.0  0.0012
  C  C235  1  0.528200  0.699700  0.363600  1.0  -0.0468
  C  C236  1  0.863550  0.193600  0.863550  1.0  0.2258
  C  C237  1  0.858200  0.931000  0.222700  1.0  -0.1859
  C  C238  1  0.658700  0.571400  0.368300  1.0  -0.108
  C  C239  1  0.470200  0.470200  0.095100  1.0  0.7164
  C  C240  1  0.384500  0.518000  0.819500  1.0  0.7239
  C  C241  1  0.903350  0.200450  0.368900  1.0  -0.1224
  C  C242  1  0.391960  0.391960  0.318930  1.0  0.0262
  C  C243  1  0.528200  0.363600  0.699700  1.0  -0.047
  O  O244  1  0.597510  0.016700  0.529790  1.0  -0.6037
  O  O245  1  0.403980  0.554120  0.890800  1.0  -0.618
  O  O246  1  0.279370  0.361050  0.843590  1.0  -0.6355
  O  O247  1  0.463010  0.942230  0.314060  1.0  -0.6219
  O  O248  1  0.403980  0.890800  0.554120  1.0  -0.6183
  O  O249  1  0.926080  0.439210  0.439210  1.0  -1.1482
  O  O250  1  0.942230  0.463010  0.314060  1.0  -0.6202
  O  O251  1  0.452320  0.789690  0.367790  1.0  -0.5978
  O  O252  1  0.597510  0.529790  0.016700  1.0  -0.6055
  O  O253  1  0.942230  0.314060  0.463010  1.0  -0.6205
  O  O254  1  0.069210  0.440940  0.508850  1.0  -0.6201
  O  O255  1  0.279370  0.843590  0.361050  1.0  -0.6369
  O  O256  1  0.361050  0.843590  0.279370  1.0  -0.6348
  O  O257  1  0.069210  0.508850  0.440940  1.0  -0.6192
  O  O258  1  0.789690  0.367790  0.452320  1.0  -0.5957
  O  O259  1  0.439210  0.439210  0.926080  1.0  -1.1484
  O  O260  1  0.508850  0.069210  0.440940  1.0  -0.6181
  O  O261  1  0.890800  0.554120  0.403980  1.0  -0.6166
  O  O262  1  0.508850  0.440940  0.069210  1.0  -0.6216
  O  O263  1  0.463010  0.314060  0.942230  1.0  -0.623
  O  O264  1  0.843590  0.361050  0.279370  1.0  -0.6364
  O  O265  1  0.367790  0.789690  0.452320  1.0  -0.5968
  O  O266  1  0.440940  0.069210  0.508850  1.0  -0.6204
  O  O267  1  0.554120  0.403980  0.890800  1.0  -0.6152
  O  O268  1  0.789690  0.452320  0.367790  1.0  -0.5956
  O  O269  1  0.843590  0.279370  0.361050  1.0  -0.6358
  O  O270  1  0.890800  0.403980  0.554120  1.0  -0.6152
  O  O271  1  0.452320  0.367790  0.789690  1.0  -0.5953
  O  O272  1  0.440940  0.508850  0.069210  1.0  -0.6224
  O  O273  1  0.529790  0.016700  0.597510  1.0  -0.6026
  O  O274  1  0.554120  0.890800  0.403980  1.0  -0.6173
  O  O275  1  0.367790  0.452320  0.789690  1.0  -0.5954
  O  O276  1  0.361050  0.279370  0.843590  1.0  -0.6321
  O  O277  1  0.016700  0.597510  0.529790  1.0  -0.6025
  O  O278  1  0.529790  0.597510  0.016700  1.0  -0.6042
  O  O279  1  0.314060  0.463010  0.942230  1.0  -0.6254
  O  O280  1  0.439210  0.926080  0.439210  1.0  -1.148
  O  O281  1  0.314060  0.942230  0.463010  1.0  -0.6235
  O  O282  1  0.016700  0.529790  0.597510  1.0  -0.604
