# generated using pymatgen
data_FeCoH2(CO)6
_symmetry_space_group_name_H-M   'P 1'
_cell_length_a   16.69700000
_cell_length_b   13.84800000
_cell_length_c   10.87300000
_cell_angle_alpha   90.00000000
_cell_angle_beta   101.62000000
_cell_angle_gamma   90.00000000
_symmetry_Int_Tables_number   1
_chemical_formula_structural   FeCoH2(CO)6
_chemical_formula_sum   'Fe6 Co6 H12 C36 O36'
_cell_volume   2462.53009918
_cell_formula_units_Z   6
loop_
 _symmetry_equiv_pos_site_id
 _symmetry_equiv_pos_as_xyz
  1  'x, y, z'
loop_
 _atom_site_type_symbol
 _atom_site_label
 _atom_site_symmetry_multiplicity
 _atom_site_fract_x
 _atom_site_fract_y
 _atom_site_fract_z
 _atom_site_occupancy
 _atom_site_charge
  Fe  Fe1  1  0.934800  0.630600  0.857800  1.0  0.8016
  Fe  Fe2  1  0.434800  0.130600  0.857800  1.0  0.8017
  Fe  Fe3  1  0.065200  0.630600  0.142200  1.0  0.7857
  Fe  Fe4  1  0.565200  0.130600  0.142200  1.0  0.7856
  Fe  Fe5  1  0.000000  0.419500  0.000000  1.0  0.7543
  Fe  Fe6  1  0.500000  0.919500  0.000000  1.0  0.7543
  Co  Co7  1  0.934200  0.633700  0.876600  1.0  0.7781
  Co  Co8  1  0.434200  0.133700  0.876600  1.0  0.7781
  Co  Co9  1  0.065800  0.633700  0.123400  1.0  0.7811
  Co  Co10  1  0.565800  0.133700  0.123400  1.0  0.7811
  Co  Co11  1  0.000000  0.432300  0.000000  1.0  0.7838
  Co  Co12  1  0.500000  0.932300  0.000000  1.0  0.7838
  H  H13  1  0.680900  0.506800  0.706600  1.0  0.1442
  H  H14  1  0.553600  0.399100  0.718200  1.0  0.1492
  H  H15  1  0.996400  0.272800  0.621100  1.0  0.191
  H  H16  1  0.180900  0.006800  0.706600  1.0  0.1442
  H  H17  1  0.053600  0.899100  0.718200  1.0  0.1492
  H  H18  1  0.496400  0.772800  0.621100  1.0  0.191
  H  H19  1  0.319100  0.506800  0.293400  1.0  0.1446
  H  H20  1  0.446400  0.399100  0.281800  1.0  0.1488
  H  H21  1  0.003600  0.272800  0.378900  1.0  0.1901
  H  H22  1  0.819100  0.006800  0.293400  1.0  0.1446
  H  H23  1  0.946400  0.899100  0.281800  1.0  0.1488
  H  H24  1  0.503600  0.772800  0.378900  1.0  0.1901
  C  C25  1  0.823500  0.461200  0.895300  1.0  0.7174
  C  C26  1  0.734600  0.429200  0.857100  1.0  0.089
  C  C27  1  0.677600  0.457000  0.765400  1.0  -0.1023
  C  C28  1  0.606400  0.395800  0.770500  1.0  -0.1086
  C  C29  1  0.632800  0.333700  0.866400  1.0  0.0999
  C  C30  1  0.586200  0.255000  0.918100  1.0  0.6853
  C  C31  1  0.986600  0.467300  0.722300  1.0  0.7133
  C  C32  1  0.999300  0.427500  0.597500  1.0  0.1205
  C  C33  1  0.998500  0.326400  0.567400  1.0  -0.0877
  C  C34  1  0.323500  0.961200  0.895300  1.0  0.7174
  C  C35  1  0.234600  0.929200  0.857100  1.0  0.089
  C  C36  1  0.177600  0.957000  0.765400  1.0  -0.1023
  C  C37  1  0.106400  0.895800  0.770500  1.0  -0.1086
  C  C38  1  0.132800  0.833700  0.866400  1.0  0.0999
  C  C39  1  0.086200  0.755000  0.918100  1.0  0.6853
  C  C40  1  0.486600  0.967300  0.722300  1.0  0.7133
  C  C41  1  0.499300  0.927500  0.597500  1.0  0.1205
  C  C42  1  0.498500  0.826400  0.567400  1.0  -0.0877
  C  C43  1  0.176500  0.461200  0.104700  1.0  0.7191
  C  C44  1  0.265400  0.429200  0.142900  1.0  0.0852
  C  C45  1  0.322400  0.457000  0.234600  1.0  -0.1012
  C  C46  1  0.393600  0.395800  0.229500  1.0  -0.1084
  C  C47  1  0.367200  0.333700  0.133600  1.0  0.0989
  C  C48  1  0.413800  0.255000  0.081900  1.0  0.6859
  C  C49  1  0.013400  0.467300  0.277700  1.0  0.7118
  C  C50  1  0.000700  0.427500  0.402500  1.0  0.1218
  C  C51  1  0.001500  0.326400  0.432600  1.0  -0.0884
  C  C52  1  0.676500  0.961200  0.104700  1.0  0.7191
  C  C53  1  0.765400  0.929200  0.142900  1.0  0.0852
  C  C54  1  0.822400  0.957000  0.234600  1.0  -0.1012
  C  C55  1  0.893600  0.895800  0.229500  1.0  -0.1084
  C  C56  1  0.867200  0.833700  0.133600  1.0  0.0989
  C  C57  1  0.913800  0.755000  0.081900  1.0  0.6859
  C  C58  1  0.513400  0.967300  0.277700  1.0  0.7118
  C  C59  1  0.500700  0.927500  0.402500  1.0  0.1218
  C  C60  1  0.501500  0.826400  0.432600  1.0  -0.0884
  O  O61  1  0.871500  0.413800  0.971800  1.0  -0.6186
  O  O62  1  0.836300  0.540300  0.836000  1.0  -0.704
  O  O63  1  0.711400  0.351100  0.921600  1.0  -0.1539
  O  O64  1  0.624000  0.214300  0.020300  1.0  -0.5549
  O  O65  1  0.517500  0.241100  0.858400  1.0  -0.6736
  O  O66  1  0.991500  0.406500  0.809500  1.0  -0.6664
  O  O67  1  0.981300  0.560000  0.726000  1.0  -0.5782
  O  O68  1  0.864500  0.711500  0.715800  1.0  -0.4581
  O  O69  1  0.371500  0.913800  0.971800  1.0  -0.6186
  O  O70  1  0.336300  0.040300  0.836000  1.0  -0.704
  O  O71  1  0.211400  0.851100  0.921600  1.0  -0.1539
  O  O72  1  0.124000  0.714300  0.020300  1.0  -0.5549
  O  O73  1  0.017500  0.741100  0.858400  1.0  -0.6736
  O  O74  1  0.491500  0.906500  0.809500  1.0  -0.6664
  O  O75  1  0.481300  0.060000  0.726000  1.0  -0.578
  O  O76  1  0.364500  0.211500  0.715800  1.0  -0.4581
  O  O77  1  0.128500  0.413800  0.028200  1.0  -0.6178
  O  O78  1  0.163700  0.540300  0.164000  1.0  -0.7043
  O  O79  1  0.288600  0.351100  0.078400  1.0  -0.1497
  O  O80  1  0.376000  0.214300  0.979700  1.0  -0.5516
  O  O81  1  0.482500  0.241100  0.141600  1.0  -0.6715
  O  O82  1  0.008500  0.406500  0.190500  1.0  -0.6669
  O  O83  1  0.018700  0.560000  0.274000  1.0  -0.5775
  O  O84  1  0.135500  0.711500  0.284200  1.0  -0.4572
  O  O85  1  0.628500  0.913800  0.028200  1.0  -0.6178
  O  O86  1  0.663700  0.040300  0.164000  1.0  -0.7043
  O  O87  1  0.788600  0.851100  0.078400  1.0  -0.1497
  O  O88  1  0.876000  0.714300  0.979700  1.0  -0.5516
  O  O89  1  0.982500  0.741100  0.141600  1.0  -0.6715
  O  O90  1  0.508500  0.906500  0.190500  1.0  -0.6669
  O  O91  1  0.518700  0.060000  0.274000  1.0  -0.5774
  O  O92  1  0.635500  0.211500  0.284200  1.0  -0.4572
  O  O93  1  0.000000  0.482900  0.500000  1.0  -0.249
  O  O94  1  0.500000  0.982900  0.500000  1.0  -0.249
  O  O95  1  0.000000  0.568100  0.000000  1.0  -0.8507
  O  O96  1  0.500000  0.068100  0.000000  1.0  -0.8507
