# generated using pymatgen
data_Fe3H24C42N6O13
_symmetry_space_group_name_H-M   'P 1'
_cell_length_a   18.69960000
_cell_length_b   18.69960000
_cell_length_c   28.85720000
_cell_angle_alpha   90.00000000
_cell_angle_beta   90.00000000
_cell_angle_gamma   120.00000000
_symmetry_Int_Tables_number   1
_chemical_formula_structural   Fe3H24C42N6O13
_chemical_formula_sum   'Fe18 H144 C252 N36 O78'
_cell_volume   8738.75280518
_cell_formula_units_Z   6
loop_
 _symmetry_equiv_pos_site_id
 _symmetry_equiv_pos_as_xyz
  1  'x, y, z'
loop_
 _atom_site_type_symbol
 _atom_site_label
 _atom_site_symmetry_multiplicity
 _atom_site_fract_x
 _atom_site_fract_y
 _atom_site_fract_z
 _atom_site_occupancy
 _atom_site_charge
  Fe  Fe1  1  0.059200  0.118400  0.338100  1.0  1.3082
  Fe  Fe2  1  0.607900  0.215800  0.837600  1.0  1.2959
  Fe  Fe3  1  0.059200  0.940800  0.338100  1.0  1.302
  Fe  Fe4  1  0.784200  0.392100  0.837600  1.0  1.297
  Fe  Fe5  1  0.881600  0.940800  0.338100  1.0  1.3036
  Fe  Fe6  1  0.607900  0.392100  0.837600  1.0  1.2982
  Fe  Fe7  1  0.118400  0.059200  0.838100  1.0  1.3047
  Fe  Fe8  1  0.940800  0.881600  0.838100  1.0  1.3053
  Fe  Fe9  1  0.392100  0.784200  0.337600  1.0  1.2998
  Fe  Fe10  1  0.392100  0.607900  0.337600  1.0  1.2936
  Fe  Fe11  1  0.940800  0.059200  0.838100  1.0  1.3057
  Fe  Fe12  1  0.215800  0.607900  0.337600  1.0  1.2955
  Fe  Fe13  1  0.725700  0.451400  0.306300  1.0  1.1719
  Fe  Fe14  1  0.274300  0.548600  0.806300  1.0  1.1678
  Fe  Fe15  1  0.548600  0.274300  0.306300  1.0  1.1676
  Fe  Fe16  1  0.725700  0.274300  0.306300  1.0  1.1687
  Fe  Fe17  1  0.274300  0.725700  0.806300  1.0  1.1688
  Fe  Fe18  1  0.451400  0.725700  0.806300  1.0  1.1709
  H  H19  1  0.690900  0.598900  0.029600  1.0  0.1179
  H  H20  1  0.874900  0.343000  0.712500  1.0  0.1245
  H  H21  1  0.877400  0.340200  0.955700  1.0  0.1185
  H  H22  1  0.908000  0.309100  0.029600  1.0  0.118
  H  H23  1  0.006400  0.211500  0.459500  1.0  0.1238
  H  H24  1  0.977600  0.738000  0.534900  1.0  0.123
  H  H25  1  0.984200  0.751300  0.140200  1.0  0.1211
  H  H26  1  0.205100  0.211500  0.459500  1.0  0.1235
  H  H27  1  0.877400  0.537200  0.955700  1.0  0.118
  H  H28  1  0.006400  0.794900  0.459500  1.0  0.1246
  H  H29  1  0.462800  0.340200  0.955700  1.0  0.1185
  H  H30  1  0.901600  0.586100  0.636600  1.0  0.1193
  H  H31  1  0.413900  0.315500  0.636600  1.0  0.1183
  H  H32  1  0.690900  0.092000  0.029600  1.0  0.1181
  H  H33  1  0.760400  0.022400  0.534900  1.0  0.1233
  H  H34  1  0.767100  0.751300  0.140200  1.0  0.1211
  H  H35  1  0.462800  0.122600  0.955700  1.0  0.1187
  H  H36  1  0.248700  0.232900  0.140200  1.0  0.1216
  H  H37  1  0.874900  0.531900  0.712500  1.0  0.1243
  H  H38  1  0.657000  0.125100  0.712500  1.0  0.1241
  H  H39  1  0.901600  0.315500  0.636600  1.0  0.1186
  H  H40  1  0.468100  0.343000  0.712500  1.0  0.1243
  H  H41  1  0.657000  0.531900  0.712500  1.0  0.1242
  H  H42  1  0.401100  0.092000  0.029600  1.0  0.1185
  H  H43  1  0.792500  0.802500  0.216500  1.0  0.1287
  H  H44  1  0.197500  0.990000  0.216500  1.0  0.1285
  H  H45  1  0.401100  0.309100  0.029600  1.0  0.1177
  H  H46  1  0.788500  0.993600  0.459500  1.0  0.1242
  H  H47  1  0.792500  0.990000  0.216500  1.0  0.1285
  H  H48  1  0.010000  0.802500  0.216500  1.0  0.1287
  H  H49  1  0.659800  0.122600  0.955700  1.0  0.1186
  H  H50  1  0.010000  0.207500  0.216500  1.0  0.1292
  H  H51  1  0.984200  0.232900  0.140200  1.0  0.1216
  H  H52  1  0.684500  0.586100  0.636600  1.0  0.1192
  H  H53  1  0.767100  0.015800  0.140200  1.0  0.1209
  H  H54  1  0.197500  0.207500  0.216500  1.0  0.1291
  H  H55  1  0.684500  0.098400  0.636600  1.0  0.1188
  H  H56  1  0.977600  0.239600  0.534900  1.0  0.123
  H  H57  1  0.413900  0.098400  0.636600  1.0  0.1184
  H  H58  1  0.262000  0.022400  0.534900  1.0  0.1231
  H  H59  1  0.788500  0.794900  0.459500  1.0  0.1238
  H  H60  1  0.205100  0.993600  0.459500  1.0  0.1242
  H  H61  1  0.908000  0.598900  0.029600  1.0  0.1178
  H  H62  1  0.659800  0.537200  0.955700  1.0  0.1183
  H  H63  1  0.468100  0.125100  0.712500  1.0  0.1245
  H  H64  1  0.248700  0.015800  0.140200  1.0  0.1213
  H  H65  1  0.760400  0.738000  0.534900  1.0  0.1226
  H  H66  1  0.262000  0.239600  0.534900  1.0  0.1228
  H  H67  1  0.751300  0.984200  0.640200  1.0  0.1213
  H  H68  1  0.340200  0.877400  0.455700  1.0  0.1186
  H  H69  1  0.738000  0.977600  0.034900  1.0  0.1227
  H  H70  1  0.531900  0.657000  0.212500  1.0  0.1243
  H  H71  1  0.022400  0.760400  0.034900  1.0  0.1232
  H  H72  1  0.022400  0.262000  0.034900  1.0  0.1227
  H  H73  1  0.239600  0.977600  0.034900  1.0  0.1225
  H  H74  1  0.092000  0.401100  0.529600  1.0  0.1179
  H  H75  1  0.794900  0.006400  0.959500  1.0  0.1243
  H  H76  1  0.211500  0.205100  0.959500  1.0  0.1245
  H  H77  1  0.309100  0.401100  0.529600  1.0  0.1179
  H  H78  1  0.343000  0.468100  0.212500  1.0  0.1241
  H  H79  1  0.586100  0.684500  0.136600  1.0  0.1191
  H  H80  1  0.232900  0.248700  0.640200  1.0  0.1212
  H  H81  1  0.537200  0.659800  0.455700  1.0  0.1186
  H  H82  1  0.990000  0.197500  0.716500  1.0  0.1287
  H  H83  1  0.993600  0.205100  0.959500  1.0  0.1236
  H  H84  1  0.207500  0.197500  0.716500  1.0  0.1287
  H  H85  1  0.122600  0.659800  0.455700  1.0  0.1184
  H  H86  1  0.098400  0.684500  0.136600  1.0  0.1186
  H  H87  1  0.586100  0.901600  0.136600  1.0  0.1187
  H  H88  1  0.598900  0.908000  0.529600  1.0  0.1178
  H  H89  1  0.802500  0.010000  0.716500  1.0  0.1285
  H  H90  1  0.343000  0.874900  0.212500  1.0  0.1245
  H  H91  1  0.598900  0.690900  0.529600  1.0  0.1184
  H  H92  1  0.211500  0.006400  0.959500  1.0  0.1241
  H  H93  1  0.122600  0.462800  0.455700  1.0  0.1184
  H  H94  1  0.794900  0.788500  0.959500  1.0  0.1241
  H  H95  1  0.125100  0.468100  0.212500  1.0  0.124
  H  H96  1  0.239600  0.262000  0.034900  1.0  0.123
  H  H97  1  0.015800  0.767100  0.640200  1.0  0.1219
  H  H98  1  0.315500  0.413900  0.136600  1.0  0.1192
  H  H99  1  0.993600  0.788500  0.959500  1.0  0.1237
  H  H100  1  0.537200  0.877400  0.455700  1.0  0.1187
  H  H101  1  0.990000  0.792500  0.716500  1.0  0.1289
  H  H102  1  0.738000  0.760400  0.034900  1.0  0.1236
  H  H103  1  0.207500  0.010000  0.716500  1.0  0.1286
  H  H104  1  0.315500  0.901600  0.136600  1.0  0.1187
  H  H105  1  0.092000  0.690900  0.529600  1.0  0.1182
  H  H106  1  0.015800  0.248700  0.640200  1.0  0.1211
  H  H107  1  0.802500  0.792500  0.716500  1.0  0.1292
  H  H108  1  0.125100  0.657000  0.212500  1.0  0.1242
  H  H109  1  0.340200  0.462800  0.455700  1.0  0.118
  H  H110  1  0.232900  0.984200  0.640200  1.0  0.1214
  H  H111  1  0.309100  0.908000  0.529600  1.0  0.1181
  H  H112  1  0.531900  0.874900  0.212500  1.0  0.1242
  H  H113  1  0.751300  0.767100  0.640200  1.0  0.1218
  H  H114  1  0.098400  0.413900  0.136600  1.0  0.1192
  H  H115  1  0.454900  0.127500  0.423500  1.0  0.1298
  H  H116  1  0.632000  0.585200  0.119400  1.0  0.1164
  H  H117  1  0.959800  0.588400  0.488900  1.0  0.116
  H  H118  1  0.414800  0.046800  0.119400  1.0  0.1165
  H  H119  1  0.632000  0.046800  0.119400  1.0  0.1168
  H  H120  1  0.585200  0.632000  0.619400  1.0  0.1169
  H  H121  1  0.129500  0.673600  0.686600  1.0  0.1295
  H  H122  1  0.872500  0.327400  0.423500  1.0  0.1305
  H  H123  1  0.585200  0.953200  0.619400  1.0  0.1167
  H  H124  1  0.046800  0.632000  0.619400  1.0  0.1168
  H  H125  1  0.870500  0.544100  0.186600  1.0  0.1286
  H  H126  1  0.411600  0.371400  0.488900  1.0  0.1154
  H  H127  1  0.326400  0.455900  0.686600  1.0  0.1288
  H  H128  1  0.371400  0.959800  0.988900  1.0  0.1156
  H  H129  1  0.327400  0.872500  0.923500  1.0  0.1296
  H  H130  1  0.040200  0.411600  0.988900  1.0  0.1161
  H  H131  1  0.368000  0.414800  0.619400  1.0  0.1168
  H  H132  1  0.588400  0.628600  0.988900  1.0  0.1147
  H  H133  1  0.127500  0.454900  0.923500  1.0  0.1303
  H  H134  1  0.872500  0.545100  0.423500  1.0  0.1307
  H  H135  1  0.672600  0.127500  0.423500  1.0  0.1301
  H  H136  1  0.040200  0.628600  0.988900  1.0  0.115
  H  H137  1  0.673600  0.129500  0.186600  1.0  0.1288
  H  H138  1  0.673600  0.544100  0.186600  1.0  0.1288
  H  H139  1  0.371400  0.411600  0.988900  1.0  0.1159
  H  H140  1  0.544100  0.673600  0.686600  1.0  0.1296
  H  H141  1  0.628600  0.040200  0.488900  1.0  0.1153
  H  H142  1  0.046800  0.414800  0.619400  1.0  0.1166
  H  H143  1  0.870500  0.326400  0.186600  1.0  0.1292
  H  H144  1  0.628600  0.588400  0.488900  1.0  0.1158
  H  H145  1  0.672600  0.545100  0.423500  1.0  0.1307
  H  H146  1  0.127500  0.672600  0.923500  1.0  0.1304
  H  H147  1  0.414800  0.368000  0.119400  1.0  0.1168
  H  H148  1  0.545100  0.872500  0.923500  1.0  0.1298
  H  H149  1  0.545100  0.672600  0.923500  1.0  0.1304
  H  H150  1  0.959800  0.371400  0.488900  1.0  0.1153
  H  H151  1  0.953200  0.368000  0.119400  1.0  0.117
  H  H152  1  0.454900  0.327400  0.423500  1.0  0.1306
  H  H153  1  0.368000  0.953200  0.619400  1.0  0.1165
  H  H154  1  0.544100  0.870500  0.686600  1.0  0.1291
  H  H155  1  0.327400  0.454900  0.923500  1.0  0.1299
  H  H156  1  0.455900  0.129500  0.186600  1.0  0.1282
  H  H157  1  0.588400  0.959800  0.988900  1.0  0.1159
  H  H158  1  0.326400  0.870500  0.686600  1.0  0.1284
  H  H159  1  0.129500  0.455900  0.686600  1.0  0.129
  H  H160  1  0.455900  0.326400  0.186600  1.0  0.1291
  H  H161  1  0.953200  0.585200  0.119400  1.0  0.1168
  H  H162  1  0.411600  0.040200  0.488900  1.0  0.1152
  C  C163  1  0.200200  0.100100  0.453200  1.0  -0.0997
  C  C164  1  0.839800  0.290000  0.970700  1.0  -0.0351
  C  C165  1  0.816200  0.761800  0.155800  1.0  -0.0914
  C  C166  1  0.919900  0.839800  0.271800  1.0  0.6668
  C  C167  1  0.238200  0.183800  0.155800  1.0  -0.0936
  C  C168  1  0.468200  0.234100  0.949200  1.0  -0.1019
  C  C169  1  0.746400  0.253600  0.902200  1.0  0.7478
  C  C170  1  0.899900  0.100100  0.453200  1.0  -0.0995
  C  C171  1  0.866700  0.133300  0.540900  1.0  0.2363
  C  C172  1  0.795300  0.590600  0.630500  1.0  0.2296
  C  C173  1  0.396000  0.198000  0.035800  1.0  0.222
  C  C174  1  0.763600  0.236400  0.719000  1.0  -0.0813
  C  C175  1  0.857900  0.586300  0.014500  1.0  -0.1498
  C  C176  1  0.765900  0.531800  0.949200  1.0  -0.1021
  C  C177  1  0.413700  0.142100  0.014500  1.0  -0.1504
  C  C178  1  0.917900  0.835800  0.405400  1.0  0.7084
  C  C179  1  0.810000  0.060300  0.519400  1.0  -0.0887
  C  C180  1  0.903500  0.807000  0.223200  1.0  -0.082
  C  C181  1  0.826600  0.783400  0.474800  1.0  -0.0336
  C  C182  1  0.960900  0.168800  0.201000  1.0  -0.0499
  C  C183  1  0.450200  0.290000  0.970700  1.0  -0.0352
  C  C184  1  0.472800  0.236400  0.719000  1.0  -0.0821
  C  C185  1  0.207900  0.039100  0.201000  1.0  -0.0488
  C  C186  1  0.424900  0.277300  0.652100  1.0  -0.1054
  C  C187  1  0.216600  0.173400  0.474800  1.0  -0.0337
  C  C188  1  0.831200  0.039100  0.201000  1.0  -0.0489
  C  C189  1  0.873500  0.747000  0.133800  1.0  0.1862
  C  C190  1  0.250300  0.060300  0.519400  1.0  -0.0892
  C  C191  1  0.413700  0.271600  0.014500  1.0  -0.1493
  C  C192  1  0.903500  0.096500  0.223200  1.0  -0.0831
  C  C193  1  0.746400  0.253600  0.767200  1.0  0.6813
  C  C194  1  0.763600  0.527200  0.719000  1.0  -0.0815
  C  C195  1  0.919900  0.080100  0.271800  1.0  0.6696
  C  C196  1  0.802000  0.604000  0.035800  1.0  0.2226
  C  C197  1  0.706400  0.542900  0.697100  1.0  -0.0274
  C  C198  1  0.826600  0.043200  0.474800  1.0  -0.0332
  C  C199  1  0.457100  0.293600  0.697100  1.0  -0.0274
  C  C200  1  0.852400  0.575100  0.652100  1.0  -0.104
  C  C201  1  0.728400  0.586300  0.014500  1.0  -0.1513
  C  C202  1  0.507200  0.253600  0.902200  1.0  0.7472
  C  C203  1  0.795300  0.204700  0.630500  1.0  0.2289
  C  C204  1  0.917900  0.082100  0.405400  1.0  0.7095
  C  C205  1  0.836500  0.293600  0.697100  1.0  -0.0274
  C  C206  1  0.810000  0.749700  0.519400  1.0  -0.0877
  C  C207  1  0.873500  0.126500  0.133800  1.0  0.1857
  C  C208  1  0.956800  0.783400  0.474800  1.0  -0.0336
  C  C209  1  0.956800  0.173400  0.474800  1.0  -0.0344
  C  C210  1  0.831200  0.792100  0.201000  1.0  -0.049
  C  C211  1  0.728400  0.142100  0.014500  1.0  -0.1515
  C  C212  1  0.160200  0.080100  0.271800  1.0  0.6688
  C  C213  1  0.424900  0.147600  0.652100  1.0  -0.1051
  C  C214  1  0.207900  0.168800  0.201000  1.0  -0.0487
  C  C215  1  0.960900  0.792100  0.201000  1.0  -0.0448
  C  C216  1  0.899900  0.799800  0.453200  1.0  -0.0993
  C  C217  1  0.164200  0.082100  0.405400  1.0  0.7097
  C  C218  1  0.866700  0.733400  0.540900  1.0  0.2319
  C  C219  1  0.945600  0.761800  0.155800  1.0  -0.0895
  C  C220  1  0.945600  0.183800  0.155800  1.0  -0.0929
  C  C221  1  0.193000  0.096500  0.223200  1.0  -0.0841
  C  C222  1  0.839800  0.549800  0.970700  1.0  -0.0357
  C  C223  1  0.457100  0.163500  0.697100  1.0  -0.0271
  C  C224  1  0.857900  0.271600  0.014500  1.0  -0.1497
  C  C225  1  0.250300  0.190000  0.519400  1.0  -0.0907
  C  C226  1  0.450200  0.160200  0.970700  1.0  -0.0348
  C  C227  1  0.939700  0.190000  0.519400  1.0  -0.0897
  C  C228  1  0.802000  0.198000  0.035800  1.0  0.221
  C  C229  1  0.253000  0.126500  0.133800  1.0  0.1848
  C  C230  1  0.266600  0.133300  0.540900  1.0  0.2364
  C  C231  1  0.710000  0.160200  0.970700  1.0  -0.0342
  C  C232  1  0.710000  0.549800  0.970700  1.0  -0.0348
  C  C233  1  0.939700  0.749700  0.519400  1.0  -0.0882
  C  C234  1  0.216600  0.043200  0.474800  1.0  -0.0325
  C  C235  1  0.816200  0.054400  0.155800  1.0  -0.0918
  C  C236  1  0.722700  0.147600  0.652100  1.0  -0.1049
  C  C237  1  0.746400  0.492800  0.902200  1.0  0.7461
  C  C238  1  0.852400  0.277300  0.652100  1.0  -0.1052
  C  C239  1  0.507200  0.253600  0.767200  1.0  0.6809
  C  C240  1  0.409400  0.204700  0.630500  1.0  0.23
  C  C241  1  0.706400  0.163500  0.697100  1.0  -0.0267
  C  C242  1  0.238200  0.054400  0.155800  1.0  -0.0908
  C  C243  1  0.765900  0.234100  0.949200  1.0  -0.1021
  C  C244  1  0.746400  0.492800  0.767200  1.0  0.6773
  C  C245  1  0.836500  0.542900  0.697100  1.0  -0.0271
  C  C246  1  0.722700  0.575100  0.652100  1.0  -0.1047
  C  C247  1  0.168800  0.960900  0.701000  1.0  -0.0487
  C  C248  1  0.080100  0.160200  0.771800  1.0  0.6657
  C  C249  1  0.082100  0.917900  0.905400  1.0  0.7096
  C  C250  1  0.160200  0.710000  0.470700  1.0  -0.0346
  C  C251  1  0.054400  0.238200  0.655800  1.0  -0.0905
  C  C252  1  0.253600  0.746400  0.267200  1.0  0.6803
  C  C253  1  0.080100  0.919900  0.771800  1.0  0.6692
  C  C254  1  0.147600  0.722700  0.152100  1.0  -0.1037
  C  C255  1  0.142100  0.413700  0.514500  1.0  -0.1511
  C  C256  1  0.234100  0.765900  0.449200  1.0  -0.1022
  C  C257  1  0.133300  0.266600  0.040900  1.0  0.2366
  C  C258  1  0.204700  0.795300  0.130500  1.0  0.2296
  C  C259  1  0.293600  0.457100  0.197100  1.0  -0.027
  C  C260  1  0.204700  0.409400  0.130500  1.0  0.227
  C  C261  1  0.198000  0.396000  0.535800  1.0  0.2225
  C  C262  1  0.604000  0.802000  0.535800  1.0  0.2214
  C  C263  1  0.761800  0.945600  0.655800  1.0  -0.0901
  C  C264  1  0.043200  0.826600  0.974800  1.0  -0.0334
  C  C265  1  0.277300  0.852400  0.152100  1.0  -0.1043
  C  C266  1  0.168800  0.207900  0.701000  1.0  -0.0485
  C  C267  1  0.234100  0.468200  0.449200  1.0  -0.1017
  C  C268  1  0.183800  0.238200  0.655800  1.0  -0.0907
  C  C269  1  0.160200  0.450200  0.470700  1.0  -0.0353
  C  C270  1  0.761800  0.816200  0.655800  1.0  -0.0904
  C  C271  1  0.173400  0.216600  0.974800  1.0  -0.0335
  C  C272  1  0.531800  0.765900  0.449200  1.0  -0.1025
  C  C273  1  0.236400  0.763600  0.219000  1.0  -0.082
  C  C274  1  0.100100  0.899900  0.953200  1.0  -0.0996
  C  C275  1  0.133300  0.866700  0.040900  1.0  0.2315
  C  C276  1  0.733400  0.866700  0.040900  1.0  0.2361
  C  C277  1  0.100100  0.200200  0.953200  1.0  -0.0996
  C  C278  1  0.586300  0.857900  0.514500  1.0  -0.1515
  C  C279  1  0.173400  0.956800  0.974800  1.0  -0.0335
  C  C280  1  0.807000  0.903500  0.723200  1.0  -0.083
  C  C281  1  0.542900  0.836500  0.197100  1.0  -0.0271
  C  C282  1  0.590600  0.795300  0.130500  1.0  0.2246
  C  C283  1  0.190000  0.250300  0.019400  1.0  -0.0888
  C  C284  1  0.253600  0.507200  0.267200  1.0  0.6781
  C  C285  1  0.492800  0.746400  0.267200  1.0  0.6807
  C  C286  1  0.082100  0.164200  0.905400  1.0  0.7087
  C  C287  1  0.549800  0.710000  0.470700  1.0  -0.034
  C  C288  1  0.054400  0.816200  0.655800  1.0  -0.0927
  C  C289  1  0.096500  0.903500  0.723200  1.0  -0.084
  C  C290  1  0.039100  0.831200  0.701000  1.0  -0.0485
  C  C291  1  0.096500  0.193000  0.723200  1.0  -0.0824
  C  C292  1  0.839800  0.919900  0.771800  1.0  0.6696
  C  C293  1  0.575100  0.722700  0.152100  1.0  -0.1042
  C  C294  1  0.783400  0.826600  0.974800  1.0  -0.0341
  C  C295  1  0.253600  0.746400  0.402200  1.0  0.7475
  C  C296  1  0.277300  0.424900  0.152100  1.0  -0.1032
  C  C297  1  0.126500  0.873500  0.633800  1.0  0.181
  C  C298  1  0.835800  0.917900  0.905400  1.0  0.7092
  C  C299  1  0.747000  0.873500  0.633800  1.0  0.186
  C  C300  1  0.749700  0.939700  0.019400  1.0  -0.0879
  C  C301  1  0.060300  0.810000  0.019400  1.0  -0.0903
  C  C302  1  0.293600  0.836500  0.197100  1.0  -0.0271
  C  C303  1  0.290000  0.839800  0.470700  1.0  -0.035
  C  C304  1  0.792100  0.831200  0.701000  1.0  -0.0499
  C  C305  1  0.183800  0.945600  0.655800  1.0  -0.0921
  C  C306  1  0.542900  0.706400  0.197100  1.0  -0.0262
  C  C307  1  0.290000  0.450200  0.470700  1.0  -0.0361
  C  C308  1  0.799800  0.899900  0.953200  1.0  -0.0994
  C  C309  1  0.163500  0.706400  0.197100  1.0  -0.0265
  C  C310  1  0.198000  0.802000  0.535800  1.0  0.2222
  C  C311  1  0.190000  0.939700  0.019400  1.0  -0.0893
  C  C312  1  0.271600  0.857900  0.514500  1.0  -0.1512
  C  C313  1  0.163500  0.457100  0.197100  1.0  -0.0273
  C  C314  1  0.549800  0.839800  0.470700  1.0  -0.0338
  C  C315  1  0.783400  0.956800  0.974800  1.0  -0.034
  C  C316  1  0.253600  0.507200  0.402200  1.0  0.7448
  C  C317  1  0.271600  0.413700  0.514500  1.0  -0.1496
  C  C318  1  0.492800  0.746400  0.402200  1.0  0.748
  C  C319  1  0.749700  0.810000  0.019400  1.0  -0.09
  C  C320  1  0.792100  0.960900  0.701000  1.0  -0.0477
  C  C321  1  0.236400  0.472800  0.219000  1.0  -0.0815
  C  C322  1  0.039100  0.207900  0.701000  1.0  -0.0489
  C  C323  1  0.575100  0.852400  0.152100  1.0  -0.1056
  C  C324  1  0.043200  0.216600  0.974800  1.0  -0.0333
  C  C325  1  0.586300  0.728400  0.514500  1.0  -0.1501
  C  C326  1  0.142100  0.728400  0.514500  1.0  -0.1504
  C  C327  1  0.126500  0.253000  0.633800  1.0  0.1861
  C  C328  1  0.147600  0.424900  0.152100  1.0  -0.1036
  C  C329  1  0.060300  0.250300  0.019400  1.0  -0.0854
  C  C330  1  0.527200  0.763600  0.219000  1.0  -0.0813
  C  C331  1  0.378700  0.887300  0.673000  1.0  -0.0292
  C  C332  1  0.431700  0.863400  0.692400  1.0  -0.0596
  C  C333  1  0.467000  0.063700  0.133100  1.0  -0.1717
  C  C334  1  0.516500  0.033000  0.494300  1.0  0.2121
  C  C335  1  0.040000  0.520000  0.613900  1.0  0.2332
  C  C336  1  0.942000  0.406200  0.475500  1.0  -0.1547
  C  C337  1  0.863400  0.431700  0.192400  1.0  -0.0605
  C  C338  1  0.489900  0.109700  0.436800  1.0  -0.0484
  C  C339  1  0.058000  0.464200  0.975500  1.0  -0.1572
  C  C340  1  0.109700  0.489900  0.936800  1.0  -0.0491
  C  C341  1  0.890300  0.510100  0.436800  1.0  -0.0481
  C  C342  1  0.112700  0.621300  0.673000  1.0  -0.0323
  C  C343  1  0.596700  0.063700  0.133100  1.0  -0.1721
  C  C344  1  0.508600  0.621300  0.673000  1.0  -0.0324
  C  C345  1  0.135000  0.567500  0.917900  1.0  -0.0706
  C  C346  1  0.378700  0.491400  0.673000  1.0  -0.0311
  C  C347  1  0.595250  0.190500  0.376300  1.0  0.6667
  C  C348  1  0.136600  0.568300  0.692400  1.0  -0.0601
  C  C349  1  0.619800  0.510100  0.436800  1.0  -0.0477
  C  C350  1  0.432500  0.567500  0.917900  1.0  -0.0706
  C  C351  1  0.535800  0.593800  0.975500  1.0  -0.1571
  C  C352  1  0.942000  0.535800  0.475500  1.0  -0.1578
  C  C353  1  0.480000  0.960000  0.613900  1.0  0.2379
  C  C354  1  0.190500  0.595250  0.876300  1.0  0.668
  C  C355  1  0.405400  0.594600  0.735100  1.0  0.7229
  C  C356  1  0.594600  0.405400  0.235100  1.0  0.7221
  C  C357  1  0.406200  0.942000  0.975500  1.0  -0.1563
  C  C358  1  0.568300  0.136600  0.192400  1.0  -0.0594
  C  C359  1  0.063700  0.596700  0.633100  1.0  -0.1719
  C  C360  1  0.112700  0.491400  0.673000  1.0  -0.0321
  C  C361  1  0.058000  0.593800  0.975500  1.0  -0.1567
  C  C362  1  0.533000  0.936300  0.633100  1.0  -0.1724
  C  C363  1  0.189200  0.594600  0.735100  1.0  0.7233
  C  C364  1  0.594600  0.189200  0.235100  1.0  0.7227
  C  C365  1  0.033000  0.516500  0.994300  1.0  0.2171
  C  C366  1  0.516500  0.483500  0.494300  1.0  0.2169
  C  C367  1  0.520000  0.040000  0.113900  1.0  0.2365
  C  C368  1  0.404750  0.809500  0.876300  1.0  0.6657
  C  C369  1  0.491400  0.378700  0.173000  1.0  -0.0321
  C  C370  1  0.380200  0.489900  0.936800  1.0  -0.0492
  C  C371  1  0.568300  0.431700  0.192400  1.0  -0.0601
  C  C372  1  0.405400  0.810800  0.735100  1.0  0.7219
  C  C373  1  0.810800  0.405400  0.235100  1.0  0.7218
  C  C374  1  0.404750  0.595250  0.876300  1.0  0.6675
  C  C375  1  0.464200  0.058000  0.475500  1.0  -0.1565
  C  C376  1  0.936300  0.403300  0.133100  1.0  -0.1732
  C  C377  1  0.464200  0.406200  0.475500  1.0  -0.1546
  C  C378  1  0.567500  0.135000  0.417900  1.0  -0.0695
  C  C379  1  0.887300  0.508600  0.173000  1.0  -0.0314
  C  C380  1  0.483500  0.516500  0.994300  1.0  0.2153
  C  C381  1  0.809500  0.404750  0.376300  1.0  0.6665
  C  C382  1  0.467000  0.403300  0.133100  1.0  -0.1721
  C  C383  1  0.109700  0.619800  0.936800  1.0  -0.0475
  C  C384  1  0.619800  0.109700  0.436800  1.0  -0.0489
  C  C385  1  0.621300  0.112700  0.173000  1.0  -0.0291
  C  C386  1  0.406200  0.464200  0.975500  1.0  -0.1565
  C  C387  1  0.403300  0.936300  0.633100  1.0  -0.1732
  C  C388  1  0.593800  0.535800  0.475500  1.0  -0.1578
  C  C389  1  0.520000  0.480000  0.113900  1.0  0.2373
  C  C390  1  0.535800  0.942000  0.975500  1.0  -0.1549
  C  C391  1  0.403300  0.467000  0.633100  1.0  -0.1741
  C  C392  1  0.483500  0.967000  0.994300  1.0  0.2185
  C  C393  1  0.887300  0.378700  0.173000  1.0  -0.0329
  C  C394  1  0.890300  0.380200  0.436800  1.0  -0.0483
  C  C395  1  0.510100  0.890300  0.936800  1.0  -0.0488
  C  C396  1  0.936300  0.533000  0.133100  1.0  -0.1739
  C  C397  1  0.432500  0.865000  0.917900  1.0  -0.0703
  C  C398  1  0.491400  0.112700  0.173000  1.0  -0.0289
  C  C399  1  0.967000  0.483500  0.494300  1.0  0.2151
  C  C400  1  0.593800  0.058000  0.475500  1.0  -0.1546
  C  C401  1  0.865000  0.432500  0.417900  1.0  -0.0707
  C  C402  1  0.380200  0.890300  0.936800  1.0  -0.0486
  C  C403  1  0.621300  0.508600  0.173000  1.0  -0.0323
  C  C404  1  0.480000  0.520000  0.613900  1.0  0.236
  C  C405  1  0.596700  0.533000  0.133100  1.0  -0.1732
  C  C406  1  0.595250  0.404750  0.376300  1.0  0.6668
  C  C407  1  0.960000  0.480000  0.113900  1.0  0.2371
  C  C408  1  0.533000  0.596700  0.633100  1.0  -0.1715
  C  C409  1  0.489900  0.380200  0.436800  1.0  -0.0486
  C  C410  1  0.431700  0.568300  0.692400  1.0  -0.0605
  C  C411  1  0.567500  0.432500  0.417900  1.0  -0.0706
  C  C412  1  0.510100  0.619800  0.936800  1.0  -0.0479
  C  C413  1  0.508600  0.887300  0.673000  1.0  -0.0296
  C  C414  1  0.063700  0.467000  0.633100  1.0  -0.171
  N  N415  1  0.820300  0.640600  0.079700  1.0  -0.2218
  N  N416  1  0.858300  0.716600  0.088400  1.0  -0.2158
  N  N417  1  0.820300  0.179700  0.079700  1.0  -0.2215
  N  N418  1  0.811200  0.188800  0.585900  1.0  -0.2528
  N  N419  1  0.377600  0.188800  0.585900  1.0  -0.2535
  N  N420  1  0.850000  0.700000  0.585100  1.0  -0.1689
  N  N421  1  0.283400  0.141700  0.088400  1.0  -0.2139
  N  N422  1  0.300000  0.150000  0.585100  1.0  -0.1685
  N  N423  1  0.811200  0.622400  0.585900  1.0  -0.2563
  N  N424  1  0.359400  0.179700  0.079700  1.0  -0.2203
  N  N425  1  0.858300  0.141700  0.088400  1.0  -0.2142
  N  N426  1  0.850000  0.150000  0.585100  1.0  -0.1676
  N  N427  1  0.622400  0.811200  0.085900  1.0  -0.2533
  N  N428  1  0.716600  0.858300  0.588400  1.0  -0.2142
  N  N429  1  0.150000  0.850000  0.085100  1.0  -0.1685
  N  N430  1  0.700000  0.850000  0.085100  1.0  -0.1677
  N  N431  1  0.188800  0.811200  0.085900  1.0  -0.2536
  N  N432  1  0.188800  0.377600  0.085900  1.0  -0.2563
  N  N433  1  0.150000  0.300000  0.085100  1.0  -0.1683
  N  N434  1  0.141700  0.858300  0.588400  1.0  -0.2134
  N  N435  1  0.640600  0.820300  0.579700  1.0  -0.2216
  N  N436  1  0.179700  0.359400  0.579700  1.0  -0.2218
  N  N437  1  0.141700  0.283400  0.588400  1.0  -0.2162
  N  N438  1  0.179700  0.820300  0.579700  1.0  -0.2201
  N  N439  1  0.490450  0.980900  0.533300  1.0  -0.2084
  N  N440  1  0.504700  0.009400  0.573700  1.0  -0.233
  N  N441  1  0.495300  0.990600  0.073700  1.0  -0.2323
  N  N442  1  0.009400  0.504700  0.073700  1.0  -0.2334
  N  N443  1  0.490450  0.509550  0.533300  1.0  -0.2071
  N  N444  1  0.504700  0.495300  0.573700  1.0  -0.2327
  N  N445  1  0.990600  0.495300  0.573700  1.0  -0.2321
  N  N446  1  0.509550  0.019100  0.033300  1.0  -0.2089
  N  N447  1  0.509550  0.490450  0.033300  1.0  -0.2073
  N  N448  1  0.495300  0.504700  0.073700  1.0  -0.2322
  N  N449  1  0.019100  0.509550  0.533300  1.0  -0.2075
  N  N450  1  0.980900  0.490450  0.033300  1.0  -0.2071
  O  O451  1  0.000000  0.000000  0.338200  1.0  -1.0802
  O  O452  1  0.676700  0.205000  0.886200  1.0  -0.6061
  O  O453  1  0.993300  0.129200  0.287800  1.0  -0.6194
  O  O454  1  0.530300  0.206100  0.786500  1.0  -0.6281
  O  O455  1  0.795000  0.471700  0.886200  1.0  -0.6037
  O  O456  1  0.871000  0.009600  0.388400  1.0  -0.6258
  O  O457  1  0.675800  0.469700  0.786500  1.0  -0.6265
  O  O458  1  0.135900  0.006700  0.287800  1.0  -0.6197
  O  O459  1  0.528300  0.205000  0.886200  1.0  -0.606
  O  O460  1  0.528300  0.323300  0.886200  1.0  -0.6077
  O  O461  1  0.870800  0.006700  0.287800  1.0  -0.6198
  O  O462  1  0.795000  0.323300  0.886200  1.0  -0.608
  O  O463  1  0.990400  0.861400  0.388400  1.0  -0.623
  O  O464  1  0.993300  0.864100  0.287800  1.0  -0.6158
  O  O465  1  0.675800  0.206100  0.786500  1.0  -0.6286
  O  O466  1  0.870800  0.864100  0.287800  1.0  -0.616
  O  O467  1  0.990400  0.129000  0.388400  1.0  -0.6273
  O  O468  1  0.135900  0.129200  0.287800  1.0  -0.6181
  O  O469  1  0.793900  0.324200  0.786500  1.0  -0.6294
  O  O470  1  0.676700  0.471700  0.886200  1.0  -0.6044
  O  O471  1  0.793900  0.469700  0.786500  1.0  -0.6262
  O  O472  1  0.530300  0.324200  0.786500  1.0  -0.6323
  O  O473  1  0.871000  0.861400  0.388400  1.0  -0.6224
  O  O474  1  0.138600  0.009600  0.388400  1.0  -0.6249
  O  O475  1  0.666667  0.333333  0.838800  1.0  -1.1119
  O  O476  1  0.138600  0.129000  0.388400  1.0  -0.6258
  O  O477  1  0.324200  0.530300  0.286500  1.0  -0.6259
  O  O478  1  0.469700  0.793900  0.286500  1.0  -0.6281
  O  O479  1  0.861400  0.990400  0.888400  1.0  -0.6271
  O  O480  1  0.323300  0.795000  0.386200  1.0  -0.6058
  O  O481  1  0.324200  0.793900  0.286500  1.0  -0.6279
  O  O482  1  0.129000  0.990400  0.888400  1.0  -0.6268
  O  O483  1  0.009600  0.138600  0.888400  1.0  -0.6231
  O  O484  1  0.129200  0.993300  0.787800  1.0  -0.6198
  O  O485  1  0.000000  0.000000  0.838200  1.0  -1.0802
  O  O486  1  0.006700  0.135900  0.787800  1.0  -0.6169
  O  O487  1  0.006700  0.870800  0.787800  1.0  -0.6184
  O  O488  1  0.129200  0.135900  0.787800  1.0  -0.6161
  O  O489  1  0.471700  0.676700  0.386200  1.0  -0.6074
  O  O490  1  0.469700  0.675800  0.286500  1.0  -0.6284
  O  O491  1  0.129000  0.138600  0.888400  1.0  -0.6232
  O  O492  1  0.323300  0.528300  0.386200  1.0  -0.604
  O  O493  1  0.205000  0.676700  0.386200  1.0  -0.6074
  O  O494  1  0.861400  0.871000  0.888400  1.0  -0.6258
  O  O495  1  0.205000  0.528300  0.386200  1.0  -0.6048
  O  O496  1  0.206100  0.675800  0.286500  1.0  -0.6298
  O  O497  1  0.009600  0.871000  0.888400  1.0  -0.6249
  O  O498  1  0.864100  0.870800  0.787800  1.0  -0.6191
  O  O499  1  0.864100  0.993300  0.787800  1.0  -0.62
  O  O500  1  0.333333  0.666667  0.338800  1.0  -1.1119
  O  O501  1  0.471700  0.795000  0.386200  1.0  -0.6057
  O  O502  1  0.206100  0.530300  0.286500  1.0  -0.6257
  O  O503  1  0.538800  0.342100  0.254000  1.0  -0.5907
  O  O504  1  0.333333  0.666667  0.807300  1.0  -1.117
  O  O505  1  0.193500  0.656800  0.856400  1.0  -0.6087
  O  O506  1  0.803300  0.461200  0.254000  1.0  -0.5896
  O  O507  1  0.193500  0.536700  0.856400  1.0  -0.6077
  O  O508  1  0.463300  0.806500  0.856400  1.0  -0.6044
  O  O509  1  0.343200  0.806500  0.856400  1.0  -0.6067
  O  O510  1  0.666667  0.333333  0.307300  1.0  -1.117
  O  O511  1  0.803300  0.342100  0.254000  1.0  -0.5911
  O  O512  1  0.342100  0.538800  0.754000  1.0  -0.5897
  O  O513  1  0.538800  0.196700  0.254000  1.0  -0.5895
  O  O514  1  0.656800  0.463300  0.356400  1.0  -0.6073
  O  O515  1  0.196700  0.657900  0.754000  1.0  -0.5912
  O  O516  1  0.461200  0.803300  0.754000  1.0  -0.59
  O  O517  1  0.657900  0.196700  0.254000  1.0  -0.5902
  O  O518  1  0.196700  0.538800  0.754000  1.0  -0.5911
  O  O519  1  0.657900  0.461200  0.254000  1.0  -0.5912
  O  O520  1  0.343200  0.536700  0.856400  1.0  -0.6073
  O  O521  1  0.342100  0.803300  0.754000  1.0  -0.5892
  O  O522  1  0.536700  0.343200  0.356400  1.0  -0.6099
  O  O523  1  0.806500  0.343200  0.356400  1.0  -0.6072
  O  O524  1  0.806500  0.463300  0.356400  1.0  -0.6059
  O  O525  1  0.463300  0.656800  0.856400  1.0  -0.6062
  O  O526  1  0.536700  0.193500  0.356400  1.0  -0.6072
  O  O527  1  0.461200  0.657900  0.754000  1.0  -0.592
  O  O528  1  0.656800  0.193500  0.356400  1.0  -0.6049
