# generated using pymatgen
data_Fe3H24C42O13
_symmetry_space_group_name_H-M   'P 1'
_cell_length_a   21.75700000
_cell_length_b   21.75700000
_cell_length_c   35.29900000
_cell_angle_alpha   90.00000000
_cell_angle_beta   90.00000000
_cell_angle_gamma   90.00000000
_symmetry_Int_Tables_number   1
_chemical_formula_structural   Fe3H24C42O13
_chemical_formula_sum   'Fe24 H192 C336 O104'
_cell_volume   16709.38346265
_cell_formula_units_Z   8
loop_
 _symmetry_equiv_pos_site_id
 _symmetry_equiv_pos_as_xyz
  1  'x, y, z'
loop_
 _atom_site_type_symbol
 _atom_site_label
 _atom_site_symmetry_multiplicity
 _atom_site_fract_x
 _atom_site_fract_y
 _atom_site_fract_z
 _atom_site_occupancy
 _atom_site_charge
  Fe  Fe1  1  0.997610  0.656860  0.236100  1.0  1.2099
  Fe  Fe2  1  0.005460  0.806230  0.225880  1.0  1.1726
  Fe  Fe3  1  0.000240  0.716560  0.149680  1.0  1.0997
  Fe  Fe4  1  0.994540  0.193770  0.725880  1.0  1.1687
  Fe  Fe5  1  0.999760  0.283440  0.649680  1.0  1.0989
  Fe  Fe6  1  0.494540  0.306230  0.024120  1.0  1.1745
  Fe  Fe7  1  0.497610  0.843140  0.513900  1.0  1.2159
  Fe  Fe8  1  0.499760  0.216560  0.100320  1.0  1.0985
  Fe  Fe9  1  0.500240  0.783440  0.600320  1.0  1.0976
  Fe  Fe10  1  0.502390  0.156860  0.013900  1.0  1.2103
  Fe  Fe11  1  0.002390  0.343140  0.736100  1.0  1.2134
  Fe  Fe12  1  0.505460  0.693770  0.524120  1.0  1.1699
  Fe  Fe13  1  0.806230  0.005460  0.774120  1.0  1.1698
  Fe  Fe14  1  0.193770  0.994540  0.274120  1.0  1.1711
  Fe  Fe15  1  0.216560  0.499760  0.899680  1.0  1.0995
  Fe  Fe16  1  0.283440  0.999760  0.350320  1.0  1.099
  Fe  Fe17  1  0.306230  0.494540  0.975880  1.0  1.1708
  Fe  Fe18  1  0.783440  0.500240  0.399680  1.0  1.0988
  Fe  Fe19  1  0.156860  0.502390  0.986100  1.0  1.2116
  Fe  Fe20  1  0.843140  0.497610  0.486100  1.0  1.2102
  Fe  Fe21  1  0.343140  0.002390  0.263900  1.0  1.2111
  Fe  Fe22  1  0.716560  0.000240  0.850320  1.0  1.0972
  Fe  Fe23  1  0.693770  0.505460  0.475880  1.0  1.1702
  Fe  Fe24  1  0.656860  0.997610  0.763900  1.0  1.2124
  H  H25  1  0.819000  0.181800  0.781800  1.0  0.1181
  H  H26  1  0.804600  0.501000  0.594500  1.0  0.1215
  H  H27  1  0.867200  0.838700  0.094900  1.0  0.1196
  H  H28  1  0.278200  0.390400  0.182300  1.0  0.1296
  H  H29  1  0.319900  0.649100  0.380200  1.0  0.1295
  H  H30  1  0.616700  0.932100  0.639800  1.0  0.1206
  H  H31  1  0.657000  0.116100  0.138200  1.0  0.1212
  H  H32  1  0.301800  0.496300  0.089000  1.0  0.1123
  H  H33  1  0.221800  0.890400  0.067700  1.0  0.1301
  H  H34  1  0.263600  0.818400  0.324200  1.0  0.1207
  H  H35  1  0.790100  0.905600  0.074000  1.0  0.1286
  H  H36  1  0.761500  0.961400  0.182200  1.0  0.1325
  H  H37  1  0.624600  0.013000  0.044700  1.0  0.1206
  H  H38  1  0.651900  0.159600  0.938300  1.0  0.1258
  H  H39  1  0.838600  0.894400  0.203000  1.0  0.1238
  H  H40  1  0.680100  0.350900  0.880200  1.0  0.1312
  H  H41  1  0.198200  0.996300  0.161000  1.0  0.1124
  H  H42  1  0.768300  0.545700  0.092100  1.0  0.1305
  H  H43  1  0.709900  0.405600  0.176000  1.0  0.1298
  H  H44  1  0.157000  0.383900  0.611800  1.0  0.1206
  H  H45  1  0.319000  0.318200  0.968200  1.0  0.119
  H  H46  1  0.714500  0.851100  0.389100  1.0  0.1261
  H  H47  1  0.888600  0.841000  0.319200  1.0  0.1228
  H  H48  1  0.731700  0.045700  0.157900  1.0  0.1312
  H  H49  1  0.151900  0.340400  0.811700  1.0  0.1256
  H  H50  1  0.209900  0.094400  0.574000  1.0  0.1286
  H  H51  1  0.161400  0.105600  0.703000  1.0  0.1237
  H  H52  1  0.738500  0.461400  0.067800  1.0  0.1312
  H  H53  1  0.388600  0.659000  0.430800  1.0  0.1218
  H  H54  1  0.124600  0.487000  0.705300  1.0  0.121
  H  H55  1  0.800700  0.442500  0.185600  1.0  0.1289
  H  H56  1  0.763600  0.681600  0.425800  1.0  0.121
  H  H57  1  0.348100  0.840400  0.438300  1.0  0.1257
  H  H58  1  0.667000  0.940900  0.529400  1.0  0.119
  H  H59  1  0.132800  0.161300  0.594900  1.0  0.1196
  H  H60  1  0.333000  0.059100  0.029400  1.0  0.1191
  H  H61  1  0.199300  0.557500  0.685600  1.0  0.1293
  H  H62  1  0.304600  0.999000  0.155500  1.0  0.1211
  H  H63  1  0.116700  0.567900  0.110200  1.0  0.1194
  H  H64  1  0.843000  0.616100  0.111800  1.0  0.121
  H  H65  1  0.833000  0.440900  0.720600  1.0  0.1197
  H  H66  1  0.236400  0.318400  0.925800  1.0  0.1214
  H  H67  1  0.779400  0.669400  0.362300  1.0  0.1228
  H  H68  1  0.368100  0.148600  0.931600  1.0  0.124
  H  H69  1  0.868100  0.351400  0.818400  1.0  0.1256
  H  H70  1  0.644000  0.675700  0.661300  1.0  0.1193
  H  H71  1  0.131900  0.648600  0.318400  1.0  0.1242
  H  H72  1  0.879600  0.069800  0.682000  1.0  0.1293
  H  H73  1  0.290100  0.594400  0.676000  1.0  0.1293
  H  H74  1  0.695400  0.001000  0.655500  1.0  0.1212
  H  H75  1  0.356000  0.324300  0.161300  1.0  0.1189
  H  H76  1  0.180100  0.149100  0.869800  1.0  0.1295
  H  H77  1  0.167000  0.559100  0.220600  1.0  0.1201
  H  H78  1  0.245600  0.490200  0.204900  1.0  0.1292
  H  H79  1  0.181000  0.818200  0.281800  1.0  0.1183
  H  H80  1  0.661400  0.394400  0.047000  1.0  0.1239
  H  H81  1  0.285500  0.148900  0.889100  1.0  0.1254
  H  H82  1  0.379600  0.430200  0.068000  1.0  0.1297
  H  H83  1  0.848100  0.659600  0.311700  1.0  0.1251
  H  H84  1  0.338600  0.605600  0.547000  1.0  0.1237
  H  H85  1  0.698200  0.503700  0.589000  1.0  0.1117
  H  H86  1  0.736400  0.181600  0.824200  1.0  0.1206
  H  H87  1  0.268300  0.954300  0.657900  1.0  0.1312
  H  H88  1  0.745600  0.009800  0.545100  1.0  0.1285
  H  H89  1  0.778200  0.109600  0.567700  1.0  0.1301
  H  H90  1  0.611400  0.341000  0.930800  1.0  0.1225
  H  H91  1  0.367200  0.661300  0.655100  1.0  0.1202
  H  H92  1  0.801800  0.003700  0.661000  1.0  0.1117
  H  H93  1  0.111400  0.159000  0.819200  1.0  0.1219
  H  H94  1  0.383300  0.067900  0.139800  1.0  0.1204
  H  H95  1  0.254400  0.990200  0.045100  1.0  0.1275
  H  H96  1  0.631900  0.851400  0.431600  1.0  0.1266
  H  H97  1  0.720600  0.169400  0.887700  1.0  0.1226
  H  H98  1  0.856000  0.175700  0.588700  1.0  0.1201
  H  H99  1  0.785500  0.351100  0.860900  1.0  0.1259
  H  H100  1  0.754400  0.509800  0.704900  1.0  0.1289
  H  H101  1  0.279400  0.830600  0.387700  1.0  0.1228
  H  H102  1  0.238500  0.038600  0.682200  1.0  0.1327
  H  H103  1  0.343000  0.883900  0.638200  1.0  0.1208
  H  H104  1  0.721800  0.609600  0.682300  1.0  0.1298
  H  H105  1  0.883300  0.432100  0.610200  1.0  0.1197
  H  H106  1  0.261500  0.538600  0.567800  1.0  0.1315
  H  H107  1  0.144000  0.824300  0.088700  1.0  0.1191
  H  H108  1  0.214500  0.648900  0.360900  1.0  0.1254
  H  H109  1  0.632800  0.338700  0.155100  1.0  0.1203
  H  H110  1  0.681000  0.681800  0.468200  1.0  0.1195
  H  H111  1  0.120400  0.930200  0.182000  1.0  0.1293
  H  H112  1  0.220600  0.330600  0.862300  1.0  0.124
  H  H113  1  0.620400  0.569800  0.568000  1.0  0.129
  H  H114  1  0.699300  0.942500  0.064400  1.0  0.1283
  H  H115  1  0.300700  0.057500  0.564400  1.0  0.1288
  H  H116  1  0.875400  0.513000  0.205300  1.0  0.1214
  H  H117  1  0.231700  0.454300  0.592100  1.0  0.1307
  H  H118  1  0.195400  0.499000  0.094500  1.0  0.1216
  H  H119  1  0.819900  0.850900  0.369800  1.0  0.1306
  H  H120  1  0.375400  0.987000  0.544700  1.0  0.1213
  H  H121  1  0.432100  0.883300  0.389800  1.0  0.1208
  H  H122  1  0.499000  0.195400  0.905500  1.0  0.121
  H  H123  1  0.338700  0.632800  0.844900  1.0  0.1196
  H  H124  1  0.169400  0.720600  0.112300  1.0  0.1236
  H  H125  1  0.930200  0.120400  0.818000  1.0  0.1289
  H  H126  1  0.648900  0.214500  0.639100  1.0  0.1255
  H  H127  1  0.318400  0.236400  0.074200  1.0  0.1205
  H  H128  1  0.594400  0.290100  0.324000  1.0  0.1283
  H  H129  1  0.932100  0.616700  0.360200  1.0  0.1203
  H  H130  1  0.069800  0.879600  0.318000  1.0  0.1294
  H  H131  1  0.850900  0.819900  0.630200  1.0  0.1291
  H  H132  1  0.059100  0.333000  0.970600  1.0  0.1199
  H  H133  1  0.440900  0.833000  0.279400  1.0  0.1198
  H  H134  1  0.905600  0.790100  0.926000  1.0  0.1293
  H  H135  1  0.159600  0.651900  0.061700  1.0  0.1253
  H  H136  1  0.818400  0.263600  0.675800  1.0  0.121
  H  H137  1  0.351400  0.868100  0.181600  1.0  0.1261
  H  H138  1  0.430200  0.379600  0.932000  1.0  0.1288
  H  H139  1  0.567900  0.116700  0.889800  1.0  0.1214
  H  H140  1  0.038600  0.238500  0.317800  1.0  0.1316
  H  H141  1  0.442500  0.800700  0.814400  1.0  0.1285
  H  H142  1  0.330600  0.220600  0.137700  1.0  0.1228
  H  H143  1  0.883900  0.343000  0.361800  1.0  0.1216
  H  H144  1  0.094400  0.209900  0.426000  1.0  0.1294
  H  H145  1  0.830600  0.279400  0.612300  1.0  0.1234
  H  H146  1  0.116100  0.657000  0.861800  1.0  0.1212
  H  H147  1  0.175700  0.856000  0.411300  1.0  0.1197
  H  H148  1  0.824300  0.144000  0.911300  1.0  0.1198
  H  H149  1  0.940900  0.667000  0.470600  1.0  0.1198
  H  H150  1  0.487000  0.124600  0.294700  1.0  0.1208
  H  H151  1  0.894400  0.838600  0.797000  1.0  0.1238
  H  H152  1  0.013000  0.624600  0.955300  1.0  0.1213
  H  H153  1  0.818200  0.181000  0.718200  1.0  0.1194
  H  H154  1  0.841000  0.888600  0.680800  1.0  0.1216
  H  H155  1  0.990200  0.254400  0.954900  1.0  0.129
  H  H156  1  0.675700  0.644000  0.338700  1.0  0.1201
  H  H157  1  0.181800  0.819000  0.218200  1.0  0.1194
  H  H158  1  0.954300  0.268300  0.342100  1.0  0.13
  H  H159  1  0.999000  0.304600  0.844500  1.0  0.1208
  H  H160  1  0.605600  0.338600  0.453000  1.0  0.1238
  H  H161  1  0.159000  0.111400  0.180800  1.0  0.1211
  H  H162  1  0.661300  0.367200  0.344900  1.0  0.12
  H  H163  1  0.009800  0.745600  0.454900  1.0  0.1288
  H  H164  1  0.513000  0.875400  0.794700  1.0  0.1204
  H  H165  1  0.649100  0.319900  0.619800  1.0  0.1294
  H  H166  1  0.557500  0.199300  0.314400  1.0  0.1289
  H  H167  1  0.149100  0.180100  0.130200  1.0  0.1299
  H  H168  1  0.545700  0.768300  0.907900  1.0  0.1307
  H  H169  1  0.496300  0.301800  0.911000  1.0  0.1121
  H  H170  1  0.109600  0.778200  0.432300  1.0  0.13
  H  H171  1  0.509800  0.754400  0.295100  1.0  0.1276
  H  H172  1  0.318200  0.319000  0.031800  1.0  0.1179
  H  H173  1  0.383900  0.157000  0.388200  1.0  0.1217
  H  H174  1  0.105600  0.161400  0.297000  1.0  0.1239
  H  H175  1  0.340400  0.151900  0.188300  1.0  0.1252
  H  H176  1  0.350900  0.680100  0.119800  1.0  0.1288
  H  H177  1  0.616100  0.843000  0.888200  1.0  0.1218
  H  H178  1  0.559100  0.167000  0.779400  1.0  0.1191
  H  H179  1  0.942500  0.699300  0.935600  1.0  0.1295
  H  H180  1  0.569800  0.620400  0.432000  1.0  0.1298
  H  H181  1  0.851400  0.631900  0.568400  1.0  0.1262
  H  H182  1  0.341000  0.611400  0.069200  1.0  0.122
  H  H183  1  0.838700  0.867200  0.905100  1.0  0.1197
  H  H184  1  0.890400  0.221800  0.932300  1.0  0.1298
  H  H185  1  0.669400  0.779400  0.637700  1.0  0.122
  H  H186  1  0.001000  0.695400  0.344500  1.0  0.121
  H  H187  1  0.840400  0.348100  0.561700  1.0  0.1255
  H  H188  1  0.394400  0.661400  0.953000  1.0  0.1236
  H  H189  1  0.057500  0.300700  0.435600  1.0  0.1293
  H  H190  1  0.681800  0.681000  0.531800  1.0  0.1183
  H  H191  1  0.148600  0.368100  0.068400  1.0  0.1264
  H  H192  1  0.648600  0.131900  0.681600  1.0  0.126
  H  H193  1  0.067900  0.383300  0.860200  1.0  0.1209
  H  H194  1  0.659000  0.388600  0.569200  1.0  0.1217
  H  H195  1  0.351100  0.785500  0.139100  1.0  0.1255
  H  H196  1  0.490200  0.245600  0.795100  1.0  0.1281
  H  H197  1  0.538600  0.261500  0.432200  1.0  0.1329
  H  H198  1  0.461400  0.738500  0.932200  1.0  0.1327
  H  H199  1  0.324300  0.356000  0.838700  1.0  0.121
  H  H200  1  0.961400  0.761500  0.817800  1.0  0.1315
  H  H201  1  0.851100  0.714500  0.610900  1.0  0.1257
  H  H202  1  0.996300  0.198200  0.839000  1.0  0.1116
  H  H203  1  0.454300  0.231700  0.407900  1.0  0.1307
  H  H204  1  0.609600  0.721800  0.317700  1.0  0.1303
  H  H205  1  0.501000  0.804600  0.405500  1.0  0.1208
  H  H206  1  0.181600  0.736400  0.175800  1.0  0.121
  H  H207  1  0.503700  0.698200  0.411000  1.0  0.1115
  H  H208  1  0.987000  0.375400  0.455300  1.0  0.1211
  H  H209  1  0.161300  0.132800  0.405100  1.0  0.1203
  H  H210  1  0.045700  0.731700  0.842100  1.0  0.1307
  H  H211  1  0.405600  0.709900  0.824000  1.0  0.1286
  H  H212  1  0.659600  0.848100  0.688300  1.0  0.1259
  H  H213  1  0.390400  0.278200  0.817700  1.0  0.1303
  H  H214  1  0.681600  0.763600  0.574200  1.0  0.1213
  H  H215  1  0.148900  0.285500  0.110900  1.0  0.1254
  H  H216  1  0.003700  0.801800  0.339000  1.0  0.1121
  C  C217  1  0.201200  0.898500  0.090920  1.0  -0.1242
  C  C218  1  0.187800  0.783820  0.297810  1.0  -0.077
  C  C219  1  0.293200  0.738900  0.379190  1.0  0.0635
  C  C220  1  0.148700  0.733400  0.296090  1.0  -0.0597
  C  C221  1  0.280600  0.006000  0.064310  1.0  -0.122
  C  C222  1  0.246800  0.733700  0.346530  1.0  0.0209
  C  C223  1  0.283000  0.563500  0.585550  1.0  -0.1557
  C  C224  1  0.875100  0.128900  0.637330  1.0  -0.1363
  C  C225  1  0.710000  0.039000  0.134880  1.0  -0.1477
  C  C226  1  0.717320  0.550500  0.637590  1.0  0.0545
  C  C227  1  0.706800  0.261100  0.879190  1.0  0.0629
  C  C228  1  0.282680  0.449500  0.137590  1.0  0.0546
  C  C229  1  0.783000  0.936500  0.164450  1.0  -0.1558
  C  C230  1  0.360100  0.639800  0.599070  1.0  -0.1307
  C  C231  1  0.865500  0.430100  0.666850  1.0  -0.1096
  C  C232  1  0.906400  0.264000  0.773700  1.0  0.6922
  C  C233  1  0.414200  0.886000  0.576900  1.0  0.7393
  C  C234  1  0.141000  0.922100  0.158820  1.0  -0.0506
  C  C235  1  0.690700  0.977800  0.079330  1.0  -0.1373
  C  C236  1  0.919300  0.738800  0.278900  1.0  0.6866
  C  C237  1  0.763200  0.216040  0.823030  1.0  -0.1237
  C  C238  1  0.142900  0.552100  0.129400  1.0  -0.0218
  C  C239  1  0.593600  0.764000  0.476300  1.0  0.6914
  C  C240  1  0.810400  0.488800  0.620090  1.0  -0.1471
  C  C241  1  0.834400  0.580900  0.126820  1.0  -0.0617
  C  C242  1  0.086900  0.175300  0.666667  1.0  0.7209
  C  C243  1  0.207700  0.683230  0.344800  1.0  -0.1097
  C  C244  1  0.633600  0.306190  0.922070  1.0  -0.0264
  C  C245  1  0.124900  0.871100  0.137330  1.0  -0.1357
  C  C246  1  0.782680  0.050500  0.612410  1.0  0.0534
  C  C247  1  0.845000  0.140760  0.603380  1.0  -0.0622
  C  C248  1  0.155000  0.859240  0.103380  1.0  -0.0582
  C  C249  1  0.093600  0.736000  0.273700  1.0  0.6931
  C  C250  1  0.134500  0.569900  0.166850  1.0  -0.1093
  C  C251  1  0.310400  0.011200  0.129910  1.0  -0.145
  C  C252  1  0.125200  0.250600  0.810670  1.0  -0.1551
  C  C253  1  0.658600  0.816920  0.430420  1.0  -0.0366
  C  C254  1  0.866400  0.806190  0.327930  1.0  -0.0267
  C  C255  1  0.698500  0.204260  0.896450  1.0  -0.1335
  C  C256  1  0.189600  0.511200  0.120090  1.0  -0.1444
  C  C257  1  0.798800  0.101500  0.590920  1.0  -0.1233
  C  C258  1  0.812200  0.216180  0.797810  1.0  -0.0762
  C  C259  1  0.146300  0.480400  0.682360  1.0  -0.031
  C  C260  1  0.646300  0.019600  0.067640  1.0  -0.0309
  C  C261  1  0.419300  0.761200  0.471100  1.0  0.6866
  C  C262  1  0.842400  0.698420  0.323480  1.0  -0.0461
  C  C263  1  0.687800  0.716180  0.452190  1.0  -0.0763
  C  C264  1  0.853700  0.519600  0.182360  1.0  -0.0305
  C  C265  1  0.655000  0.640760  0.646620  1.0  -0.0643
  C  C266  1  0.717000  0.436500  0.085550  1.0  -0.156
  C  C267  1  0.406400  0.236000  0.976300  1.0  0.6912
  C  C268  1  0.200000  0.096700  0.600220  1.0  -0.1145
  C  C269  1  0.268600  0.560200  0.623860  1.0  0.0491
  C  C270  1  0.809300  0.477800  0.170670  1.0  -0.1389
  C  C271  1  0.133600  0.193810  0.827930  1.0  -0.0275
  C  C272  1  0.800000  0.903300  0.100220  1.0  -0.1147
  C  C273  1  0.312200  0.283820  0.952190  1.0  -0.0768
  C  C274  1  0.707700  0.816770  0.405200  1.0  -0.1101
  C  C275  1  0.639900  0.360200  0.099070  1.0  -0.1315
  C  C276  1  0.327300  0.046900  0.055000  1.0  -0.0428
  C  C277  1  0.671300  0.396700  0.073150  1.0  -0.0493
  C  C278  1  0.345000  0.359240  0.146620  1.0  -0.063
  C  C279  1  0.841400  0.316920  0.819580  1.0  -0.0393
  C  C280  1  0.359000  0.422100  0.091180  1.0  -0.0502
  C  C281  1  0.301500  0.795740  0.396450  1.0  -0.1342
  C  C282  1  0.236800  0.783960  0.323030  1.0  -0.1287
  C  C283  1  0.746800  0.766300  0.403470  1.0  0.0195
  C  C284  1  0.624900  0.628900  0.612670  1.0  -0.1353
  C  C285  1  0.768600  0.939800  0.126140  1.0  0.0494
  C  C286  1  0.277400  0.012500  0.612950  1.0  0.035
  C  C287  1  0.231400  0.060200  0.626140  1.0  0.0495
  C  C288  1  0.641000  0.577900  0.591180  1.0  -0.0512
  C  C289  1  0.263200  0.283960  0.926970  1.0  -0.1262
  C  C290  1  0.586900  0.324700  0.083400  1.0  0.7199
  C  C291  1  0.859000  0.077900  0.658820  1.0  -0.0504
  C  C292  1  0.413100  0.675300  0.583400  1.0  0.7213
  C  C293  1  0.227880  0.488200  0.148240  1.0  0.0583
  C  C294  1  0.085200  0.614500  0.176800  1.0  0.6856
  C  C295  1  0.772120  0.511800  0.648240  1.0  0.0567
  C  C296  1  0.792300  0.316770  0.844800  1.0  -0.1106
  C  C297  1  0.731400  0.439800  0.123860  1.0  0.049
  C  C298  1  0.309300  0.022200  0.579330  1.0  -0.1392
  C  C299  1  0.689600  0.988800  0.629910  1.0  -0.1446
  C  C300  1  0.634500  0.930100  0.583150  1.0  -0.1104
  C  C301  1  0.375100  0.371100  0.112670  1.0  -0.1357
  C  C302  1  0.157600  0.301580  0.823480  1.0  -0.0469
  C  C303  1  0.198500  0.295740  0.853550  1.0  -0.1359
  C  C304  1  0.585200  0.885500  0.573200  1.0  0.6863
  C  C305  1  0.722600  0.987500  0.112950  1.0  0.0354
  C  C306  1  0.793200  0.761100  0.370810  1.0  0.0634
  C  C307  1  0.190700  0.522200  0.670670  1.0  -0.1395
  C  C308  1  0.874800  0.749400  0.310670  1.0  -0.1551
  C  C309  1  0.625200  0.249400  0.939330  1.0  -0.1579
  C  C310  1  0.292300  0.183230  0.905200  1.0  -0.1084
  C  C311  1  0.672700  0.953100  0.555000  1.0  -0.0423
  C  C312  1  0.687200  0.538630  0.603640  1.0  -0.1445
  C  C313  1  0.825600  0.812030  0.358000  1.0  -0.1224
  C  C314  1  0.812800  0.038630  0.646360  1.0  -0.1434
  C  C315  1  0.345700  0.636400  0.637380  1.0  -0.0593
  C  C316  1  0.253200  0.233700  0.903470  1.0  0.0204
  C  C317  1  0.219400  0.506000  0.185690  1.0  -0.1255
  C  C318  1  0.165600  0.419100  0.626820  1.0  -0.0607
  C  C319  1  0.801500  0.704260  0.353550  1.0  -0.1337
  C  C320  1  0.187200  0.961370  0.146360  1.0  -0.1453
  C  C321  1  0.674400  0.312030  0.892000  1.0  -0.1213
  C  C322  1  0.827300  0.453100  0.695000  1.0  -0.0424
  C  C323  1  0.172700  0.546900  0.195000  1.0  -0.0429
  C  C324  1  0.222600  0.512500  0.637050  1.0  0.0353
  C  C325  1  0.580600  0.672900  0.595300  1.0  0.6679
  C  C326  1  0.154300  0.136400  0.612620  1.0  -0.0575
  C  C327  1  0.866200  0.571200  0.160440  1.0  -0.132
  C  C328  1  0.334400  0.919100  0.623180  1.0  -0.0596
  C  C329  1  0.342400  0.801580  0.426520  1.0  -0.0444
  C  C330  1  0.585800  0.114000  0.076900  1.0  0.7396
  C  C331  1  0.580700  0.238800  0.971100  1.0  0.6867
  C  C332  1  0.736800  0.716040  0.426970  1.0  -0.1271
  C  C333  1  0.727880  0.011800  0.601760  1.0  0.0585
  C  C334  1  0.665600  0.080900  0.123180  1.0  -0.0611
  C  C335  1  0.357100  0.052100  0.120600  1.0  -0.0201
  C  C336  1  0.325600  0.687970  0.392000  1.0  -0.1237
  C  C337  1  0.080700  0.261200  0.778900  1.0  0.6863
  C  C338  1  0.080600  0.827100  0.154700  1.0  0.6666
  C  C339  1  0.633800  0.071200  0.089560  1.0  -0.1318
  C  C340  1  0.654300  0.363600  0.137380  1.0  -0.059
  C  C341  1  0.374800  0.750600  0.439330  1.0  -0.1568
  C  C342  1  0.657600  0.198420  0.926520  1.0  -0.045
  C  C343  1  0.351300  0.233400  0.953910  1.0  -0.0584
  C  C344  1  0.753200  0.266300  0.846530  1.0  0.0188
  C  C345  1  0.290000  0.961000  0.634880  1.0  -0.1487
  C  C346  1  0.210000  0.461000  0.615120  1.0  -0.1491
  C  C347  1  0.648700  0.766600  0.453910  1.0  -0.0584
  C  C348  1  0.133800  0.428800  0.660440  1.0  -0.1314
  C  C349  1  0.341400  0.183080  0.930420  1.0  -0.0436
  C  C350  1  0.914800  0.385500  0.676800  1.0  0.7005
  C  C351  1  0.777400  0.487500  0.137050  1.0  0.0352
  C  C352  1  0.857100  0.447900  0.629400  1.0  -0.0198
  C  C353  1  0.298800  0.398500  0.159080  1.0  -0.1236
  C  C354  1  0.790000  0.539000  0.115120  1.0  -0.1484
  C  C355  1  0.701200  0.601500  0.659080  1.0  -0.1244
  C  C356  1  0.845700  0.863600  0.112620  1.0  -0.0593
  C  C357  1  0.919400  0.172900  0.654700  1.0  0.6673
  C  C358  1  0.312800  0.461370  0.103640  1.0  -0.1452
  C  C359  1  0.158600  0.683080  0.319580  1.0  -0.0408
  C  C360  1  0.206800  0.238900  0.870810  1.0  0.0632
  C  C361  1  0.913100  0.824700  0.166600  1.0  0.7187
  C  C362  1  0.174400  0.187970  0.858000  1.0  -0.1242
  C  C363  1  0.353700  0.980400  0.567640  1.0  -0.0317
  C  C364  1  0.851300  0.266600  0.796090  1.0  -0.0583
  C  C365  1  0.366200  0.928800  0.589560  1.0  -0.1316
  C  C366  1  0.414800  0.114500  0.073200  1.0  0.6864
  C  C367  1  0.828700  0.896700  0.176850  1.0  -0.0508
  C  C368  1  0.217000  0.063500  0.664450  1.0  -0.1558
  C  C369  1  0.217320  0.949500  0.112410  1.0  0.0529
  C  C370  1  0.365500  0.069900  0.083150  1.0  -0.1098
  C  C371  1  0.700000  0.403300  0.149780  1.0  -0.1146
  C  C372  1  0.085800  0.386000  0.673100  1.0  0.74
  C  C373  1  0.139900  0.139800  0.650930  1.0  -0.1309
  C  C374  1  0.366400  0.693810  0.422070  1.0  -0.0284
  C  C375  1  0.719400  0.994000  0.564310  1.0  -0.1276
  C  C376  1  0.272120  0.988200  0.101760  1.0  0.0577
  C  C377  1  0.860100  0.860200  0.150930  1.0  -0.1312
  C  C378  1  0.780600  0.494000  0.685690  1.0  -0.1252
  C  C379  1  0.171300  0.103300  0.676850  1.0  -0.0518
  C  C380  1  0.914200  0.614000  0.173100  1.0  0.7397
  C  C381  1  0.642900  0.947900  0.620600  1.0  -0.024
  C  C382  1  0.300000  0.596700  0.649780  1.0  -0.1141
  C  C383  1  0.419400  0.327100  0.095300  1.0  0.6678
  C  C384  1  0.328700  0.603300  0.573150  1.0  -0.052
  C  C385  1  0.488800  0.810400  0.379910  1.0  -0.1498
  C  C386  1  0.824700  0.913100  0.833400  1.0  0.7212
  C  C387  1  0.363600  0.654300  0.862620  1.0  -0.056
  C  C388  1  0.012500  0.277400  0.387050  1.0  0.0351
  C  C389  1  0.898500  0.201200  0.909080  1.0  -0.1174
  C  C390  1  0.114500  0.414800  0.926800  1.0  0.6874
  C  C391  1  0.639800  0.360100  0.400930  1.0  -0.1317
  C  C392  1  0.871100  0.124900  0.862670  1.0  -0.1341
  C  C393  1  0.961000  0.290000  0.365120  1.0  -0.1477
  C  C394  1  0.396700  0.671300  0.926850  1.0  -0.0501
  C  C395  1  0.577900  0.641000  0.408820  1.0  -0.0499
  C  C396  1  0.961370  0.187200  0.853640  1.0  -0.1483
  C  C397  1  0.204260  0.698500  0.103550  1.0  -0.133
  C  C398  1  0.301580  0.157600  0.176520  1.0  -0.0426
  C  C399  1  0.324700  0.586900  0.916600  1.0  0.7185
  C  C400  1  0.863600  0.845700  0.887380  1.0  -0.0592
  C  C401  1  0.860200  0.860100  0.849070  1.0  -0.1319
  C  C402  1  0.511200  0.189600  0.879910  1.0  -0.15
  C  C403  1  0.903300  0.800000  0.899780  1.0  -0.1134
  C  C404  1  0.371100  0.375100  0.887330  1.0  -0.1346
  C  C405  1  0.006000  0.280600  0.935690  1.0  -0.1266
  C  C406  1  0.519600  0.853700  0.817640  1.0  -0.0308
  C  C407  1  0.385500  0.914800  0.323200  1.0  0.6863
  C  C408  1  0.628900  0.624900  0.387330  1.0  -0.1342
  C  C409  1  0.250600  0.125200  0.189330  1.0  -0.156
  C  C410  1  0.512500  0.222600  0.362950  1.0  0.0352
  C  C411  1  0.766300  0.746800  0.596530  1.0  0.0193
  C  C412  1  0.487500  0.777400  0.862950  1.0  0.0352
  C  C413  1  0.939800  0.768600  0.873860  1.0  0.049
  C  C414  1  0.698420  0.842400  0.676520  1.0  -0.0431
  C  C415  1  0.096700  0.200000  0.399780  1.0  -0.1132
  C  C416  1  0.236000  0.406400  0.023700  1.0  0.6941
  C  C417  1  0.261200  0.080700  0.221100  1.0  0.6867
  C  C418  1  0.039000  0.710000  0.865120  1.0  -0.1474
  C  C419  1  0.683230  0.207700  0.655200  1.0  -0.1032
  C  C420  1  0.539000  0.790000  0.884880  1.0  -0.1469
  C  C421  1  0.306190  0.633600  0.077930  1.0  -0.0212
  C  C422  1  0.994000  0.719400  0.435690  1.0  -0.1255
  C  C423  1  0.216040  0.763200  0.176970  1.0  -0.1265
  C  C424  1  0.403300  0.700000  0.850220  1.0  -0.1125
  C  C425  1  0.494000  0.780600  0.314310  1.0  -0.1272
  C  C426  1  0.953100  0.672700  0.445000  1.0  -0.0416
  C  C427  1  0.552100  0.142900  0.870600  1.0  -0.0262
  C  C428  1  0.140760  0.845000  0.396620  1.0  -0.0653
  C  C429  1  0.453100  0.827300  0.305000  1.0  -0.0417
  C  C430  1  0.546900  0.172700  0.805000  1.0  -0.0411
  C  C431  1  0.980400  0.353700  0.432360  1.0  -0.0292
  C  C432  1  0.461000  0.210000  0.384880  1.0  -0.1465
  C  C433  1  0.896700  0.828700  0.823150  1.0  -0.0522
  C  C434  1  0.233400  0.351300  0.046090  1.0  -0.0575
  C  C435  1  0.477800  0.809300  0.829330  1.0  -0.1384
  C  C436  1  0.596700  0.300000  0.350220  1.0  -0.1132
  C  C437  1  0.261100  0.706800  0.120810  1.0  0.0574
  C  C438  1  0.749400  0.874800  0.689330  1.0  -0.158
  C  C439  1  0.011800  0.727880  0.398240  1.0  0.0559
  C  C440  1  0.419100  0.165600  0.373180  1.0  -0.0618
  C  C441  1  0.114000  0.585800  0.923100  1.0  0.7401
  C  C442  1  0.136400  0.154300  0.387380  1.0  -0.0575
  C  C443  1  0.077900  0.859000  0.341180  1.0  -0.0483
  C  C444  1  0.827100  0.080600  0.845300  1.0  0.668
  C  C445  1  0.766600  0.648700  0.546090  1.0  -0.0571
  C  C446  1  0.264000  0.906400  0.226300  1.0  0.6928
  C  C447  1  0.601500  0.701200  0.340920  1.0  -0.1221
  C  C448  1  0.885500  0.585200  0.426800  1.0  0.6866
  C  C449  1  0.580900  0.834400  0.873180  1.0  -0.0614
  C  C450  1  0.816770  0.707700  0.594800  1.0  -0.1024
  C  C451  1  0.783960  0.236800  0.676970  1.0  -0.1274
  C  C452  1  0.538630  0.687200  0.396360  1.0  -0.1481
  C  C453  1  0.175300  0.086900  0.333400  1.0  0.7188
  C  C454  1  0.733400  0.148700  0.703910  1.0  -0.0563
  C  C455  1  0.238800  0.580700  0.028900  1.0  0.6867
  C  C456  1  0.930100  0.634500  0.416850  1.0  -0.1097
  C  C457  1  0.687970  0.325600  0.608000  1.0  -0.1204
  C  C458  1  0.603300  0.328700  0.426850  1.0  -0.0499
  C  C459  1  0.988800  0.689600  0.370090  1.0  -0.1496
  C  C460  1  0.398500  0.298800  0.840920  1.0  -0.1167
  C  C461  1  0.764000  0.593600  0.523700  1.0  0.6943
  C  C462  1  0.560200  0.268600  0.376140  1.0  0.0496
  C  C463  1  0.052100  0.357100  0.879400  1.0  -0.0238
  C  C464  1  0.360200  0.639900  0.900930  1.0  -0.1322
  C  C465  1  0.733700  0.246800  0.653470  1.0  0.0206
  C  C466  1  0.449500  0.282680  0.862410  1.0  0.0538
  C  C467  1  0.949500  0.217320  0.887590  1.0  0.0557
  C  C468  1  0.922100  0.141000  0.841180  1.0  -0.0508
  C  C469  1  0.386000  0.085800  0.326900  1.0  0.7401
  C  C470  1  0.672900  0.580600  0.404700  1.0  0.6664
  C  C471  1  0.738800  0.919300  0.721100  1.0  0.6868
  C  C472  1  0.038630  0.812800  0.353640  1.0  -0.1493
  C  C473  1  0.071200  0.633800  0.910440  1.0  -0.1316
  C  C474  1  0.128900  0.875100  0.362670  1.0  -0.1346
  C  C475  1  0.761100  0.793200  0.629190  1.0  0.0574
  C  C476  1  0.736000  0.093600  0.726300  1.0  0.6922
  C  C477  1  0.571200  0.866200  0.839560  1.0  -0.1318
  C  C478  1  0.859240  0.155000  0.896620  1.0  -0.0621
  C  C479  1  0.283820  0.312200  0.047810  1.0  -0.0754
  C  C480  1  0.614000  0.914200  0.826900  1.0  0.7398
  C  C481  1  0.550500  0.717320  0.362410  1.0  0.0532
  C  C482  1  0.327100  0.419400  0.904700  1.0  0.668
  C  C483  1  0.738900  0.293200  0.620810  1.0  0.0603
  C  C484  1  0.640760  0.655000  0.353380  1.0  -0.0631
  C  C485  1  0.693810  0.366400  0.577930  1.0  -0.0236
  C  C486  1  0.198420  0.657600  0.073480  1.0  -0.0426
  C  C487  1  0.461370  0.312800  0.896360  1.0  -0.1476
  C  C488  1  0.050500  0.782680  0.387590  1.0  0.0539
  C  C489  1  0.439800  0.731400  0.876140  1.0  0.0497
  C  C490  1  0.011200  0.310400  0.870090  1.0  -0.1503
  C  C491  1  0.063500  0.217000  0.335550  1.0  -0.1558
  C  C492  1  0.812030  0.825600  0.642000  1.0  -0.1204
  C  C493  1  0.172900  0.919400  0.345300  1.0  0.6677
  C  C494  1  0.430100  0.865500  0.333150  1.0  -0.1109
  C  C495  1  0.447900  0.857100  0.370600  1.0  -0.0245
  C  C496  1  0.060200  0.231400  0.373860  1.0  0.0496
  C  C497  1  0.216180  0.812200  0.202190  1.0  -0.0762
  C  C498  1  0.636400  0.345700  0.362620  1.0  -0.0583
  C  C499  1  0.249400  0.625200  0.060670  1.0  -0.1543
  C  C500  1  0.522200  0.190700  0.329330  1.0  -0.1377
  C  C501  1  0.675300  0.413100  0.416600  1.0  0.7211
  C  C502  1  0.716040  0.736800  0.573030  1.0  -0.1263
  C  C503  1  0.480400  0.146300  0.317640  1.0  -0.0314
  C  C504  1  0.046900  0.327300  0.945000  1.0  -0.0408
  C  C505  1  0.101500  0.798800  0.409080  1.0  -0.1232
  C  C506  1  0.295740  0.198500  0.146450  1.0  -0.1308
  C  C507  1  0.988200  0.272120  0.898240  1.0  0.0552
  C  C508  1  0.359240  0.345000  0.853380  1.0  -0.0636
  C  C509  1  0.506000  0.219400  0.814310  1.0  -0.1229
  C  C510  1  0.022200  0.309300  0.420670  1.0  -0.1375
  C  C511  1  0.783820  0.187800  0.702190  1.0  -0.0756
  C  C512  1  0.193810  0.133600  0.172070  1.0  -0.0233
  C  C513  1  0.428800  0.133800  0.339560  1.0  -0.1319
  C  C514  1  0.704260  0.801500  0.646450  1.0  -0.1315
  C  C515  1  0.316920  0.841400  0.180420  1.0  -0.0346
  C  C516  1  0.683080  0.158600  0.680420  1.0  -0.033
  C  C517  1  0.187970  0.174400  0.142000  1.0  -0.12
  C  C518  1  0.886000  0.414200  0.423100  1.0  0.7403
  C  C519  1  0.422100  0.359000  0.908820  1.0  -0.0481
  C  C520  1  0.436500  0.717000  0.914450  1.0  -0.1551
  C  C521  1  0.569900  0.134500  0.833150  1.0  -0.1099
  C  C522  1  0.183080  0.341400  0.069580  1.0  -0.033
  C  C523  1  0.233700  0.253200  0.096530  1.0  0.0208
  C  C524  1  0.716180  0.687800  0.547810  1.0  -0.0756
  C  C525  1  0.761200  0.419300  0.528900  1.0  0.6867
  C  C526  1  0.069900  0.365500  0.916850  1.0  -0.1104
  C  C527  1  0.614500  0.085200  0.823200  1.0  0.6872
  C  C528  1  0.283960  0.263200  0.073030  1.0  -0.1279
  C  C529  1  0.266300  0.753200  0.153470  1.0  0.0204
  C  C530  1  0.750600  0.374800  0.560670  1.0  -0.154
  C  C531  1  0.795740  0.301500  0.603550  1.0  -0.1312
  C  C532  1  0.266600  0.851300  0.203910  1.0  -0.0577
  C  C533  1  0.806190  0.866400  0.672070  1.0  -0.0211
  C  C534  1  0.183230  0.292300  0.094800  1.0  -0.1035
  C  C535  1  0.987500  0.722600  0.887050  1.0  0.0353
  C  C536  1  0.936500  0.783000  0.835550  1.0  -0.1564
  C  C537  1  0.316770  0.792300  0.155200  1.0  -0.1029
  C  C538  1  0.488200  0.227880  0.851760  1.0  0.0563
  C  C539  1  0.080900  0.665600  0.876820  1.0  -0.0618
  C  C540  1  0.103300  0.171300  0.323150  1.0  -0.0469
  C  C541  1  0.919100  0.334400  0.376820  1.0  -0.062
  C  C542  1  0.816920  0.658600  0.569580  1.0  -0.0353
  C  C543  1  0.563500  0.283000  0.414450  1.0  -0.1557
  C  C544  1  0.312030  0.674400  0.108000  1.0  -0.1199
  C  C545  1  0.928800  0.366200  0.410440  1.0  -0.1317
  C  C546  1  0.977800  0.690700  0.920670  1.0  -0.1383
  C  C547  1  0.019600  0.646300  0.932360  1.0  -0.0315
  C  C548  1  0.511800  0.772120  0.351760  1.0  0.0559
  C  C549  1  0.801580  0.342400  0.573480  1.0  -0.0443
  C  C550  1  0.139800  0.139900  0.349070  1.0  -0.1317
  C  C551  1  0.947900  0.642900  0.379400  1.0  -0.0254
  C  C552  1  0.238900  0.206800  0.129190  1.0  0.0601
  O  O553  1  0.061900  0.212700  0.642320  1.0  -0.6353
  O  O554  1  0.940800  0.355000  0.650610  1.0  -0.5994
  O  O555  1  0.559200  0.855000  0.599390  1.0  -0.6012
  O  O556  1  0.002500  0.726500  0.203200  1.0  -0.9359
  O  O557  1  0.569700  0.883100  0.537450  1.0  -0.6011
  O  O558  1  0.938100  0.787300  0.142320  1.0  -0.6358
  O  O559  1  0.059700  0.393000  0.703460  1.0  -0.6051
  O  O560  1  0.924700  0.687700  0.264450  1.0  -0.5479
  O  O561  1  0.916100  0.214400  0.753710  1.0  -0.5658
  O  O562  1  0.930300  0.383100  0.712550  1.0  -0.6005
  O  O563  1  0.046500  0.213200  0.771520  1.0  -0.5954
  O  O564  1  0.927600  0.657700  0.150920  1.0  -0.619
  O  O565  1  0.453500  0.713200  0.478480  1.0  -0.5928
  O  O566  1  0.575300  0.187700  0.985550  1.0  -0.5488
  O  O567  1  0.546500  0.286800  0.978480  1.0  -0.5931
  O  O568  1  0.497500  0.226500  0.046800  1.0  -0.9366
  O  O569  1  0.502500  0.773500  0.546800  1.0  -0.9351
  O  O570  1  0.572400  0.157700  0.099080  1.0  -0.618
  O  O571  1  0.927200  0.830400  0.200850  1.0  -0.5752
  O  O572  1  0.059200  0.645000  0.150610  1.0  -0.5992
  O  O573  1  0.069700  0.616900  0.212550  1.0  -0.6017
  O  O574  1  0.583900  0.714400  0.496290  1.0  -0.5654
  O  O575  1  0.559700  0.107000  0.046540  1.0  -0.6043
  O  O576  1  0.072400  0.342300  0.650920  1.0  -0.6178
  O  O577  1  0.947900  0.156000  0.684280  1.0  -0.6112
  O  O578  1  0.443300  0.191500  0.974950  1.0  -0.5935
  O  O579  1  0.427600  0.842300  0.599080  1.0  -0.6175
  O  O580  1  0.075300  0.312300  0.764450  1.0  -0.5478
  O  O581  1  0.438100  0.712700  0.607680  1.0  -0.6351
  O  O582  1  0.561900  0.287300  0.107680  1.0  -0.6342
  O  O583  1  0.430500  0.274900  0.111950  1.0  -0.5887
  O  O584  1  0.552100  0.656000  0.565720  1.0  -0.6109
  O  O585  1  0.440300  0.893000  0.546540  1.0  -0.6053
  O  O586  1  0.940300  0.607000  0.203460  1.0  -0.6054
  O  O587  1  0.572800  0.330400  0.049150  1.0  -0.5748
  O  O588  1  0.556700  0.808500  0.474950  1.0  -0.5912
  O  O589  1  0.072800  0.169600  0.700850  1.0  -0.5717
  O  O590  1  0.416100  0.285600  0.996290  1.0  -0.5661
  O  O591  1  0.943300  0.308500  0.775050  1.0  -0.5919
  O  O592  1  0.953500  0.786800  0.271520  1.0  -0.5926
  O  O593  1  0.052100  0.844000  0.184280  1.0  -0.611
  O  O594  1  0.430300  0.116900  0.037450  1.0  -0.5995
  O  O595  1  0.083900  0.785600  0.253710  1.0  -0.5658
  O  O596  1  0.056700  0.691500  0.275050  1.0  -0.5931
  O  O597  1  0.447900  0.344000  0.065720  1.0  -0.6095
  O  O598  1  0.930500  0.225100  0.638050  1.0  -0.5893
  O  O599  1  0.569500  0.725100  0.611950  1.0  -0.5891
  O  O600  1  0.427200  0.669600  0.549150  1.0  -0.575
  O  O601  1  0.440800  0.145000  0.099390  1.0  -0.6009
  O  O602  1  0.997500  0.273500  0.703200  1.0  -0.9366
  O  O603  1  0.424700  0.812300  0.485550  1.0  -0.5484
  O  O604  1  0.069500  0.774900  0.138050  1.0  -0.5909
  O  O605  1  0.287300  0.561900  0.892320  1.0  -0.6317
  O  O606  1  0.883100  0.569700  0.462550  1.0  -0.601
  O  O607  1  0.657700  0.927600  0.849080  1.0  -0.6141
  O  O608  1  0.808500  0.556700  0.525050  1.0  -0.5911
  O  O609  1  0.213200  0.046500  0.228480  1.0  -0.5918
  O  O610  1  0.274900  0.430500  0.888050  1.0  -0.5891
  O  O611  1  0.616900  0.069700  0.787450  1.0  -0.6005
  O  O612  1  0.330400  0.572800  0.950850  1.0  -0.5752
  O  O613  1  0.774900  0.069500  0.861950  1.0  -0.5875
  O  O614  1  0.212700  0.061900  0.357680  1.0  -0.6302
  O  O615  1  0.714400  0.583900  0.503710  1.0  -0.5656
  O  O616  1  0.773500  0.502500  0.453200  1.0  -0.936
  O  O617  1  0.226500  0.497500  0.953200  1.0  -0.9363
  O  O618  1  0.726500  0.002500  0.796800  1.0  -0.936
  O  O619  1  0.383100  0.930300  0.287450  1.0  -0.6004
  O  O620  1  0.285600  0.416100  0.003710  1.0  -0.5637
  O  O621  1  0.645000  0.059200  0.849390  1.0  -0.602
  O  O622  1  0.273500  0.997500  0.296800  1.0  -0.9353
  O  O623  1  0.855000  0.559200  0.400610  1.0  -0.6011
  O  O624  1  0.844000  0.052100  0.815720  1.0  -0.6114
  O  O625  1  0.214400  0.916100  0.246290  1.0  -0.5656
  O  O626  1  0.355000  0.940800  0.349390  1.0  -0.6017
  O  O627  1  0.712700  0.438100  0.392320  1.0  -0.6304
  O  O628  1  0.145000  0.440800  0.900610  1.0  -0.6003
  O  O629  1  0.116900  0.430300  0.962550  1.0  -0.6004
  O  O630  1  0.344000  0.447900  0.934280  1.0  -0.6117
  O  O631  1  0.157700  0.572400  0.900920  1.0  -0.6154
  O  O632  1  0.342300  0.072400  0.349080  1.0  -0.6138
  O  O633  1  0.830400  0.927200  0.799150  1.0  -0.5747
  O  O634  1  0.393000  0.059700  0.296540  1.0  -0.6039
  O  O635  1  0.725100  0.569500  0.388050  1.0  -0.5888
  O  O636  1  0.312300  0.075300  0.235550  1.0  -0.5478
  O  O637  1  0.713200  0.453500  0.521520  1.0  -0.592
  O  O638  1  0.787300  0.938100  0.857680  1.0  -0.6311
  O  O639  1  0.687700  0.924700  0.735550  1.0  -0.5478
  O  O640  1  0.286800  0.546500  0.021520  1.0  -0.5908
  O  O641  1  0.785600  0.083900  0.746290  1.0  -0.5637
  O  O642  1  0.812300  0.424700  0.514450  1.0  -0.5476
  O  O643  1  0.842300  0.427600  0.400920  1.0  -0.6146
  O  O644  1  0.308500  0.943300  0.224950  1.0  -0.5912
  O  O645  1  0.225100  0.930500  0.361950  1.0  -0.5867
  O  O646  1  0.107000  0.559700  0.953460  1.0  -0.6059
  O  O647  1  0.191500  0.443300  0.025050  1.0  -0.5917
  O  O648  1  0.156000  0.947900  0.315720  1.0  -0.6116
  O  O649  1  0.786800  0.953500  0.728480  1.0  -0.5917
  O  O650  1  0.669600  0.427200  0.450850  1.0  -0.5735
  O  O651  1  0.169600  0.072800  0.299150  1.0  -0.5747
  O  O652  1  0.893000  0.440300  0.453460  1.0  -0.6046
  O  O653  1  0.656000  0.552100  0.434280  1.0  -0.6126
  O  O654  1  0.691500  0.056700  0.724950  1.0  -0.592
  O  O655  1  0.187700  0.575300  0.014450  1.0  -0.5482
  O  O656  1  0.607000  0.940300  0.796540  1.0  -0.6047
