# generated using pymatgen
data_Fe3H48C66O13
_symmetry_space_group_name_H-M   'P 1'
_cell_length_a   11.87000000
_cell_length_b   31.33800000
_cell_length_c   24.76300000
_cell_angle_alpha   90.00000000
_cell_angle_beta   90.00000000
_cell_angle_gamma   90.00000000
_symmetry_Int_Tables_number   1
_chemical_formula_structural   Fe3H48C66O13
_chemical_formula_sum   'Fe12 H192 C264 O52'
_cell_volume   9211.39175178
_cell_formula_units_Z   4
loop_
 _symmetry_equiv_pos_site_id
 _symmetry_equiv_pos_as_xyz
  1  'x, y, z'
loop_
 _atom_site_type_symbol
 _atom_site_label
 _atom_site_symmetry_multiplicity
 _atom_site_fract_x
 _atom_site_fract_y
 _atom_site_fract_z
 _atom_site_occupancy
 _atom_site_charge
  Fe  Fe1  1  0.454530  0.250000  0.611150  1.0  1.1959
  Fe  Fe2  1  0.714910  0.250000  0.561660  1.0  1.0416
  Fe  Fe3  1  0.491820  0.250000  0.481040  1.0  1.2599
  Fe  Fe4  1  0.045470  0.750000  0.111150  1.0  1.195
  Fe  Fe5  1  0.785090  0.750000  0.061660  1.0  1.0412
  Fe  Fe6  1  0.008180  0.750000  0.981040  1.0  1.2571
  Fe  Fe7  1  0.545470  0.750000  0.388850  1.0  1.1965
  Fe  Fe8  1  0.285090  0.750000  0.438340  1.0  1.0414
  Fe  Fe9  1  0.508180  0.750000  0.518960  1.0  1.2561
  Fe  Fe10  1  0.954530  0.250000  0.888850  1.0  1.1986
  Fe  Fe11  1  0.214910  0.250000  0.938340  1.0  1.0421
  Fe  Fe12  1  0.991820  0.250000  0.018960  1.0  1.2576
  H  H13  1  0.950900  0.063600  0.858100  1.0  0.1313
  H  H14  1  0.890900  0.094400  0.815400  1.0  0.1214
  H  H15  1  0.963700  0.054700  0.794800  1.0  0.1208
  H  H16  1  0.459500  0.965800  0.810800  1.0  0.1273
  H  H17  1  0.485300  0.955300  0.872800  1.0  0.1289
  H  H18  1  0.536700  0.925700  0.826100  1.0  0.1284
  H  H19  1  0.168100  0.014900  0.454600  1.0  0.1262
  H  H20  1  0.937800  0.056400  0.614100  1.0  0.1278
  H  H21  1  0.821100  0.052500  0.582000  1.0  0.1373
  H  H22  1  0.909500  0.089000  0.566300  1.0  0.1429
  H  H23  1  0.799300  0.132900  0.656500  1.0  0.1107
  H  H24  1  0.833400  0.077100  0.717100  1.0  0.1057
  H  H25  1  0.549100  0.107500  0.799400  1.0  0.1197
  H  H26  1  0.514900  0.163000  0.738800  1.0  0.1141
  H  H27  1  0.884700  0.991800  0.870900  1.0  0.1194
  H  H28  1  0.545400  0.028900  0.787400  1.0  0.1195
  H  H29  1  0.884800  0.916600  0.844700  1.0  0.1213
  H  H30  1  0.923200  0.852100  0.888200  1.0  0.1163
  H  H31  1  0.643100  0.867000  0.980200  1.0  0.11
  H  H32  1  0.605000  0.931700  0.936600  1.0  0.0948
  H  H33  1  0.251900  0.135600  0.610700  1.0  0.1072
  H  H34  1  0.141800  0.074300  0.601200  1.0  0.1054
  H  H35  1  0.127600  0.094100  0.439600  1.0  0.1104
  H  H36  1  0.239000  0.154900  0.449000  1.0  0.1124
  H  H37  1  0.549100  0.936400  0.358100  1.0  0.1319
  H  H38  1  0.609100  0.905600  0.315400  1.0  0.1214
  H  H39  1  0.536300  0.945300  0.294800  1.0  0.1219
  H  H40  1  0.040500  0.034200  0.310800  1.0  0.1292
  H  H41  1  0.014700  0.044700  0.372800  1.0  0.1288
  H  H42  1  0.963300  0.074300  0.326100  1.0  0.1314
  H  H43  1  0.331900  0.985100  0.954600  1.0  0.126
  H  H44  1  0.562200  0.943600  0.114100  1.0  0.1277
  H  H45  1  0.678900  0.947500  0.082000  1.0  0.1376
  H  H46  1  0.590500  0.911000  0.066300  1.0  0.1453
  H  H47  1  0.700700  0.867100  0.156500  1.0  0.1095
  H  H48  1  0.666667  0.922900  0.217100  1.0  0.1042
  H  H49  1  0.950900  0.892500  0.299400  1.0  0.12
  H  H50  1  0.985100  0.837000  0.238800  1.0  0.1143
  H  H51  1  0.615300  0.008200  0.370900  1.0  0.1186
  H  H52  1  0.954600  0.971100  0.287400  1.0  0.1201
  H  H53  1  0.615200  0.083400  0.344700  1.0  0.1208
  H  H54  1  0.576800  0.147900  0.388200  1.0  0.1163
  H  H55  1  0.856900  0.133000  0.480200  1.0  0.11
  H  H56  1  0.895000  0.068300  0.436600  1.0  0.0947
  H  H57  1  0.248100  0.864400  0.110700  1.0  0.107
  H  H58  1  0.358200  0.925700  0.101200  1.0  0.1054
  H  H59  1  0.372400  0.905900  0.939600  1.0  0.1102
  H  H60  1  0.261000  0.845100  0.949000  1.0  0.1122
  H  H61  1  0.049100  0.563600  0.141900  1.0  0.1311
  H  H62  1  0.109100  0.594400  0.184600  1.0  0.1222
  H  H63  1  0.036300  0.554700  0.205200  1.0  0.1226
  H  H64  1  0.540500  0.465800  0.189200  1.0  0.1291
  H  H65  1  0.514700  0.455300  0.127200  1.0  0.1278
  H  H66  1  0.463300  0.425700  0.173900  1.0  0.131
  H  H67  1  0.831900  0.514900  0.545400  1.0  0.1258
  H  H68  1  0.062200  0.556400  0.385900  1.0  0.129
  H  H69  1  0.178900  0.552500  0.418000  1.0  0.1376
  H  H70  1  0.090500  0.589000  0.433700  1.0  0.1426
  H  H71  1  0.200700  0.632900  0.343500  1.0  0.1108
  H  H72  1  0.166600  0.577100  0.282900  1.0  0.1058
  H  H73  1  0.450900  0.607500  0.200600  1.0  0.1197
  H  H74  1  0.485100  0.663000  0.261200  1.0  0.1144
  H  H75  1  0.115300  0.491800  0.129100  1.0  0.1187
  H  H76  1  0.454600  0.528900  0.212600  1.0  0.1194
  H  H77  1  0.115200  0.416600  0.155300  1.0  0.1209
  H  H78  1  0.076800  0.352100  0.111800  1.0  0.1164
  H  H79  1  0.356900  0.367000  0.019800  1.0  0.1097
  H  H80  1  0.395000  0.431700  0.063400  1.0  0.0945
  H  H81  1  0.748100  0.635600  0.389300  1.0  0.107
  H  H82  1  0.858200  0.574300  0.398800  1.0  0.1053
  H  H83  1  0.872400  0.594100  0.560400  1.0  0.1106
  H  H84  1  0.761000  0.654900  0.551000  1.0  0.1119
  H  H85  1  0.450900  0.436400  0.641900  1.0  0.1328
  H  H86  1  0.390900  0.405600  0.684600  1.0  0.122
  H  H87  1  0.463700  0.445300  0.705200  1.0  0.1206
  H  H88  1  0.959500  0.534200  0.689200  1.0  0.1302
  H  H89  1  0.985300  0.544700  0.627200  1.0  0.1278
  H  H90  1  0.036700  0.574300  0.673900  1.0  0.1316
  H  H91  1  0.668100  0.485100  0.045400  1.0  0.1259
  H  H92  1  0.437800  0.443600  0.885900  1.0  0.1281
  H  H93  1  0.321100  0.447500  0.918000  1.0  0.137
  H  H94  1  0.409500  0.411000  0.933700  1.0  0.1439
  H  H95  1  0.299300  0.367100  0.843500  1.0  0.1112
  H  H96  1  0.333400  0.422900  0.782900  1.0  0.1059
  H  H97  1  0.049100  0.392500  0.700600  1.0  0.1197
  H  H98  1  0.014900  0.337000  0.761200  1.0  0.1137
  H  H99  1  0.384700  0.508200  0.629100  1.0  0.1197
  H  H100  1  0.045400  0.471100  0.712600  1.0  0.1189
  H  H101  1  0.384800  0.583400  0.655300  1.0  0.1208
  H  H102  1  0.423200  0.647900  0.611800  1.0  0.1164
  H  H103  1  0.143100  0.633000  0.519800  1.0  0.1102
  H  H104  1  0.105000  0.568300  0.563400  1.0  0.0951
  H  H105  1  0.751900  0.364400  0.889300  1.0  0.1068
  H  H106  1  0.641800  0.425700  0.898800  1.0  0.1051
  H  H107  1  0.627600  0.405900  0.060400  1.0  0.1104
  H  H108  1  0.739000  0.345100  0.051000  1.0  0.1121
  H  H109  1  0.049100  0.936400  0.141900  1.0  0.132
  H  H110  1  0.109100  0.905600  0.184600  1.0  0.1217
  H  H111  1  0.036300  0.945300  0.205200  1.0  0.1225
  H  H112  1  0.540500  0.034200  0.189200  1.0  0.1301
  H  H113  1  0.514700  0.044700  0.127200  1.0  0.1279
  H  H114  1  0.463300  0.074300  0.173900  1.0  0.1316
  H  H115  1  0.831900  0.985100  0.545400  1.0  0.1258
  H  H116  1  0.062200  0.943600  0.385900  1.0  0.1287
  H  H117  1  0.178900  0.947500  0.418000  1.0  0.1398
  H  H118  1  0.090500  0.911000  0.433700  1.0  0.1458
  H  H119  1  0.200700  0.867100  0.343500  1.0  0.1109
  H  H120  1  0.166600  0.922900  0.282900  1.0  0.106
  H  H121  1  0.450900  0.892500  0.200600  1.0  0.1198
  H  H122  1  0.485100  0.837000  0.261200  1.0  0.114
  H  H123  1  0.115300  0.008200  0.129100  1.0  0.119
  H  H124  1  0.454600  0.971100  0.212600  1.0  0.1189
  H  H125  1  0.115200  0.083400  0.155300  1.0  0.1208
  H  H126  1  0.076800  0.147900  0.111800  1.0  0.1161
  H  H127  1  0.356900  0.133000  0.019800  1.0  0.11
  H  H128  1  0.395000  0.068300  0.063400  1.0  0.0948
  H  H129  1  0.748100  0.864400  0.389300  1.0  0.1067
  H  H130  1  0.858200  0.925700  0.398800  1.0  0.1052
  H  H131  1  0.872400  0.905900  0.560400  1.0  0.1105
  H  H132  1  0.761000  0.845100  0.551000  1.0  0.112
  H  H133  1  0.450900  0.063600  0.641900  1.0  0.133
  H  H134  1  0.390900  0.094400  0.684600  1.0  0.1221
  H  H135  1  0.463700  0.054700  0.705200  1.0  0.1211
  H  H136  1  0.959500  0.965800  0.689200  1.0  0.1298
  H  H137  1  0.985300  0.955300  0.627200  1.0  0.1278
  H  H138  1  0.036700  0.925700  0.673900  1.0  0.1303
  H  H139  1  0.668100  0.014900  0.045400  1.0  0.1256
  H  H140  1  0.437800  0.056400  0.885900  1.0  0.1284
  H  H141  1  0.321100  0.052500  0.918000  1.0  0.1393
  H  H142  1  0.409500  0.089000  0.933700  1.0  0.1425
  H  H143  1  0.299300  0.132900  0.843500  1.0  0.1111
  H  H144  1  0.333400  0.077100  0.782900  1.0  0.1061
  H  H145  1  0.049100  0.107500  0.700600  1.0  0.1196
  H  H146  1  0.014900  0.163000  0.761200  1.0  0.1144
  H  H147  1  0.384700  0.991800  0.629100  1.0  0.1196
  H  H148  1  0.045400  0.028900  0.712600  1.0  0.1191
  H  H149  1  0.384800  0.916600  0.655300  1.0  0.1212
  H  H150  1  0.423200  0.852100  0.611800  1.0  0.1163
  H  H151  1  0.143100  0.867000  0.519800  1.0  0.1095
  H  H152  1  0.105000  0.931700  0.563400  1.0  0.0947
  H  H153  1  0.751900  0.135600  0.889300  1.0  0.1071
  H  H154  1  0.641800  0.074300  0.898800  1.0  0.1055
  H  H155  1  0.627600  0.094100  0.060400  1.0  0.1107
  H  H156  1  0.739000  0.154900  0.051000  1.0  0.1121
  H  H157  1  0.950900  0.436400  0.858100  1.0  0.132
  H  H158  1  0.890900  0.405600  0.815400  1.0  0.1215
  H  H159  1  0.963700  0.445300  0.794800  1.0  0.1214
  H  H160  1  0.459500  0.534200  0.810800  1.0  0.1271
  H  H161  1  0.485300  0.544700  0.872800  1.0  0.1283
  H  H162  1  0.536700  0.574300  0.826100  1.0  0.1311
  H  H163  1  0.168100  0.485100  0.454600  1.0  0.1258
  H  H164  1  0.937800  0.443600  0.614100  1.0  0.1278
  H  H165  1  0.821100  0.447500  0.582000  1.0  0.139
  H  H166  1  0.909500  0.411000  0.566300  1.0  0.1433
  H  H167  1  0.799300  0.367100  0.656500  1.0  0.1107
  H  H168  1  0.833400  0.422900  0.717100  1.0  0.1057
  H  H169  1  0.549100  0.392500  0.799400  1.0  0.12
  H  H170  1  0.514900  0.337000  0.738800  1.0  0.114
  H  H171  1  0.884700  0.508200  0.870900  1.0  0.1191
  H  H172  1  0.545400  0.471100  0.787400  1.0  0.1196
  H  H173  1  0.884800  0.583400  0.844700  1.0  0.121
  H  H174  1  0.923200  0.647900  0.888200  1.0  0.1167
  H  H175  1  0.643100  0.633000  0.980200  1.0  0.1101
  H  H176  1  0.605000  0.568300  0.936600  1.0  0.095
  H  H177  1  0.251900  0.364400  0.610700  1.0  0.1072
  H  H178  1  0.141800  0.425700  0.601200  1.0  0.1054
  H  H179  1  0.127600  0.405900  0.439600  1.0  0.1108
  H  H180  1  0.239000  0.345100  0.449000  1.0  0.1123
  H  H181  1  0.549100  0.563600  0.358100  1.0  0.1325
  H  H182  1  0.609100  0.594400  0.315400  1.0  0.1217
  H  H183  1  0.536300  0.554700  0.294800  1.0  0.121
  H  H184  1  0.040500  0.465800  0.310800  1.0  0.1291
  H  H185  1  0.014700  0.455300  0.372800  1.0  0.1294
  H  H186  1  0.963300  0.425700  0.326100  1.0  0.1294
  H  H187  1  0.331900  0.514900  0.954600  1.0  0.126
  H  H188  1  0.562200  0.556400  0.114100  1.0  0.1274
  H  H189  1  0.678900  0.552500  0.082000  1.0  0.1397
  H  H190  1  0.590500  0.589000  0.066300  1.0  0.1429
  H  H191  1  0.700700  0.632900  0.156500  1.0  0.1096
  H  H192  1  0.666667  0.577100  0.217100  1.0  0.104
  H  H193  1  0.950900  0.607500  0.299400  1.0  0.1198
  H  H194  1  0.985100  0.663000  0.238800  1.0  0.1142
  H  H195  1  0.615300  0.491800  0.370900  1.0  0.1187
  H  H196  1  0.954600  0.528900  0.287400  1.0  0.1199
  H  H197  1  0.615200  0.416600  0.344700  1.0  0.1207
  H  H198  1  0.576800  0.352100  0.388200  1.0  0.1164
  H  H199  1  0.856900  0.367000  0.480200  1.0  0.1101
  H  H200  1  0.895000  0.431700  0.436600  1.0  0.0947
  H  H201  1  0.248100  0.635600  0.110700  1.0  0.1071
  H  H202  1  0.358200  0.574300  0.101200  1.0  0.1054
  H  H203  1  0.372400  0.594100  0.939600  1.0  0.1098
  H  H204  1  0.261000  0.654900  0.949000  1.0  0.1123
  C  C205  1  0.629100  0.189200  0.651800  1.0  0.7387
  C  C206  1  0.912700  0.064900  0.823100  1.0  -0.3841
  C  C207  1  0.516200  0.955000  0.836100  1.0  -0.3819
  C  C208  1  0.817900  0.813000  0.967100  1.0  0.738
  C  C209  1  0.333800  0.189100  0.537700  1.0  0.7285
  C  C210  1  0.057900  0.037760  0.510500  1.0  0.0294
  C  C211  1  0.957600  0.028930  0.537600  1.0  0.0214
  C  C212  1  0.099800  0.008880  0.473100  1.0  -0.1269
  C  C213  1  0.901300  0.059500  0.578800  1.0  -0.3555
  C  C214  1  0.653800  0.153350  0.691900  1.0  -0.1229
  C  C215  1  0.748500  0.127730  0.685500  1.0  -0.0055
  C  C216  1  0.768600  0.094570  0.721400  1.0  -0.1316
  C  C217  1  0.694100  0.086810  0.764000  1.0  0.0477
  C  C218  1  0.599700  0.112550  0.770400  1.0  -0.1345
  C  C219  1  0.579600  0.145560  0.734400  1.0  -0.0276
  C  C220  1  0.707600  0.047810  0.799800  1.0  0.021
  C  C221  1  0.808800  0.037120  0.824500  1.0  0.0851
  C  C222  1  0.815700  0.999320  0.853900  1.0  -0.1369
  C  C223  1  0.722700  0.972270  0.858600  1.0  0.0406
  C  C224  1  0.621300  0.983470  0.833800  1.0  0.0569
  C  C225  1  0.614300  0.021230  0.804400  1.0  -0.1303
  C  C226  1  0.741200  0.930340  0.886400  1.0  0.0488
  C  C227  1  0.835700  0.906560  0.872200  1.0  -0.1677
  C  C228  1  0.858600  0.868210  0.898000  1.0  -0.0528
  C  C229  1  0.786700  0.853360  0.938400  1.0  -0.1259
  C  C230  1  0.692100  0.877100  0.952700  1.0  -0.0446
  C  C231  1  0.669500  0.915520  0.926700  1.0  -0.1588
  C  C232  1  0.255900  0.151230  0.531000  1.0  -0.1217
  C  C233  1  0.226900  0.127100  0.575900  1.0  -0.034
  C  C234  1  0.161500  0.090600  0.570300  1.0  -0.1379
  C  C235  1  0.124900  0.077880  0.519300  1.0  0.0641
  C  C236  1  0.153400  0.102300  0.474300  1.0  -0.1504
  C  C237  1  0.219100  0.138600  0.479900  1.0  -0.0492
  C  C238  1  0.870900  0.810800  0.151800  1.0  0.739
  C  C239  1  0.587300  0.935100  0.323100  1.0  -0.3837
  C  C240  1  0.983800  0.045000  0.336100  1.0  -0.3818
  C  C241  1  0.682100  0.187000  0.467100  1.0  0.7396
  C  C242  1  0.166200  0.810900  0.037700  1.0  0.7288
  C  C243  1  0.442100  0.962240  0.010500  1.0  0.0289
  C  C244  1  0.542400  0.971070  0.037600  1.0  0.0229
  C  C245  1  0.400200  0.991120  0.973100  1.0  -0.1285
  C  C246  1  0.598700  0.940500  0.078800  1.0  -0.3557
  C  C247  1  0.846200  0.846650  0.191900  1.0  -0.1207
  C  C248  1  0.751500  0.872270  0.185500  1.0  -0.0026
  C  C249  1  0.731400  0.905430  0.221400  1.0  -0.1247
  C  C250  1  0.805900  0.913190  0.264000  1.0  0.0476
  C  C251  1  0.900300  0.887450  0.270400  1.0  -0.1353
  C  C252  1  0.920400  0.854440  0.234400  1.0  -0.0272
  C  C253  1  0.792400  0.952190  0.299800  1.0  0.0196
  C  C254  1  0.691200  0.962880  0.324500  1.0  0.0843
  C  C255  1  0.684300  0.000680  0.353900  1.0  -0.1381
  C  C256  1  0.777300  0.027730  0.358600  1.0  0.0414
  C  C257  1  0.878700  0.016530  0.333800  1.0  0.0547
  C  C258  1  0.885700  0.978770  0.304400  1.0  -0.1302
  C  C259  1  0.758800  0.069660  0.386400  1.0  0.0499
  C  C260  1  0.664300  0.093440  0.372200  1.0  -0.1683
  C  C261  1  0.641400  0.131790  0.398000  1.0  -0.0524
  C  C262  1  0.713300  0.146640  0.438400  1.0  -0.1269
  C  C263  1  0.807900  0.122900  0.452700  1.0  -0.0443
  C  C264  1  0.830500  0.084480  0.426700  1.0  -0.1585
  C  C265  1  0.244100  0.848770  0.031000  1.0  -0.122
  C  C266  1  0.273100  0.872900  0.075900  1.0  -0.0348
  C  C267  1  0.338500  0.909400  0.070300  1.0  -0.1358
  C  C268  1  0.375100  0.922120  0.019300  1.0  0.0641
  C  C269  1  0.346600  0.897700  0.974300  1.0  -0.1503
  C  C270  1  0.280900  0.861400  0.979900  1.0  -0.0493
  C  C271  1  0.370900  0.689200  0.348200  1.0  0.739
  C  C272  1  0.087300  0.564900  0.176900  1.0  -0.3835
  C  C273  1  0.483800  0.455000  0.163900  1.0  -0.3835
  C  C274  1  0.182100  0.313000  0.032900  1.0  0.7388
  C  C275  1  0.666200  0.689100  0.462300  1.0  0.7281
  C  C276  1  0.942100  0.537760  0.489500  1.0  0.0294
  C  C277  1  0.042400  0.528930  0.462400  1.0  0.0227
  C  C278  1  0.900200  0.508880  0.526900  1.0  -0.1302
  C  C279  1  0.098700  0.559500  0.421200  1.0  -0.3567
  C  C280  1  0.346200  0.653350  0.308100  1.0  -0.1215
  C  C281  1  0.251500  0.627730  0.314500  1.0  -0.0066
  C  C282  1  0.231400  0.594570  0.278600  1.0  -0.1315
  C  C283  1  0.305900  0.586810  0.236000  1.0  0.0481
  C  C284  1  0.400300  0.612550  0.229600  1.0  -0.1351
  C  C285  1  0.420400  0.645560  0.265600  1.0  -0.0246
  C  C286  1  0.292400  0.547810  0.200200  1.0  0.0193
  C  C287  1  0.191200  0.537120  0.175500  1.0  0.084
  C  C288  1  0.184300  0.499320  0.146100  1.0  -0.1392
  C  C289  1  0.277300  0.472270  0.141400  1.0  0.0412
  C  C290  1  0.378700  0.483470  0.166200  1.0  0.0566
  C  C291  1  0.385700  0.521230  0.195600  1.0  -0.1287
  C  C292  1  0.258800  0.430340  0.113600  1.0  0.05
  C  C293  1  0.164300  0.406560  0.127800  1.0  -0.1683
  C  C294  1  0.141400  0.368210  0.102000  1.0  -0.0527
  C  C295  1  0.213300  0.353360  0.061600  1.0  -0.1269
  C  C296  1  0.307900  0.377100  0.047300  1.0  -0.0447
  C  C297  1  0.330500  0.415520  0.073300  1.0  -0.1588
  C  C298  1  0.744100  0.651230  0.469000  1.0  -0.122
  C  C299  1  0.773100  0.627100  0.424100  1.0  -0.0337
  C  C300  1  0.838500  0.590600  0.429700  1.0  -0.1343
  C  C301  1  0.875100  0.577880  0.480700  1.0  0.0643
  C  C302  1  0.846600  0.602300  0.525700  1.0  -0.1512
  C  C303  1  0.780900  0.638600  0.520100  1.0  -0.0503
  C  C304  1  0.129100  0.310800  0.848200  1.0  0.7387
  C  C305  1  0.412700  0.435100  0.676900  1.0  -0.3853
  C  C306  1  0.016200  0.545000  0.663900  1.0  -0.3817
  C  C307  1  0.317900  0.687000  0.532900  1.0  0.7377
  C  C308  1  0.833800  0.310900  0.962300  1.0  0.7293
  C  C309  1  0.557900  0.462240  0.989500  1.0  0.0295
  C  C310  1  0.457600  0.471070  0.962400  1.0  0.0214
  C  C311  1  0.599800  0.491120  0.026900  1.0  -0.1272
  C  C312  1  0.401300  0.440500  0.921200  1.0  -0.3565
  C  C313  1  0.153800  0.346650  0.808100  1.0  -0.1216
  C  C314  1  0.248500  0.372270  0.814500  1.0  -0.0059
  C  C315  1  0.268600  0.405430  0.778600  1.0  -0.1316
  C  C316  1  0.194100  0.413190  0.736000  1.0  0.0475
  C  C317  1  0.099700  0.387450  0.729600  1.0  -0.134
  C  C318  1  0.079600  0.354440  0.765600  1.0  -0.0263
  C  C319  1  0.207600  0.452190  0.700200  1.0  0.0206
  C  C320  1  0.308800  0.462880  0.675500  1.0  0.0846
  C  C321  1  0.315700  0.500680  0.646100  1.0  -0.138
  C  C322  1  0.222700  0.527730  0.641400  1.0  0.0419
  C  C323  1  0.121300  0.516530  0.666200  1.0  0.0566
  C  C324  1  0.114300  0.478770  0.695600  1.0  -0.1301
  C  C325  1  0.241200  0.569660  0.613600  1.0  0.0493
  C  C326  1  0.335700  0.593440  0.627800  1.0  -0.167
  C  C327  1  0.358600  0.631790  0.602000  1.0  -0.0517
  C  C328  1  0.286700  0.646640  0.561600  1.0  -0.1258
  C  C329  1  0.192100  0.622900  0.547300  1.0  -0.0441
  C  C330  1  0.169500  0.584480  0.573300  1.0  -0.1588
  C  C331  1  0.755900  0.348770  0.969000  1.0  -0.1209
  C  C332  1  0.726900  0.372900  0.924100  1.0  -0.0337
  C  C333  1  0.661500  0.409400  0.929700  1.0  -0.1371
  C  C334  1  0.624900  0.422120  0.980700  1.0  0.0638
  C  C335  1  0.653400  0.397700  0.025700  1.0  -0.1516
  C  C336  1  0.719100  0.361400  0.020100  1.0  -0.0517
  C  C337  1  0.370900  0.810800  0.348200  1.0  0.739
  C  C338  1  0.087300  0.935100  0.176900  1.0  -0.3841
  C  C339  1  0.483800  0.045000  0.163900  1.0  -0.383
  C  C340  1  0.182100  0.187000  0.032900  1.0  0.7389
  C  C341  1  0.666200  0.810900  0.462300  1.0  0.7288
  C  C342  1  0.942100  0.962240  0.489500  1.0  0.0301
  C  C343  1  0.042400  0.971070  0.462400  1.0  0.0229
  C  C344  1  0.900200  0.991120  0.526900  1.0  -0.1297
  C  C345  1  0.098700  0.940500  0.421200  1.0  -0.3561
  C  C346  1  0.346200  0.846650  0.308100  1.0  -0.1203
  C  C347  1  0.251500  0.872270  0.314500  1.0  -0.0067
  C  C348  1  0.231400  0.905430  0.278600  1.0  -0.1313
  C  C349  1  0.305900  0.913190  0.236000  1.0  0.0478
  C  C350  1  0.400300  0.887450  0.229600  1.0  -0.1354
  C  C351  1  0.420400  0.854440  0.265600  1.0  -0.0266
  C  C352  1  0.292400  0.952190  0.200200  1.0  0.0191
  C  C353  1  0.191200  0.962880  0.175500  1.0  0.0838
  C  C354  1  0.184300  0.000680  0.146100  1.0  -0.1389
  C  C355  1  0.277300  0.027730  0.141400  1.0  0.0417
  C  C356  1  0.378700  0.016530  0.166200  1.0  0.055
  C  C357  1  0.385700  0.978770  0.195600  1.0  -0.1289
  C  C358  1  0.258800  0.069660  0.113600  1.0  0.0502
  C  C359  1  0.164300  0.093440  0.127800  1.0  -0.1688
  C  C360  1  0.141400  0.131790  0.102000  1.0  -0.0527
  C  C361  1  0.213300  0.146640  0.061600  1.0  -0.1267
  C  C362  1  0.307900  0.122900  0.047300  1.0  -0.0436
  C  C363  1  0.330500  0.084480  0.073300  1.0  -0.1587
  C  C364  1  0.744100  0.848770  0.469000  1.0  -0.1213
  C  C365  1  0.773100  0.872900  0.424100  1.0  -0.0336
  C  C366  1  0.838500  0.909400  0.429700  1.0  -0.1344
  C  C367  1  0.875100  0.922120  0.480700  1.0  0.0645
  C  C368  1  0.846600  0.897700  0.525700  1.0  -0.152
  C  C369  1  0.780900  0.861400  0.520100  1.0  -0.0526
  C  C370  1  0.129100  0.189200  0.848200  1.0  0.7388
  C  C371  1  0.412700  0.064900  0.676900  1.0  -0.3848
  C  C372  1  0.016200  0.955000  0.663900  1.0  -0.3816
  C  C373  1  0.317900  0.813000  0.532900  1.0  0.7373
  C  C374  1  0.833800  0.189100  0.962300  1.0  0.7288
  C  C375  1  0.557900  0.037760  0.989500  1.0  0.0307
  C  C376  1  0.457600  0.028930  0.962400  1.0  0.0213
  C  C377  1  0.599800  0.008880  0.026900  1.0  -0.1273
  C  C378  1  0.401300  0.059500  0.921200  1.0  -0.3553
  C  C379  1  0.153800  0.153350  0.808100  1.0  -0.1226
  C  C380  1  0.248500  0.127730  0.814500  1.0  -0.0051
  C  C381  1  0.268600  0.094570  0.778600  1.0  -0.1318
  C  C382  1  0.194100  0.086810  0.736000  1.0  0.0478
  C  C383  1  0.099700  0.112550  0.729600  1.0  -0.1351
  C  C384  1  0.079600  0.145560  0.765600  1.0  -0.0267
  C  C385  1  0.207600  0.047810  0.700200  1.0  0.0209
  C  C386  1  0.308800  0.037120  0.675500  1.0  0.0849
  C  C387  1  0.315700  0.999320  0.646100  1.0  -0.1379
  C  C388  1  0.222700  0.972270  0.641400  1.0  0.0412
  C  C389  1  0.121300  0.983470  0.666200  1.0  0.0583
  C  C390  1  0.114300  0.021230  0.695600  1.0  -0.1295
  C  C391  1  0.241200  0.930340  0.613600  1.0  0.0489
  C  C392  1  0.335700  0.906560  0.627800  1.0  -0.167
  C  C393  1  0.358600  0.868210  0.602000  1.0  -0.0524
  C  C394  1  0.286700  0.853360  0.561600  1.0  -0.1262
  C  C395  1  0.192100  0.877100  0.547300  1.0  -0.0447
  C  C396  1  0.169500  0.915520  0.573300  1.0  -0.1586
  C  C397  1  0.755900  0.151230  0.969000  1.0  -0.1215
  C  C398  1  0.726900  0.127100  0.924100  1.0  -0.0334
  C  C399  1  0.661500  0.090600  0.929700  1.0  -0.137
  C  C400  1  0.624900  0.077880  0.980700  1.0  0.0641
  C  C401  1  0.653400  0.102300  0.025700  1.0  -0.1507
  C  C402  1  0.719100  0.138600  0.020100  1.0  -0.049
  C  C403  1  0.629100  0.310800  0.651800  1.0  0.7385
  C  C404  1  0.912700  0.435100  0.823100  1.0  -0.385
  C  C405  1  0.516200  0.545000  0.836100  1.0  -0.3803
  C  C406  1  0.817900  0.687000  0.967100  1.0  0.7385
  C  C407  1  0.333800  0.310900  0.537700  1.0  0.729
  C  C408  1  0.057900  0.462240  0.510500  1.0  0.0302
  C  C409  1  0.957600  0.471070  0.537600  1.0  0.0213
  C  C410  1  0.099800  0.491120  0.473100  1.0  -0.1267
  C  C411  1  0.901300  0.440500  0.578800  1.0  -0.3552
  C  C412  1  0.653800  0.346650  0.691900  1.0  -0.1222
  C  C413  1  0.748500  0.372270  0.685500  1.0  -0.0064
  C  C414  1  0.768600  0.405430  0.721400  1.0  -0.132
  C  C415  1  0.694100  0.413190  0.764000  1.0  0.0474
  C  C416  1  0.599700  0.387450  0.770400  1.0  -0.1336
  C  C417  1  0.579600  0.354440  0.734400  1.0  -0.0269
  C  C418  1  0.707600  0.452190  0.799800  1.0  0.021
  C  C419  1  0.808800  0.462880  0.824500  1.0  0.0848
  C  C420  1  0.815700  0.500680  0.853900  1.0  -0.1368
  C  C421  1  0.722700  0.527730  0.858600  1.0  0.0415
  C  C422  1  0.621300  0.516530  0.833800  1.0  0.056
  C  C423  1  0.614300  0.478770  0.804400  1.0  -0.1307
  C  C424  1  0.741200  0.569660  0.886400  1.0  0.0491
  C  C425  1  0.835700  0.593440  0.872200  1.0  -0.1678
  C  C426  1  0.858600  0.631790  0.898000  1.0  -0.0524
  C  C427  1  0.786700  0.646640  0.938400  1.0  -0.1259
  C  C428  1  0.692100  0.622900  0.952700  1.0  -0.0448
  C  C429  1  0.669500  0.584480  0.926700  1.0  -0.1585
  C  C430  1  0.255900  0.348770  0.531000  1.0  -0.1215
  C  C431  1  0.226900  0.372900  0.575900  1.0  -0.0348
  C  C432  1  0.161500  0.409400  0.570300  1.0  -0.1387
  C  C433  1  0.124900  0.422120  0.519300  1.0  0.0638
  C  C434  1  0.153400  0.397700  0.474300  1.0  -0.1507
  C  C435  1  0.219100  0.361400  0.479900  1.0  -0.0504
  C  C436  1  0.870900  0.689200  0.151800  1.0  0.7391
  C  C437  1  0.587300  0.564900  0.323100  1.0  -0.3825
  C  C438  1  0.983800  0.455000  0.336100  1.0  -0.3837
  C  C439  1  0.682100  0.313000  0.467100  1.0  0.7394
  C  C440  1  0.166200  0.689100  0.037700  1.0  0.7281
  C  C441  1  0.442100  0.537760  0.010500  1.0  0.0299
  C  C442  1  0.542400  0.528930  0.037600  1.0  0.0227
  C  C443  1  0.400200  0.508880  0.973100  1.0  -0.1285
  C  C444  1  0.598700  0.559500  0.078800  1.0  -0.3553
  C  C445  1  0.846200  0.653350  0.191900  1.0  -0.1217
  C  C446  1  0.751500  0.627730  0.185500  1.0  -0.0023
  C  C447  1  0.731400  0.594570  0.221400  1.0  -0.1244
  C  C448  1  0.805900  0.586810  0.264000  1.0  0.0481
  C  C449  1  0.900300  0.612550  0.270400  1.0  -0.1347
  C  C450  1  0.920400  0.645560  0.234400  1.0  -0.0254
  C  C451  1  0.792400  0.547810  0.299800  1.0  0.0195
  C  C452  1  0.691200  0.537120  0.324500  1.0  0.0845
  C  C453  1  0.684300  0.499320  0.353900  1.0  -0.1381
  C  C454  1  0.777300  0.472270  0.358600  1.0  0.0409
  C  C455  1  0.878700  0.483470  0.333800  1.0  0.0557
  C  C456  1  0.885700  0.521230  0.304400  1.0  -0.1304
  C  C457  1  0.758800  0.430340  0.386400  1.0  0.0497
  C  C458  1  0.664300  0.406560  0.372200  1.0  -0.1679
  C  C459  1  0.641400  0.368210  0.398000  1.0  -0.0522
  C  C460  1  0.713300  0.353360  0.438400  1.0  -0.1267
  C  C461  1  0.807900  0.377100  0.452700  1.0  -0.0448
  C  C462  1  0.830500  0.415520  0.426700  1.0  -0.1591
  C  C463  1  0.244100  0.651230  0.031000  1.0  -0.122
  C  C464  1  0.273100  0.627100  0.075900  1.0  -0.034
  C  C465  1  0.338500  0.590600  0.070300  1.0  -0.1352
  C  C466  1  0.375100  0.577880  0.019300  1.0  0.0639
  C  C467  1  0.346600  0.602300  0.974300  1.0  -0.1502
  C  C468  1  0.280900  0.638600  0.979900  1.0  -0.0487
  O  O469  1  0.534000  0.205090  0.654400  1.0  -0.6053
  O  O470  1  0.706400  0.200900  0.621300  1.0  -0.6441
  O  O471  1  0.753700  0.799730  0.004300  1.0  -0.6285
  O  O472  1  0.909700  0.796030  0.952000  1.0  -0.6044
  O  O473  1  0.350700  0.203170  0.584500  1.0  -0.6233
  O  O474  1  0.371800  0.204840  0.494700  1.0  -0.6169
  O  O475  1  0.966000  0.794910  0.154400  1.0  -0.6056
  O  O476  1  0.793600  0.799100  0.121300  1.0  -0.6446
  O  O477  1  0.746300  0.200270  0.504300  1.0  -0.6298
  O  O478  1  0.590300  0.203970  0.452000  1.0  -0.6029
  O  O479  1  0.149300  0.796830  0.084500  1.0  -0.6222
  O  O480  1  0.128200  0.795160  0.994700  1.0  -0.6167
  O  O481  1  0.466000  0.705090  0.345600  1.0  -0.6043
  O  O482  1  0.293600  0.700900  0.378700  1.0  -0.645
  O  O483  1  0.246300  0.299730  0.995700  1.0  -0.6289
  O  O484  1  0.090300  0.296030  0.048000  1.0  -0.6036
  O  O485  1  0.649300  0.703170  0.415500  1.0  -0.6225
  O  O486  1  0.628200  0.704840  0.505300  1.0  -0.6156
  O  O487  1  0.034000  0.294910  0.845600  1.0  -0.6051
  O  O488  1  0.206400  0.299100  0.878700  1.0  -0.6443
  O  O489  1  0.253700  0.700270  0.495700  1.0  -0.6287
  O  O490  1  0.409700  0.703970  0.548000  1.0  -0.6027
  O  O491  1  0.850700  0.296830  0.915500  1.0  -0.6234
  O  O492  1  0.871800  0.295160  0.005300  1.0  -0.6169
  O  O493  1  0.466000  0.794910  0.345600  1.0  -0.6047
  O  O494  1  0.293600  0.799100  0.378700  1.0  -0.6446
  O  O495  1  0.246300  0.200270  0.995700  1.0  -0.6291
  O  O496  1  0.090300  0.203970  0.048000  1.0  -0.6026
  O  O497  1  0.649300  0.796830  0.415500  1.0  -0.6228
  O  O498  1  0.628200  0.795160  0.505300  1.0  -0.6154
  O  O499  1  0.034000  0.205090  0.845600  1.0  -0.6044
  O  O500  1  0.206400  0.200900  0.878700  1.0  -0.6444
  O  O501  1  0.253700  0.799730  0.495700  1.0  -0.6285
  O  O502  1  0.409700  0.796030  0.548000  1.0  -0.6036
  O  O503  1  0.850700  0.203170  0.915500  1.0  -0.623
  O  O504  1  0.871800  0.204840  0.005300  1.0  -0.6171
  O  O505  1  0.534000  0.294910  0.654400  1.0  -0.6054
  O  O506  1  0.706400  0.299100  0.621300  1.0  -0.6442
  O  O507  1  0.753700  0.700270  0.004300  1.0  -0.6293
  O  O508  1  0.909700  0.703970  0.952000  1.0  -0.6036
  O  O509  1  0.350700  0.296830  0.584500  1.0  -0.6233
  O  O510  1  0.371800  0.295160  0.494700  1.0  -0.6173
  O  O511  1  0.966000  0.705090  0.154400  1.0  -0.6054
  O  O512  1  0.793600  0.700900  0.121300  1.0  -0.6446
  O  O513  1  0.746300  0.299730  0.504300  1.0  -0.6293
  O  O514  1  0.590300  0.296030  0.452000  1.0  -0.6038
  O  O515  1  0.149300  0.703170  0.084500  1.0  -0.6223
  O  O516  1  0.128200  0.704840  0.994700  1.0  -0.6162
  O  O517  1  0.549100  0.250000  0.551700  1.0  -1.0686
  O  O518  1  0.950900  0.750000  0.051700  1.0  -1.0678
  O  O519  1  0.450900  0.750000  0.448300  1.0  -1.0676
  O  O520  1  0.049100  0.250000  0.948300  1.0  -1.0684
