# generated using pymatgen
data_Fe3H18C42S3O19
_symmetry_space_group_name_H-M   'P 1'
_cell_length_a   12.30810000
_cell_length_b   12.30810000
_cell_length_c   27.37500000
_cell_angle_alpha   90.00000000
_cell_angle_beta   90.00000000
_cell_angle_gamma   120.00000000
_symmetry_Int_Tables_number   1
_chemical_formula_structural   Fe3H18C42S3O19
_chemical_formula_sum   'Fe6 H36 C84 S6 O38'
_cell_volume   3591.42491991
_cell_formula_units_Z   2
loop_
 _symmetry_equiv_pos_site_id
 _symmetry_equiv_pos_as_xyz
  1  'x, y, z'
loop_
 _atom_site_type_symbol
 _atom_site_label
 _atom_site_symmetry_multiplicity
 _atom_site_fract_x
 _atom_site_fract_y
 _atom_site_fract_z
 _atom_site_occupancy
 _atom_site_charge
  Fe  Fe1  1  0.486410  0.243210  0.750000  1.0  1.1111
  Fe  Fe2  1  0.513590  0.756800  0.250000  1.0  1.1118
  Fe  Fe3  1  0.243200  0.486400  0.250000  1.0  1.1296
  Fe  Fe4  1  0.756800  0.513600  0.750000  1.0  1.1304
  Fe  Fe5  1  0.243200  0.756790  0.250000  1.0  1.1121
  Fe  Fe6  1  0.756800  0.243210  0.750000  1.0  1.1087
  H  H7  1  0.316400  0.931400  0.105900  1.0  0.1328
  H  H8  1  0.282200  0.974700  0.456400  1.0  0.1347
  H  H9  1  0.307500  0.025300  0.543600  1.0  0.1354
  H  H10  1  0.066300  0.710400  0.126500  1.0  0.1192
  H  H11  1  0.710400  0.066300  0.873500  1.0  0.1201
  H  H12  1  0.615000  0.931400  0.394100  1.0  0.1324
  H  H13  1  0.355900  0.066300  0.626500  1.0  0.1196
  H  H14  1  0.615000  0.683600  0.105900  1.0  0.1322
  H  H15  1  0.068600  0.385000  0.105900  1.0  0.1336
  H  H16  1  0.289600  0.933700  0.373500  1.0  0.1203
  H  H17  1  0.355900  0.289600  0.873500  1.0  0.119
  H  H18  1  0.933700  0.289600  0.626500  1.0  0.1195
  H  H19  1  0.717800  0.025300  0.956400  1.0  0.1356
  H  H20  1  0.644100  0.710400  0.373500  1.0  0.1198
  H  H21  1  0.307500  0.282200  0.956400  1.0  0.1337
  H  H22  1  0.931400  0.316400  0.894100  1.0  0.1319
  H  H23  1  0.066300  0.355900  0.373500  1.0  0.1217
  H  H24  1  0.931400  0.615000  0.605900  1.0  0.1345
  H  H25  1  0.385000  0.316400  0.605900  1.0  0.1327
  H  H26  1  0.974700  0.692500  0.956400  1.0  0.136
  H  H27  1  0.710400  0.644100  0.626500  1.0  0.1221
  H  H28  1  0.717800  0.692500  0.543600  1.0  0.1366
  H  H29  1  0.683600  0.615000  0.894100  1.0  0.1339
  H  H30  1  0.933700  0.644100  0.873500  1.0  0.1222
  H  H31  1  0.282200  0.307500  0.043600  1.0  0.1354
  H  H32  1  0.974700  0.282200  0.543600  1.0  0.1346
  H  H33  1  0.692500  0.974700  0.043600  1.0  0.1357
  H  H34  1  0.025300  0.717800  0.043600  1.0  0.1348
  H  H35  1  0.644100  0.933700  0.126500  1.0  0.1202
  H  H36  1  0.289600  0.355900  0.126500  1.0  0.1213
  H  H37  1  0.683600  0.068600  0.605900  1.0  0.1329
  H  H38  1  0.692500  0.717800  0.456400  1.0  0.1346
  H  H39  1  0.385000  0.068600  0.894100  1.0  0.1325
  H  H40  1  0.025300  0.307500  0.456400  1.0  0.1356
  H  H41  1  0.068600  0.683600  0.394100  1.0  0.1325
  H  H42  1  0.316400  0.385000  0.394100  1.0  0.1333
  C  C43  1  0.550200  0.111900  0.823510  1.0  0.7159
  C  C44  1  0.940800  0.587200  0.894920  1.0  -0.03
  C  C45  1  0.888100  0.449800  0.676490  1.0  0.7219
  C  C46  1  0.940800  0.353600  0.605080  1.0  -0.0263
  C  C47  1  0.412800  0.353600  0.894920  1.0  -0.0254
  C  C48  1  0.452400  0.392900  0.593870  1.0  0.0081
  C  C49  1  0.607100  0.059500  0.593870  1.0  0.007
  C  C50  1  0.353600  0.412800  0.105080  1.0  -0.0299
  C  C51  1  0.353600  0.940800  0.394920  1.0  -0.0279
  C  C52  1  0.350200  0.967600  0.443690  1.0  -0.0726
  C  C53  1  0.438300  0.550200  0.323510  1.0  0.7213
  C  C54  1  0.587200  0.940800  0.105080  1.0  -0.0269
  C  C55  1  0.032400  0.649800  0.056310  1.0  -0.0744
  C  C56  1  0.463800  0.016300  0.526510  1.0  0.069
  C  C57  1  0.547100  0.076500  0.876240  1.0  -0.1441
  C  C58  1  0.550200  0.438300  0.676490  1.0  0.719
  C  C59  1  0.412800  0.059200  0.605080  1.0  -0.0274
  C  C60  1  0.447500  0.983700  0.473490  1.0  0.0695
  C  C61  1  0.971500  0.426900  0.954980  1.0  -0.1369
  C  C62  1  0.392900  0.452400  0.406130  1.0  0.0022
  C  C63  1  0.016300  0.552500  0.026510  1.0  0.0679
  C  C64  1  0.449800  0.888100  0.323510  1.0  0.7157
  C  C65  1  0.587200  0.646400  0.394920  1.0  -0.0269
  C  C66  1  0.573100  0.028500  0.545020  1.0  -0.1349
  C  C67  1  0.940500  0.547600  0.593870  1.0  0.0053
  C  C68  1  0.536200  0.983700  0.026510  1.0  0.0693
  C  C69  1  0.076500  0.547100  0.123760  1.0  -0.1437
  C  C70  1  0.544600  0.573100  0.045020  1.0  -0.1363
  C  C71  1  0.646400  0.059200  0.894920  1.0  -0.0276
  C  C72  1  0.452900  0.529400  0.123760  1.0  -0.1442
  C  C73  1  0.552500  0.016300  0.973490  1.0  0.0695
  C  C74  1  0.888100  0.438300  0.823510  1.0  0.7213
  C  C75  1  0.529400  0.076500  0.623760  1.0  -0.142
  C  C76  1  0.547100  0.470600  0.623760  1.0  -0.1437
  C  C77  1  0.028500  0.455400  0.045020  1.0  -0.1345
  C  C78  1  0.971500  0.544600  0.545020  1.0  -0.1351
  C  C79  1  0.649800  0.032400  0.943690  1.0  -0.0722
  C  C80  1  0.032400  0.382600  0.443690  1.0  -0.0731
  C  C81  1  0.350200  0.382600  0.056310  1.0  -0.0744
  C  C82  1  0.649800  0.617400  0.556310  1.0  -0.0736
  C  C83  1  0.547600  0.940500  0.406130  1.0  0.0069
  C  C84  1  0.544600  0.971500  0.454980  1.0  -0.1344
  C  C85  1  0.455400  0.426900  0.545020  1.0  -0.1355
  C  C86  1  0.573100  0.544600  0.954980  1.0  -0.1366
  C  C87  1  0.426900  0.971500  0.045020  1.0  -0.1372
  C  C88  1  0.382600  0.032400  0.556310  1.0  -0.0738
  C  C89  1  0.059200  0.412800  0.394920  1.0  -0.0311
  C  C90  1  0.452400  0.059500  0.906130  1.0  0.0044
  C  C91  1  0.059500  0.452400  0.093870  1.0  0.0022
  C  C92  1  0.452900  0.923500  0.376240  1.0  -0.1443
  C  C93  1  0.923500  0.452900  0.623760  1.0  -0.1436
  C  C94  1  0.607100  0.547600  0.906130  1.0  0.0047
  C  C95  1  0.470600  0.547100  0.376240  1.0  -0.1457
  C  C96  1  0.940500  0.392900  0.906130  1.0  0.0084
  C  C97  1  0.617400  0.967600  0.056310  1.0  -0.0729
  C  C98  1  0.923500  0.470600  0.876240  1.0  -0.1454
  C  C99  1  0.111900  0.550200  0.176490  1.0  0.7189
  C  C100  1  0.561700  0.111900  0.676490  1.0  0.7169
  C  C101  1  0.438300  0.888100  0.176490  1.0  0.7149
  C  C102  1  0.447500  0.463800  0.026510  1.0  0.0688
  C  C103  1  0.967600  0.617400  0.943690  1.0  -0.0733
  C  C104  1  0.470600  0.923500  0.123760  1.0  -0.1419
  C  C105  1  0.536200  0.552500  0.473490  1.0  0.0684
  C  C106  1  0.449800  0.561700  0.176490  1.0  0.7222
  C  C107  1  0.028500  0.573100  0.454980  1.0  -0.1353
  C  C108  1  0.561700  0.449800  0.823510  1.0  0.7207
  C  C109  1  0.455400  0.028500  0.954980  1.0  -0.136
  C  C110  1  0.552500  0.536200  0.526510  1.0  0.0688
  C  C111  1  0.983700  0.447500  0.526510  1.0  0.0681
  C  C112  1  0.967600  0.350200  0.556310  1.0  -0.0741
  C  C113  1  0.059500  0.607100  0.406130  1.0  0.0091
  C  C114  1  0.392900  0.940500  0.093870  1.0  0.0042
  C  C115  1  0.426900  0.455400  0.454980  1.0  -0.1358
  C  C116  1  0.983700  0.536200  0.973490  1.0  0.0691
  C  C117  1  0.076500  0.529400  0.376240  1.0  -0.1467
  C  C118  1  0.111900  0.561700  0.323510  1.0  0.7207
  C  C119  1  0.617400  0.649800  0.443690  1.0  -0.075
  C  C120  1  0.059200  0.646400  0.105080  1.0  -0.0264
  C  C121  1  0.529400  0.452900  0.876240  1.0  -0.1457
  C  C122  1  0.463800  0.447500  0.973490  1.0  0.0682
  C  C123  1  0.016300  0.463800  0.473490  1.0  0.0691
  C  C124  1  0.547600  0.607100  0.093870  1.0  0.0098
  C  C125  1  0.646400  0.587200  0.605080  1.0  -0.0311
  C  C126  1  0.382600  0.350200  0.943690  1.0  -0.0741
  S  S127  1  0.340790  0.340790  0.500000  1.0  1.1263
  S  S128  1  0.000000  0.340790  0.000000  1.0  1.1313
  S  S129  1  0.000000  0.659210  0.500000  1.0  1.125
  S  S130  1  0.340790  0.000000  0.000000  1.0  1.1306
  S  S131  1  0.659210  0.000000  0.500000  1.0  1.129
  S  S132  1  0.659210  0.659210  0.000000  1.0  1.1288
  O  O133  1  0.524100  0.854200  0.311290  1.0  -0.5526
  O  O134  1  0.885200  0.224300  0.011290  1.0  -0.5983
  O  O135  1  0.224300  0.339100  0.511290  1.0  -0.5935
  O  O136  1  0.475900  0.145800  0.811290  1.0  -0.5535
  O  O137  1  0.775700  0.660900  0.011290  1.0  -0.5946
  O  O138  1  0.475700  0.363300  0.796920  1.0  -0.6225
  O  O139  1  0.636700  0.112400  0.796920  1.0  -0.6217
  O  O140  1  0.224300  0.885200  0.988710  1.0  -0.5971
  O  O141  1  0.660900  0.885200  0.511290  1.0  -0.597
  O  O142  1  0.339100  0.114800  0.011290  1.0  -0.5969
  O  O143  1  0.475700  0.112400  0.703080  1.0  -0.6245
  O  O144  1  0.114800  0.775700  0.511290  1.0  -0.5971
  O  O145  1  0.333333  0.666667  0.250000  1.0  -0.9146
  O  O146  1  0.145800  0.475900  0.188710  1.0  -0.5532
  O  O147  1  0.112400  0.636700  0.203080  1.0  -0.622
  O  O148  1  0.775700  0.114800  0.488710  1.0  -0.5961
  O  O149  1  0.363300  0.887600  0.296920  1.0  -0.6221
  O  O150  1  0.114800  0.339100  0.988710  1.0  -0.5946
  O  O151  1  0.524300  0.636700  0.296920  1.0  -0.6198
  O  O152  1  0.660900  0.775700  0.988710  1.0  -0.5964
  O  O153  1  0.524300  0.887600  0.203080  1.0  -0.6227
  O  O154  1  0.330100  0.475900  0.311290  1.0  -0.5535
  O  O155  1  0.669900  0.145800  0.688710  1.0  -0.553
  O  O156  1  0.636700  0.524300  0.703080  1.0  -0.6243
  O  O157  1  0.887600  0.524300  0.796920  1.0  -0.6224
  O  O158  1  0.363300  0.475700  0.203080  1.0  -0.6236
  O  O159  1  0.475900  0.330100  0.688710  1.0  -0.5527
  O  O160  1  0.666667  0.333333  0.750000  1.0  -0.9142
  O  O161  1  0.330100  0.854200  0.188710  1.0  -0.5521
  O  O162  1  0.887600  0.363300  0.703080  1.0  -0.6191
  O  O163  1  0.854200  0.524100  0.688710  1.0  -0.5512
  O  O164  1  0.112400  0.475700  0.296920  1.0  -0.6243
  O  O165  1  0.669900  0.524100  0.811290  1.0  -0.5528
  O  O166  1  0.885200  0.660900  0.488710  1.0  -0.5927
  O  O167  1  0.339100  0.224300  0.488710  1.0  -0.5971
  O  O168  1  0.854200  0.330100  0.811290  1.0  -0.5543
  O  O169  1  0.145800  0.669900  0.311290  1.0  -0.5556
  O  O170  1  0.524100  0.669900  0.188710  1.0  -0.5518
