# generated using pymatgen
data_Zn3H54C66O17
_symmetry_space_group_name_H-M   'P 1'
_cell_length_a   8.15760000
_cell_length_b   23.52970000
_cell_length_c   23.52970000
_cell_angle_alpha   88.27810000
_cell_angle_beta   80.01750000
_cell_angle_gamma   80.01770000
_symmetry_Int_Tables_number   1
_chemical_formula_structural   Zn3H54C66O17
_chemical_formula_sum   'Zn6 H108 C132 O34'
_cell_volume   4380.71609194
_cell_formula_units_Z   2
loop_
 _symmetry_equiv_pos_site_id
 _symmetry_equiv_pos_as_xyz
  1  'x, y, z'
loop_
 _atom_site_type_symbol
 _atom_site_label
 _atom_site_symmetry_multiplicity
 _atom_site_fract_x
 _atom_site_fract_y
 _atom_site_fract_z
 _atom_site_occupancy
 _atom_site_charge
  Zn  Zn1  1  0.255040  0.938530  0.949530  1.0  1.0554
  Zn  Zn2  1  0.795430  0.949530  0.061470  1.0  1.0522
  Zn  Zn3  1  0.143100  0.061470  0.050470  1.0  1.0511
  Zn  Zn4  1  0.250000  0.500000  0.500000  1.0  0.9262
  Zn  Zn5  1  0.806430  0.050470  0.938530  1.0  1.0533
  Zn  Zn6  1  0.500000  0.000000  0.000000  1.0  1.0507
  H  H7  1  0.907400  0.005100  0.716900  1.0  0.1303
  H  H8  1  0.179600  0.116100  0.380700  1.0  0.1522
  H  H9  1  0.319900  0.031000  0.198400  1.0  0.1224
  H  H10  1  0.239800  0.979200  0.181400  1.0  0.1134
  H  H11  1  0.072900  0.180300  0.614100  1.0  0.1308
  H  H12  1  0.422000  0.983600  0.721400  1.0  0.1331
  H  H13  1  0.649100  0.801600  0.031000  1.0  0.1238
  H  H14  1  0.705600  0.683100  0.492300  1.0  0.1291
  H  H15  1  0.629400  0.994900  0.283100  1.0  0.1299
  H  H16  1  0.619800  0.489500  0.251700  1.0  0.1373
  H  H17  1  0.054300  0.022100  0.793300  1.0  0.1097
  H  H18  1  0.970800  0.994400  0.367800  1.0  0.1163
  H  H19  1  0.313200  0.370200  0.843800  1.0  0.1332
  H  H20  1  0.802100  0.492300  0.316900  1.0  0.1301
  H  H21  1  0.300600  0.951700  0.479500  1.0  0.1371
  H  H22  1  0.008700  0.487600  0.130200  1.0  0.1027
  H  H23  1  0.333333  0.863400  0.389600  1.0  0.1165
  H  H24  1  0.263600  0.809800  0.021200  1.0  0.1009
  H  H25  1  0.361000  0.510500  0.748300  1.0  0.1306
  H  H26  1  0.196700  0.494400  0.184400  1.0  0.1162
  H  H27  1  0.628300  0.698500  0.881900  1.0  0.1442
  H  H28  1  0.843000  0.843800  0.629800  1.0  0.1336
  H  H29  1  0.489800  0.881900  0.301500  1.0  0.1442
  H  H30  1  0.503700  0.869800  0.487600  1.0  0.1011
  H  H31  1  0.682400  0.380000  0.495000  1.0  0.1577
  H  H32  1  0.415200  0.631900  0.559900  1.0  0.1432
  H  H33  1  0.673200  0.118100  0.698500  1.0  0.1446
  H  H34  1  0.963100  0.867300  0.354900  1.0  0.1263
  H  H35  1  0.127000  0.016400  0.278600  1.0  0.1329
  H  H36  1  0.852600  0.129100  0.310100  1.0  0.1394
  H  H37  1  0.463300  0.010200  0.373000  1.0  0.1101
  H  H38  1  0.128500  0.251700  0.510500  1.0  0.1273
  H  H39  1  0.861100  0.130200  0.512400  1.0  0.0981
  H  H40  1  0.272500  0.536700  0.021300  1.0  0.1183
  H  H41  1  0.937600  0.505000  0.380000  1.0  0.1549
  H  H42  1  0.375700  0.716900  0.994900  1.0  0.1295
  H  H43  1  0.853000  0.378300  0.118100  1.0  0.1441
  H  H44  1  0.822600  0.495000  0.620000  1.0  0.1558
  H  H45  1  0.618900  0.184400  0.505600  1.0  0.1171
  H  H46  1  0.842300  0.523100  0.003900  1.0  0.139
  H  H47  1  0.626500  0.512400  0.869800  1.0  0.1006
  H  H48  1  0.557400  0.620000  0.505000  1.0  0.1581
  H  H49  1  0.232500  0.858700  0.599100  1.0  0.1083
  H  H50  1  0.136400  0.179300  0.405100  1.0  0.1301
  H  H51  1  0.720800  0.820700  0.594900  1.0  0.1291
  H  H52  1  0.704300  0.619300  0.116100  1.0  0.1487
  H  H53  1  0.313000  0.614100  0.819700  1.0  0.1328
  H  H54  1  0.094600  0.190200  0.978800  1.0  0.1029
  H  H55  1  0.185300  0.132700  0.645100  1.0  0.1254
  H  H56  1  0.846500  0.989800  0.627000  1.0  0.1094
  H  H57  1  0.684300  0.594900  0.179300  1.0  0.1263
  H  H58  1  0.690300  0.141300  0.400900  1.0  0.1066
  H  H59  1  0.923600  0.206700  0.022100  1.0  0.1129
  H  H60  1  0.706200  0.021300  0.463300  1.0  0.1178
  H  H61  1  0.152400  0.793300  0.977900  1.0  0.1133
  H  H62  1  0.952900  0.440100  0.631900  1.0  0.1424
  H  H63  1  0.277100  0.389600  0.136600  1.0  0.1141
  H  H64  1  0.881000  0.316900  0.507700  1.0  0.1296
  H  H65  1  0.458500  0.405100  0.820700  1.0  0.1272
  H  H66  1  0.219900  0.479500  0.048300  1.0  0.1347
  H  H67  1  0.163700  0.373000  0.989800  1.0  0.109
  H  H68  1  0.926600  0.978800  0.809800  1.0  0.1048
  H  H69  1  0.578800  0.181400  0.020800  1.0  0.1144
  H  H70  1  0.087500  0.283100  0.005100  1.0  0.1318
  H  H71  1  0.837300  0.310100  0.870900  1.0  0.1399
  H  H72  1  0.676400  0.883900  0.619300  1.0  0.1509
  H  H73  1  0.549300  0.969000  0.801600  1.0  0.1232
  H  H74  1  0.682000  0.354900  0.132700  1.0  0.1295
  H  H75  1  0.208700  0.301500  0.118100  1.0  0.144
  H  H76  1  0.869700  0.977900  0.206700  1.0  0.1099
  H  H77  1  0.481700  0.198400  0.969000  1.0  0.1233
  H  H78  1  0.875500  0.505600  0.815600  1.0  0.1177
  H  H79  1  0.908800  0.400900  0.858700  1.0  0.1071
  H  H80  1  0.867300  0.819700  0.385900  1.0  0.1299
  H  H81  1  0.369300  0.476900  0.996100  1.0  0.1392
  H  H82  1  0.661400  0.367800  0.005600  1.0  0.1157
  H  H83  1  0.746800  0.385900  0.180300  1.0  0.1322
  H  H84  1  0.611300  0.507700  0.683100  1.0  0.1301
  H  H85  1  0.024900  0.559900  0.368100  1.0  0.143
  H  H86  1  0.316600  0.156200  0.370200  1.0  0.1329
  H  H87  1  0.291800  0.870900  0.689900  1.0  0.1381
  H  H88  1  0.153800  0.003900  0.476900  1.0  0.1392
  H  H89  1  0.856600  0.721400  0.016400  1.0  0.1342
  H  H90  1  0.781000  0.818600  0.979200  1.0  0.116
  H  H91  1  0.349400  0.621700  0.881900  1.0  0.1463
  H  H92  1  0.333000  0.005600  0.632200  1.0  0.1155
  H  H93  1  0.768700  0.881900  0.378300  1.0  0.1444
  H  H94  1  0.168400  0.599100  0.141300  1.0  0.1061
  H  H95  1  0.018300  0.689900  0.129100  1.0  0.139
  H  H96  1  0.190800  0.978700  0.536700  1.0  0.1185
  H  H97  1  0.586300  0.136600  0.610400  1.0  0.1158
  H  H98  1  0.527200  0.629800  0.156200  1.0  0.1343
  H  H99  1  0.715200  0.021200  0.190200  1.0  0.1002
  H  H100  1  0.634600  0.996100  0.523100  1.0  0.1401
  H  H101  1  0.890700  0.748300  0.489500  1.0  0.1322
  H  H102  1  0.594400  0.278600  0.983600  1.0  0.133
  H  H103  1  0.803300  0.610400  0.863400  1.0  0.1134
  H  H104  1  0.830500  0.463300  0.978700  1.0  0.1187
  H  H105  1  0.747700  0.520500  0.951700  1.0  0.1362
  H  H106  1  0.526500  0.627000  0.010200  1.0  0.1098
  H  H107  1  0.034800  0.632200  0.994400  1.0  0.1154
  H  H108  1  0.400400  0.020800  0.818600  1.0  0.1129
  H  H109  1  0.439700  0.380700  0.883900  1.0  0.1497
  H  H110  1  0.607000  0.368100  0.440100  1.0  0.1418
  H  H111  1  0.169600  0.645100  0.867300  1.0  0.1279
  H  H112  1  0.028900  0.118100  0.621700  1.0  0.1444
  H  H113  1  0.731800  0.048300  0.520500  1.0  0.1369
  H  H114  1  0.308900  0.815600  0.494400  1.0  0.1159
  C  C115  1  0.494500  0.071400  0.504000  1.0  0.0635
  C  C116  1  0.180100  0.143400  0.505400  1.0  -0.034
  C  C117  1  0.979300  0.909400  0.547400  1.0  -0.081
  C  C118  1  0.552300  0.106100  0.632900  1.0  -0.112
  C  C119  1  0.044000  0.983200  0.806200  1.0  -0.0086
  C  C120  1  0.050000  0.395600  0.921600  1.0  0.008
  C  C121  1  0.833400  0.016800  0.193800  1.0  -0.0099
  C  C122  1  0.551200  0.049900  0.719500  1.0  0.2638
  C  C123  1  0.480500  0.739400  0.489600  1.0  0.1253
  C  C124  1  0.952500  0.645700  0.972100  1.0  -0.0718
  C  C125  1  0.212100  0.557100  0.877500  1.0  0.0109
  C  C126  1  0.434100  0.496000  0.071400  1.0  0.0661
  C  C127  1  0.167900  0.985100  0.300300  1.0  -0.1943
  C  C128  1  0.379500  0.397000  0.854000  1.0  -0.3751
  C  C129  1  0.931000  0.482000  0.632000  1.0  -0.1907
  C  C130  1  0.489200  0.505000  0.820600  1.0  0.1871
  C  C131  1  0.592900  0.548500  0.124900  1.0  0.0888
  C  C132  1  0.690200  0.820600  0.495000  1.0  0.183
  C  C133  1  0.164000  0.495400  0.408600  1.0  0.1611
  C  C134  1  0.053600  0.306200  0.975000  1.0  -0.263
  C  C135  1  0.138000  0.926900  0.387100  1.0  0.0122
  C  C136  1  0.729300  0.719500  0.950100  1.0  0.2634
  C  C137  1  0.427400  0.408600  0.504600  1.0  0.164
  C  C138  1  0.385400  0.904500  0.314300  1.0  -0.204
  C  C139  1  0.473300  0.547400  0.090600  1.0  -0.0814
  C  C140  1  0.710100  0.685700  0.904500  1.0  -0.2057
  C  C141  1  0.085500  0.492300  0.200700  1.0  -0.127
  C  C142  1  0.675500  0.112700  0.376700  1.0  -0.0937
  C  C143  1  0.388000  0.087800  0.556800  1.0  -0.0527
  C  C144  1  0.055200  0.556800  0.912200  1.0  -0.0536
  C  C145  1  0.903100  0.322700  0.894900  1.0  -0.2019
  C  C146  1  0.367200  0.604400  0.078400  1.0  0.0076
  C  C147  1  0.313200  0.497500  0.030700  1.0  -0.3926
  C  C148  1  0.640200  0.025000  0.306200  1.0  -0.2629
  C  C149  1  0.314500  0.505400  0.856600  1.0  -0.0323
  C  C150  1  0.630500  0.603000  0.146000  1.0  -0.3754
  C  C151  1  0.211800  0.623300  0.112700  1.0  -0.092
  C  C152  1  0.814800  0.632900  0.893900  1.0  -0.1099
  C  C153  1  0.453300  0.014900  0.699700  1.0  -0.1941
  C  C154  1  0.068000  0.504600  0.591400  1.0  0.1612
  C  C155  1  0.774200  0.105100  0.322700  1.0  -0.2091
  C  C156  1  0.874000  0.860000  0.385200  1.0  -0.3941
  C  C157  1  0.120700  0.677300  0.105100  1.0  -0.209
  C  C158  1  0.531800  0.300300  0.014900  1.0  -0.1941
  C  C159  1  0.841400  0.502500  0.969300  1.0  -0.3924
  C  C160  1  0.775300  0.759900  0.491500  1.0  -0.1458
  C  C161  1  0.845500  0.491300  0.277700  1.0  -0.0732
  C  C162  1  0.266300  0.451500  0.875100  1.0  0.0891
  C  C163  1  0.164900  0.887300  0.623300  1.0  -0.095
  C  C164  1  0.300300  0.314300  0.095500  1.0  -0.2068
  C  C165  1  0.935500  0.965700  0.639900  1.0  -0.095
  C  C166  1  0.713800  0.200700  0.507700  1.0  -0.1289
  C  C167  1  0.028400  0.921600  0.604400  1.0  0.0076
  C  C168  1  0.098800  0.360100  0.965700  1.0  -0.0992
  C  C169  1  0.646700  0.442900  0.122500  1.0  0.0096
  C  C170  1  0.626500  0.508400  0.830600  1.0  -0.1374
  C  C171  1  0.957600  0.286800  0.939000  1.0  0.313
  C  C172  1  0.570300  0.354300  0.027900  1.0  -0.0735
  C  C173  1  0.340600  0.591400  0.495400  1.0  0.1629
  C  C174  1  0.778500  0.507700  0.799300  1.0  -0.1278
  C  C175  1  0.542900  0.830600  0.491600  1.0  -0.1463
  C  C176  1  0.663200  0.722300  0.491300  1.0  -0.0758
  C  C177  1  0.045000  0.518000  0.368000  1.0  -0.1924
  C  C178  1  0.183400  0.713200  0.061000  1.0  0.3116
  C  C179  1  0.464800  0.508500  0.759900  1.0  -0.1424
  C  C180  1  0.733200  0.491500  0.240100  1.0  -0.1463
  C  C181  1  0.541100  0.034300  0.360100  1.0  -0.096
  C  C182  1  0.554400  0.078400  0.395600  1.0  0.0074
  C  C183  1  0.972800  0.193800  0.983200  1.0  -0.0083
  C  C184  1  0.103400  0.939000  0.713200  1.0  0.314
  C  C185  1  0.266000  0.614800  0.860000  1.0  -0.3945
  C  C186  1  0.282200  0.124900  0.451500  1.0  0.0898
  C  C187  1  0.069900  0.928600  0.496000  1.0  0.0617
  C  C188  1  0.469300  0.185700  0.008900  1.0  -0.0485
  C  C189  1  0.587000  0.368000  0.482000  1.0  -0.1916
  C  C190  1  0.937500  0.028100  0.137100  1.0  0.7901
  C  C191  1  0.334800  0.693800  0.025000  1.0  -0.262
  C  C192  1  0.947800  0.376700  0.887300  1.0  -0.0868
  C  C193  1  0.780100  0.510400  0.739400  1.0  0.1251
  C  C194  1  0.935100  0.612900  0.926900  1.0  0.0128
  C  C195  1  0.766500  0.854000  0.603000  1.0  -0.3738
  C  C196  1  0.847000  0.699700  0.985100  1.0  -0.1929
  C  C197  1  0.524200  0.443200  0.087800  1.0  -0.0532
  C  C198  1  0.005800  0.179400  0.505000  1.0  0.1842
  C  C199  1  0.971400  0.975000  0.693800  1.0  -0.2617
  C  C200  1  0.814800  0.495000  0.179400  1.0  0.185
  C  C201  1  0.422200  0.799300  0.492300  1.0  -0.1304
  C  C202  1  0.408000  0.129700  0.014100  1.0  0.7772
  C  C203  1  0.102700  0.971900  0.862900  1.0  0.79
  C  C204  1  0.965500  0.491600  0.169400  1.0  -0.1437
  C  C205  1  0.663900  0.814300  0.991100  1.0  -0.0451
  C  C206  1  0.452000  0.073100  0.612900  1.0  0.0126
  C  C207  1  0.865100  0.169400  0.508400  1.0  -0.1454
  C  C208  1  0.925400  0.137100  0.971900  1.0  0.7872
  C  C209  1  0.437000  0.632000  0.518000  1.0  -0.1955
  C  C210  1  0.740800  0.385200  0.140000  1.0  -0.3944
  C  C211  1  0.876800  0.277700  0.508700  1.0  -0.0759
  C  C212  1  0.614500  0.508700  0.722300  1.0  -0.0707
  C  C213  1  0.001500  0.504000  0.928600  1.0  0.0635
  C  C214  1  0.034400  0.862900  0.028100  1.0  0.7832
  C  C215  1  0.075400  0.972100  0.354300  1.0  -0.0716
  C  C216  1  0.398900  0.280500  0.049900  1.0  0.2612
  C  C217  1  0.709500  0.260600  0.510400  1.0  0.1239
  C  C218  1  0.577900  0.014100  0.870300  1.0  0.782
  C  C219  1  0.029900  0.489600  0.260600  1.0  0.1272
  C  C220  1  0.401800  0.027900  0.645700  1.0  -0.0707
  C  C221  1  0.230800  0.122500  0.557100  1.0  0.0129
  C  C222  1  0.755600  0.061000  0.286800  1.0  0.3153
  C  C223  1  0.656100  0.030700  0.502500  1.0  -0.3934
  C  C224  1  0.521800  0.008900  0.814300  1.0  -0.0489
  C  C225  1  0.026700  0.240100  0.508500  1.0  -0.1438
  C  C226  1  0.291300  0.893900  0.367100  1.0  -0.1139
  C  C227  1  0.910400  0.877500  0.442900  1.0  0.0112
  C  C228  1  0.424600  0.639900  0.034300  1.0  -0.0978
  C  C229  1  0.111300  0.452600  0.909400  1.0  -0.0807
  C  C230  1  0.223500  0.146000  0.397000  1.0  -0.378
  C  C231  1  0.436100  0.090600  0.452600  1.0  -0.0821
  C  C232  1  0.320600  0.950100  0.280500  1.0  0.263
  C  C233  1  0.149800  0.806200  0.016800  1.0  -0.0084
  C  C234  1  0.032600  0.912200  0.443200  1.0  -0.0532
  C  C235  1  0.858600  0.875100  0.548500  1.0  0.0897
  C  C236  1  0.551800  0.870300  0.985900  1.0  0.778
  C  C237  1  0.119200  0.140000  0.614800  1.0  -0.3909
  C  C238  1  0.676500  0.494600  0.143400  1.0  -0.0345
  C  C239  1  0.341600  0.367100  0.106100  1.0  -0.1121
  C  C240  1  0.345000  0.991100  0.185700  1.0  -0.0494
  C  C241  1  0.202000  0.894900  0.677300  1.0  -0.2089
  C  C242  1  0.462300  0.985900  0.129700  1.0  0.7839
  C  C243  1  0.189300  0.969300  0.497500  1.0  -0.3952
  C  C244  1  0.828900  0.856600  0.494600  1.0  -0.0347
  C  C245  1  0.474900  0.387100  0.073100  1.0  0.0127
  C  C246  1  0.604200  0.095500  0.685700  1.0  -0.2071
  O  O247  1  0.420320  0.955550  0.228010  1.0  -0.2593
  O  O248  1  0.034690  0.004690  0.903930  1.0  -0.6393
  O  O249  1  0.226990  0.934200  0.868220  1.0  -0.5847
  O  O250  1  0.689610  0.043560  0.872420  1.0  -0.5798
  O  O251  1  0.113400  0.502300  0.556900  1.0  -0.6727
  O  O252  1  0.085340  0.765530  0.058190  1.0  -0.2583
  O  O253  1  0.624130  0.771990  0.955550  1.0  -0.2599
  O  O254  1  0.149130  0.941810  0.765530  1.0  -0.255
  O  O255  1  0.904790  0.868220  0.065800  1.0  -0.588
  O  O256  1  0.929000  0.506000  0.696000  1.0  -0.4366
  O  O257  1  0.507100  0.987430  0.911570  1.0  -0.6096
  O  O258  1  0.254000  0.000000  0.000000  1.0  -0.8584
  O  O259  1  0.131000  0.494000  0.304000  1.0  -0.4361
  O  O260  1  0.266830  0.127580  0.043560  1.0  -0.5811
  O  O261  1  0.746000  0.000000  0.000000  1.0  -0.8595
  O  O262  1  0.029410  0.065800  0.131780  1.0  -0.5842
  O  O263  1  0.375000  0.696000  0.494000  1.0  -0.4372
  O  O264  1  0.406100  0.012570  0.088430  1.0  -0.6107
  O  O265  1  0.061380  0.903930  0.995310  1.0  -0.6413
  O  O266  1  0.605590  0.956440  0.127580  1.0  -0.5795
  O  O267  1  0.172600  0.497700  0.443100  1.0  -0.6702
  O  O268  1  0.581330  0.911570  0.012570  1.0  -0.61
  O  O269  1  0.909060  0.234470  0.941810  1.0  -0.2533
  O  O270  1  0.329700  0.556900  0.497700  1.0  -0.6711
  O  O271  1  0.565000  0.304000  0.506000  1.0  -0.4374
  O  O272  1  0.384300  0.443100  0.502300  1.0  -0.672
  O  O273  1  0.943310  0.995310  0.096070  1.0  -0.6397
  O  O274  1  0.960620  0.096070  0.004690  1.0  -0.6391
  O  O275  1  0.437970  0.872420  0.956440  1.0  -0.5798
  O  O276  1  0.838810  0.131780  0.934200  1.0  -0.5839
  O  O277  1  0.603880  0.044450  0.771990  1.0  -0.2592
  O  O278  1  0.856470  0.058190  0.234470  1.0  -0.2564
  O  O279  1  0.505470  0.088430  0.987430  1.0  -0.6098
  O  O280  1  0.351670  0.228010  0.044450  1.0  -0.262
