# generated using pymatgen
data_ZnH27(C11O3)3
_symmetry_space_group_name_H-M   'P 1'
_cell_length_a   7.58830000
_cell_length_b   15.78380000
_cell_length_c   15.78380000
_cell_angle_alpha   94.28250000
_cell_angle_beta   99.47870000
_cell_angle_gamma   99.47870000
_symmetry_Int_Tables_number   1
_chemical_formula_structural   ZnH27(C11O3)3
_chemical_formula_sum   'Zn2 H54 C66 O18'
_cell_volume   1829.09644465
_cell_formula_units_Z   2
loop_
 _symmetry_equiv_pos_site_id
 _symmetry_equiv_pos_as_xyz
  1  'x, y, z'
loop_
 _atom_site_type_symbol
 _atom_site_label
 _atom_site_symmetry_multiplicity
 _atom_site_fract_x
 _atom_site_fract_y
 _atom_site_fract_z
 _atom_site_occupancy
 _atom_site_charge
  Zn  Zn1  1  0.201580  0.506950  0.623150  1.0  0.9864
  Zn  Zn2  1  0.701580  0.623150  0.506950  1.0  0.9855
  H  H3  1  0.962200  0.304800  0.408000  1.0  0.114
  H  H4  1  0.625400  0.248900  0.868900  1.0  0.1383
  H  H5  1  0.760700  0.649600  0.732800  1.0  0.1006
  H  H6  1  0.652900  0.023100  0.317300  1.0  0.1276
  H  H7  1  0.613900  0.071900  0.800500  1.0  0.1127
  H  H8  1  0.358700  0.923200  0.181600  1.0  0.0912
  H  H9  1  0.233000  0.044800  0.110800  1.0  0.125
  H  H10  1  0.993100  0.186000  0.158800  1.0  0.0988
  H  H11  1  0.038400  0.131200  0.759400  1.0  0.131
  H  H12  1  0.721400  0.879300  0.916700  1.0  0.1065
  H  H13  1  0.897000  0.721300  0.701100  1.0  0.0867
  H  H14  1  0.177600  0.073300  0.737700  1.0  0.1355
  H  H15  1  0.701200  0.808200  0.328200  1.0  0.1138
  H  H16  1  0.319100  0.315200  0.096000  1.0  0.1277
  H  H17  1  0.493100  0.158800  0.186000  1.0  0.0992
  H  H18  1  0.677600  0.737700  0.073300  1.0  0.1368
  H  H19  1  0.724900  0.326900  0.045300  1.0  0.1109
  H  H20  1  0.171000  0.851500  0.469900  1.0  0.1374
  H  H21  1  0.733000  0.110800  0.044800  1.0  0.1258
  H  H22  1  0.394300  0.168200  0.406400  1.0  0.1493
  H  H23  1  0.894300  0.406400  0.168200  1.0  0.1488
  H  H24  1  0.472500  0.752500  0.400300  1.0  0.138
  H  H25  1  0.152900  0.317300  0.023100  1.0  0.127
  H  H26  1  0.972500  0.400300  0.752500  1.0  0.1378
  H  H27  1  0.221400  0.916700  0.879300  1.0  0.1061
  H  H28  1  0.858700  0.181600  0.923200  1.0  0.0915
  H  H29  1  0.082500  0.060300  0.035700  1.0  0.1422
  H  H30  1  0.582500  0.035700  0.060300  1.0  0.1409
  H  H31  1  0.282000  0.416800  0.339400  1.0  0.0898
  H  H32  1  0.657000  0.032900  0.973500  1.0  0.1272
  H  H33  1  0.397000  0.701100  0.721300  1.0  0.0862
  H  H34  1  0.782000  0.339400  0.416800  1.0  0.09
  H  H35  1  0.260700  0.732800  0.649600  1.0  0.1028
  H  H36  1  0.201200  0.328200  0.808200  1.0  0.1125
  H  H37  1  0.538400  0.759400  0.131200  1.0  0.129
  H  H38  1  0.157000  0.973500  0.032900  1.0  0.1275
  H  H39  1  0.346400  0.366400  0.016400  1.0  0.1458
  H  H40  1  0.846400  0.016400  0.366400  1.0  0.1469
  H  H41  1  0.762900  0.788500  0.803900  1.0  0.1152
  H  H42  1  0.819100  0.096000  0.315200  1.0  0.1284
  H  H43  1  0.153000  0.706900  0.961500  1.0  0.1367
  H  H44  1  0.671000  0.469900  0.851500  1.0  0.1377
  H  H45  1  0.261200  0.770000  0.483200  1.0  0.1017
  H  H46  1  0.025700  0.038100  0.789100  1.0  0.1503
  H  H47  1  0.462200  0.408000  0.304800  1.0  0.1115
  H  H48  1  0.667500  0.234200  0.309800  1.0  0.1324
  H  H49  1  0.525700  0.789100  0.038100  1.0  0.1498
  H  H50  1  0.125400  0.868900  0.248900  1.0  0.141
  H  H51  1  0.653000  0.961500  0.706900  1.0  0.1385
  H  H52  1  0.262900  0.803900  0.788500  1.0  0.1154
  H  H53  1  0.167500  0.309800  0.234200  1.0  0.1293
  H  H54  1  0.113900  0.800500  0.071900  1.0  0.114
  H  H55  1  0.761200  0.483200  0.770000  1.0  0.1012
  H  H56  1  0.224900  0.045300  0.326900  1.0  0.1085
  C  C57  1  0.317800  0.234900  0.986500  1.0  0.0305
  C  C58  1  0.107100  0.088600  0.779800  1.0  -0.3599
  C  C59  1  0.957400  0.020400  0.193800  1.0  -0.0561
  C  C60  1  0.406700  0.007000  0.848000  1.0  0.0749
  C  C61  1  0.054900  0.246200  0.871200  1.0  0.0834
  C  C62  1  0.733000  0.864100  0.125100  1.0  0.0209
  C  C63  1  0.203200  0.201000  0.908000  1.0  -0.0273
  C  C64  1  0.085400  0.312200  0.820600  1.0  -0.1149
  C  C65  1  0.280600  0.316000  0.035000  1.0  -0.3729
  C  C66  1  0.448800  0.787000  0.356000  1.0  -0.226
  C  C67  1  0.808400  0.844300  0.926500  1.0  -0.1126
  C  C68  1  0.494100  0.494700  0.748100  1.0  0.7328
  C  C69  1  0.994100  0.748100  0.494700  1.0  0.734
  C  C70  1  0.072700  0.182100  0.209300  1.0  -0.0897
  C  C71  1  0.962400  0.738100  0.870500  1.0  0.2972
  C  C72  1  0.793600  0.329400  0.251000  1.0  0.287
  C  C73  1  0.308400  0.926500  0.844300  1.0  -0.1087
  C  C74  1  0.944600  0.599000  0.671400  1.0  0.7433
  C  C75  1  0.652700  0.456100  0.789300  1.0  -0.0736
  C  C76  1  0.983200  0.978900  0.117100  1.0  0.092
  C  C77  1  0.741100  0.265700  0.856700  1.0  -0.2426
  C  C78  1  0.381900  0.888300  0.225500  1.0  -0.1213
  C  C79  1  0.126800  0.017900  0.069900  1.0  -0.369
  C  C80  1  0.906700  0.848000  0.007000  1.0  0.0725
  C  C81  1  0.881900  0.225500  0.888300  1.0  -0.1206
  C  C82  1  0.626800  0.069900  0.017900  1.0  -0.3689
  C  C83  1  0.241100  0.856700  0.265700  1.0  -0.2399
  C  C84  1  0.777000  0.332000  0.806200  1.0  0.2795
  C  C85  1  0.403600  0.404500  0.354900  1.0  -0.0264
  C  C86  1  0.457400  0.193800  0.020400  1.0  -0.0563
  C  C87  1  0.515900  0.469600  0.432200  1.0  0.6925
  C  C88  1  0.370700  0.084200  0.898400  1.0  -0.069
  C  C89  1  0.833500  0.790000  0.858200  1.0  -0.2308
  C  C90  1  0.040100  0.797000  0.018000  1.0  -0.1118
  C  C91  1  0.233000  0.125100  0.864100  1.0  0.0234
  C  C92  1  0.676300  0.254200  0.256400  1.0  -0.2434
  C  C93  1  0.709000  0.309200  0.098800  1.0  -0.1229
  C  C94  1  0.152700  0.789300  0.456100  1.0  -0.0736
  C  C95  1  0.293600  0.251000  0.329400  1.0  0.2852
  C  C96  1  0.812700  0.356700  0.172100  1.0  -0.2311
  C  C97  1  0.015900  0.432200  0.469600  1.0  0.6895
  C  C98  1  0.082900  0.101700  0.236700  1.0  0.0277
  C  C99  1  0.948800  0.356000  0.787000  1.0  -0.2231
  C  C100  1  0.462400  0.870500  0.738100  1.0  0.2988
  C  C101  1  0.607100  0.779800  0.088600  1.0  -0.3586
  C  C102  1  0.780600  0.035000  0.316000  1.0  -0.3753
  C  C103  1  0.209000  0.098800  0.309200  1.0  -0.1236
  C  C104  1  0.540100  0.018000  0.797000  1.0  -0.1076
  C  C105  1  0.565800  0.951700  0.741900  1.0  -0.1889
  C  C106  1  0.870700  0.898400  0.084200  1.0  -0.0711
  C  C107  1  0.444600  0.671400  0.599000  1.0  0.7443
  C  C108  1  0.312700  0.172100  0.356700  1.0  -0.2327
  C  C109  1  0.817800  0.986500  0.234900  1.0  0.0327
  C  C110  1  0.903600  0.354900  0.404500  1.0  -0.0274
  C  C111  1  0.572700  0.209300  0.182100  1.0  -0.0917
  C  C112  1  0.582900  0.236700  0.101700  1.0  0.0275
  C  C113  1  0.554900  0.871200  0.246200  1.0  0.0822
  C  C114  1  0.065800  0.741900  0.951700  1.0  -0.1923
  C  C115  1  0.277000  0.806200  0.332000  1.0  0.2796
  C  C116  1  0.585400  0.820600  0.312200  1.0  -0.1149
  C  C117  1  0.483200  0.117100  0.978900  1.0  0.0934
  C  C118  1  0.703200  0.908000  0.201000  1.0  -0.0286
  C  C119  1  0.176300  0.256400  0.254200  1.0  -0.2406
  C  C120  1  0.333500  0.858200  0.790000  1.0  -0.23
  C  C121  1  0.386500  0.727400  0.667400  1.0  -0.049
  C  C122  1  0.886500  0.667400  0.727400  1.0  -0.0488
  O  O123  1  0.497700  0.570800  0.768400  1.0  -0.5333
  O  O124  1  0.075600  0.565400  0.703400  1.0  -0.5731
  O  O125  1  0.065300  0.409900  0.542100  1.0  -0.575
  O  O126  1  0.860300  0.578800  0.596600  1.0  -0.6037
  O  O127  1  0.360300  0.596600  0.578800  1.0  -0.6052
  O  O128  1  0.565300  0.542100  0.409900  1.0  -0.5757
  O  O129  1  0.870700  0.693700  0.444700  1.0  -0.5741
  O  O130  1  0.897100  0.384600  0.320200  1.0  -0.2562
  O  O131  1  0.998500  0.679500  0.809500  1.0  -0.2562
  O  O132  1  0.539000  0.446700  0.504100  1.0  -0.5167
  O  O133  1  0.498500  0.809500  0.679500  1.0  -0.2602
  O  O134  1  0.397100  0.320200  0.384600  1.0  -0.2577
  O  O135  1  0.132900  0.771700  0.369700  1.0  -0.3053
  O  O136  1  0.039000  0.504100  0.446700  1.0  -0.5167
  O  O137  1  0.632900  0.369700  0.771700  1.0  -0.3037
  O  O138  1  0.997700  0.768400  0.570800  1.0  -0.5341
  O  O139  1  0.575600  0.703400  0.565400  1.0  -0.5747
  O  O140  1  0.370700  0.444700  0.693700  1.0  -0.572
