# generated using pymatgen
data_Zn5FeH108(C66O19)2
_symmetry_space_group_name_H-M   'P 1'
_cell_length_a   8.03550000
_cell_length_b   23.42220000
_cell_length_c   23.42220000
_cell_angle_alpha   88.31390000
_cell_angle_beta   80.12280000
_cell_angle_gamma   80.12310000
_symmetry_Int_Tables_number   1
_chemical_formula_structural   Zn5FeH108(C66O19)2
_chemical_formula_sum   'Zn5 Fe1 H108 C132 O38'
_cell_volume   4278.56156999
_cell_formula_units_Z   1
loop_
 _symmetry_equiv_pos_site_id
 _symmetry_equiv_pos_as_xyz
  1  'x, y, z'
loop_
 _atom_site_type_symbol
 _atom_site_label
 _atom_site_symmetry_multiplicity
 _atom_site_fract_x
 _atom_site_fract_y
 _atom_site_fract_z
 _atom_site_occupancy
 _atom_site_charge
  Zn  Zn1  1  0.141150  0.062280  0.053540  1.0  1.0517
  Zn  Zn2  1  0.805310  0.053540  0.937720  1.0  1.0513
  Zn  Zn3  1  0.256970  0.937720  0.946460  1.0  1.0566
  Zn  Zn4  1  0.500000  0.000000  0.000000  1.0  1.0471
  Zn  Zn5  1  0.796570  0.946460  0.062280  1.0  1.0539
  Fe  Fe6  1  0.250000  0.500000  0.500000  1.0  0.9693
  H  H7  1  0.226000  0.706000  0.457800  1.0  0.1097
  H  H8  1  0.338500  0.003900  0.631500  1.0  0.1081
  H  H9  1  0.419600  0.374500  0.880300  1.0  0.1327
  H  H10  1  0.001600  0.168400  0.609200  1.0  0.1214
  H  H11  1  0.943400  0.398300  0.851300  1.0  0.1287
  H  H12  1  0.657600  0.368500  0.003900  1.0  0.1076
  H  H13  1  0.835400  0.131200  0.306800  1.0  0.1191
  H  H14  1  0.805100  0.362200  0.111400  1.0  0.134
  H  H15  1  0.643700  0.699700  0.877900  1.0  0.1113
  H  H16  1  0.921800  0.009900  0.709700  1.0  0.1194
  H  H17  1  0.829400  0.821800  0.622000  1.0  0.1341
  H  H18  1  0.830000  0.390800  0.168400  1.0  0.1204
  H  H19  1  0.162400  0.374400  0.991400  1.0  0.1041
  H  H20  1  0.736200  0.053200  0.500000  1.0  0.1218
  H  H21  1  0.763800  0.500000  0.946800  1.0  0.1195
  H  H22  1  0.729700  0.008200  0.198800  1.0  0.081
  H  H23  1  0.205900  0.119700  0.374500  1.0  0.1359
  H  H24  1  0.865700  0.747200  0.509200  1.0  0.0895
  H  H25  1  0.661500  0.008100  0.467900  1.0  0.1182
  H  H26  1  0.885300  0.215100  0.027900  1.0  0.0975
  H  H27  1  0.857800  0.306800  0.868800  1.0  0.1183
  H  H28  1  0.088100  0.172000  0.409200  1.0  0.1109
  H  H29  1  0.278700  0.637800  0.888600  1.0  0.1343
  H  H30  1  0.068300  0.290300  0.009900  1.0  0.1196
  H  H31  1  0.210600  0.500000  0.053200  1.0  0.1203
  H  H32  1  0.651900  0.506900  0.865700  1.0  0.0863
  H  H33  1  0.590100  0.280400  0.983600  1.0  0.1257
  H  H34  1  0.596900  0.522600  0.670600  1.0  0.0979
  H  H35  1  0.205300  0.851300  0.601700  1.0  0.13
  H  H36  1  0.316200  0.457800  0.294000  1.0  0.1121
  H  H37  1  0.973900  0.996100  0.368500  1.0  0.1081
  H  H38  1  0.221300  0.300300  0.122100  1.0  0.1102
  H  H39  1  0.180900  0.991800  0.464200  1.0  0.1227
  H  H40  1  0.643400  0.798100  0.029700  1.0  0.1035
  H  H41  1  0.273200  0.178200  0.378000  1.0  0.1323
  H  H42  1  0.846200  0.991400  0.625600  1.0  0.105
  H  H43  1  0.128300  0.784900  0.972100  1.0  0.0981
  H  H44  1  0.854100  0.719600  0.016400  1.0  0.1245
  H  H45  1  0.575000  0.142700  0.612500  1.0  0.1294
  H  H46  1  0.193000  0.601700  0.148700  1.0  0.1283
  H  H47  1  0.262100  0.801200  0.008200  1.0  0.0831
  H  H48  1  0.478400  0.877900  0.300300  1.0  0.1095
  H  H49  1  0.669300  0.828000  0.590800  1.0  0.1112
  H  H50  1  0.387100  0.490800  0.747200  1.0  0.0915
  H  H51  1  0.781000  0.814900  0.978900  1.0  0.1005
  H  H52  1  0.348800  0.378000  0.821800  1.0  0.1315
  H  H53  1  0.482400  0.865700  0.493100  1.0  0.0853
  H  H54  1  0.330400  0.532100  0.008100  1.0  0.1186
  H  H55  1  0.122100  0.252800  0.490800  1.0  0.0895
  H  H56  1  0.289400  0.946800  0.500000  1.0  0.1213
  H  H57  1  0.779200  0.831600  0.390800  1.0  0.1217
  H  H58  1  0.030000  0.631500  0.996100  1.0  0.1077
  H  H59  1  0.558500  0.970300  0.798100  1.0  0.1022
  H  H60  1  0.700100  0.880300  0.625500  1.0  0.1358
  H  H61  1  0.354900  0.464200  0.008200  1.0  0.1224
  H  H62  1  0.417900  0.287600  0.474000  1.0  0.1005
  H  H63  1  0.970100  0.832300  0.362300  1.0  0.132
  H  H64  1  0.083500  0.111400  0.637800  1.0  0.138
  H  H65  1  0.812500  0.612500  0.857300  1.0  0.1273
  H  H66  1  0.732500  0.670600  0.477400  1.0  0.103
  H  H67  1  0.197000  0.496000  0.205600  1.0  0.1279
  H  H68  1  0.307000  0.794400  0.496000  1.0  0.1268
  H  H69  1  0.273400  0.868800  0.693200  1.0  0.1199
  H  H70  1  0.426300  0.983600  0.719600  1.0  0.1246
  H  H71  1  0.071500  0.198800  0.991800  1.0  0.0833
  H  H72  1  0.790100  0.477400  0.329400  1.0  0.0983
  H  H73  1  0.326900  0.029700  0.201900  1.0  0.1034
  H  H74  1  0.164700  0.167700  0.637700  1.0  0.1318
  H  H75  1  0.548600  0.622000  0.178200  1.0  0.1329
  H  H76  1  0.197600  0.637700  0.832300  1.0  0.1316
  H  H77  1  0.389200  0.609200  0.831600  1.0  0.119
  H  H78  1  0.880500  0.329400  0.522600  1.0  0.1002
  H  H79  1  0.936700  0.991800  0.801200  1.0  0.0812
  H  H80  1  0.841200  0.134300  0.506900  1.0  0.0856
  H  H81  1  0.282300  0.387500  0.142700  1.0  0.1274
  H  H82  1  0.330200  0.857300  0.387500  1.0  0.1292
  H  H83  1  0.033400  0.693200  0.131200  1.0  0.122
  H  H84  1  0.827300  0.535800  0.991800  1.0  0.1227
  H  H85  1  0.368500  0.709700  0.990100  1.0  0.1191
  H  H86  1  0.471200  0.201900  0.970300  1.0  0.1051
  H  H87  1  0.597400  0.205600  0.504000  1.0  0.1272
  H  H88  1  0.179500  0.712400  0.526000  1.0  0.1007
  H  H89  1  0.463200  0.008600  0.374400  1.0  0.1044
  H  H90  1  0.024500  0.493100  0.134300  1.0  0.0882
  H  H91  1  0.656600  0.122100  0.699700  1.0  0.11
  H  H92  1  0.108100  0.474000  0.712400  1.0  0.1006
  H  H93  1  0.129500  0.016400  0.280400  1.0  0.1245
  H  H94  1  0.739900  0.590800  0.172000  1.0  0.1087
  H  H95  1  0.086800  0.027900  0.784900  1.0  0.0972
  H  H96  1  0.294500  0.526000  0.287600  1.0  0.1012
  H  H97  1  0.389800  0.294000  0.542200  1.0  0.1125
  H  H98  1  0.658300  0.148700  0.398300  1.0  0.1298
  H  H99  1  0.068000  0.542200  0.706000  1.0  0.1117
  H  H100  1  0.674400  0.625500  0.119700  1.0  0.1309
  H  H101  1  0.636900  0.008200  0.535800  1.0  0.1226
  H  H102  1  0.667600  0.362300  0.167700  1.0  0.1334
  H  H103  1  0.404100  0.021100  0.814900  1.0  0.0987
  H  H104  1  0.870600  0.467900  0.991900  1.0  0.1181
  H  H105  1  0.240100  0.978900  0.185100  1.0  0.097
  H  H106  1  0.899600  0.972100  0.215100  1.0  0.0961
  H  H107  1  0.574800  0.185100  0.021100  1.0  0.0979
  H  H108  1  0.625100  0.509200  0.252800  1.0  0.0921
  H  H109  1  0.528200  0.625600  0.008600  1.0  0.1044
  H  H110  1  0.137500  0.991900  0.532100  1.0  0.1166
  H  H111  1  0.502700  0.409200  0.828000  1.0  0.1107
  H  H112  1  0.898600  0.504000  0.794400  1.0  0.1271
  H  H113  1  0.832700  0.888600  0.362200  1.0  0.1357
  H  H114  1  0.641400  0.990100  0.290300  1.0  0.1183
  C  C115  1  0.371100  0.604400  0.079400  1.0  0.0893
  C  C116  1  0.373100  0.090700  0.557300  1.0  0.012
  C  C117  1  0.851200  0.173300  0.506300  1.0  -0.0589
  C  C118  1  0.349100  0.989800  0.188600  1.0  -0.0681
  C  C119  1  0.977100  0.976800  0.689000  1.0  -0.1386
  C  C120  1  0.462300  0.188600  0.010200  1.0  -0.0649
  C  C121  1  0.950500  0.200500  0.990900  1.0  -0.0175
  C  C122  1  0.014500  0.504000  0.926800  1.0  0.0622
  C  C123  1  0.675800  0.708100  0.486300  1.0  -0.1017
  C  C124  1  0.134400  0.678900  0.106300  1.0  -0.1859
  C  C125  1  0.977300  0.904900  0.548500  1.0  -0.057
  C  C126  1  0.969200  0.376300  0.883300  1.0  -0.1392
  C  C127  1  0.685300  0.493900  0.147500  1.0  -0.0015
  C  C128  1  0.474200  0.548500  0.095100  1.0  -0.0573
  C  C129  1  0.528700  0.302000  0.015400  1.0  -0.2637
  C  C130  1  0.725300  0.275300  0.510100  1.0  0.202
  C  C131  1  0.748100  0.059900  0.289300  1.0  0.2494
  C  C132  1  0.427200  0.312100  0.505500  1.0  -0.0656
  C  C133  1  0.176900  0.967900  0.498300  1.0  -0.3875
  C  C134  1  0.484700  0.502000  0.756600  1.0  -0.0809
  C  C135  1  0.222200  0.127200  0.558000  1.0  0.0405
  C  C136  1  0.594300  0.546400  0.131000  1.0  0.0124
  C  C137  1  0.395800  0.282000  0.051000  1.0  0.2719
  C  C138  1  0.476200  0.387900  0.077100  1.0  0.0469
  C  C139  1  0.543000  0.110900  0.633500  1.0  -0.1933
  C  C140  1  0.107300  0.145300  0.616100  1.0  -0.409
  C  C141  1  0.274700  0.131000  0.453600  1.0  0.0119
  C  C142  1  0.464900  0.985200  0.129200  1.0  0.7472
  C  C143  1  0.346100  0.366500  0.110900  1.0  -0.1908
  C  C144  1  0.306800  0.499300  0.377100  1.0  0.5934
  C  C145  1  0.333900  0.689000  0.023200  1.0  -0.1351
  C  C146  1  0.790700  0.506200  0.784400  1.0  -0.1981
  C  C147  1  0.054900  0.395600  0.920600  1.0  0.0891
  C  C148  1  0.067300  0.505500  0.687900  1.0  -0.0676
  C  C149  1  0.695300  0.812900  0.494500  1.0  0.2125
  C  C150  1  0.616100  0.513700  0.708100  1.0  -0.1006
  C  C151  1  0.849000  0.009100  0.200500  1.0  -0.0234
  C  C152  1  0.530800  0.826700  0.493700  1.0  -0.0566
  C  C153  1  0.135900  0.922900  0.387900  1.0  0.0473
  C  C154  1  0.193900  0.622900  0.499300  1.0  0.591
  C  C155  1  0.455900  0.015400  0.698000  1.0  -0.2645
  C  C156  1  0.081300  0.493800  0.215600  1.0  -0.2033
  C  C157  1  0.491800  0.505500  0.812900  1.0  0.2126
  C  C158  1  0.643100  0.032100  0.501700  1.0  -0.388
  C  C159  1  0.424900  0.784400  0.493800  1.0  -0.198
  C  C160  1  0.186700  0.893700  0.678900  1.0  -0.1918
  C  C161  1  0.058600  0.990900  0.799500  1.0  -0.0207
  C  C162  1  0.553200  0.051000  0.718000  1.0  0.2722
  C  C163  1  0.810200  0.494500  0.187100  1.0  0.2127
  C  C164  1  0.147500  0.883300  0.623700  1.0  -0.1465
  C  C165  1  0.936000  0.966900  0.638500  1.0  -0.1319
  C  C166  1  0.076700  0.972200  0.354400  1.0  -0.0889
  C  C167  1  0.309500  0.314500  0.097900  1.0  -0.1545
  C  C168  1  0.324800  0.498300  0.032100  1.0  -0.3857
  C  C169  1  0.975500  0.493700  0.173300  1.0  -0.0566
  C  C170  1  0.579300  0.014800  0.870800  1.0  0.745
  C  C171  1  0.316100  0.377100  0.500700  1.0  0.5914
  C  C172  1  0.941200  0.612100  0.922900  1.0  0.0476
  C  C173  1  0.287400  0.889100  0.366500  1.0  -0.1933
  C  C174  1  0.759300  0.106300  0.321100  1.0  -0.1894
  C  C175  1  0.405900  0.129200  0.014800  1.0  0.7412
  C  C176  1  0.536200  0.442700  0.090700  1.0  0.0113
  C  C177  1  0.837900  0.486300  0.291900  1.0  -0.1026
  C  C178  1  0.758700  0.756600  0.498000  1.0  -0.0849
  C  C179  1  0.859300  0.869000  0.546400  1.0  0.0133
  C  C180  1  0.030200  0.860700  0.021700  1.0  0.6922
  C  C181  1  0.855200  0.501700  0.967900  1.0  -0.386
  C  C182  1  0.425500  0.638500  0.033100  1.0  -0.1368
  C  C183  1  0.703100  0.215600  0.506200  1.0  -0.199
  C  C184  1  0.743300  0.498000  0.243400  1.0  -0.0836
  C  C185  1  0.823500  0.633500  0.889100  1.0  -0.1901
  C  C186  1  0.650600  0.442000  0.127200  1.0  0.0399
  C  C187  1  0.868700  0.854700  0.383900  1.0  -0.4134
  C  C188  1  0.097100  0.361500  0.966900  1.0  -0.1374
  C  C189  1  0.907400  0.872800  0.442000  1.0  0.041
  C  C190  1  0.169300  0.984600  0.302000  1.0  -0.2654
  C  C191  1  0.326700  0.506100  0.852500  1.0  -0.0018
  C  C192  1  0.948100  0.021700  0.139300  1.0  0.7007
  C  C193  1  0.117800  0.451500  0.904900  1.0  -0.057
  C  C194  1  0.721900  0.685500  0.902100  1.0  -0.1537
  C  C195  1  0.654500  0.116700  0.376300  1.0  -0.1438
  C  C196  1  0.183200  0.500700  0.622900  1.0  0.5917
  C  C197  1  0.747400  0.383900  0.145300  1.0  -0.4118
  C  C198  1  0.568900  0.354400  0.027800  1.0  -0.0885
  C  C199  1  0.109100  0.978300  0.860700  1.0  0.6959
  C  C200  1  0.754500  0.847800  0.601200  1.0  -0.4034
  C  C201  1  0.549500  0.079400  0.395600  1.0  0.0882
  C  C202  1  0.021100  0.909300  0.442700  1.0  0.0126
  C  C203  1  0.002700  0.187100  0.505500  1.0  0.214
  C  C204  1  0.846100  0.698000  0.984600  1.0  -0.264
  C  C205  1  0.592600  0.097900  0.685500  1.0  -0.1539
  C  C206  1  0.764600  0.510100  0.724700  1.0  0.205
  C  C207  1  0.244800  0.687900  0.494500  1.0  -0.0652
  C  C208  1  0.024500  0.920600  0.604400  1.0  0.0881
  C  C209  1  0.728800  0.718000  0.949000  1.0  0.272
  C  C210  1  0.527500  0.010200  0.811400  1.0  -0.0668
  C  C211  1  0.510700  0.724700  0.489900  1.0  0.2015
  C  C212  1  0.403300  0.027800  0.645600  1.0  -0.0849
  C  C213  1  0.167200  0.147500  0.506100  1.0  -0.0022
  C  C214  1  0.541400  0.033100  0.361500  1.0  -0.1361
  C  C215  1  0.376000  0.902100  0.314500  1.0  -0.1562
  C  C216  1  0.661100  0.811400  0.989800  1.0  -0.0637
  C  C217  1  0.820800  0.852500  0.493900  1.0  -0.0023
  C  C218  1  0.141900  0.799500  0.009100  1.0  -0.018
  C  C219  1  0.322200  0.949000  0.282000  1.0  0.2714
  C  C220  1  0.228800  0.623700  0.116700  1.0  -0.1455
  C  C221  1  0.276600  0.616100  0.854700  1.0  -0.4137
  C  C222  1  0.203500  0.152200  0.398800  1.0  -0.4038
  C  C223  1  0.219800  0.558000  0.872800  1.0  0.0402
  C  C224  1  0.271700  0.453600  0.869000  1.0  0.0128
  C  C225  1  0.999400  0.489900  0.275300  1.0  0.2064
  C  C226  1  0.069600  0.557300  0.909300  1.0  0.0115
  C  C227  1  0.097300  0.940100  0.710700  1.0  0.2515
  C  C228  1  0.446700  0.077100  0.612100  1.0  0.0477
  C  C229  1  0.642900  0.023200  0.311000  1.0  -0.1347
  C  C230  1  0.644300  0.601200  0.152200  1.0  -0.4024
  C  C231  1  0.192000  0.710700  0.059900  1.0  0.248
  C  C232  1  0.919600  0.321100  0.893700  1.0  -0.1848
  C  C233  1  0.445300  0.496000  0.073200  1.0  0.0669
  C  C234  1  0.870200  0.291900  0.513700  1.0  -0.0991
  C  C235  1  0.013300  0.243400  0.502000  1.0  -0.0861
  C  C236  1  0.430700  0.095100  0.451500  1.0  -0.0564
  C  C237  1  0.481500  0.073200  0.504000  1.0  0.0607
  C  C238  1  0.549900  0.870800  0.985200  1.0  0.741
  C  C239  1  0.058700  0.926800  0.496000  1.0  0.0605
  C  C240  1  0.912600  0.139300  0.978300  1.0  0.6946
  C  C241  1  0.962600  0.289300  0.940100  1.0  0.2476
  C  C242  1  0.397700  0.398800  0.847800  1.0  -0.4075
  C  C243  1  0.951100  0.645600  0.972200  1.0  -0.0911
  C  C244  1  0.046100  0.311000  0.976800  1.0  -0.1381
  C  C245  1  0.642500  0.506300  0.826700  1.0  -0.0585
  C  C246  1  0.260700  0.494500  0.312100  1.0  -0.0718
  O  O247  1  0.155300  0.944700  0.763300  1.0  -0.2813
  O  O248  1  0.347600  0.229400  0.045600  1.0  -0.2793
  O  O249  1  0.155600  0.372200  0.510600  1.0  -0.5047
  O  O250  1  0.437100  0.871800  0.954200  1.0  -0.589
  O  O251  1  0.222900  0.938200  0.866600  1.0  -0.5531
  O  O252  1  0.953800  0.985000  0.099200  1.0  -0.6554
  O  O253  1  0.313600  0.579500  0.491300  1.0  -0.5419
  O  O254  1  0.422200  0.677200  0.498400  1.0  -0.3183
  O  O255  1  0.384400  0.420500  0.508700  1.0  -0.5415
  O  O256  1  0.910500  0.866600  0.061800  1.0  -0.5609
  O  O257  1  0.038000  0.015000  0.900800  1.0  -0.6565
  O  O258  1  0.061200  0.900800  0.985000  1.0  -0.6556
  O  O259  1  0.622600  0.770600  0.954400  1.0  -0.2772
  O  O260  1  0.106900  0.508700  0.579500  1.0  -0.5445
  O  O261  1  0.038400  0.627800  0.489400  1.0  -0.505
  O  O262  1  0.423000  0.954400  0.229400  1.0  -0.2776
  O  O263  1  0.505100  0.989400  0.911800  1.0  -0.607
  O  O264  1  0.900000  0.236700  0.944700  1.0  -0.2821
  O  O265  1  0.027700  0.061800  0.133400  1.0  -0.5536
  O  O266  1  0.608700  0.954200  0.128200  1.0  -0.5879
  O  O267  1  0.244700  0.000000  0.000000  1.0  -0.7257
  O  O268  1  0.406300  0.010600  0.088200  1.0  -0.6072
  O  O269  1  0.079400  0.498400  0.322800  1.0  -0.3218
  O  O270  1  0.472200  0.489400  0.372200  1.0  -0.5036
  O  O271  1  0.691100  0.045800  0.871800  1.0  -0.5884
  O  O272  1  0.863300  0.055300  0.236700  1.0  -0.2819
  O  O273  1  0.263100  0.128200  0.045800  1.0  -0.5895
  O  O274  1  0.838900  0.133400  0.938200  1.0  -0.5572
  O  O275  1  0.081400  0.763300  0.055300  1.0  -0.2851
  O  O276  1  0.755300  0.000000  0.000000  1.0  -0.7264
  O  O277  1  0.195100  0.491300  0.420500  1.0  -0.5429
  O  O278  1  0.597800  0.322800  0.501600  1.0  -0.3173
  O  O279  1  0.583100  0.911800  0.010600  1.0  -0.6066
  O  O280  1  0.606800  0.045600  0.770600  1.0  -0.2771
  O  O281  1  0.947000  0.099200  0.015000  1.0  -0.6557
  O  O282  1  0.505500  0.088200  0.989400  1.0  -0.6078
  O  O283  1  0.333800  0.510600  0.627800  1.0  -0.5049
  O  O284  1  0.900600  0.501600  0.677200  1.0  -0.319
