# generated using pymatgen
data_AlH4C8O5
_symmetry_space_group_name_H-M   'P 1'
_cell_length_a   14.82280000
_cell_length_b   14.82280000
_cell_length_c   11.79190000
_cell_angle_alpha   90.00000000
_cell_angle_beta   90.00000000
_cell_angle_gamma   90.00000000
_symmetry_Int_Tables_number   1
_chemical_formula_structural   AlH4C8O5
_chemical_formula_sum   'Al8 H32 C64 O40'
_cell_volume   2590.86202337
_cell_formula_units_Z   8
loop_
 _symmetry_equiv_pos_site_id
 _symmetry_equiv_pos_as_xyz
  1  'x, y, z'
loop_
 _atom_site_type_symbol
 _atom_site_label
 _atom_site_symmetry_multiplicity
 _atom_site_fract_x
 _atom_site_fract_y
 _atom_site_fract_z
 _atom_site_occupancy
 _atom_site_charge
  Al  Al1  1  0.694150  0.305850  0.500000  1.0  1.7228
  Al  Al2  1  0.194150  0.805850  0.000000  1.0  1.7228
  Al  Al3  1  0.805850  0.194150  0.000000  1.0  1.7166
  Al  Al4  1  0.305850  0.694150  0.500000  1.0  1.7166
  Al  Al5  1  0.694150  0.194150  0.750000  1.0  1.7223
  Al  Al6  1  0.194150  0.694150  0.250000  1.0  1.7223
  Al  Al7  1  0.805850  0.305850  0.250000  1.0  1.7166
  Al  Al8  1  0.305850  0.805850  0.750000  1.0  1.7166
  H  H9  1  0.573180  0.381620  0.907350  1.0  0.0991
  H  H10  1  0.073180  0.881620  0.407350  1.0  0.0991
  H  H11  1  0.926820  0.118380  0.407350  1.0  0.0983
  H  H12  1  0.426820  0.618380  0.907350  1.0  0.0983
  H  H13  1  0.618380  0.073180  0.157350  1.0  0.0996
  H  H14  1  0.118380  0.573180  0.657350  1.0  0.0996
  H  H15  1  0.881620  0.426820  0.657350  1.0  0.0986
  H  H16  1  0.381620  0.926820  0.157350  1.0  0.0986
  H  H17  1  0.926820  0.381620  0.842650  1.0  0.0993
  H  H18  1  0.426820  0.881620  0.342650  1.0  0.0993
  H  H19  1  0.573180  0.118380  0.342650  1.0  0.0993
  H  H20  1  0.073180  0.618380  0.842650  1.0  0.0993
  H  H21  1  0.881620  0.073180  0.592650  1.0  0.0991
  H  H22  1  0.381620  0.573180  0.092650  1.0  0.0991
  H  H23  1  0.618380  0.426820  0.092650  1.0  0.0999
  H  H24  1  0.118380  0.926820  0.592650  1.0  0.0999
  H  H25  1  0.814860  0.250000  0.625000  1.0  0.4291
  H  H26  1  0.314860  0.750000  0.125000  1.0  0.4291
  H  H27  1  0.685140  0.250000  0.125000  1.0  0.4301
  H  H28  1  0.185140  0.750000  0.625000  1.0  0.4301
  H  H29  1  0.750000  0.314860  0.875000  1.0  0.4326
  H  H30  1  0.250000  0.814860  0.375000  1.0  0.4326
  H  H31  1  0.750000  0.185140  0.375000  1.0  0.4319
  H  H32  1  0.250000  0.685140  0.875000  1.0  0.4319
  H  H33  1  0.500000  0.500000  0.629000  1.0  0.1277
  H  H34  1  0.000000  0.000000  0.129000  1.0  0.127
  H  H35  1  0.500000  0.000000  0.879000  1.0  0.1277
  H  H36  1  0.000000  0.500000  0.379000  1.0  0.1277
  H  H37  1  0.000000  0.500000  0.121000  1.0  0.1272
  H  H38  1  0.500000  0.000000  0.621000  1.0  0.1272
  H  H39  1  0.000000  0.000000  0.871000  1.0  0.1262
  H  H40  1  0.500000  0.500000  0.371000  1.0  0.1272
  C  C41  1  0.589920  0.356030  0.698740  1.0  0.7196
  C  C42  1  0.538810  0.428760  0.762060  1.0  -0.167
  C  C43  1  0.537670  0.429050  0.881250  1.0  -0.0835
  C  C44  1  0.089920  0.856030  0.198740  1.0  0.7196
  C  C45  1  0.038810  0.928760  0.262060  1.0  -0.167
  C  C46  1  0.037670  0.929050  0.381250  1.0  -0.0835
  C  C47  1  0.910080  0.143970  0.198740  1.0  0.7217
  C  C48  1  0.961190  0.071240  0.262060  1.0  -0.1664
  C  C49  1  0.962330  0.070950  0.381250  1.0  -0.0834
  C  C50  1  0.410080  0.643970  0.698740  1.0  0.7217
  C  C51  1  0.461190  0.571240  0.762060  1.0  -0.1664
  C  C52  1  0.462330  0.570950  0.881250  1.0  -0.0834
  C  C53  1  0.643970  0.089920  0.948740  1.0  0.7186
  C  C54  1  0.571240  0.038810  0.012060  1.0  -0.1658
  C  C55  1  0.570950  0.037670  0.131250  1.0  -0.0834
  C  C56  1  0.143970  0.589920  0.448740  1.0  0.7186
  C  C57  1  0.071240  0.538810  0.512060  1.0  -0.1658
  C  C58  1  0.070950  0.537670  0.631250  1.0  -0.0834
  C  C59  1  0.856030  0.410080  0.448740  1.0  0.7201
  C  C60  1  0.928760  0.461190  0.512060  1.0  -0.1655
  C  C61  1  0.929050  0.462330  0.631250  1.0  -0.0846
  C  C62  1  0.356030  0.910080  0.948740  1.0  0.7201
  C  C63  1  0.428760  0.961190  0.012060  1.0  -0.1655
  C  C64  1  0.429050  0.962330  0.131250  1.0  -0.0846
  C  C65  1  0.910080  0.356030  0.051260  1.0  0.7211
  C  C66  1  0.961190  0.428760  0.987940  1.0  -0.1664
  C  C67  1  0.962330  0.429050  0.868750  1.0  -0.0833
  C  C68  1  0.410080  0.856030  0.551260  1.0  0.7211
  C  C69  1  0.461190  0.928760  0.487940  1.0  -0.1664
  C  C70  1  0.462330  0.929050  0.368750  1.0  -0.0833
  C  C71  1  0.589920  0.143970  0.551260  1.0  0.7198
  C  C72  1  0.538810  0.071240  0.487940  1.0  -0.1664
  C  C73  1  0.537670  0.070950  0.368750  1.0  -0.0819
  C  C74  1  0.089920  0.643970  0.051260  1.0  0.7198
  C  C75  1  0.038810  0.571240  0.987940  1.0  -0.1664
  C  C76  1  0.037670  0.570950  0.868750  1.0  -0.0819
  C  C77  1  0.856030  0.089920  0.801260  1.0  0.7196
  C  C78  1  0.928760  0.038810  0.737940  1.0  -0.1661
  C  C79  1  0.929050  0.037670  0.618750  1.0  -0.0847
  C  C80  1  0.356030  0.589920  0.301260  1.0  0.7196
  C  C81  1  0.428760  0.538810  0.237940  1.0  -0.1661
  C  C82  1  0.429050  0.537670  0.118750  1.0  -0.0847
  C  C83  1  0.643970  0.410080  0.301260  1.0  0.7189
  C  C84  1  0.571240  0.461190  0.237940  1.0  -0.1656
  C  C85  1  0.570950  0.462330  0.118750  1.0  -0.0822
  C  C86  1  0.143970  0.910080  0.801260  1.0  0.7189
  C  C87  1  0.071240  0.961190  0.737940  1.0  -0.1656
  C  C88  1  0.070950  0.962330  0.618750  1.0  -0.0822
  C  C89  1  0.500000  0.500000  0.705620  1.0  -0.0232
  C  C90  1  0.500000  0.500000  0.937190  1.0  0.057
  C  C91  1  0.000000  0.000000  0.205620  1.0  -0.0232
  C  C92  1  0.000000  0.000000  0.437190  1.0  0.057
  C  C93  1  0.500000  0.000000  0.955620  1.0  -0.0232
  C  C94  1  0.500000  0.000000  0.187190  1.0  0.057
  C  C95  1  0.000000  0.500000  0.455620  1.0  -0.0232
  C  C96  1  0.000000  0.500000  0.687190  1.0  0.057
  C  C97  1  0.000000  0.500000  0.044380  1.0  -0.0241
  C  C98  1  0.000000  0.500000  0.812810  1.0  0.0565
  C  C99  1  0.500000  0.000000  0.544380  1.0  -0.0241
  C  C100  1  0.500000  0.000000  0.312810  1.0  0.0565
  C  C101  1  0.000000  0.000000  0.794380  1.0  -0.0241
  C  C102  1  0.000000  0.000000  0.562810  1.0  0.0565
  C  C103  1  0.500000  0.500000  0.294380  1.0  -0.0241
  C  C104  1  0.500000  0.500000  0.062810  1.0  0.0565
  O  O105  1  0.603870  0.286450  0.753900  1.0  -0.5983
  O  O106  1  0.624880  0.379190  0.606040  1.0  -0.5953
  O  O107  1  0.103870  0.786450  0.253900  1.0  -0.5983
  O  O108  1  0.124880  0.879190  0.106040  1.0  -0.5953
  O  O109  1  0.896130  0.213550  0.253900  1.0  -0.5968
  O  O110  1  0.875120  0.120810  0.106040  1.0  -0.5943
  O  O111  1  0.396130  0.713550  0.753900  1.0  -0.5968
  O  O112  1  0.375120  0.620810  0.606040  1.0  -0.5943
  O  O113  1  0.713550  0.103870  0.003900  1.0  -0.5965
  O  O114  1  0.620810  0.124880  0.856040  1.0  -0.5921
  O  O115  1  0.213550  0.603870  0.503900  1.0  -0.5965
  O  O116  1  0.120810  0.624880  0.356040  1.0  -0.5921
  O  O117  1  0.786450  0.396130  0.503900  1.0  -0.5967
  O  O118  1  0.879190  0.375120  0.356040  1.0  -0.5918
  O  O119  1  0.286450  0.896130  0.003900  1.0  -0.5967
  O  O120  1  0.379190  0.875120  0.856040  1.0  -0.5918
  O  O121  1  0.896130  0.286450  0.996100  1.0  -0.5967
  O  O122  1  0.875120  0.379190  0.143960  1.0  -0.5943
  O  O123  1  0.396130  0.786450  0.496100  1.0  -0.5967
  O  O124  1  0.375120  0.879190  0.643960  1.0  -0.5943
  O  O125  1  0.603870  0.213550  0.496100  1.0  -0.5983
  O  O126  1  0.624880  0.120810  0.643960  1.0  -0.5943
  O  O127  1  0.103870  0.713550  0.996100  1.0  -0.5983
  O  O128  1  0.124880  0.620810  0.143960  1.0  -0.5943
  O  O129  1  0.786450  0.103870  0.746100  1.0  -0.5967
  O  O130  1  0.879190  0.124880  0.893960  1.0  -0.592
  O  O131  1  0.286450  0.603870  0.246100  1.0  -0.5967
  O  O132  1  0.379190  0.624880  0.393960  1.0  -0.592
  O  O133  1  0.713550  0.396130  0.246100  1.0  -0.5965
  O  O134  1  0.620810  0.375120  0.393960  1.0  -0.5913
  O  O135  1  0.213550  0.896130  0.746100  1.0  -0.5965
  O  O136  1  0.120810  0.875120  0.893960  1.0  -0.5913
  O  O137  1  0.755520  0.250000  0.625000  1.0  -1.0701
  O  O138  1  0.255520  0.750000  0.125000  1.0  -1.0701
  O  O139  1  0.744480  0.250000  0.125000  1.0  -1.0674
  O  O140  1  0.244480  0.750000  0.625000  1.0  -1.0674
  O  O141  1  0.750000  0.255520  0.875000  1.0  -1.0689
  O  O142  1  0.250000  0.755520  0.375000  1.0  -1.0689
  O  O143  1  0.750000  0.244480  0.375000  1.0  -1.0713
  O  O144  1  0.250000  0.744480  0.875000  1.0  -1.0713
