# generated using pymatgen
data_AlH4C8O5
_symmetry_space_group_name_H-M   'P 1'
_cell_length_a   11.77850000
_cell_length_b   12.00490000
_cell_length_c   12.00490000
_cell_angle_alpha   76.07450000
_cell_angle_beta   60.62190000
_cell_angle_gamma   60.62190000
_symmetry_Int_Tables_number   1
_chemical_formula_structural   AlH4C8O5
_chemical_formula_sum   'Al4 H16 C32 O20'
_cell_volume   1288.97225923
_cell_formula_units_Z   4
loop_
 _symmetry_equiv_pos_site_id
 _symmetry_equiv_pos_as_xyz
  1  'x, y, z'
loop_
 _atom_site_type_symbol
 _atom_site_label
 _atom_site_symmetry_multiplicity
 _atom_site_fract_x
 _atom_site_fract_y
 _atom_site_fract_z
 _atom_site_occupancy
 _atom_site_charge
  Al  Al1  1  0.194400  0.000000  0.611200  1.0  1.7479
  Al  Al2  1  0.444400  0.111200  0.500000  1.0  1.7417
  Al  Al3  1  0.805600  0.000000  0.388800  1.0  1.7416
  Al  Al4  1  0.055600  0.888800  0.500000  1.0  1.7409
  H  H5  1  0.141720  0.500000  0.500000  1.0  0.1181
  H  H6  1  0.346640  0.950050  0.196230  1.0  0.1104
  H  H7  1  0.358280  0.500000  0.500000  1.0  0.1182
  H  H8  1  0.891720  0.000000  0.000000  1.0  0.117
  H  H9  1  0.441820  0.933180  0.433180  1.0  0.374
  H  H10  1  0.703310  0.950050  0.803770  1.0  0.1096
  H  H11  1  0.903360  0.303770  0.549950  1.0  0.1114
  H  H12  1  0.757080  0.696230  0.450050  1.0  0.1115
  H  H13  1  0.108280  0.000000  0.000000  1.0  0.1195
  H  H14  1  0.457130  0.049950  0.196230  1.0  0.1114
  H  H15  1  0.625000  0.933180  0.566820  1.0  0.3748
  H  H16  1  0.125000  0.066820  0.433180  1.0  0.3751
  H  H17  1  0.792870  0.303770  0.450050  1.0  0.1119
  H  H18  1  0.808180  0.066820  0.566820  1.0  0.3751
  H  H19  1  0.492920  0.049950  0.803770  1.0  0.1108
  H  H20  1  0.546690  0.696230  0.549950  1.0  0.1115
  C  C21  1  0.101230  0.957170  0.231430  1.0  0.7114
  C  C22  1  0.434460  0.000000  0.000000  1.0  0.0345
  C  C23  1  0.582660  0.268570  0.457170  1.0  0.7142
  C  C24  1  0.576940  0.388010  0.471490  1.0  -0.08
  C  C25  1  0.289830  0.042830  0.768570  1.0  0.7135
  C  C26  1  0.673060  0.028510  0.111990  1.0  -0.0798
  C  C27  1  0.916530  0.388010  0.528510  1.0  -0.0782
  C  C28  1  0.684460  0.500000  0.500000  1.0  0.0345
  C  C29  1  0.960170  0.731430  0.457170  1.0  0.7135
  C  C30  1  0.695040  0.971490  0.888010  1.0  -0.0751
  C  C31  1  0.035050  0.388010  0.528510  1.0  -0.0807
  C  C32  1  0.148770  0.268570  0.542830  1.0  0.7153
  C  C33  1  0.554960  0.611990  0.528510  1.0  -0.0769
  C  C34  1  0.565540  0.000000  0.000000  1.0  0.0333
  C  C35  1  0.813560  0.971490  0.888010  1.0  -0.0795
  C  C36  1  0.436440  0.611990  0.528510  1.0  -0.0798
  C  C37  1  0.333470  0.971490  0.111990  1.0  -0.0747
  C  C38  1  0.052570  0.500000  0.500000  1.0  -0.0405
  C  C39  1  0.447430  0.500000  0.500000  1.0  -0.0417
  C  C40  1  0.941600  0.957170  0.768570  1.0  0.7112
  C  C41  1  0.951570  0.611990  0.471490  1.0  -0.0797
  C  C42  1  0.833050  0.611990  0.471490  1.0  -0.0785
  C  C43  1  0.695460  0.388010  0.471490  1.0  -0.0772
  C  C44  1  0.214950  0.971490  0.111990  1.0  -0.0799
  C  C45  1  0.308400  0.731430  0.542830  1.0  0.7136
  C  C46  1  0.554540  0.028510  0.111990  1.0  -0.0763
  C  C47  1  0.298430  0.028510  0.888010  1.0  -0.0794
  C  C48  1  0.667340  0.042830  0.231430  1.0  0.7141
  C  C49  1  0.197430  0.000000  0.000000  1.0  -0.0417
  C  C50  1  0.416950  0.028510  0.888010  1.0  -0.0746
  C  C51  1  0.815540  0.500000  0.500000  1.0  0.0333
  C  C52  1  0.802570  0.000000  0.000000  1.0  -0.0405
  O  O53  1  0.225320  0.993750  0.755690  1.0  -0.5964
  O  O54  1  0.625000  0.994020  0.505980  1.0  -1.0721
  O  O55  1  0.231010  0.744310  0.493750  1.0  -0.6
  O  O56  1  0.024680  0.744310  0.506250  1.0  -0.5983
  O  O57  1  0.469070  0.255690  0.506250  1.0  -0.5983
  O  O58  1  0.974760  0.006250  0.244310  1.0  -0.5969
  O  O59  1  0.548860  0.104190  0.320990  1.0  -0.6512
  O  O60  1  0.346950  0.104190  0.679010  1.0  -0.6526
  O  O61  1  0.119850  0.179010  0.604190  1.0  -0.6491
  O  O62  1  0.275960  0.820990  0.604190  1.0  -0.6494
  O  O63  1  0.130150  0.895810  0.320990  1.0  -0.6503
  O  O64  1  0.380980  0.994020  0.494020  1.0  -1.0712
  O  O65  1  0.780930  0.993750  0.244310  1.0  -0.5962
  O  O66  1  0.701140  0.179010  0.395810  1.0  -0.6464
  O  O67  1  0.018990  0.006250  0.755690  1.0  -0.5961
  O  O68  1  0.869020  0.005980  0.505980  1.0  -1.07
  O  O69  1  0.974040  0.895810  0.679010  1.0  -0.6503
  O  O70  1  0.125000  0.005980  0.494020  1.0  -1.0693
  O  O71  1  0.903050  0.820990  0.395810  1.0  -0.648
  O  O72  1  0.275240  0.255690  0.493750  1.0  -0.598
