# generated using pymatgen
data_AlH4C8O5
_symmetry_space_group_name_H-M   'P 1'
_cell_length_a   14.78540000
_cell_length_b   14.78540000
_cell_length_c   11.77400000
_cell_angle_alpha   90.00000000
_cell_angle_beta   90.00000000
_cell_angle_gamma   90.00000000
_symmetry_Int_Tables_number   1
_chemical_formula_structural   AlH4C8O5
_chemical_formula_sum   'Al8 H32 C64 O40'
_cell_volume   2573.89121791
_cell_formula_units_Z   8
loop_
 _symmetry_equiv_pos_site_id
 _symmetry_equiv_pos_as_xyz
  1  'x, y, z'
loop_
 _atom_site_type_symbol
 _atom_site_label
 _atom_site_symmetry_multiplicity
 _atom_site_fract_x
 _atom_site_fract_y
 _atom_site_fract_z
 _atom_site_occupancy
 _atom_site_charge
  Al  Al1  1  0.692430  0.307570  0.500000  1.0  1.767
  Al  Al2  1  0.192430  0.807570  0.000000  1.0  1.767
  Al  Al3  1  0.807570  0.192430  0.000000  1.0  1.7604
  Al  Al4  1  0.307570  0.692430  0.500000  1.0  1.7604
  Al  Al5  1  0.692430  0.192430  0.750000  1.0  1.7666
  Al  Al6  1  0.192430  0.692430  0.250000  1.0  1.7666
  Al  Al7  1  0.807570  0.307570  0.250000  1.0  1.761
  Al  Al8  1  0.307570  0.807570  0.750000  1.0  1.761
  H  H9  1  0.575630  0.378560  0.921310  1.0  0.1172
  H  H10  1  0.075630  0.878560  0.421310  1.0  0.1172
  H  H11  1  0.924370  0.121440  0.421310  1.0  0.1169
  H  H12  1  0.424370  0.621440  0.921310  1.0  0.1169
  H  H13  1  0.621440  0.075630  0.171310  1.0  0.1183
  H  H14  1  0.121440  0.575630  0.671310  1.0  0.1183
  H  H15  1  0.878560  0.424370  0.671310  1.0  0.1177
  H  H16  1  0.378560  0.924370  0.171310  1.0  0.1177
  H  H17  1  0.924370  0.378560  0.828690  1.0  0.1167
  H  H18  1  0.424370  0.878560  0.328690  1.0  0.1167
  H  H19  1  0.575630  0.121440  0.328690  1.0  0.1167
  H  H20  1  0.075630  0.621440  0.828690  1.0  0.1167
  H  H21  1  0.878560  0.075630  0.578690  1.0  0.1176
  H  H22  1  0.378560  0.575630  0.078690  1.0  0.1176
  H  H23  1  0.621440  0.424370  0.078690  1.0  0.1176
  H  H24  1  0.121440  0.924370  0.578690  1.0  0.1176
  H  H25  1  0.814940  0.250000  0.625000  1.0  0.3698
  H  H26  1  0.314940  0.750000  0.125000  1.0  0.3698
  H  H27  1  0.685060  0.250000  0.125000  1.0  0.3696
  H  H28  1  0.185060  0.750000  0.625000  1.0  0.3696
  H  H29  1  0.750000  0.314940  0.875000  1.0  0.372
  H  H30  1  0.250000  0.814940  0.375000  1.0  0.372
  H  H31  1  0.750000  0.185060  0.375000  1.0  0.3723
  H  H32  1  0.250000  0.685060  0.875000  1.0  0.3723
  H  H33  1  0.500000  0.500000  0.610130  1.0  0.1189
  H  H34  1  0.000000  0.000000  0.110130  1.0  0.1189
  H  H35  1  0.500000  0.000000  0.860130  1.0  0.1189
  H  H36  1  0.000000  0.500000  0.360130  1.0  0.1189
  H  H37  1  0.000000  0.500000  0.139870  1.0  0.1189
  H  H38  1  0.500000  0.000000  0.639870  1.0  0.1189
  H  H39  1  0.000000  0.000000  0.889870  1.0  0.1185
  H  H40  1  0.500000  0.500000  0.389870  1.0  0.1189
  C  C41  1  0.594250  0.362750  0.697000  1.0  0.7134
  C  C42  1  0.543120  0.430760  0.758450  1.0  -0.0658
  C  C43  1  0.543120  0.430760  0.876720  1.0  -0.1021
  C  C44  1  0.094250  0.862750  0.197000  1.0  0.7134
  C  C45  1  0.043120  0.930760  0.258450  1.0  -0.0658
  C  C46  1  0.043120  0.930760  0.376720  1.0  -0.1024
  C  C47  1  0.905750  0.137250  0.197000  1.0  0.7131
  C  C48  1  0.956880  0.069240  0.258450  1.0  -0.0652
  C  C49  1  0.956880  0.069240  0.376720  1.0  -0.1039
  C  C50  1  0.405750  0.637250  0.697000  1.0  0.7131
  C  C51  1  0.456880  0.569240  0.758450  1.0  -0.0652
  C  C52  1  0.456880  0.569240  0.876720  1.0  -0.1039
  C  C53  1  0.637250  0.094250  0.947000  1.0  0.7124
  C  C54  1  0.569240  0.043120  0.008450  1.0  -0.0645
  C  C55  1  0.569240  0.043120  0.126720  1.0  -0.1003
  C  C56  1  0.137250  0.594250  0.447000  1.0  0.7124
  C  C57  1  0.069240  0.543120  0.508450  1.0  -0.0645
  C  C58  1  0.069240  0.543120  0.626720  1.0  -0.1003
  C  C59  1  0.862750  0.405750  0.447000  1.0  0.7124
  C  C60  1  0.930760  0.456880  0.508450  1.0  -0.065
  C  C61  1  0.930760  0.456880  0.626720  1.0  -0.1016
  C  C62  1  0.362750  0.905750  0.947000  1.0  0.7124
  C  C63  1  0.430760  0.956880  0.008450  1.0  -0.065
  C  C64  1  0.430760  0.956880  0.126720  1.0  -0.1016
  C  C65  1  0.905750  0.362750  0.053000  1.0  0.7132
  C  C66  1  0.956880  0.430760  0.991550  1.0  -0.0655
  C  C67  1  0.956880  0.430760  0.873280  1.0  -0.1038
  C  C68  1  0.405750  0.862750  0.553000  1.0  0.7132
  C  C69  1  0.456880  0.930760  0.491550  1.0  -0.0655
  C  C70  1  0.456880  0.930760  0.373280  1.0  -0.1038
  C  C71  1  0.594250  0.137250  0.553000  1.0  0.7138
  C  C72  1  0.543120  0.069240  0.491550  1.0  -0.0658
  C  C73  1  0.543120  0.069240  0.373280  1.0  -0.1023
  C  C74  1  0.094250  0.637250  0.053000  1.0  0.7138
  C  C75  1  0.043120  0.569240  0.991550  1.0  -0.0658
  C  C76  1  0.043120  0.569240  0.873280  1.0  -0.1025
  C  C77  1  0.862750  0.094250  0.803000  1.0  0.7127
  C  C78  1  0.930760  0.043120  0.741550  1.0  -0.0653
  C  C79  1  0.930760  0.043120  0.623280  1.0  -0.1018
  C  C80  1  0.362750  0.594250  0.303000  1.0  0.7127
  C  C81  1  0.430760  0.543120  0.241550  1.0  -0.0653
  C  C82  1  0.430760  0.543120  0.123280  1.0  -0.1018
  C  C83  1  0.637250  0.405750  0.303000  1.0  0.7125
  C  C84  1  0.569240  0.456880  0.241550  1.0  -0.0647
  C  C85  1  0.569240  0.456880  0.123280  1.0  -0.1007
  C  C86  1  0.137250  0.905750  0.803000  1.0  0.7125
  C  C87  1  0.069240  0.956880  0.741550  1.0  -0.0647
  C  C88  1  0.069240  0.956880  0.623280  1.0  -0.1007
  C  C89  1  0.500000  0.500000  0.699310  1.0  -0.0441
  C  C90  1  0.500000  0.500000  0.935860  1.0  0.0505
  C  C91  1  0.000000  0.000000  0.199310  1.0  -0.0441
  C  C92  1  0.000000  0.000000  0.435860  1.0  0.0505
  C  C93  1  0.500000  0.000000  0.949310  1.0  -0.0441
  C  C94  1  0.500000  0.000000  0.185860  1.0  0.0505
  C  C95  1  0.000000  0.500000  0.449310  1.0  -0.0441
  C  C96  1  0.000000  0.500000  0.685860  1.0  0.0505
  C  C97  1  0.000000  0.500000  0.050690  1.0  -0.0462
  C  C98  1  0.000000  0.500000  0.814140  1.0  0.0504
  C  C99  1  0.500000  0.000000  0.550690  1.0  -0.0462
  C  C100  1  0.500000  0.000000  0.314140  1.0  0.0504
  C  C101  1  0.000000  0.000000  0.800690  1.0  -0.0462
  C  C102  1  0.000000  0.000000  0.564140  1.0  0.0504
  C  C103  1  0.500000  0.500000  0.300690  1.0  -0.0462
  C  C104  1  0.500000  0.500000  0.064140  1.0  0.0504
  O  O105  1  0.625000  0.380160  0.599970  1.0  -0.6106
  O  O106  1  0.607740  0.286480  0.740830  1.0  -0.6557
  O  O107  1  0.125000  0.880160  0.099970  1.0  -0.6106
  O  O108  1  0.107740  0.786480  0.240830  1.0  -0.6557
  O  O109  1  0.875000  0.119840  0.099970  1.0  -0.6102
  O  O110  1  0.892260  0.213520  0.240830  1.0  -0.6544
  O  O111  1  0.375000  0.619840  0.599970  1.0  -0.6102
  O  O112  1  0.392260  0.713520  0.740830  1.0  -0.6544
  O  O113  1  0.619840  0.125000  0.849970  1.0  -0.6086
  O  O114  1  0.713520  0.107740  0.990830  1.0  -0.6596
  O  O115  1  0.119840  0.625000  0.349970  1.0  -0.6086
  O  O116  1  0.213520  0.607740  0.490830  1.0  -0.6596
  O  O117  1  0.880160  0.375000  0.349970  1.0  -0.6081
  O  O118  1  0.786480  0.392260  0.490830  1.0  -0.6586
  O  O119  1  0.380160  0.875000  0.849970  1.0  -0.6081
  O  O120  1  0.286480  0.892260  0.990830  1.0  -0.6586
  O  O121  1  0.875000  0.380160  0.150030  1.0  -0.6095
  O  O122  1  0.892260  0.286480  0.009170  1.0  -0.6535
  O  O123  1  0.375000  0.880160  0.650030  1.0  -0.6095
  O  O124  1  0.392260  0.786480  0.509170  1.0  -0.6535
  O  O125  1  0.625000  0.119840  0.650030  1.0  -0.6096
  O  O126  1  0.607740  0.213520  0.509170  1.0  -0.657
  O  O127  1  0.125000  0.619840  0.150030  1.0  -0.6096
  O  O128  1  0.107740  0.713520  0.009170  1.0  -0.657
  O  O129  1  0.880160  0.125000  0.900030  1.0  -0.6077
  O  O130  1  0.786480  0.107740  0.759170  1.0  -0.6597
  O  O131  1  0.380160  0.625000  0.400030  1.0  -0.6077
  O  O132  1  0.286480  0.607740  0.259170  1.0  -0.6597
  O  O133  1  0.619840  0.375000  0.400030  1.0  -0.6076
  O  O134  1  0.713520  0.392260  0.259170  1.0  -0.6584
  O  O135  1  0.119840  0.875000  0.900030  1.0  -0.6076
  O  O136  1  0.213520  0.892260  0.759170  1.0  -0.6584
  O  O137  1  0.752500  0.250000  0.625000  1.0  -1.0538
  O  O138  1  0.252500  0.750000  0.125000  1.0  -1.0538
  O  O139  1  0.747500  0.250000  0.125000  1.0  -1.0509
  O  O140  1  0.247500  0.750000  0.625000  1.0  -1.0509
  O  O141  1  0.750000  0.252500  0.875000  1.0  -1.051
  O  O142  1  0.250000  0.752500  0.375000  1.0  -1.051
  O  O143  1  0.750000  0.247500  0.375000  1.0  -1.0543
  O  O144  1  0.250000  0.747500  0.875000  1.0  -1.0543
