# generated using pymatgen
data_AgH3(CN)3
_symmetry_space_group_name_H-M   'P 1'
_cell_length_a   8.22210000
_cell_length_b   9.44100000
_cell_length_c   11.93200000
_cell_angle_alpha   90.00000000
_cell_angle_beta   90.00000000
_cell_angle_gamma   90.00000000
_symmetry_Int_Tables_number   1
_chemical_formula_structural   AgH3(CN)3
_chemical_formula_sum   'Ag4 H12 C12 N12'
_cell_volume   926.21966367
_cell_formula_units_Z   4
loop_
 _symmetry_equiv_pos_site_id
 _symmetry_equiv_pos_as_xyz
  1  'x, y, z'
loop_
 _atom_site_type_symbol
 _atom_site_label
 _atom_site_symmetry_multiplicity
 _atom_site_fract_x
 _atom_site_fract_y
 _atom_site_fract_z
 _atom_site_occupancy
 _atom_site_charge
  Ag  Ag1  1  0.294600  0.110600  0.181800  1.0  0.3494
  Ag  Ag2  1  0.794600  0.889400  0.818200  1.0  0.348
  Ag  Ag3  1  0.294600  0.389400  0.681800  1.0  0.3497
  Ag  Ag4  1  0.794600  0.610600  0.318200  1.0  0.3477
  H  H5  1  0.267200  0.209300  0.444700  1.0  0.0459
  H  H6  1  0.561500  0.321000  0.206900  1.0  0.0498
  H  H7  1  0.540900  0.535100  0.516900  1.0  0.031
  H  H8  1  0.767200  0.790700  0.555300  1.0  0.0478
  H  H9  1  0.061500  0.679000  0.793100  1.0  0.0472
  H  H10  1  0.040900  0.464900  0.483100  1.0  0.0336
  H  H11  1  0.267200  0.290700  0.944700  1.0  0.0489
  H  H12  1  0.561500  0.179000  0.706900  1.0  0.0502
  H  H13  1  0.540900  0.964900  0.016900  1.0  0.0324
  H  H14  1  0.767200  0.709300  0.055300  1.0  0.0453
  H  H15  1  0.061500  0.821000  0.293100  1.0  0.047
  H  H16  1  0.040900  0.035100  0.983100  1.0  0.0329
  C  C17  1  0.526100  0.350500  0.287100  1.0  0.2653
  C  C18  1  0.350300  0.271000  0.418000  1.0  0.2719
  C  C19  1  0.523900  0.445300  0.461000  1.0  0.3123
  C  C20  1  0.026100  0.649500  0.712900  1.0  0.2675
  C  C21  1  0.850300  0.729000  0.582000  1.0  0.2697
  C  C22  1  0.023900  0.554700  0.539000  1.0  0.3122
  C  C23  1  0.526100  0.149500  0.787100  1.0  0.2652
  C  C24  1  0.350300  0.229000  0.918000  1.0  0.2696
  C  C25  1  0.523900  0.054700  0.961000  1.0  0.3118
  C  C26  1  0.026100  0.850500  0.212900  1.0  0.2672
  C  C27  1  0.850300  0.771000  0.082000  1.0  0.2716
  C  C28  1  0.023900  0.945300  0.039000  1.0  0.3131
  N  N29  1  0.404300  0.263200  0.313100  1.0  -0.4355
  N  N30  1  0.406900  0.139800  0.994800  1.0  -0.4496
  N  N31  1  0.090600  0.945500  0.140300  1.0  -0.4402
  N  N32  1  0.904300  0.736800  0.686900  1.0  -0.4379
  N  N33  1  0.906900  0.860200  0.005200  1.0  -0.4493
  N  N34  1  0.590600  0.054500  0.859700  1.0  -0.4406
  N  N35  1  0.404300  0.236800  0.813100  1.0  -0.4372
  N  N36  1  0.406900  0.360200  0.494800  1.0  -0.4489
  N  N37  1  0.090600  0.554500  0.640300  1.0  -0.4411
  N  N38  1  0.904300  0.763200  0.186900  1.0  -0.4362
  N  N39  1  0.906900  0.639800  0.505200  1.0  -0.4493
  N  N40  1  0.590600  0.445500  0.359700  1.0  -0.4383
