# generated using pymatgen
data_Cd5H24C44(N5O8)2
_symmetry_space_group_name_H-M   'P 1'
_cell_length_a   10.10200000
_cell_length_b   10.76900000
_cell_length_c   14.49530000
_cell_angle_alpha   98.01250000
_cell_angle_beta   95.70370000
_cell_angle_gamma   110.53500000
_symmetry_Int_Tables_number   1
_chemical_formula_structural   Cd5H24C44(N5O8)2
_chemical_formula_sum   'Cd5 H24 C44 N10 O16'
_cell_volume   1443.48883789
_cell_formula_units_Z   1
loop_
 _symmetry_equiv_pos_site_id
 _symmetry_equiv_pos_as_xyz
  1  'x, y, z'
loop_
 _atom_site_type_symbol
 _atom_site_label
 _atom_site_symmetry_multiplicity
 _atom_site_fract_x
 _atom_site_fract_y
 _atom_site_fract_z
 _atom_site_occupancy
 _atom_site_charge
  Cd  Cd1  1  0.000000  0.500000  0.000000  1.0  1.1065
  Cd  Cd2  1  0.902620  0.362990  0.402750  1.0  1.0424
  Cd  Cd3  1  0.023080  0.277070  0.179150  1.0  0.9715
  Cd  Cd4  1  0.097380  0.637010  0.597250  1.0  1.0389
  Cd  Cd5  1  0.976920  0.722930  0.820850  1.0  0.9718
  H  H6  1  0.331200  0.052900  0.831100  1.0  0.1117
  H  H7  1  0.167800  0.924900  0.335800  1.0  0.1254
  H  H8  1  0.597900  0.581100  0.659500  1.0  0.1101
  H  H9  1  0.457200  0.201400  0.187200  1.0  0.1073
  H  H10  1  0.728600  0.535800  0.073600  1.0  0.1106
  H  H11  1  0.822100  0.862400  0.686400  1.0  0.0918
  H  H12  1  0.648400  0.491300  0.390300  1.0  0.0945
  H  H13  1  0.526800  0.213500  0.932600  1.0  0.0971
  H  H14  1  0.542800  0.798600  0.812800  1.0  0.1074
  H  H15  1  0.076100  0.016600  0.927600  1.0  0.0759
  H  H16  1  0.177900  0.137600  0.313600  1.0  0.0924
  H  H17  1  0.832200  0.075100  0.664200  1.0  0.1252
  H  H18  1  0.271400  0.464200  0.926400  1.0  0.1103
  H  H19  1  0.923900  0.983400  0.072400  1.0  0.0747
  H  H20  1  0.530900  0.464800  0.151500  1.0  0.0945
  H  H21  1  0.085900  0.228800  0.916500  1.0  0.1108
  H  H22  1  0.402100  0.418900  0.340500  1.0  0.109
  H  H23  1  0.351600  0.508700  0.609700  1.0  0.0936
  H  H24  1  0.668800  0.947100  0.168900  1.0  0.1113
  H  H25  1  0.469100  0.535200  0.848500  1.0  0.0948
  H  H26  1  0.271300  0.043200  0.073200  1.0  0.0865
  H  H27  1  0.473200  0.786500  0.067400  1.0  0.0979
  H  H28  1  0.728700  0.956800  0.926800  1.0  0.0869
  H  H29  1  0.914100  0.771200  0.083500  1.0  0.1111
  C  C30  1  0.353800  0.463400  0.471000  1.0  -0.1317
  C  C31  1  0.481900  0.520800  0.910000  1.0  -0.0182
  C  C32  1  0.299900  0.808700  0.739100  1.0  0.7152
  C  C33  1  0.646200  0.536600  0.529000  1.0  -0.1356
  C  C34  1  0.034500  0.822000  0.214100  1.0  0.0263
  C  C35  1  0.587500  0.966000  0.152600  1.0  -0.003
  C  C36  1  0.877400  0.938000  0.731600  1.0  0.1567
  C  C37  1  0.362600  0.478500  0.956500  1.0  -0.0712
  C  C38  1  0.582300  0.088200  0.189100  1.0  -0.0641
  C  C39  1  0.348700  0.022100  0.095800  1.0  -0.0223
  C  C40  1  0.529100  0.129600  0.908900  1.0  -0.038
  C  C41  1  0.462100  0.119100  0.162100  1.0  -0.0567
  C  C42  1  0.802800  0.577900  0.561300  1.0  0.7185
  C  C43  1  0.965500  0.178000  0.785900  1.0  0.0258
  C  C44  1  0.026300  0.029100  0.874400  1.0  0.1758
  C  C45  1  0.122600  0.062000  0.268400  1.0  0.158
  C  C46  1  0.651300  0.977900  0.904200  1.0  -0.0236
  C  C47  1  0.221800  0.794100  0.998000  1.0  0.7125
  C  C48  1  0.256700  0.404200  0.097100  1.0  0.6795
  C  C49  1  0.588300  0.493300  0.434600  1.0  -0.0637
  C  C50  1  0.883100  0.065600  0.718100  1.0  -0.1042
  C  C51  1  0.411700  0.506700  0.565400  1.0  -0.0646
  C  C52  1  0.384400  0.458700  0.047000  1.0  -0.1355
  C  C53  1  0.987900  0.314800  0.770400  1.0  0.3143
  C  C54  1  0.034700  0.156700  0.867500  1.0  -0.1875
  C  C55  1  0.743300  0.595800  0.902900  1.0  0.6798
  C  C56  1  0.518100  0.479200  0.090000  1.0  -0.0161
  C  C57  1  0.700100  0.191300  0.260900  1.0  0.7145
  C  C58  1  0.559200  0.547600  0.596100  1.0  -0.0632
  C  C59  1  0.537900  0.880900  0.837900  1.0  -0.0579
  C  C60  1  0.470900  0.870400  0.091100  1.0  -0.0407
  C  C61  1  0.412500  0.034000  0.847400  1.0  -0.0039
  C  C62  1  0.778200  0.205900  0.002000  1.0  0.7122
  C  C63  1  0.351000  0.899900  0.064900  1.0  -0.1004
  C  C64  1  0.116900  0.934400  0.281900  1.0  -0.1089
  C  C65  1  0.012100  0.685200  0.229600  1.0  0.3147
  C  C66  1  0.649000  0.100100  0.935100  1.0  -0.1005
  C  C67  1  0.615600  0.541300  0.953000  1.0  -0.1347
  C  C68  1  0.637400  0.521500  0.043500  1.0  -0.0729
  C  C69  1  0.417700  0.911800  0.810900  1.0  -0.0654
  C  C70  1  0.965300  0.843300  0.132500  1.0  -0.1866
  C  C71  1  0.197200  0.422100  0.438700  1.0  0.7182
  C  C72  1  0.973700  0.970900  0.125600  1.0  0.1772
  C  C73  1  0.440800  0.452400  0.403900  1.0  -0.0618
  N  N74  1  0.995200  0.651400  0.314100  1.0  -0.2672
  N  N75  1  0.982400  0.477300  0.215400  1.0  -0.0267
  N  N76  1  0.022200  0.478800  0.696600  1.0  -0.05
  N  N77  1  0.977800  0.521200  0.303400  1.0  -0.0496
  N  N78  1  0.995300  0.421200  0.834200  1.0  -0.3385
  N  N79  1  0.950800  0.923100  0.809100  1.0  -0.3402
  N  N80  1  0.017600  0.522700  0.784600  1.0  -0.0275
  N  N81  1  0.004800  0.348600  0.685900  1.0  -0.2679
  N  N82  1  0.004700  0.578800  0.165800  1.0  -0.3381
  N  N83  1  0.049200  0.076900  0.190900  1.0  -0.3418
  O  O84  1  0.125700  0.463600  0.496800  1.0  -0.7005
  O  O85  1  0.725700  0.626000  0.823800  1.0  -0.5944
  O  O86  1  0.329000  0.730400  0.680000  1.0  -0.6116
  O  O87  1  0.172000  0.808700  0.735300  1.0  -0.7216
  O  O88  1  0.828000  0.191300  0.264700  1.0  -0.7192
  O  O89  1  0.799000  0.326700  0.999200  1.0  -0.645
  O  O90  1  0.201000  0.673300  0.000800  1.0  -0.645
  O  O91  1  0.853200  0.163500  0.052600  1.0  -0.5904
  O  O92  1  0.864100  0.651700  0.638700  1.0  -0.6562
  O  O93  1  0.146800  0.836500  0.947400  1.0  -0.5916
  O  O94  1  0.135900  0.348300  0.361300  1.0  -0.6567
  O  O95  1  0.274300  0.374000  0.176200  1.0  -0.5955
  O  O96  1  0.671000  0.269600  0.320000  1.0  -0.6086
  O  O97  1  0.132200  0.386200  0.053200  1.0  -0.672
  O  O98  1  0.874300  0.536400  0.503200  1.0  -0.7002
  O  O99  1  0.867800  0.613800  0.946800  1.0  -0.6722
