# generated using pymatgen
data_CuH14C20N3O5
_symmetry_space_group_name_H-M   'P 1'
_cell_length_a   8.83800000
_cell_length_b   15.98700000
_cell_length_c   16.92000000
_cell_angle_alpha   90.00000000
_cell_angle_beta   90.00000000
_cell_angle_gamma   90.00000000
_symmetry_Int_Tables_number   1
_chemical_formula_structural   CuH14C20N3O5
_chemical_formula_sum   'Cu4 H56 C80 N12 O20'
_cell_volume   2390.67935352
_cell_formula_units_Z   4
loop_
 _symmetry_equiv_pos_site_id
 _symmetry_equiv_pos_as_xyz
  1  'x, y, z'
loop_
 _atom_site_type_symbol
 _atom_site_label
 _atom_site_symmetry_multiplicity
 _atom_site_fract_x
 _atom_site_fract_y
 _atom_site_fract_z
 _atom_site_occupancy
 _atom_site_charge
  Cu  Cu1  1  0.070400  0.193890  0.781610  1.0  0.8349
  Cu  Cu2  1  0.070400  0.693890  0.718390  1.0  0.8352
  Cu  Cu3  1  0.570400  0.806110  0.218390  1.0  0.8338
  Cu  Cu4  1  0.570400  0.306110  0.281610  1.0  0.8335
  H  H5  1  0.999600  0.654300  0.295700  1.0  0.1035
  H  H6  1  0.657700  0.518600  0.349400  1.0  0.1216
  H  H7  1  0.610400  0.238400  0.622200  1.0  0.0917
  H  H8  1  0.929300  0.019000  0.310700  1.0  0.3264
  H  H9  1  0.628100  0.900500  0.604500  1.0  0.125
  H  H10  1  0.537300  0.718100  0.557700  1.0  0.0963
  H  H11  1  0.657700  0.018600  0.150600  1.0  0.1217
  H  H12  1  0.362800  0.680300  0.152500  1.0  0.0669
  H  H13  1  0.749300  0.451700  0.457000  1.0  0.0866
  H  H14  1  0.429300  0.481000  0.810700  1.0  0.3261
  H  H15  1  0.176500  0.879100  0.127400  1.0  0.0748
  H  H16  1  0.382700  0.481300  0.449200  1.0  0.1111
  H  H17  1  0.845400  0.735200  0.428500  1.0  0.1179
  H  H18  1  0.929300  0.519000  0.189300  1.0  0.3268
  H  H19  1  0.537300  0.218100  0.942300  1.0  0.0945
  H  H20  1  0.314100  0.085700  0.727100  1.0  0.1012
  H  H21  1  0.786900  0.765600  0.092900  1.0  0.069
  H  H22  1  0.249300  0.548300  0.543000  1.0  0.0861
  H  H23  1  0.128100  0.599500  0.104500  1.0  0.1239
  H  H24  1  0.862800  0.819700  0.652500  1.0  0.0674
  H  H25  1  0.429300  0.981000  0.689300  1.0  0.3265
  H  H26  1  0.676500  0.120900  0.872600  1.0  0.0751
  H  H27  1  0.862800  0.319700  0.847500  1.0  0.0679
  H  H28  1  0.814100  0.914300  0.272900  1.0  0.1023
  H  H29  1  0.499600  0.345700  0.704300  1.0  0.1037
  H  H30  1  0.749300  0.951700  0.043000  1.0  0.0859
  H  H31  1  0.882700  0.518700  0.550800  1.0  0.1108
  H  H32  1  0.157700  0.481400  0.650600  1.0  0.1214
  H  H33  1  0.362800  0.180300  0.347500  1.0  0.0674
  H  H34  1  0.676500  0.620900  0.627400  1.0  0.075
  H  H35  1  0.628100  0.400500  0.895500  1.0  0.1239
  H  H36  1  0.345400  0.764800  0.928500  1.0  0.1178
  H  H37  1  0.334100  0.327100  0.158400  1.0  0.1153
  H  H38  1  0.834100  0.172900  0.658400  1.0  0.1155
  H  H39  1  0.334100  0.827100  0.341600  1.0  0.1147
  H  H40  1  0.345400  0.264800  0.571500  1.0  0.118
  H  H41  1  0.834100  0.672900  0.841600  1.0  0.1152
  H  H42  1  0.814100  0.414300  0.227100  1.0  0.101
  H  H43  1  0.499600  0.845700  0.795700  1.0  0.1034
  H  H44  1  0.157700  0.981400  0.849400  1.0  0.1214
  H  H45  1  0.286900  0.734400  0.592900  1.0  0.0701
  H  H46  1  0.610400  0.738400  0.877800  1.0  0.0918
  H  H47  1  0.110400  0.761600  0.377800  1.0  0.0918
  H  H48  1  0.128100  0.099500  0.395500  1.0  0.1225
  H  H49  1  0.382700  0.981300  0.050800  1.0  0.1109
  H  H50  1  0.110400  0.261600  0.122200  1.0  0.0918
  H  H51  1  0.037300  0.281900  0.442300  1.0  0.0969
  H  H52  1  0.999600  0.154300  0.204300  1.0  0.1035
  H  H53  1  0.314100  0.585700  0.772900  1.0  0.1027
  H  H54  1  0.176500  0.379100  0.372600  1.0  0.0748
  H  H55  1  0.037300  0.781900  0.057700  1.0  0.0962
  H  H56  1  0.845400  0.235200  0.071500  1.0  0.1162
  H  H57  1  0.786900  0.265600  0.407100  1.0  0.07
  H  H58  1  0.249300  0.048300  0.957000  1.0  0.0861
  H  H59  1  0.882700  0.018700  0.949200  1.0  0.1108
  H  H60  1  0.286900  0.234400  0.907100  1.0  0.0691
  C  C61  1  0.807600  0.303900  0.801600  1.0  0.1011
  C  C62  1  0.849100  0.300200  0.375100  1.0  0.1606
  C  C63  1  0.973900  0.682700  0.558100  1.0  0.6433
  C  C64  1  0.361200  0.112100  0.770900  1.0  0.1064
  C  C65  1  0.861200  0.887900  0.229100  1.0  0.1054
  C  C66  1  0.675000  0.845200  0.713700  1.0  0.0809
  C  C67  1  0.614400  0.904700  0.660000  1.0  0.1021
  C  C68  1  0.675000  0.345200  0.786300  1.0  0.0811
  C  C69  1  0.767900  0.509900  0.451100  1.0  -0.098
  C  C70  1  0.575000  0.132600  0.857200  1.0  -0.0475
  C  C71  1  0.767900  0.009900  0.048900  1.0  -0.1043
  C  C72  1  0.473900  0.317300  0.441900  1.0  0.6437
  C  C73  1  0.739700  0.135400  0.119900  1.0  -0.0481
  C  C74  1  0.378500  0.866900  0.998300  1.0  -0.1508
  C  C75  1  0.114400  0.095300  0.340000  1.0  0.1025
  C  C76  1  0.213300  0.951500  0.888200  1.0  -0.1415
  C  C77  1  0.713300  0.548500  0.388200  1.0  -0.1415
  C  C78  1  0.660000  0.755000  0.830600  1.0  -0.1035
  C  C79  1  0.614400  0.404700  0.840000  1.0  0.1028
  C  C80  1  0.861200  0.387900  0.270900  1.0  0.1058
  C  C81  1  0.239700  0.364600  0.619900  1.0  -0.0477
  C  C82  1  0.349100  0.699800  0.624900  1.0  0.1595
  C  C83  1  0.114400  0.595300  0.160000  1.0  0.1018
  C  C84  1  0.175000  0.154800  0.286300  1.0  0.0812
  C  C85  1  0.292900  0.283400  0.189700  1.0  0.105
  C  C86  1  0.307600  0.196100  0.301600  1.0  0.1011
  C  C87  1  0.101100  0.474200  0.242900  1.0  0.5699
  C  C88  1  0.807600  0.803900  0.698400  1.0  0.1006
  C  C89  1  0.239700  0.864600  0.880100  1.0  -0.0472
  C  C90  1  0.175000  0.654800  0.213700  1.0  0.0806
  C  C91  1  0.824300  0.177200  0.065600  1.0  -0.115
  C  C92  1  0.213300  0.451500  0.611800  1.0  -0.1402
  C  C93  1  0.307600  0.696100  0.198400  1.0  0.1004
  C  C94  1  0.878500  0.133100  0.001700  1.0  -0.1514
  C  C95  1  0.792900  0.216600  0.689700  1.0  0.1052
  C  C96  1  0.601100  0.525800  0.757100  1.0  0.5701
  C  C97  1  0.575000  0.632600  0.642800  1.0  -0.0461
  C  C98  1  0.995200  0.811600  0.101000  1.0  -0.1106
  C  C99  1  0.473900  0.817300  0.058100  1.0  0.6442
  C  C100  1  0.093000  0.679500  0.282100  1.0  -0.1453
  C  C101  1  0.014700  0.408700  0.292100  1.0  0.0027
  C  C102  1  0.672500  0.687400  0.309100  1.0  0.6263
  C  C103  1  0.593000  0.820500  0.782100  1.0  -0.1451
  C  C104  1  0.514700  0.091300  0.792100  1.0  0.0019
  C  C105  1  0.324300  0.322800  0.565600  1.0  -0.1121
  C  C106  1  0.995200  0.311600  0.399000  1.0  -0.1087
  C  C107  1  0.324300  0.822800  0.934400  1.0  -0.1133
  C  C108  1  0.075000  0.867400  0.142800  1.0  -0.0473
  C  C109  1  0.824300  0.677200  0.434400  1.0  -0.1146
  C  C110  1  0.347200  0.451300  0.494000  1.0  -0.134
  C  C111  1  0.378500  0.366900  0.501700  1.0  -0.1513
  C  C112  1  0.514700  0.591300  0.707900  1.0  0.0028
  C  C113  1  0.847200  0.048700  0.994000  1.0  -0.1321
  C  C114  1  0.660000  0.255000  0.669400  1.0  -0.1044
  C  C115  1  0.014700  0.908700  0.207900  1.0  0.003
  C  C116  1  0.267900  0.990100  0.951100  1.0  -0.1045
  C  C117  1  0.160000  0.745000  0.330600  1.0  -0.1036
  C  C118  1  0.713300  0.048500  0.111800  1.0  -0.1446
  C  C119  1  0.847200  0.548700  0.506000  1.0  -0.1309
  C  C120  1  0.495200  0.188400  0.899000  1.0  -0.1097
  C  C121  1  0.093000  0.179500  0.217900  1.0  -0.1461
  C  C122  1  0.973900  0.182700  0.941900  1.0  0.643
  C  C123  1  0.361200  0.612100  0.729100  1.0  0.1053
  C  C124  1  0.672500  0.187400  0.190900  1.0  0.6256
  C  C125  1  0.349100  0.199800  0.875100  1.0  0.1589
  C  C126  1  0.849100  0.800200  0.124900  1.0  0.16
  C  C127  1  0.739700  0.635400  0.380100  1.0  -0.0471
  C  C128  1  0.267900  0.490100  0.548900  1.0  -0.1012
  C  C129  1  0.347200  0.951300  0.006000  1.0  -0.1334
  C  C130  1  0.495200  0.688400  0.601000  1.0  -0.1125
  C  C131  1  0.101100  0.974200  0.257100  1.0  0.5703
  C  C132  1  0.160000  0.245000  0.169400  1.0  -0.1047
  C  C133  1  0.593000  0.320500  0.717900  1.0  -0.1463
  C  C134  1  0.172500  0.812600  0.809100  1.0  0.6256
  C  C135  1  0.601100  0.025800  0.742900  1.0  0.5697
  C  C136  1  0.878500  0.633100  0.498300  1.0  -0.1508
  C  C137  1  0.172500  0.312600  0.690900  1.0  0.626
  C  C138  1  0.792900  0.716600  0.810300  1.0  0.1068
  C  C139  1  0.292900  0.783400  0.310300  1.0  0.1048
  C  C140  1  0.075000  0.367400  0.357200  1.0  -0.0468
  N  N141  1  0.864100  0.743500  0.743100  1.0  -0.3091
  N  N142  1  0.364100  0.756500  0.243100  1.0  -0.3095
  N  N143  1  0.787900  0.332600  0.312400  1.0  -0.2928
  N  N144  1  0.526900  0.974800  0.697600  1.0  -0.3831
  N  N145  1  0.864100  0.243500  0.756900  1.0  -0.3091
  N  N146  1  0.026900  0.025200  0.302400  1.0  -0.383
  N  N147  1  0.287900  0.667400  0.687600  1.0  -0.2912
  N  N148  1  0.526900  0.474800  0.802400  1.0  -0.3837
  N  N149  1  0.287900  0.167400  0.812400  1.0  -0.291
  N  N150  1  0.026900  0.525200  0.197600  1.0  -0.3825
  N  N151  1  0.787900  0.832600  0.187600  1.0  -0.292
  N  N152  1  0.364100  0.256500  0.256900  1.0  -0.3094
  O  O153  1  0.019000  0.753300  0.546200  1.0  -0.5434
  O  O154  1  0.238300  0.978400  0.240900  1.0  -0.5485
  O  O155  1  0.156500  0.351100  0.756300  1.0  -0.6169
  O  O156  1  0.147400  0.238100  0.679500  1.0  -0.557
  O  O157  1  0.738300  0.021600  0.759100  1.0  -0.5483
  O  O158  1  0.989600  0.641900  0.624300  1.0  -0.5919
  O  O159  1  0.156500  0.851100  0.743700  1.0  -0.6158
  O  O160  1  0.738300  0.521600  0.740900  1.0  -0.5482
  O  O161  1  0.647400  0.261900  0.179500  1.0  -0.5561
  O  O162  1  0.656500  0.148900  0.256300  1.0  -0.6167
  O  O163  1  0.647400  0.761900  0.320500  1.0  -0.5574
  O  O164  1  0.519000  0.746700  0.046200  1.0  -0.5437
  O  O165  1  0.989600  0.141900  0.875700  1.0  -0.5928
  O  O166  1  0.519000  0.246700  0.453800  1.0  -0.545
  O  O167  1  0.238300  0.478400  0.259100  1.0  -0.5483
  O  O168  1  0.147400  0.738100  0.820500  1.0  -0.5576
  O  O169  1  0.489600  0.858100  0.124300  1.0  -0.5916
  O  O170  1  0.656500  0.648900  0.243700  1.0  -0.6159
  O  O171  1  0.019000  0.253300  0.953800  1.0  -0.5438
  O  O172  1  0.489600  0.358100  0.375700  1.0  -0.5923
