# generated using pymatgen
data_CdH24C32(NO3)2
_symmetry_space_group_name_H-M   'P 1'
_cell_length_a   10.12800000
_cell_length_b   12.64800000
_cell_length_c   15.46700000
_cell_angle_alpha   106.91600000
_cell_angle_beta   104.12200000
_cell_angle_gamma   104.24700000
_symmetry_Int_Tables_number   1
_chemical_formula_structural   CdH24C32(NO3)2
_chemical_formula_sum   'Cd2 H48 C64 N4 O12'
_cell_volume   1727.60083713
_cell_formula_units_Z   2
loop_
 _symmetry_equiv_pos_site_id
 _symmetry_equiv_pos_as_xyz
  1  'x, y, z'
loop_
 _atom_site_type_symbol
 _atom_site_label
 _atom_site_symmetry_multiplicity
 _atom_site_fract_x
 _atom_site_fract_y
 _atom_site_fract_z
 _atom_site_occupancy
 _atom_site_charge
  Cd  Cd1  1  0.531070  0.033520  0.146540  1.0  1.0302
  Cd  Cd2  1  0.468930  0.966480  0.853460  1.0  1.0281
  H  H3  1  0.787200  0.875700  0.877700  1.0  0.0931
  H  H4  1  0.478200  0.271300  0.240900  1.0  0.0859
  H  H5  1  0.822200  0.559900  0.322700  1.0  0.1183
  H  H6  1  0.607900  0.293500  0.814700  1.0  0.0676
  H  H7  1  0.833300  0.239300  0.202500  1.0  0.0751
  H  H8  1  0.542300  0.236300  0.702000  1.0  0.0658
  H  H9  1  0.166700  0.760700  0.797500  1.0  0.0741
  H  H10  1  0.134900  0.183100  0.750500  1.0  0.129
  H  H11  1  0.014800  0.388800  0.745700  1.0  0.0972
  H  H12  1  0.985200  0.611200  0.254300  1.0  0.0983
  H  H13  1  0.629900  0.576900  0.984100  1.0  0.1169
  H  H14  1  0.995800  0.100300  0.148500  1.0  0.0982
  H  H15  1  0.865100  0.816900  0.249500  1.0  0.1298
  H  H16  1  0.331200  0.285400  0.715900  1.0  0.0887
  H  H17  1  0.352200  0.183400  0.750200  1.0  0.0771
  H  H18  1  0.837100  0.598800  0.944100  1.0  0.091
  H  H19  1  0.216200  0.901000  0.130000  1.0  0.0723
  H  H20  1  0.668800  0.714600  0.284100  1.0  0.088
  H  H21  1  0.068900  0.839500  0.205900  1.0  0.1013
  H  H22  1  0.724200  0.415900  0.070700  1.0  0.1087
  H  H23  1  0.162900  0.401200  0.055900  1.0  0.0906
  H  H24  1  0.924800  0.673000  0.728600  1.0  0.1128
  H  H25  1  0.299100  0.015200  0.401800  1.0  0.1033
  H  H26  1  0.297900  0.993500  0.545100  1.0  0.1004
  H  H27  1  0.702100  0.006500  0.454900  1.0  0.1005
  H  H28  1  0.058800  0.562900  0.959200  1.0  0.0947
  H  H29  1  0.275800  0.584100  0.929300  1.0  0.1085
  H  H30  1  0.788400  0.310100  0.751200  1.0  0.102
  H  H31  1  0.299300  0.403400  0.263300  1.0  0.1111
  H  H32  1  0.521800  0.728700  0.759100  1.0  0.0862
  H  H33  1  0.783800  0.099000  0.870000  1.0  0.0721
  H  H34  1  0.075200  0.327000  0.271400  1.0  0.1123
  H  H35  1  0.370100  0.423100  0.015900  1.0  0.1167
  H  H36  1  0.177800  0.440100  0.677300  1.0  0.1194
  H  H37  1  0.931100  0.160500  0.794100  1.0  0.1009
  H  H38  1  0.700900  0.984800  0.598200  1.0  0.1031
  H  H39  1  0.004200  0.899700  0.851500  1.0  0.0987
  H  H40  1  0.459500  0.765900  0.005500  1.0  0.0676
  H  H41  1  0.416900  0.525700  0.693500  1.0  0.1088
  H  H42  1  0.540500  0.234100  0.994500  1.0  0.0679
  H  H43  1  0.392100  0.706500  0.185300  1.0  0.0681
  H  H44  1  0.700700  0.596600  0.736700  1.0  0.1121
  H  H45  1  0.212800  0.124300  0.122300  1.0  0.0935
  H  H46  1  0.211600  0.689900  0.248800  1.0  0.1021
  H  H47  1  0.457700  0.763700  0.298000  1.0  0.0674
  H  H48  1  0.647800  0.816600  0.249800  1.0  0.0789
  H  H49  1  0.583100  0.474300  0.306500  1.0  0.1088
  H  H50  1  0.941200  0.437100  0.040800  1.0  0.0946
  C  C51  1  0.379500  0.995900  0.527200  1.0  -0.0391
  C  C52  1  0.859000  0.771800  0.188300  1.0  -0.2931
  C  C53  1  0.272200  0.309800  0.877300  1.0  0.2725
  C  C54  1  0.501600  0.014000  0.413900  1.0  -0.1612
  C  C55  1  0.281200  0.372000  0.970300  1.0  -0.2195
  C  C56  1  0.157000  0.357400  0.994400  1.0  -0.0977
  C  C57  1  0.221900  0.521500  0.704900  1.0  -0.0808
  C  C58  1  0.023400  0.278700  0.928600  1.0  -0.0225
  C  C59  1  0.620500  0.004100  0.472800  1.0  -0.0381
  C  C60  1  0.184200  0.616000  0.252600  1.0  -0.2476
  C  C61  1  0.048600  0.569100  0.256800  1.0  -0.1125
  C  C62  1  0.994700  0.539100  0.735500  1.0  0.0398
  C  C63  1  0.721200  0.445200  0.746100  1.0  0.2802
  C  C64  1  0.392900  0.266700  0.763600  1.0  0.0823
  C  C65  1  0.141000  0.228200  0.811700  1.0  -0.2904
  C  C66  1  0.976600  0.721300  0.071400  1.0  -0.0219
  C  C67  1  0.854900  0.408900  0.262900  1.0  0.013
  C  C68  1  0.458600  0.705100  0.241600  1.0  0.0855
  C  C69  1  0.002800  0.940900  0.911600  1.0  -0.0295
  C  C70  1  0.772900  0.163900  0.911100  1.0  0.1452
  C  C71  1  0.426100  0.694500  0.753400  1.0  0.1756
  C  C72  1  0.217200  0.712400  0.775700  1.0  0.1789
  C  C73  1  0.236300  0.445800  0.261600  1.0  -0.215
  C  C74  1  0.898000  0.599700  0.733400  1.0  -0.135
  C  C75  1  0.619700  0.990700  0.558800  1.0  -0.0622
  C  C76  1  0.573900  0.305500  0.246600  1.0  0.1756
  C  C77  1  0.380300  0.009300  0.441200  1.0  -0.0612
  C  C78  1  0.727800  0.690200  0.122700  1.0  0.2653
  C  C79  1  0.498400  0.986000  0.586100  1.0  -0.1613
  C  C80  1  0.872800  0.925600  0.927500  1.0  -0.0871
  C  C81  1  0.262200  0.647500  0.970200  1.0  -0.1175
  C  C82  1  0.131400  0.016600  0.983600  1.0  -0.1743
  C  C83  1  0.737800  0.352500  0.029800  1.0  -0.1154
  C  C84  1  0.636400  0.427800  0.286300  1.0  -0.1312
  C  C85  1  0.500300  0.026100  0.319500  1.0  0.6968
  C  C86  1  0.499700  0.973900  0.680500  1.0  0.695
  C  C87  1  0.815800  0.384000  0.747400  1.0  -0.25
  C  C88  1  0.718800  0.628000  0.029700  1.0  -0.2196
  C  C89  1  0.541400  0.294900  0.758400  1.0  0.0856
  C  C90  1  0.778100  0.478500  0.295100  1.0  -0.0839
  C  C91  1  0.227100  0.836100  0.088900  1.0  0.1456
  C  C92  1  0.980800  0.785200  0.161400  1.0  -0.1198
  C  C93  1  0.278800  0.554800  0.253900  1.0  0.283
  C  C94  1  0.843000  0.642600  0.005600  1.0  -0.0975
  C  C95  1  0.111500  0.730700  0.047300  1.0  0.0348
  C  C96  1  0.127200  0.074400  0.072500  1.0  -0.0875
  C  C97  1  0.145100  0.591100  0.737100  1.0  0.0094
  C  C98  1  0.132600  0.635700  0.987800  1.0  -0.0797
  C  C99  1  0.102000  0.400300  0.266600  1.0  -0.1374
  C  C100  1  0.951400  0.430900  0.743200  1.0  -0.113
  C  C101  1  0.725900  0.971000  0.033000  1.0  0.7029
  C  C102  1  0.867400  0.364300  0.012200  1.0  -0.0777
  C  C103  1  0.019200  0.214800  0.838600  1.0  -0.1222
  C  C104  1  0.868600  0.983400  0.016400  1.0  -0.1748
  C  C105  1  0.997200  0.059100  0.088400  1.0  -0.03
  C  C106  1  0.371300  0.757200  0.015700  1.0  0.1554
  C  C107  1  0.763700  0.554200  0.738400  1.0  -0.2215
  C  C108  1  0.628700  0.242800  0.984300  1.0  0.1573
  C  C109  1  0.607100  0.733300  0.236400  1.0  0.0829
  C  C110  1  0.363600  0.572200  0.713700  1.0  -0.1332
  C  C111  1  0.782800  0.287600  0.224300  1.0  0.1804
  C  C112  1  0.274100  0.029000  0.967000  1.0  0.7032
  C  C113  1  0.888500  0.269300  0.952700  1.0  0.0358
  C  C114  1  0.005300  0.460900  0.264500  1.0  0.0425
  N  N115  1  0.353800  0.763900  0.783300  1.0  -0.3357
  N  N116  1  0.646100  0.150500  0.926900  1.0  -0.3475
  N  N117  1  0.353900  0.849500  0.073100  1.0  -0.3484
  N  N118  1  0.646200  0.236100  0.216700  1.0  -0.338
  O  O119  1  0.732400  0.020800  0.118300  1.0  -0.5954
  O  O120  1  0.593700  0.941200  0.724500  1.0  -0.6443
  O  O121  1  0.406300  0.058800  0.275500  1.0  -0.6426
  O  O122  1  0.412900  0.591400  0.246500  1.0  -0.2792
  O  O123  1  0.399400  0.334300  0.858500  1.0  -0.2843
  O  O124  1  0.600600  0.665700  0.141500  1.0  -0.2853
  O  O125  1  0.390000  0.082700  0.037200  1.0  -0.6631
  O  O126  1  0.399900  0.995400  0.711400  1.0  -0.5978
  O  O127  1  0.267600  0.979200  0.881700  1.0  -0.5956
  O  O128  1  0.610000  0.917300  0.962800  1.0  -0.6627
  O  O129  1  0.587100  0.408600  0.753500  1.0  -0.282
  O  O130  1  0.600100  0.004600  0.288600  1.0  -0.5985
