# generated using pymatgen
data_MnH2C6SO4
_symmetry_space_group_name_H-M   'P 1'
_cell_length_a   9.85520000
_cell_length_b   17.98280000
_cell_length_c   21.35900000
_cell_angle_alpha   103.91200000
_cell_angle_beta   90.00000000
_cell_angle_gamma   90.00000000
_symmetry_Int_Tables_number   1
_chemical_formula_structural   MnH2C6SO4
_chemical_formula_sum   'Mn12 H24 C72 S12 O48'
_cell_volume   3674.29105572
_cell_formula_units_Z   12
loop_
 _symmetry_equiv_pos_site_id
 _symmetry_equiv_pos_as_xyz
  1  'x, y, z'
loop_
 _atom_site_type_symbol
 _atom_site_label
 _atom_site_symmetry_multiplicity
 _atom_site_fract_x
 _atom_site_fract_y
 _atom_site_fract_z
 _atom_site_occupancy
 _atom_site_charge
  Mn  Mn1  1  0.118220  0.196390  0.121390  1.0  1.066
  Mn  Mn2  1  0.105400  0.278830  0.293970  1.0  1.1873
  Mn  Mn3  1  0.282620  0.286110  0.442580  1.0  1.1208
  Mn  Mn4  1  0.618220  0.803610  0.378610  1.0  1.0645
  Mn  Mn5  1  0.605400  0.721170  0.206030  1.0  1.1882
  Mn  Mn6  1  0.782620  0.713890  0.057420  1.0  1.122
  Mn  Mn7  1  0.881780  0.803610  0.878610  1.0  1.065
  Mn  Mn8  1  0.894600  0.721170  0.706030  1.0  1.188
  Mn  Mn9  1  0.717380  0.713890  0.557420  1.0  1.1218
  Mn  Mn10  1  0.381780  0.196390  0.621390  1.0  1.0661
  Mn  Mn11  1  0.394600  0.278830  0.793970  1.0  1.1872
  Mn  Mn12  1  0.217380  0.286110  0.942580  1.0  1.121
  H  H13  1  0.846200  0.074700  0.326900  1.0  0.1153
  H  H14  1  0.776300  0.939200  0.308100  1.0  0.1141
  H  H15  1  0.099400  0.386700  0.098600  1.0  0.1155
  H  H16  1  0.020600  0.501800  0.066600  1.0  0.1166
  H  H17  1  0.792300  0.289400  0.360100  1.0  0.1151
  H  H18  1  0.560900  0.281100  0.402800  1.0  0.1095
  H  H19  1  0.346200  0.925300  0.173100  1.0  0.1151
  H  H20  1  0.276300  0.060800  0.191900  1.0  0.1141
  H  H21  1  0.599400  0.613300  0.401400  1.0  0.1153
  H  H22  1  0.520600  0.498200  0.433400  1.0  0.1151
  H  H23  1  0.292300  0.710600  0.139900  1.0  0.1136
  H  H24  1  0.060900  0.718900  0.097200  1.0  0.1095
  H  H25  1  0.153800  0.925300  0.673100  1.0  0.1153
  H  H26  1  0.223700  0.060800  0.691900  1.0  0.1147
  H  H27  1  0.900600  0.613300  0.901400  1.0  0.1162
  H  H28  1  0.979400  0.498200  0.933400  1.0  0.1154
  H  H29  1  0.207700  0.710600  0.639900  1.0  0.1131
  H  H30  1  0.439100  0.718900  0.597200  1.0  0.11
  H  H31  1  0.653800  0.074700  0.826900  1.0  0.1152
  H  H32  1  0.723700  0.939200  0.808100  1.0  0.115
  H  H33  1  0.400600  0.386700  0.598600  1.0  0.1162
  H  H34  1  0.479400  0.501800  0.566600  1.0  0.1166
  H  H35  1  0.707700  0.289400  0.860100  1.0  0.1149
  H  H36  1  0.939100  0.281100  0.902800  1.0  0.1094
  C  C37  1  0.924900  0.052990  0.236130  1.0  -0.2101
  C  C38  1  0.861700  0.037600  0.287700  1.0  -0.0672
  C  C39  1  0.821000  0.960020  0.276790  1.0  -0.0548
  C  C40  1  0.852900  0.918790  0.216980  1.0  -0.1887
  C  C41  1  0.979800  0.127150  0.228790  1.0  0.7647
  C  C42  1  0.817700  0.837540  0.186210  1.0  0.7608
  C  C43  1  0.978700  0.413060  0.178560  1.0  -0.1875
  C  C44  1  0.035700  0.421740  0.122810  1.0  -0.052
  C  C45  1  0.991000  0.487660  0.104470  1.0  -0.0443
  C  C46  1  0.900400  0.528890  0.147200  1.0  -0.2005
  C  C47  1  0.007700  0.355060  0.214420  1.0  0.6771
  C  C48  1  0.830500  0.601530  0.144840  1.0  0.77
  C  C49  1  0.871300  0.256970  0.438220  1.0  -0.1847
  C  C50  1  0.773700  0.275290  0.399380  1.0  -0.0804
  C  C51  1  0.640900  0.270890  0.424140  1.0  -0.0711
  C  C52  1  0.640000  0.250500  0.481920  1.0  -0.1984
  C  C53  1  0.018700  0.259750  0.432410  1.0  0.6999
  C  C54  1  0.528500  0.240950  0.524580  1.0  0.709
  C  C55  1  0.424900  0.947010  0.263870  1.0  -0.2105
  C  C56  1  0.361700  0.962400  0.212300  1.0  -0.0682
  C  C57  1  0.321000  0.039980  0.223210  1.0  -0.0547
  C  C58  1  0.352900  0.081210  0.283020  1.0  -0.1896
  C  C59  1  0.479800  0.872850  0.271210  1.0  0.7634
  C  C60  1  0.317700  0.162460  0.313790  1.0  0.761
  C  C61  1  0.478700  0.586940  0.321440  1.0  -0.1865
  C  C62  1  0.535700  0.578260  0.377190  1.0  -0.0516
  C  C63  1  0.491000  0.512340  0.395530  1.0  -0.0442
  C  C64  1  0.400400  0.471110  0.352800  1.0  -0.2003
  C  C65  1  0.507700  0.644940  0.285580  1.0  0.6711
  C  C66  1  0.330500  0.398470  0.355160  1.0  0.7703
  C  C67  1  0.371300  0.743030  0.061780  1.0  -0.1844
  C  C68  1  0.273700  0.724710  0.100620  1.0  -0.0806
  C  C69  1  0.140900  0.729110  0.075860  1.0  -0.0708
  C  C70  1  0.140000  0.749500  0.018080  1.0  -0.1986
  C  C71  1  0.518700  0.740250  0.067590  1.0  0.6999
  C  C72  1  0.028500  0.759050  0.975420  1.0  0.7083
  C  C73  1  0.075100  0.947010  0.763870  1.0  -0.2106
  C  C74  1  0.138300  0.962400  0.712300  1.0  -0.0689
  C  C75  1  0.179000  0.039980  0.723210  1.0  -0.0544
  C  C76  1  0.147100  0.081210  0.783020  1.0  -0.1896
  C  C77  1  0.020200  0.872850  0.771210  1.0  0.7652
  C  C78  1  0.182300  0.162460  0.813790  1.0  0.7598
  C  C79  1  0.021300  0.586940  0.821440  1.0  -0.1866
  C  C80  1  0.964300  0.578260  0.877190  1.0  -0.052
  C  C81  1  0.009000  0.512340  0.895530  1.0  -0.0441
  C  C82  1  0.099600  0.471110  0.852800  1.0  -0.199
  C  C83  1  0.992300  0.644940  0.785580  1.0  0.6777
  C  C84  1  0.169500  0.398470  0.855160  1.0  0.7706
  C  C85  1  0.128700  0.743030  0.561780  1.0  -0.1848
  C  C86  1  0.226300  0.724710  0.600620  1.0  -0.0819
  C  C87  1  0.359100  0.729110  0.575860  1.0  -0.0703
  C  C88  1  0.360000  0.749500  0.518080  1.0  -0.1983
  C  C89  1  0.981300  0.740250  0.567590  1.0  0.7006
  C  C90  1  0.471500  0.759050  0.475420  1.0  0.709
  C  C91  1  0.575100  0.052990  0.736130  1.0  -0.2108
  C  C92  1  0.638300  0.037600  0.787700  1.0  -0.0675
  C  C93  1  0.679000  0.960020  0.776790  1.0  -0.0537
  C  C94  1  0.647100  0.918790  0.716980  1.0  -0.189
  C  C95  1  0.520200  0.127150  0.728790  1.0  0.7661
  C  C96  1  0.682300  0.837540  0.686210  1.0  0.7594
  C  C97  1  0.521300  0.413060  0.678560  1.0  -0.1878
  C  C98  1  0.464300  0.421740  0.622810  1.0  -0.0522
  C  C99  1  0.509000  0.487660  0.604470  1.0  -0.0435
  C  C100  1  0.599600  0.528890  0.647200  1.0  -0.1991
  C  C101  1  0.492300  0.355060  0.714420  1.0  0.672
  C  C102  1  0.669500  0.601530  0.644840  1.0  0.7702
  C  C103  1  0.628700  0.256970  0.938220  1.0  -0.1847
  C  C104  1  0.726300  0.275290  0.899380  1.0  -0.0814
  C  C105  1  0.859100  0.270890  0.924140  1.0  -0.0708
  C  C106  1  0.860000  0.250500  0.981920  1.0  -0.1988
  C  C107  1  0.481300  0.259750  0.932410  1.0  0.6995
  C  C108  1  0.971500  0.240950  0.024580  1.0  0.71
  S  S109  1  0.867550  0.486690  0.209720  1.0  0.1802
  S  S110  1  0.803140  0.235760  0.505650  1.0  0.1738
  S  S111  1  0.935310  0.973080  0.173010  1.0  0.1832
  S  S112  1  0.367550  0.513310  0.290280  1.0  0.181
  S  S113  1  0.303140  0.764240  0.994350  1.0  0.1736
  S  S114  1  0.435310  0.026920  0.326990  1.0  0.1835
  S  S115  1  0.132450  0.513310  0.790280  1.0  0.1798
  S  S116  1  0.196860  0.764240  0.494350  1.0  0.1758
  S  S117  1  0.064690  0.026920  0.826990  1.0  0.1838
  S  S118  1  0.632450  0.486690  0.709720  1.0  0.1786
  S  S119  1  0.696860  0.235760  0.005650  1.0  0.1744
  S  S120  1  0.564690  0.973080  0.673010  1.0  0.1839
  O  O121  1  0.032290  0.126620  0.174740  1.0  -0.6997
  O  O122  1  0.973120  0.183240  0.276240  1.0  -0.5688
  O  O123  1  0.835590  0.815060  0.126660  1.0  -0.6044
  O  O124  1  0.769560  0.798790  0.222870  1.0  -0.6126
  O  O125  1  0.097190  0.303710  0.192610  1.0  -0.6509
  O  O126  1  0.951640  0.359220  0.267660  1.0  -0.5596
  O  O127  1  0.869960  0.633540  0.101630  1.0  -0.6096
  O  O128  1  0.740440  0.624550  0.186160  1.0  -0.6091
  O  O129  1  0.070770  0.295580  0.393660  1.0  -0.6655
  O  O130  1  0.090510  0.232130  0.469510  1.0  -0.5719
  O  O131  1  0.408030  0.255060  0.512010  1.0  -0.7096
  O  O132  1  0.560460  0.217770  0.573420  1.0  -0.5744
  O  O133  1  0.532290  0.873380  0.325260  1.0  -0.7007
  O  O134  1  0.473120  0.816760  0.223760  1.0  -0.5683
  O  O135  1  0.335590  0.184940  0.373340  1.0  -0.6044
  O  O136  1  0.269560  0.201210  0.277130  1.0  -0.6115
  O  O137  1  0.597190  0.696290  0.307390  1.0  -0.6505
  O  O138  1  0.451640  0.640780  0.232340  1.0  -0.5602
  O  O139  1  0.369960  0.366460  0.398370  1.0  -0.6096
  O  O140  1  0.240440  0.375450  0.313840  1.0  -0.6098
  O  O141  1  0.570770  0.704420  0.106340  1.0  -0.6651
  O  O142  1  0.590510  0.767870  0.030490  1.0  -0.5721
  O  O143  1  0.908030  0.744940  0.987990  1.0  -0.71
  O  O144  1  0.060460  0.782230  0.926580  1.0  -0.5778
  O  O145  1  0.967710  0.873380  0.825260  1.0  -0.7005
  O  O146  1  0.026880  0.816760  0.723760  1.0  -0.5682
  O  O147  1  0.164410  0.184940  0.873340  1.0  -0.604
  O  O148  1  0.230440  0.201210  0.777130  1.0  -0.6125
  O  O149  1  0.902810  0.696290  0.807390  1.0  -0.6509
  O  O150  1  0.048360  0.640780  0.732340  1.0  -0.5603
  O  O151  1  0.130040  0.366460  0.898370  1.0  -0.6093
  O  O152  1  0.259560  0.375450  0.813840  1.0  -0.6096
  O  O153  1  0.929230  0.704420  0.606340  1.0  -0.6655
  O  O154  1  0.909490  0.767870  0.530490  1.0  -0.5743
  O  O155  1  0.591970  0.744940  0.487990  1.0  -0.7037
  O  O156  1  0.439540  0.782230  0.426580  1.0  -0.5774
  O  O157  1  0.467710  0.126620  0.674740  1.0  -0.7005
  O  O158  1  0.526880  0.183240  0.776240  1.0  -0.5686
  O  O159  1  0.664410  0.815060  0.626660  1.0  -0.6038
  O  O160  1  0.730440  0.798790  0.722870  1.0  -0.6148
  O  O161  1  0.402810  0.303710  0.692610  1.0  -0.6518
  O  O162  1  0.548360  0.359220  0.767660  1.0  -0.5611
  O  O163  1  0.630040  0.633540  0.601630  1.0  -0.6094
  O  O164  1  0.759560  0.624550  0.686160  1.0  -0.6095
  O  O165  1  0.429230  0.295580  0.893660  1.0  -0.6648
  O  O166  1  0.409490  0.232130  0.969510  1.0  -0.5731
  O  O167  1  0.091970  0.255060  0.012010  1.0  -0.7035
  O  O168  1  0.939540  0.217770  0.073420  1.0  -0.5732
