# generated using pymatgen
data_TbH3C8NO7
_symmetry_space_group_name_H-M   'P 1'
_cell_length_a   7.69570000
_cell_length_b   10.21820000
_cell_length_c   15.94080000
_cell_angle_alpha   86.94500000
_cell_angle_beta   86.03500000
_cell_angle_gamma   76.83100000
_symmetry_Int_Tables_number   1
_chemical_formula_structural   TbH3C8NO7
_chemical_formula_sum   'Tb4 H12 C32 N4 O28'
_cell_volume   1216.72804864
_cell_formula_units_Z   4
loop_
 _symmetry_equiv_pos_site_id
 _symmetry_equiv_pos_as_xyz
  1  'x, y, z'
loop_
 _atom_site_type_symbol
 _atom_site_label
 _atom_site_symmetry_multiplicity
 _atom_site_fract_x
 _atom_site_fract_y
 _atom_site_fract_z
 _atom_site_occupancy
 _atom_site_charge
  Tb  Tb1  1  0.354010  0.336740  0.063410  1.0  2.2247
  Tb  Tb2  1  0.612750  0.870520  0.324430  1.0  2.209
  Tb  Tb3  1  0.645990  0.663260  0.936590  1.0  2.2252
  Tb  Tb4  1  0.387250  0.129480  0.675570  1.0  2.2083
  H  H5  1  0.162000  0.525700  0.705800  1.0  0.1073
  H  H6  1  0.908700  0.644200  0.639700  1.0  0.1101
  H  H7  1  0.666200  0.544300  0.631100  1.0  0.1047
  H  H8  1  0.095900  0.880300  0.809400  1.0  0.1106
  H  H9  1  0.923700  0.885600  0.936300  1.0  0.1042
  H  H10  1  0.752700  0.090700  0.981800  1.0  0.0984
  H  H11  1  0.838000  0.474300  0.294200  1.0  0.1076
  H  H12  1  0.091300  0.355800  0.360300  1.0  0.1094
  H  H13  1  0.333800  0.455700  0.368900  1.0  0.105
  H  H14  1  0.904100  0.119700  0.190600  1.0  0.111
  H  H15  1  0.076300  0.114400  0.063700  1.0  0.1052
  H  H16  1  0.247300  0.909300  0.018200  1.0  0.0982
  C  C17  1  0.060100  0.488000  0.705200  1.0  0.0267
  C  C18  1  0.911200  0.557400  0.664800  1.0  -0.1434
  C  C19  1  0.766300  0.499700  0.661400  1.0  -0.0431
  C  C20  1  0.767400  0.376500  0.702200  1.0  -0.1375
  C  C21  1  0.914500  0.314200  0.746800  1.0  0.0824
  C  C22  1  0.621000  0.301300  0.694300  1.0  0.6872
  C  C23  1  0.023200  0.962800  0.828100  1.0  -0.0169
  C  C24  1  0.923100  0.966000  0.903300  1.0  -0.1187
  C  C25  1  0.822100  0.087500  0.930000  1.0  0.0034
  C  C26  1  0.820300  0.204200  0.882600  1.0  -0.1503
  C  C27  1  0.918800  0.197700  0.805900  1.0  0.0989
  C  C28  1  0.712100  0.340000  0.912100  1.0  0.6932
  C  C29  1  0.950000  0.466900  0.036200  1.0  0.5621
  C  C30  1  0.427300  0.958800  0.506500  1.0  0.537
  C  C31  1  0.510500  0.060800  0.158400  1.0  0.5858
  C  C32  1  0.388300  0.142700  0.226500  1.0  0.5385
  C  C33  1  0.939900  0.512000  0.294800  1.0  0.0268
  C  C34  1  0.088800  0.442600  0.335200  1.0  -0.143
  C  C35  1  0.233700  0.500300  0.338600  1.0  -0.0441
  C  C36  1  0.232600  0.623500  0.297800  1.0  -0.138
  C  C37  1  0.085500  0.685800  0.253200  1.0  0.0832
  C  C38  1  0.379000  0.698700  0.305700  1.0  0.6868
  C  C39  1  0.976800  0.037200  0.171900  1.0  -0.0151
  C  C40  1  0.076900  0.034000  0.096700  1.0  -0.1172
  C  C41  1  0.177900  0.912500  0.070000  1.0  0.0018
  C  C42  1  0.179700  0.795800  0.117400  1.0  -0.1512
  C  C43  1  0.081200  0.802300  0.194100  1.0  0.0992
  C  C44  1  0.287900  0.660000  0.087900  1.0  0.6922
  C  C45  1  0.050000  0.533100  0.963800  1.0  0.5635
  C  C46  1  0.572700  0.041200  0.493500  1.0  0.5364
  C  C47  1  0.489500  0.939200  0.841600  1.0  0.5868
  C  C48  1  0.611700  0.857300  0.773500  1.0  0.54
  N  N49  1  0.061500  0.367700  0.743500  1.0  0.3267
  N  N50  1  0.017600  0.077300  0.781300  1.0  0.3273
  N  N51  1  0.938500  0.632300  0.256500  1.0  0.3268
  N  N52  1  0.982400  0.922700  0.218700  1.0  0.3263
  O  O53  1  0.210200  0.296000  0.776900  1.0  -0.6713
  O  O54  1  0.104900  0.071000  0.705800  1.0  -0.683
  O  O55  1  0.489400  0.354800  0.651500  1.0  -0.6651
  O  O56  1  0.638600  0.186000  0.728600  1.0  -0.6178
  O  O57  1  0.754200  0.444000  0.882500  1.0  -0.6151
  O  O58  1  0.588500  0.336600  0.968600  1.0  -0.7399
  O  O59  1  0.785000  0.516200  0.047400  1.0  -0.5983
  O  O60  1  0.039100  0.371200  0.078200  1.0  -0.6155
  O  O61  1  0.338800  0.969400  0.576800  1.0  -0.6119
  O  O62  1  0.406500  0.890500  0.446800  1.0  -0.5991
  O  O63  1  0.396400  0.090500  0.299900  1.0  -0.6134
  O  O64  1  0.613600  0.954400  0.181600  1.0  -0.6278
  O  O65  1  0.290800  0.251800  0.202500  1.0  -0.5658
  O  O66  1  0.499100  0.107000  0.083200  1.0  -0.7034
  O  O67  1  0.789800  0.704000  0.223100  1.0  -0.669
  O  O68  1  0.895100  0.929000  0.294200  1.0  -0.6868
  O  O69  1  0.510600  0.645200  0.348500  1.0  -0.6644
  O  O70  1  0.361400  0.814000  0.271400  1.0  -0.6192
  O  O71  1  0.245800  0.556000  0.117500  1.0  -0.6144
  O  O72  1  0.411500  0.663400  0.031400  1.0  -0.742
  O  O73  1  0.215000  0.483800  0.952600  1.0  -0.5981
  O  O74  1  0.960900  0.628800  0.921800  1.0  -0.615
  O  O75  1  0.661200  0.030600  0.423200  1.0  -0.6137
  O  O76  1  0.593500  0.109500  0.553200  1.0  -0.5992
  O  O77  1  0.603600  0.909500  0.700100  1.0  -0.6115
  O  O78  1  0.386400  0.045600  0.818400  1.0  -0.6293
  O  O79  1  0.709200  0.748200  0.797500  1.0  -0.5661
  O  O80  1  0.500900  0.893000  0.916800  1.0  -0.7031
