# generated using pymatgen
data_EuH3C8NO7
_symmetry_space_group_name_H-M   'P 1'
_cell_length_a   7.72970000
_cell_length_b   10.27250000
_cell_length_c   16.02340000
_cell_angle_alpha   86.81700000
_cell_angle_beta   85.97400000
_cell_angle_gamma   77.10700000
_symmetry_Int_Tables_number   1
_chemical_formula_structural   EuH3C8NO7
_chemical_formula_sum   'Eu4 H12 C32 N4 O28'
_cell_volume   1236.13421445
_cell_formula_units_Z   4
loop_
 _symmetry_equiv_pos_site_id
 _symmetry_equiv_pos_as_xyz
  1  'x, y, z'
loop_
 _atom_site_type_symbol
 _atom_site_label
 _atom_site_symmetry_multiplicity
 _atom_site_fract_x
 _atom_site_fract_y
 _atom_site_fract_z
 _atom_site_occupancy
 _atom_site_charge
  Eu  Eu1  1  0.354390  0.336270  0.063250  1.0  2.1333
  Eu  Eu2  1  0.615100  0.868380  0.324660  1.0  2.0955
  Eu  Eu3  1  0.645610  0.663730  0.936750  1.0  2.1333
  Eu  Eu4  1  0.384900  0.131620  0.675340  1.0  2.0953
  H  H5  1  0.163200  0.524500  0.704700  1.0  0.1164
  H  H6  1  0.910500  0.644000  0.640900  1.0  0.1113
  H  H7  1  0.667800  0.545400  0.631200  1.0  0.1155
  H  H8  1  0.088500  0.883800  0.810000  1.0  0.1148
  H  H9  1  0.923300  0.889700  0.937300  1.0  0.1137
  H  H10  1  0.753100  0.092700  0.983000  1.0  0.1037
  H  H11  1  0.836800  0.475500  0.295300  1.0  0.1164
  H  H12  1  0.089500  0.356000  0.359100  1.0  0.1102
  H  H13  1  0.332200  0.454600  0.368800  1.0  0.1155
  H  H14  1  0.911500  0.116200  0.190000  1.0  0.1152
  H  H15  1  0.076700  0.110300  0.062700  1.0  0.1149
  H  H16  1  0.246900  0.907300  0.017000  1.0  0.1036
  C  C17  1  0.060600  0.487900  0.705100  1.0  0.0026
  C  C18  1  0.912400  0.557300  0.665400  1.0  -0.1326
  C  C19  1  0.766700  0.500600  0.661500  1.0  -0.0508
  C  C20  1  0.766400  0.377900  0.702200  1.0  -0.1349
  C  C21  1  0.911700  0.315000  0.746700  1.0  0.0914
  C  C22  1  0.619600  0.305100  0.693800  1.0  0.6859
  C  C23  1  0.018200  0.966400  0.828500  1.0  0.0003
  C  C24  1  0.921200  0.969500  0.904200  1.0  -0.095
  C  C25  1  0.821000  0.089700  0.931100  1.0  0.0058
  C  C26  1  0.818800  0.206300  0.883000  1.0  -0.1537
  C  C27  1  0.917700  0.198500  0.806500  1.0  0.0856
  C  C28  1  0.714900  0.338800  0.912200  1.0  0.737
  C  C29  1  0.949000  0.467000  0.035800  1.0  0.6061
  C  C30  1  0.425400  0.958300  0.508000  1.0  0.5637
  C  C31  1  0.512600  0.061300  0.157900  1.0  0.5867
  C  C32  1  0.389500  0.138600  0.225400  1.0  0.5754
  C  C33  1  0.939400  0.512100  0.294900  1.0  0.0006
  C  C34  1  0.087600  0.442700  0.334600  1.0  -0.1346
  C  C35  1  0.233300  0.499400  0.338500  1.0  -0.0512
  C  C36  1  0.233600  0.622100  0.297800  1.0  -0.1368
  C  C37  1  0.088300  0.685000  0.253300  1.0  0.0916
  C  C38  1  0.380400  0.694900  0.306200  1.0  0.6872
  C  C39  1  0.981800  0.033600  0.171500  1.0  0.0024
  C  C40  1  0.078800  0.030500  0.095800  1.0  -0.0938
  C  C41  1  0.179000  0.910300  0.068900  1.0  0.0044
  C  C42  1  0.181200  0.793700  0.117000  1.0  -0.1533
  C  C43  1  0.082300  0.801500  0.193500  1.0  0.0854
  C  C44  1  0.285100  0.661200  0.087800  1.0  0.737
  C  C45  1  0.051000  0.533000  0.964200  1.0  0.6078
  C  C46  1  0.574600  0.041700  0.492000  1.0  0.5633
  C  C47  1  0.487400  0.938700  0.842100  1.0  0.5875
  C  C48  1  0.610500  0.861400  0.774600  1.0  0.5753
  N  N49  1  0.059900  0.368900  0.744000  1.0  0.3283
  N  N50  1  0.014900  0.078800  0.780500  1.0  0.3404
  N  N51  1  0.940100  0.631100  0.256000  1.0  0.3271
  N  N52  1  0.985100  0.921200  0.219500  1.0  0.34
  O  O53  1  0.206400  0.297300  0.777400  1.0  -0.6628
  O  O54  1  0.099700  0.072700  0.704800  1.0  -0.6634
  O  O55  1  0.490500  0.356000  0.651900  1.0  -0.6409
  O  O56  1  0.640100  0.188100  0.728800  1.0  -0.5909
  O  O57  1  0.759500  0.443500  0.882000  1.0  -0.6275
  O  O58  1  0.591900  0.338100  0.967700  1.0  -0.7886
  O  O59  1  0.785900  0.515700  0.048500  1.0  -0.6254
  O  O60  1  0.037900  0.368500  0.076200  1.0  -0.602
  O  O61  1  0.337800  0.970500  0.575900  1.0  -0.5712
  O  O62  1  0.406800  0.889500  0.447300  1.0  -0.5947
  O  O63  1  0.397300  0.088300  0.299500  1.0  -0.631
  O  O64  1  0.617900  0.955500  0.181300  1.0  -0.6556
  O  O65  1  0.290800  0.247500  0.203000  1.0  -0.583
  O  O66  1  0.500200  0.106700  0.083200  1.0  -0.7056
  O  O67  1  0.793600  0.702700  0.222600  1.0  -0.6621
  O  O68  1  0.900300  0.927300  0.295200  1.0  -0.6665
  O  O69  1  0.509500  0.644000  0.348100  1.0  -0.6403
  O  O70  1  0.359900  0.811900  0.271200  1.0  -0.5932
  O  O71  1  0.240500  0.556500  0.118000  1.0  -0.6283
  O  O72  1  0.408100  0.661900  0.032300  1.0  -0.7874
  O  O73  1  0.214100  0.484300  0.951500  1.0  -0.6256
  O  O74  1  0.962100  0.631500  0.923800  1.0  -0.6027
  O  O75  1  0.662200  0.029500  0.424100  1.0  -0.574
  O  O76  1  0.593200  0.110500  0.552700  1.0  -0.5949
  O  O77  1  0.602700  0.911700  0.700500  1.0  -0.6298
  O  O78  1  0.382100  0.044500  0.818700  1.0  -0.6562
  O  O79  1  0.709200  0.752500  0.797000  1.0  -0.5834
  O  O80  1  0.499800  0.893300  0.916800  1.0  -0.7041
