# generated using pymatgen
data_Ni2H22C34N2O11
_symmetry_space_group_name_H-M   'P 1'
_cell_length_a   17.08800000
_cell_length_b   14.76900000
_cell_length_c   14.16500000
_cell_angle_alpha   90.00000000
_cell_angle_beta   116.03900000
_cell_angle_gamma   90.00000000
_symmetry_Int_Tables_number   1
_chemical_formula_structural   Ni2H22C34N2O11
_chemical_formula_sum   'Ni8 H88 C136 N8 O44'
_cell_volume   3211.99444907
_cell_formula_units_Z   4
loop_
 _symmetry_equiv_pos_site_id
 _symmetry_equiv_pos_as_xyz
  1  'x, y, z'
loop_
 _atom_site_type_symbol
 _atom_site_label
 _atom_site_symmetry_multiplicity
 _atom_site_fract_x
 _atom_site_fract_y
 _atom_site_fract_z
 _atom_site_occupancy
 _atom_site_charge
  Ni  Ni1  1  0.794980  0.001510  0.998050  1.0  1.0122
  Ni  Ni2  1  0.804730  0.015930  0.254530  1.0  1.0031
  Ni  Ni3  1  0.294980  0.501510  0.998050  1.0  1.0122
  Ni  Ni4  1  0.304730  0.515930  0.254530  1.0  1.0031
  Ni  Ni5  1  0.794980  0.998490  0.498050  1.0  1.0072
  Ni  Ni6  1  0.804730  0.984070  0.754530  1.0  1.0027
  Ni  Ni7  1  0.294980  0.498490  0.498050  1.0  1.0072
  Ni  Ni8  1  0.304730  0.484070  0.754530  1.0  1.0028
  H  H9  1  0.375300  0.794500  0.290200  1.0  0.1347
  H  H10  1  0.226200  0.808700  0.185300  1.0  0.1306
  H  H11  1  0.252600  0.071400  0.163200  1.0  0.1547
  H  H12  1  0.401300  0.057700  0.280600  1.0  0.1222
  H  H13  1  0.980800  0.106200  0.990100  1.0  0.1174
  H  H14  1  0.126200  0.091100  0.092700  1.0  0.1547
  H  H15  1  0.099000  0.823500  0.072800  1.0  0.1259
  H  H16  1  0.953300  0.839000  0.968400  1.0  0.1386
  H  H17  1  0.777200  0.271500  0.908400  1.0  0.1172
  H  H18  1  0.799300  0.415300  0.973900  1.0  0.114
  H  H19  1  0.682600  0.518300  0.916900  1.0  0.1142
  H  H20  1  0.546700  0.473600  0.801500  1.0  0.1077
  H  H21  1  0.428600  0.213600  0.608800  1.0  0.1137
  H  H22  1  0.541800  0.118300  0.656300  1.0  0.1031
  H  H23  1  0.833900  0.739100  0.048200  1.0  0.1154
  H  H24  1  0.823500  0.607400  0.960300  1.0  0.1225
  H  H25  1  0.943500  0.507300  0.020200  1.0  0.103
  H  H26  1  0.067900  0.541200  0.160800  1.0  0.103
  H  H27  1  0.167000  0.774600  0.397400  1.0  0.1056
  H  H28  1  0.049500  0.879200  0.342000  1.0  0.1071
  H  H29  1  0.686700  0.982700  0.072900  1.0  0.4101
  H  H30  1  0.701600  0.074100  0.074300  1.0  0.4083
  H  H31  1  0.875300  0.294500  0.290200  1.0  0.1347
  H  H32  1  0.726200  0.308700  0.185300  1.0  0.1306
  H  H33  1  0.752600  0.571400  0.163200  1.0  0.1547
  H  H34  1  0.901300  0.557700  0.280600  1.0  0.1222
  H  H35  1  0.480800  0.606200  0.990100  1.0  0.1175
  H  H36  1  0.626200  0.591100  0.092700  1.0  0.1547
  H  H37  1  0.599000  0.323500  0.072800  1.0  0.1259
  H  H38  1  0.453300  0.339000  0.968400  1.0  0.1386
  H  H39  1  0.277200  0.771500  0.908400  1.0  0.1172
  H  H40  1  0.299300  0.915300  0.973900  1.0  0.114
  H  H41  1  0.182600  0.018300  0.916900  1.0  0.1142
  H  H42  1  0.046700  0.973600  0.801500  1.0  0.1077
  H  H43  1  0.928600  0.713600  0.608800  1.0  0.1137
  H  H44  1  0.041800  0.618300  0.656300  1.0  0.1031
  H  H45  1  0.333900  0.239100  0.048200  1.0  0.1154
  H  H46  1  0.323500  0.107400  0.960300  1.0  0.1225
  H  H47  1  0.443500  0.007300  0.020200  1.0  0.103
  H  H48  1  0.567900  0.041200  0.160800  1.0  0.103
  H  H49  1  0.667000  0.274600  0.397400  1.0  0.1056
  H  H50  1  0.549500  0.379200  0.342000  1.0  0.1071
  H  H51  1  0.186700  0.482700  0.072900  1.0  0.4101
  H  H52  1  0.201600  0.574100  0.074300  1.0  0.4083
  H  H53  1  0.375300  0.205500  0.790200  1.0  0.1345
  H  H54  1  0.226200  0.191300  0.685300  1.0  0.1312
  H  H55  1  0.252600  0.928600  0.663200  1.0  0.1531
  H  H56  1  0.401300  0.942300  0.780600  1.0  0.1224
  H  H57  1  0.980800  0.893800  0.490100  1.0  0.1168
  H  H58  1  0.126200  0.908900  0.592700  1.0  0.154
  H  H59  1  0.099000  0.176500  0.572800  1.0  0.1265
  H  H60  1  0.953300  0.161000  0.468400  1.0  0.1393
  H  H61  1  0.777200  0.728500  0.408400  1.0  0.1171
  H  H62  1  0.799300  0.584700  0.473900  1.0  0.1142
  H  H63  1  0.682600  0.481700  0.416900  1.0  0.1142
  H  H64  1  0.546700  0.526400  0.301500  1.0  0.1072
  H  H65  1  0.428600  0.786400  0.108800  1.0  0.1137
  H  H66  1  0.541800  0.881700  0.156300  1.0  0.1036
  H  H67  1  0.833900  0.260900  0.548200  1.0  0.115
  H  H68  1  0.823500  0.392600  0.460300  1.0  0.1225
  H  H69  1  0.943500  0.492700  0.520200  1.0  0.1036
  H  H70  1  0.067900  0.458800  0.660800  1.0  0.103
  H  H71  1  0.167000  0.225400  0.897400  1.0  0.1053
  H  H72  1  0.049500  0.120800  0.842000  1.0  0.1075
  H  H73  1  0.686700  0.017300  0.572900  1.0  0.4118
  H  H74  1  0.701600  0.925900  0.574300  1.0  0.4042
  H  H75  1  0.875300  0.705500  0.790200  1.0  0.1345
  H  H76  1  0.726200  0.691300  0.685300  1.0  0.1312
  H  H77  1  0.752600  0.428600  0.663200  1.0  0.1531
  H  H78  1  0.901300  0.442300  0.780600  1.0  0.1224
  H  H79  1  0.480800  0.393800  0.490100  1.0  0.1168
  H  H80  1  0.626200  0.408900  0.592700  1.0  0.154
  H  H81  1  0.599000  0.676500  0.572800  1.0  0.1265
  H  H82  1  0.453300  0.661000  0.468400  1.0  0.1393
  H  H83  1  0.277200  0.228500  0.408400  1.0  0.1171
  H  H84  1  0.299300  0.084700  0.473900  1.0  0.1142
  H  H85  1  0.182600  0.981700  0.416900  1.0  0.1142
  H  H86  1  0.046700  0.026400  0.301500  1.0  0.1072
  H  H87  1  0.928600  0.286400  0.108800  1.0  0.1137
  H  H88  1  0.041800  0.381700  0.156300  1.0  0.1036
  H  H89  1  0.333900  0.760900  0.548200  1.0  0.115
  H  H90  1  0.323500  0.892600  0.460300  1.0  0.1225
  H  H91  1  0.443500  0.992700  0.520200  1.0  0.1036
  H  H92  1  0.567900  0.958800  0.660800  1.0  0.103
  H  H93  1  0.667000  0.725400  0.897400  1.0  0.1053
  H  H94  1  0.549500  0.620800  0.842000  1.0  0.1075
  H  H95  1  0.186700  0.517300  0.572900  1.0  0.4118
  H  H96  1  0.201600  0.425900  0.574300  1.0  0.4042
  C  C97  1  0.350500  0.851000  0.266400  1.0  0.0098
  C  C98  1  0.261400  0.860000  0.203000  1.0  -0.0857
  C  C99  1  0.224400  0.943200  0.166200  1.0  -0.0176
  C  C100  1  0.275700  0.015000  0.190800  1.0  -0.1432
  C  C101  1  0.366100  0.006600  0.259300  1.0  0.0388
  C  C102  1  0.004600  0.048500  0.007000  1.0  0.0336
  C  C103  1  0.091500  0.039600  0.069400  1.0  -0.1369
  C  C104  1  0.128600  0.955600  0.098200  1.0  -0.0234
  C  C105  1  0.075000  0.881200  0.057000  1.0  -0.1008
  C  C106  1  0.988200  0.890000  0.994300  1.0  -0.0027
  C  C107  1  0.646100  0.279800  0.814200  1.0  0.0142
  C  C108  1  0.730300  0.311100  0.886900  1.0  -0.0828
  C  C109  1  0.744000  0.397200  0.925600  1.0  -0.1306
  C  C110  1  0.673300  0.459100  0.891900  1.0  -0.1178
  C  C111  1  0.592400  0.432200  0.823300  1.0  -0.0831
  C  C112  1  0.576100  0.344300  0.785100  1.0  -0.014
  C  C113  1  0.491000  0.315200  0.708500  1.0  -0.0935
  C  C114  1  0.482400  0.230800  0.661700  1.0  -0.0777
  C  C115  1  0.550000  0.173500  0.691000  1.0  -0.0725
  C  C116  1  0.630200  0.193000  0.769700  1.0  -0.0823
  C  C117  1  0.414300  0.378800  0.678900  1.0  0.6731
  C  C118  1  0.700000  0.123700  0.809500  1.0  0.7116
  C  C119  1  0.960000  0.725000  0.158200  1.0  0.0286
  C  C120  1  0.881600  0.700400  0.070500  1.0  -0.0947
  C  C121  1  0.874800  0.622100  0.018700  1.0  -0.1431
  C  C122  1  0.948000  0.561800  0.055100  1.0  -0.0644
  C  C123  1  0.021900  0.582200  0.137700  1.0  -0.098
  C  C124  1  0.032200  0.667900  0.192500  1.0  0.0179
  C  C125  1  0.109700  0.688600  0.280900  1.0  -0.0185
  C  C126  1  0.116100  0.763100  0.336900  1.0  -0.0905
  C  C127  1  0.044200  0.826300  0.304200  1.0  -0.093
  C  C128  1  0.968100  0.807400  0.216800  1.0  -0.1013
  C  C129  1  0.187200  0.626300  0.318500  1.0  0.7113
  C  C130  1  0.898700  0.881600  0.181600  1.0  0.6946
  C  C131  1  0.850500  0.351000  0.266400  1.0  0.0098
  C  C132  1  0.761400  0.360000  0.203000  1.0  -0.0857
  C  C133  1  0.724400  0.443200  0.166200  1.0  -0.0176
  C  C134  1  0.775700  0.515000  0.190800  1.0  -0.1432
  C  C135  1  0.866100  0.506600  0.259300  1.0  0.0388
  C  C136  1  0.504600  0.548500  0.007000  1.0  0.0336
  C  C137  1  0.591500  0.539600  0.069400  1.0  -0.1369
  C  C138  1  0.628600  0.455600  0.098200  1.0  -0.0234
  C  C139  1  0.575000  0.381200  0.057000  1.0  -0.1008
  C  C140  1  0.488200  0.390000  0.994300  1.0  -0.0027
  C  C141  1  0.146100  0.779800  0.814200  1.0  0.0142
  C  C142  1  0.230300  0.811100  0.886900  1.0  -0.0828
  C  C143  1  0.244000  0.897200  0.925600  1.0  -0.1306
  C  C144  1  0.173300  0.959100  0.891900  1.0  -0.1178
  C  C145  1  0.092400  0.932200  0.823300  1.0  -0.0831
  C  C146  1  0.076100  0.844300  0.785100  1.0  -0.014
  C  C147  1  0.991000  0.815200  0.708500  1.0  -0.0935
  C  C148  1  0.982400  0.730800  0.661700  1.0  -0.0777
  C  C149  1  0.050000  0.673500  0.691000  1.0  -0.0725
  C  C150  1  0.130200  0.693000  0.769700  1.0  -0.0823
  C  C151  1  0.914300  0.878800  0.678900  1.0  0.6731
  C  C152  1  0.200000  0.623700  0.809500  1.0  0.7116
  C  C153  1  0.460000  0.225000  0.158200  1.0  0.0286
  C  C154  1  0.381600  0.200400  0.070500  1.0  -0.0947
  C  C155  1  0.374800  0.122100  0.018700  1.0  -0.1431
  C  C156  1  0.448000  0.061800  0.055100  1.0  -0.0644
  C  C157  1  0.521900  0.082200  0.137700  1.0  -0.098
  C  C158  1  0.532200  0.167900  0.192500  1.0  0.0179
  C  C159  1  0.609700  0.188600  0.280900  1.0  -0.0185
  C  C160  1  0.616100  0.263100  0.336900  1.0  -0.0905
  C  C161  1  0.544200  0.326300  0.304200  1.0  -0.093
  C  C162  1  0.468100  0.307400  0.216800  1.0  -0.1013
  C  C163  1  0.687200  0.126300  0.318500  1.0  0.7113
  C  C164  1  0.398700  0.381600  0.181600  1.0  0.6946
  C  C165  1  0.350500  0.149000  0.766400  1.0  0.0096
  C  C166  1  0.261400  0.140000  0.703000  1.0  -0.0842
  C  C167  1  0.224400  0.056800  0.666200  1.0  -0.0177
  C  C168  1  0.275700  0.985000  0.690800  1.0  -0.1431
  C  C169  1  0.366100  0.993400  0.759300  1.0  0.0383
  C  C170  1  0.004600  0.951500  0.507000  1.0  0.0346
  C  C171  1  0.091500  0.960400  0.569400  1.0  -0.1371
  C  C172  1  0.128600  0.044400  0.598200  1.0  -0.0236
  C  C173  1  0.075000  0.118800  0.557000  1.0  -0.1009
  C  C174  1  0.988200  0.110000  0.494300  1.0  -0.0021
  C  C175  1  0.646100  0.720200  0.314200  1.0  0.0147
  C  C176  1  0.730300  0.688900  0.386900  1.0  -0.0823
  C  C177  1  0.744000  0.602800  0.425600  1.0  -0.13
  C  C178  1  0.673300  0.540900  0.391900  1.0  -0.1167
  C  C179  1  0.592400  0.567800  0.323300  1.0  -0.0835
  C  C180  1  0.576100  0.655700  0.285100  1.0  -0.0134
  C  C181  1  0.491000  0.684800  0.208500  1.0  -0.0935
  C  C182  1  0.482400  0.769200  0.161700  1.0  -0.0786
  C  C183  1  0.550000  0.826500  0.191000  1.0  -0.073
  C  C184  1  0.630200  0.807000  0.269700  1.0  -0.0826
  C  C185  1  0.414300  0.621200  0.178900  1.0  0.6733
  C  C186  1  0.700000  0.876300  0.309500  1.0  0.7119
  C  C187  1  0.960000  0.275000  0.658200  1.0  0.0294
  C  C188  1  0.881600  0.299600  0.570500  1.0  -0.0949
  C  C189  1  0.874800  0.377900  0.518700  1.0  -0.1434
  C  C190  1  0.948000  0.438200  0.555100  1.0  -0.0647
  C  C191  1  0.021900  0.417800  0.637700  1.0  -0.0983
  C  C192  1  0.032200  0.332100  0.692500  1.0  0.0179
  C  C193  1  0.109700  0.311400  0.780900  1.0  -0.0178
  C  C194  1  0.116100  0.236900  0.836900  1.0  -0.0903
  C  C195  1  0.044200  0.173700  0.804200  1.0  -0.0936
  C  C196  1  0.968100  0.192600  0.716800  1.0  -0.101
  C  C197  1  0.187200  0.373700  0.818500  1.0  0.7114
  C  C198  1  0.898700  0.118400  0.681600  1.0  0.6935
  C  C199  1  0.850500  0.649000  0.766400  1.0  0.0096
  C  C200  1  0.761400  0.640000  0.703000  1.0  -0.0842
  C  C201  1  0.724400  0.556800  0.666200  1.0  -0.0177
  C  C202  1  0.775700  0.485000  0.690800  1.0  -0.1431
  C  C203  1  0.866100  0.493400  0.759300  1.0  0.0383
  C  C204  1  0.504600  0.451500  0.507000  1.0  0.0346
  C  C205  1  0.591500  0.460400  0.569400  1.0  -0.1371
  C  C206  1  0.628600  0.544400  0.598200  1.0  -0.0236
  C  C207  1  0.575000  0.618800  0.557000  1.0  -0.1009
  C  C208  1  0.488200  0.610000  0.494300  1.0  -0.0021
  C  C209  1  0.146100  0.220200  0.314200  1.0  0.0147
  C  C210  1  0.230300  0.188900  0.386900  1.0  -0.0823
  C  C211  1  0.244000  0.102800  0.425600  1.0  -0.13
  C  C212  1  0.173300  0.040900  0.391900  1.0  -0.1167
  C  C213  1  0.092400  0.067800  0.323300  1.0  -0.0835
  C  C214  1  0.076100  0.155700  0.285100  1.0  -0.0134
  C  C215  1  0.991000  0.184800  0.208500  1.0  -0.0935
  C  C216  1  0.982400  0.269200  0.161700  1.0  -0.0786
  C  C217  1  0.050000  0.326500  0.191000  1.0  -0.073
  C  C218  1  0.130200  0.307000  0.269700  1.0  -0.0826
  C  C219  1  0.914300  0.121200  0.178900  1.0  0.6733
  C  C220  1  0.200000  0.376300  0.309500  1.0  0.7119
  C  C221  1  0.460000  0.775000  0.658200  1.0  0.0294
  C  C222  1  0.381600  0.799600  0.570500  1.0  -0.0949
  C  C223  1  0.374800  0.877900  0.518700  1.0  -0.1434
  C  C224  1  0.448000  0.938200  0.555100  1.0  -0.0647
  C  C225  1  0.521900  0.917800  0.637700  1.0  -0.0983
  C  C226  1  0.532200  0.832100  0.692500  1.0  0.0179
  C  C227  1  0.609700  0.811400  0.780900  1.0  -0.0178
  C  C228  1  0.616100  0.736900  0.836900  1.0  -0.0903
  C  C229  1  0.544200  0.673700  0.804200  1.0  -0.0936
  C  C230  1  0.468100  0.692600  0.716800  1.0  -0.101
  C  C231  1  0.687200  0.873700  0.818500  1.0  0.7114
  C  C232  1  0.398700  0.618400  0.681600  1.0  0.6935
  N  N233  1  0.399200  0.926200  0.292200  1.0  0.3231
  N  N234  1  0.952300  0.976200  0.969200  1.0  0.1778
  N  N235  1  0.899200  0.426200  0.292200  1.0  0.3231
  N  N236  1  0.452300  0.476200  0.969200  1.0  0.1778
  N  N237  1  0.399200  0.073800  0.792200  1.0  0.3233
  N  N238  1  0.952300  0.023800  0.469200  1.0  0.1775
  N  N239  1  0.899200  0.573800  0.792200  1.0  0.3233
  N  N240  1  0.452300  0.523800  0.469200  1.0  0.1775
  O  O241  1  0.484900  0.916900  0.355200  1.0  -0.5143
  O  O242  1  0.868300  0.986700  0.915200  1.0  -0.6771
  O  O243  1  0.385300  0.411000  0.590300  1.0  -0.5836
  O  O244  1  0.388400  0.388800  0.748100  1.0  -0.5878
  O  O245  1  0.729500  0.108500  0.905800  1.0  -0.5937
  O  O246  1  0.717600  0.080500  0.745200  1.0  -0.5831
  O  O247  1  0.889000  0.918400  0.254400  1.0  -0.5837
  O  O248  1  0.859700  0.896300  0.086400  1.0  -0.5785
  O  O249  1  0.225100  0.616900  0.261500  1.0  -0.584
  O  O250  1  0.203500  0.586700  0.403500  1.0  -0.6045
  O  O251  1  0.726400  0.022700  0.089600  1.0  -0.8117
  O  O252  1  0.984900  0.416900  0.355200  1.0  -0.5143
  O  O253  1  0.368300  0.486700  0.915200  1.0  -0.6771
  O  O254  1  0.885300  0.911000  0.590300  1.0  -0.5836
  O  O255  1  0.888400  0.888800  0.748100  1.0  -0.5878
  O  O256  1  0.229500  0.608500  0.905800  1.0  -0.5937
  O  O257  1  0.217600  0.580500  0.745200  1.0  -0.5831
  O  O258  1  0.389000  0.418400  0.254400  1.0  -0.5837
  O  O259  1  0.359700  0.396300  0.086400  1.0  -0.5785
  O  O260  1  0.725100  0.116900  0.261500  1.0  -0.584
  O  O261  1  0.703500  0.086700  0.403500  1.0  -0.6045
  O  O262  1  0.226400  0.522700  0.089600  1.0  -0.8117
  O  O263  1  0.484900  0.083100  0.855200  1.0  -0.514
  O  O264  1  0.868300  0.013300  0.415200  1.0  -0.6769
  O  O265  1  0.385300  0.589000  0.090300  1.0  -0.5842
  O  O266  1  0.388400  0.611200  0.248100  1.0  -0.5879
  O  O267  1  0.729500  0.891500  0.405800  1.0  -0.593
  O  O268  1  0.717600  0.919500  0.245200  1.0  -0.5833
  O  O269  1  0.889000  0.081600  0.754400  1.0  -0.5844
  O  O270  1  0.859700  0.103700  0.586400  1.0  -0.5783
  O  O271  1  0.225100  0.383100  0.761500  1.0  -0.5841
  O  O272  1  0.203500  0.413300  0.903500  1.0  -0.6047
  O  O273  1  0.726400  0.977300  0.589600  1.0  -0.8122
  O  O274  1  0.984900  0.583100  0.855200  1.0  -0.514
  O  O275  1  0.368300  0.513300  0.415200  1.0  -0.6769
  O  O276  1  0.885300  0.089000  0.090300  1.0  -0.5842
  O  O277  1  0.888400  0.111200  0.248100  1.0  -0.5879
  O  O278  1  0.229500  0.391500  0.405800  1.0  -0.593
  O  O279  1  0.217600  0.419500  0.245200  1.0  -0.5833
  O  O280  1  0.389000  0.581600  0.754400  1.0  -0.5844
  O  O281  1  0.359700  0.603700  0.586400  1.0  -0.5783
  O  O282  1  0.725100  0.883100  0.761500  1.0  -0.5841
  O  O283  1  0.703500  0.913300  0.903500  1.0  -0.6047
  O  O284  1  0.226400  0.477300  0.589600  1.0  -0.8122
