# generated using pymatgen
data_Cd3H104C84(N11O6)4
_symmetry_space_group_name_H-M   'P 1'
_cell_length_a   13.62050000
_cell_length_b   15.41510000
_cell_length_c   15.97940000
_cell_angle_alpha   88.44000000
_cell_angle_beta   65.05100000
_cell_angle_gamma   75.63200000
_symmetry_Int_Tables_number   1
_chemical_formula_structural   Cd3H104C84(N11O6)4
_chemical_formula_sum   'Cd3 H104 C84 N44 O24'
_cell_volume   2935.34924709
_cell_formula_units_Z   1
loop_
 _symmetry_equiv_pos_site_id
 _symmetry_equiv_pos_as_xyz
  1  'x, y, z'
loop_
 _atom_site_type_symbol
 _atom_site_label
 _atom_site_symmetry_multiplicity
 _atom_site_fract_x
 _atom_site_fract_y
 _atom_site_fract_z
 _atom_site_occupancy
 _atom_site_charge
  Cd  Cd1  1  0.988680  0.181290  0.190500  1.0  0.9682
  Cd  Cd2  1  0.011320  0.818710  0.809500  1.0  0.9683
  Cd  Cd3  1  0.000000  0.000000  0.000000  1.0  0.779
  H  H4  1  0.170000  0.106800  0.822700  1.0  0.1135
  H  H5  1  0.155400  0.277200  0.010500  1.0  0.1104
  H  H6  1  0.297300  0.173200  0.704600  1.0  0.0969
  H  H7  1  0.178300  0.242300  0.725600  1.0  0.0901
  H  H8  1  0.322100  0.278600  0.588500  1.0  0.0859
  H  H9  1  0.473500  0.224800  0.628600  1.0  0.0997
  H  H10  1  0.468400  0.325900  0.600600  1.0  0.1026
  H  H11  1  0.495300  0.310300  0.738000  1.0  0.0881
  H  H12  1  0.352000  0.275600  0.875100  1.0  0.1147
  H  H13  1  0.403500  0.193500  0.796400  1.0  0.1056
  H  H14  1  0.097400  0.370700  0.847500  1.0  0.1079
  H  H15  1  0.162600  0.384400  0.907500  1.0  0.0947
  H  H16  1  0.167500  0.402600  0.682600  1.0  0.1037
  H  H17  1  0.279800  0.436000  0.632500  1.0  0.1008
  H  H18  1  0.388400  0.454600  0.725400  1.0  0.1126
  H  H19  1  0.341300  0.433800  0.832200  1.0  0.0943
  H  H20  1  0.156100  0.529600  0.935600  1.0  0.1167
  H  H21  1  0.139000  0.578700  0.698000  1.0  0.1164
  H  H22  1  0.048700  0.725300  0.603300  1.0  0.1184
  H  H23  1  0.238600  0.886100  0.470400  1.0  0.1133
  H  H24  1  0.320600  0.751000  0.341900  1.0  0.0934
  H  H25  1  0.295500  0.659500  0.385500  1.0  0.0931
  H  H26  1  0.353800  0.641900  0.222300  1.0  0.0928
  H  H27  1  0.291600  0.796600  0.200500  1.0  0.1084
  H  H28  1  0.243900  0.736000  0.154400  1.0  0.0891
  H  H29  1  0.163600  0.884000  0.357500  1.0  0.0812
  H  H30  1  0.035800  0.878200  0.409500  1.0  0.1103
  H  H31  1  0.093400  0.649100  0.467300  1.0  0.0936
  H  H32  1  0.993200  0.735000  0.476800  1.0  0.0954
  H  H33  1  0.024700  0.628700  0.356000  1.0  0.0993
  H  H34  1  0.201000  0.594400  0.222400  1.0  0.0906
  H  H35  1  0.220000  0.563700  0.312300  1.0  0.083
  H  H36  1  0.962400  0.785200  0.335900  1.0  0.1125
  H  H37  1  0.042300  0.730200  0.236600  1.0  0.0996
  H  H38  1  0.081000  0.829600  0.119000  1.0  0.1172
  H  H39  1  0.074400  0.002200  0.301800  1.0  0.1197
  H  H40  1  0.267300  0.890100  0.957300  1.0  0.124
  H  H41  1  0.287500  0.724500  0.761000  1.0  0.1164
  H  H42  1  0.402700  0.611200  0.813100  1.0  0.0893
  H  H43  1  0.480100  0.660300  0.731100  1.0  0.1057
  H  H44  1  0.595200  0.528900  0.758500  1.0  0.0892
  H  H45  1  0.601300  0.517800  0.905500  1.0  0.0886
  H  H46  1  0.475900  0.525200  0.918500  1.0  0.0786
  H  H47  1  0.472300  0.626400  0.030500  1.0  0.0833
  H  H48  1  0.358700  0.758600  0.003200  1.0  0.0844
  H  H49  1  0.327800  0.671400  0.979000  1.0  0.1101
  H  H50  1  0.529300  0.797400  0.767800  1.0  0.11
  H  H51  1  0.481200  0.836800  0.873700  1.0  0.101
  H  H52  1  0.725300  0.596000  0.776500  1.0  0.0986
  H  H53  1  0.677200  0.651300  0.709200  1.0  0.1148
  H  H54  1  0.649400  0.657200  0.944500  1.0  0.1003
  H  H55  1  0.553300  0.750100  0.981700  1.0  0.1109
  H  H56  1  0.830000  0.893200  0.177300  1.0  0.1131
  H  H57  1  0.844600  0.722800  0.989500  1.0  0.1106
  H  H58  1  0.702700  0.826800  0.295400  1.0  0.0993
  H  H59  1  0.821700  0.757700  0.274400  1.0  0.0913
  H  H60  1  0.677900  0.721400  0.411500  1.0  0.084
  H  H61  1  0.526500  0.775200  0.371400  1.0  0.1
  H  H62  1  0.531600  0.674100  0.399400  1.0  0.1035
  H  H63  1  0.504700  0.689700  0.262000  1.0  0.0866
  H  H64  1  0.648000  0.724400  0.124900  1.0  0.1169
  H  H65  1  0.596500  0.806500  0.203600  1.0  0.1074
  H  H66  1  0.902600  0.629300  0.152500  1.0  0.1084
  H  H67  1  0.837400  0.615600  0.092500  1.0  0.0952
  H  H68  1  0.832500  0.597400  0.317400  1.0  0.1051
  H  H69  1  0.720200  0.564000  0.367500  1.0  0.1032
  H  H70  1  0.611600  0.545400  0.274600  1.0  0.1135
  H  H71  1  0.658700  0.566200  0.167800  1.0  0.0952
  H  H72  1  0.843900  0.470400  0.064400  1.0  0.1161
  H  H73  1  0.861000  0.421300  0.302000  1.0  0.1164
  H  H74  1  0.951300  0.274700  0.396700  1.0  0.1178
  H  H75  1  0.761400  0.113900  0.529600  1.0  0.1134
  H  H76  1  0.679400  0.249000  0.658100  1.0  0.0923
  H  H77  1  0.704500  0.340500  0.614500  1.0  0.0931
  H  H78  1  0.646200  0.358100  0.777700  1.0  0.0919
  H  H79  1  0.708400  0.203400  0.799500  1.0  0.1077
  H  H80  1  0.756100  0.264000  0.845600  1.0  0.0889
  H  H81  1  0.836400  0.116000  0.642500  1.0  0.0814
  H  H82  1  0.964200  0.121800  0.590500  1.0  0.1109
  H  H83  1  0.906600  0.350900  0.532700  1.0  0.0912
  H  H84  1  0.006800  0.265000  0.523200  1.0  0.0959
  H  H85  1  0.975300  0.371300  0.644000  1.0  0.0994
  H  H86  1  0.799000  0.405600  0.777600  1.0  0.0899
  H  H87  1  0.780000  0.436300  0.687700  1.0  0.0844
  H  H88  1  0.037600  0.214800  0.664100  1.0  0.1103
  H  H89  1  0.957700  0.269800  0.763400  1.0  0.0979
  H  H90  1  0.919000  0.170400  0.881000  1.0  0.1167
  H  H91  1  0.925600  0.997800  0.698200  1.0  0.1201
  H  H92  1  0.732700  0.109900  0.042700  1.0  0.122
  H  H93  1  0.712500  0.275500  0.239000  1.0  0.1157
  H  H94  1  0.597300  0.388800  0.186900  1.0  0.092
  H  H95  1  0.519900  0.339700  0.268900  1.0  0.1057
  H  H96  1  0.404800  0.471100  0.241500  1.0  0.0879
  H  H97  1  0.398700  0.482200  0.094500  1.0  0.0884
  H  H98  1  0.524100  0.474800  0.081500  1.0  0.0805
  H  H99  1  0.527700  0.373600  0.969500  1.0  0.0822
  H  H100  1  0.641300  0.241400  0.996800  1.0  0.0844
  H  H101  1  0.672200  0.328600  0.021000  1.0  0.1105
  H  H102  1  0.470700  0.202600  0.232200  1.0  0.111
  H  H103  1  0.518800  0.163200  0.126300  1.0  0.1007
  H  H104  1  0.274700  0.404000  0.223500  1.0  0.0997
  H  H105  1  0.322800  0.348700  0.290800  1.0  0.1171
  H  H106  1  0.350600  0.342800  0.055500  1.0  0.1013
  H  H107  1  0.446700  0.249900  0.018300  1.0  0.1114
  C  C108  1  0.154100  0.136100  0.880300  1.0  0.1624
  C  C109  1  0.145900  0.228500  0.982200  1.0  0.1503
  C  C110  1  0.243100  0.266700  0.817200  1.0  0.2521
  C  C111  1  0.253600  0.236800  0.722700  1.0  -0.2355
  C  C112  1  0.313800  0.297700  0.650900  1.0  0.0518
  C  C113  1  0.428900  0.288100  0.647400  1.0  -0.1611
  C  C114  1  0.418800  0.316500  0.741400  1.0  0.0893
  C  C115  1  0.359200  0.257100  0.813500  1.0  -0.2393
  C  C116  1  0.172400  0.365000  0.845300  1.0  -0.2137
  C  C117  1  0.234100  0.424600  0.772900  1.0  0.2669
  C  C118  1  0.243200  0.396800  0.679100  1.0  -0.2096
  C  C119  1  0.349500  0.415200  0.770300  1.0  -0.2383
  C  C120  1  0.140600  0.559600  0.888100  1.0  0.1725
  C  C121  1  0.130900  0.585700  0.759600  1.0  0.1674
  C  C122  1  0.091300  0.768400  0.589900  1.0  0.133
  C  C123  1  0.193900  0.855800  0.518400  1.0  0.1732
  C  C124  1  0.149900  0.761800  0.416100  1.0  0.2659
  C  C125  1  0.270400  0.710800  0.354300  1.0  -0.2375
  C  C126  1  0.275400  0.676700  0.262900  1.0  0.09
  C  C127  1  0.240200  0.757300  0.213800  1.0  -0.228
  C  C128  1  0.119800  0.810000  0.277200  1.0  0.2516
  C  C129  1  0.113400  0.843900  0.369100  1.0  -0.2168
  C  C130  1  0.070800  0.701300  0.435700  1.0  -0.2548
  C  C131  1  0.076100  0.668700  0.344000  1.0  0.0778
  C  C132  1  0.196800  0.616400  0.281700  1.0  -0.1881
  C  C133  1  0.040100  0.750700  0.295700  1.0  -0.2249
  C  C134  1  0.072600  0.883900  0.151000  1.0  0.1451
  C  C135  1  0.068600  0.977700  0.250600  1.0  0.1358
  C  C136  1  0.250100  0.862300  0.914700  1.0  0.1466
  C  C137  1  0.261200  0.772400  0.807500  1.0  0.1727
  C  C138  1  0.419200  0.728500  0.860800  1.0  0.2588
  C  C139  1  0.461400  0.644100  0.795400  1.0  -0.2285
  C  C140  1  0.566400  0.584500  0.801600  1.0  0.0916
  C  C141  1  0.534900  0.557800  0.900900  1.0  -0.1917
  C  C142  1  0.492300  0.643200  0.965600  1.0  0.0653
  C  C143  1  0.387400  0.703600  0.960500  1.0  -0.2448
  C  C144  1  0.509400  0.781000  0.832200  1.0  -0.2044
  C  C145  1  0.613000  0.719300  0.839700  1.0  0.2402
  C  C146  1  0.657200  0.634800  0.773600  1.0  -0.2141
  C  C147  1  0.582200  0.694800  0.939300  1.0  -0.2193
  C  C148  1  0.806000  0.741600  0.805800  1.0  0.2463
  C  C149  1  0.684000  0.863400  0.806600  1.0  0.1166
  C  C150  1  0.845900  0.863900  0.119700  1.0  0.1635
  C  C151  1  0.854100  0.771500  0.017800  1.0  0.1513
  C  C152  1  0.756900  0.733300  0.182800  1.0  0.252
  C  C153  1  0.746400  0.763200  0.277300  1.0  -0.2393
  C  C154  1  0.686200  0.702300  0.349100  1.0  0.0543
  C  C155  1  0.571100  0.711900  0.352600  1.0  -0.1605
  C  C156  1  0.581200  0.683500  0.258600  1.0  0.0898
  C  C157  1  0.640800  0.742900  0.186500  1.0  -0.2412
  C  C158  1  0.827600  0.635000  0.154700  1.0  -0.2127
  C  C159  1  0.765900  0.575400  0.227100  1.0  0.2664
  C  C160  1  0.756800  0.603200  0.320900  1.0  -0.2066
  C  C161  1  0.650500  0.584800  0.229700  1.0  -0.2406
  C  C162  1  0.859400  0.440400  0.111900  1.0  0.1729
  C  C163  1  0.869100  0.414300  0.240400  1.0  0.1679
  C  C164  1  0.908700  0.231600  0.410100  1.0  0.1339
  C  C165  1  0.806100  0.144200  0.481600  1.0  0.1731
  C  C166  1  0.850100  0.238200  0.583900  1.0  0.2623
  C  C167  1  0.729600  0.289200  0.645700  1.0  -0.2389
  C  C168  1  0.724600  0.323300  0.737100  1.0  0.0906
  C  C169  1  0.759800  0.242700  0.786200  1.0  -0.2286
  C  C170  1  0.880200  0.190000  0.722800  1.0  0.2517
  C  C171  1  0.886600  0.156100  0.630900  1.0  -0.2133
  C  C172  1  0.929200  0.298700  0.564300  1.0  -0.252
  C  C173  1  0.923900  0.331300  0.656000  1.0  0.0762
  C  C174  1  0.803200  0.383600  0.718300  1.0  -0.1914
  C  C175  1  0.959900  0.249300  0.704300  1.0  -0.225
  C  C176  1  0.927400  0.116100  0.849000  1.0  0.1442
  C  C177  1  0.931400  0.022300  0.749400  1.0  0.134
  C  C178  1  0.749900  0.137700  0.085300  1.0  0.1481
  C  C179  1  0.738800  0.227600  0.192500  1.0  0.1727
  C  C180  1  0.580800  0.271500  0.139200  1.0  0.2591
  C  C181  1  0.538600  0.355900  0.204600  1.0  -0.2247
  C  C182  1  0.433600  0.415500  0.198400  1.0  0.0913
  C  C183  1  0.465100  0.442200  0.099100  1.0  -0.1917
  C  C184  1  0.507700  0.356800  0.034400  1.0  0.0662
  C  C185  1  0.612600  0.296400  0.039500  1.0  -0.2449
  C  C186  1  0.490600  0.219000  0.167800  1.0  -0.2047
  C  C187  1  0.387000  0.280700  0.160300  1.0  0.2439
  C  C188  1  0.342800  0.365200  0.226400  1.0  -0.2161
  C  C189  1  0.417800  0.305200  0.060700  1.0  -0.2227
  C  C190  1  0.194000  0.258400  0.194200  1.0  0.2443
  C  C191  1  0.316000  0.136600  0.193400  1.0  0.1167
  N  N192  1  0.100100  0.109500  0.961200  1.0  -0.2043
  N  N193  1  0.094100  0.168900  0.027200  1.0  -0.239
  N  N194  1  0.184100  0.210800  0.889600  1.0  -0.0422
  N  N195  1  0.167800  0.519300  0.804400  1.0  -0.0649
  N  N196  1  0.090400  0.645000  0.895700  1.0  -0.2731
  N  N197  1  0.081900  0.661800  0.813500  1.0  -0.2415
  N  N198  1  0.105900  0.811100  0.651000  1.0  -0.175
  N  N199  1  0.171300  0.868600  0.606000  1.0  -0.289
  N  N200  1  0.145400  0.794000  0.504800  1.0  -0.0237
  N  N201  1  0.086400  0.889500  0.229700  1.0  -0.0362
  N  N202  1  0.045800  0.964700  0.125700  1.0  -0.2378
  N  N203  1  0.042100  0.025000  0.190100  1.0  -0.2231
  N  N204  1  0.157600  0.890700  0.902500  1.0  -0.2278
  N  N205  1  0.165600  0.834000  0.833500  1.0  -0.2361
  N  N206  1  0.317300  0.786800  0.856700  1.0  -0.0522
  N  N207  1  0.700900  0.768800  0.813100  1.0  -0.2051
  N  N208  1  0.853600  0.804400  0.795600  1.0  -0.1532
  N  N209  1  0.776800  0.887500  0.795900  1.0  -0.3237
  N  N210  1  0.899900  0.890500  0.038800  1.0  -0.2065
  N  N211  1  0.905900  0.831100  0.972800  1.0  -0.2375
  N  N212  1  0.815900  0.789200  0.110400  1.0  -0.0431
  N  N213  1  0.832200  0.480700  0.195600  1.0  -0.0644
  N  N214  1  0.909600  0.355000  0.104300  1.0  -0.2707
  N  N215  1  0.918100  0.338200  0.186500  1.0  -0.2414
  N  N216  1  0.894100  0.188900  0.349000  1.0  -0.1766
  N  N217  1  0.828700  0.131400  0.394000  1.0  -0.2862
  N  N218  1  0.854600  0.206000  0.495200  1.0  -0.0251
  N  N219  1  0.913600  0.110500  0.770300  1.0  -0.0385
  N  N220  1  0.954200  0.035300  0.874300  1.0  -0.2387
  N  N221  1  0.957900  0.975000  0.809900  1.0  -0.2243
  N  N222  1  0.842400  0.109300  0.097500  1.0  -0.2281
  N  N223  1  0.834400  0.166000  0.166500  1.0  -0.2351
  N  N224  1  0.682700  0.213200  0.143300  1.0  -0.047
  N  N225  1  0.299100  0.231200  0.186900  1.0  -0.2048
  N  N226  1  0.146400  0.195600  0.204400  1.0  -0.1518
  N  N227  1  0.223200  0.112500  0.204100  1.0  -0.3226
  N  N228  1  0.855000  0.516800  0.893800  1.0  0.7785
  N  N229  1  0.359400  0.515300  0.460400  1.0  0.8022
  N  N230  1  0.587800  0.046000  0.686300  1.0  0.8953
  N  N231  1  0.390300  0.948800  0.087800  1.0  0.2597
  N  N232  1  0.145000  0.483200  0.106200  1.0  0.7754
  N  N233  1  0.640600  0.484700  0.539600  1.0  0.801
  N  N234  1  0.412200  0.954000  0.313700  1.0  0.8922
  N  N235  1  0.609700  0.051200  0.912200  1.0  0.2612
  O  O236  1  0.846900  0.582500  0.940100  1.0  -0.508
  O  O237  1  0.918000  0.498500  0.811000  1.0  -0.3867
  O  O238  1  0.794700  0.464500  0.935700  1.0  -0.5056
  O  O239  1  0.450500  0.531600  0.428700  1.0  -0.4936
  O  O240  1  0.275800  0.567800  0.524100  1.0  -0.4971
  O  O241  1  0.348700  0.446200  0.431000  1.0  -0.5696
  O  O242  1  0.511000  0.018600  0.748700  1.0  -0.5024
  O  O243  1  0.637200  0.089600  0.709800  1.0  -0.5019
  O  O244  1  0.597100  0.039400  0.606600  1.0  -0.425
  O  O245  1  0.461000  0.890200  0.103600  1.0  -0.5064
  O  O246  1  0.394600  0.027900  0.094100  1.0  -0.6203
  O  O247  1  0.318300  0.958500  0.043600  1.0  -0.5785
  O  O248  1  0.153100  0.417500  0.059900  1.0  -0.5085
  O  O249  1  0.082000  0.501500  0.189000  1.0  -0.386
  O  O250  1  0.205300  0.535500  0.064300  1.0  -0.5032
  O  O251  1  0.549500  0.468400  0.571300  1.0  -0.4925
  O  O252  1  0.724200  0.432200  0.475900  1.0  -0.4977
  O  O253  1  0.651300  0.553800  0.569000  1.0  -0.5695
  O  O254  1  0.489000  0.981400  0.251300  1.0  -0.5038
  O  O255  1  0.362800  0.910400  0.290200  1.0  -0.5007
  O  O256  1  0.402900  0.960600  0.393400  1.0  -0.4241
  O  O257  1  0.539000  0.109800  0.896400  1.0  -0.5052
  O  O258  1  0.605400  0.972100  0.905900  1.0  -0.6202
  O  O259  1  0.681700  0.041500  0.956400  1.0  -0.5786
