# generated using pymatgen
data_Cu2H37C28N12O
_symmetry_space_group_name_H-M   'P 1'
_cell_length_a   13.84360000
_cell_length_b   17.80390000
_cell_length_c   17.14760000
_cell_angle_alpha   90.00000000
_cell_angle_beta   110.26800000
_cell_angle_gamma   90.00000000
_symmetry_Int_Tables_number   1
_chemical_formula_structural   Cu2H37C28N12O
_chemical_formula_sum   'Cu8 H148 C112 N48 O4'
_cell_volume   3964.68412498
_cell_formula_units_Z   4
loop_
 _symmetry_equiv_pos_site_id
 _symmetry_equiv_pos_as_xyz
  1  'x, y, z'
loop_
 _atom_site_type_symbol
 _atom_site_label
 _atom_site_symmetry_multiplicity
 _atom_site_fract_x
 _atom_site_fract_y
 _atom_site_fract_z
 _atom_site_occupancy
 _atom_site_charge
  Cu  Cu1  1  0.239290  0.510550  0.437820  1.0  0.8043
  Cu  Cu2  1  0.760710  0.010550  0.062180  1.0  0.8016
  Cu  Cu3  1  0.760710  0.489450  0.562180  1.0  0.8011
  Cu  Cu4  1  0.239290  0.989450  0.937820  1.0  0.8051
  Cu  Cu5  1  0.500000  0.500000  0.500000  1.0  0.7977
  Cu  Cu6  1  0.500000  0.000000  0.000000  1.0  0.7977
  Cu  Cu7  1  0.000000  0.000000  0.000000  1.0  0.4318
  Cu  Cu8  1  0.000000  0.500000  0.500000  1.0  0.4318
  H  H9  1  0.373600  0.469500  0.559200  1.0  0.3434
  H  H10  1  0.239900  0.331800  0.419400  1.0  0.0949
  H  H11  1  0.001700  0.324900  0.495700  1.0  0.0832
  H  H12  1  0.860100  0.064400  0.248000  1.0  0.0855
  H  H13  1  0.115800  0.100900  0.201500  1.0  0.0835
  H  H14  1  0.263000  0.197800  0.535800  1.0  0.0681
  H  H15  1  0.266300  0.206600  0.443600  1.0  0.0678
  H  H16  1  0.294500  0.078800  0.485700  1.0  0.0534
  H  H17  1  0.207200  0.099600  0.341000  1.0  0.0634
  H  H18  1  0.166200  0.023200  0.368400  1.0  0.0416
  H  H19  1  0.992900  0.216400  0.334700  1.0  0.0773
  H  H20  1  0.101900  0.217300  0.320800  1.0  0.0671
  H  H21  1  0.989000  0.202600  0.481300  1.0  0.062
  H  H22  1  0.094900  0.195300  0.558700  1.0  0.0764
  H  H23  1  0.018400  0.073200  0.521700  1.0  0.0514
  H  H24  1  0.997000  0.021900  0.389700  1.0  0.061
  H  H25  1  0.930800  0.097600  0.378800  1.0  0.0587
  H  H26  1  0.200800  0.076700  0.577500  1.0  0.064
  H  H27  1  0.163800  0.009100  0.511800  1.0  0.0664
  H  H28  1  0.644900  0.099200  0.890500  1.0  0.0843
  H  H29  1  0.881000  0.073500  0.814200  1.0  0.0869
  H  H30  1  0.470400  0.339600  0.582700  1.0  0.0854
  H  H31  1  0.767400  0.313100  0.628900  1.0  0.0764
  H  H32  1  0.697300  0.015600  0.687000  1.0  0.0598
  H  H33  1  0.773500  0.081500  0.681100  1.0  0.0536
  H  H34  1  0.651400  0.056800  0.547400  1.0  0.0468
  H  H35  1  0.712800  0.182800  0.575400  1.0  0.0771
  H  H36  1  0.595900  0.183600  0.512200  1.0  0.0726
  H  H37  1  0.660400  0.230600  0.760800  1.0  0.0717
  H  H38  1  0.752500  0.212100  0.727100  1.0  0.0776
  H  H39  1  0.553300  0.043800  0.738800  1.0  0.0862
  H  H40  1  0.538600  0.127500  0.767600  1.0  0.0585
  H  H41  1  0.416900  0.103600  0.634800  1.0  0.0539
  H  H42  1  0.451000  0.212300  0.566000  1.0  0.0531
  H  H43  1  0.477100  0.230500  0.662800  1.0  0.0686
  H  H44  1  0.513400  0.015000  0.585900  1.0  0.0549
  H  H45  1  0.475000  0.081900  0.519500  1.0  0.0456
  H  H46  1  0.626400  0.969500  0.940800  1.0  0.3444
  H  H47  1  0.760100  0.831800  0.080600  1.0  0.0949
  H  H48  1  0.998300  0.824900  0.004300  1.0  0.0834
  H  H49  1  0.139900  0.564400  0.252000  1.0  0.0835
  H  H50  1  0.884200  0.600900  0.298500  1.0  0.0828
  H  H51  1  0.737000  0.697800  0.964200  1.0  0.0688
  H  H52  1  0.733700  0.706600  0.056400  1.0  0.0692
  H  H53  1  0.705500  0.578800  0.014300  1.0  0.051
  H  H54  1  0.792800  0.599600  0.159000  1.0  0.0628
  H  H55  1  0.833800  0.523200  0.131600  1.0  0.0417
  H  H56  1  0.007100  0.716400  0.165300  1.0  0.0773
  H  H57  1  0.898100  0.717300  0.179200  1.0  0.0685
  H  H58  1  0.011000  0.702600  0.018700  1.0  0.0614
  H  H59  1  0.905100  0.695300  0.941300  1.0  0.0756
  H  H60  1  0.981600  0.573200  0.978300  1.0  0.0521
  H  H61  1  0.003000  0.521900  0.110300  1.0  0.0618
  H  H62  1  0.069200  0.597600  0.121200  1.0  0.0592
  H  H63  1  0.799200  0.576700  0.922500  1.0  0.0644
  H  H64  1  0.836200  0.509100  0.988200  1.0  0.0634
  H  H65  1  0.355100  0.599200  0.609500  1.0  0.0845
  H  H66  1  0.119000  0.573500  0.685800  1.0  0.0868
  H  H67  1  0.529600  0.839600  0.917300  1.0  0.0849
  H  H68  1  0.232600  0.813100  0.871100  1.0  0.078
  H  H69  1  0.302700  0.515600  0.813000  1.0  0.0596
  H  H70  1  0.226500  0.581500  0.818900  1.0  0.0481
  H  H71  1  0.348600  0.556800  0.952600  1.0  0.0468
  H  H72  1  0.287200  0.682800  0.924600  1.0  0.0753
  H  H73  1  0.404100  0.683600  0.987800  1.0  0.0722
  H  H74  1  0.339600  0.730600  0.739200  1.0  0.0695
  H  H75  1  0.247500  0.712100  0.772900  1.0  0.0792
  H  H76  1  0.446700  0.543800  0.761200  1.0  0.0842
  H  H77  1  0.461400  0.627500  0.732400  1.0  0.0582
  H  H78  1  0.583100  0.603600  0.865200  1.0  0.0531
  H  H79  1  0.549000  0.712300  0.934000  1.0  0.0525
  H  H80  1  0.522900  0.730500  0.837200  1.0  0.0685
  H  H81  1  0.486600  0.515000  0.914100  1.0  0.0554
  H  H82  1  0.525000  0.581900  0.980500  1.0  0.0465
  H  H83  1  0.626400  0.530500  0.440800  1.0  0.3447
  H  H84  1  0.760100  0.668200  0.580600  1.0  0.0953
  H  H85  1  0.998300  0.675100  0.504300  1.0  0.0836
  H  H86  1  0.139900  0.935600  0.752000  1.0  0.0841
  H  H87  1  0.884200  0.899100  0.798500  1.0  0.083
  H  H88  1  0.737000  0.802200  0.464200  1.0  0.0683
  H  H89  1  0.733700  0.793400  0.556400  1.0  0.0703
  H  H90  1  0.705500  0.921200  0.514300  1.0  0.0517
  H  H91  1  0.792800  0.900400  0.659000  1.0  0.0634
  H  H92  1  0.833800  0.976800  0.631600  1.0  0.0394
  H  H93  1  0.007100  0.783600  0.665300  1.0  0.0772
  H  H94  1  0.898100  0.782700  0.679200  1.0  0.069
  H  H95  1  0.011000  0.797400  0.518700  1.0  0.0603
  H  H96  1  0.905100  0.804700  0.441300  1.0  0.075
  H  H97  1  0.981600  0.926800  0.478300  1.0  0.0518
  H  H98  1  0.003000  0.978100  0.610300  1.0  0.0614
  H  H99  1  0.069200  0.902400  0.621200  1.0  0.0592
  H  H100  1  0.799200  0.923300  0.422500  1.0  0.0653
  H  H101  1  0.836200  0.990900  0.488200  1.0  0.0651
  H  H102  1  0.355100  0.900800  0.109500  1.0  0.0846
  H  H103  1  0.119000  0.926500  0.185800  1.0  0.087
  H  H104  1  0.529600  0.660400  0.417300  1.0  0.0855
  H  H105  1  0.232600  0.686900  0.371100  1.0  0.0779
  H  H106  1  0.302700  0.984400  0.313000  1.0  0.0565
  H  H107  1  0.226500  0.918500  0.318900  1.0  0.0484
  H  H108  1  0.348600  0.943200  0.452600  1.0  0.0474
  H  H109  1  0.287200  0.817200  0.424600  1.0  0.0758
  H  H110  1  0.404100  0.816400  0.487800  1.0  0.0732
  H  H111  1  0.339600  0.769400  0.239200  1.0  0.0687
  H  H112  1  0.247500  0.787900  0.272900  1.0  0.0788
  H  H113  1  0.446700  0.956200  0.261200  1.0  0.0812
  H  H114  1  0.461400  0.872500  0.232400  1.0  0.0575
  H  H115  1  0.583100  0.896400  0.365200  1.0  0.0536
  H  H116  1  0.549000  0.787700  0.434000  1.0  0.0528
  H  H117  1  0.522900  0.769500  0.337200  1.0  0.0682
  H  H118  1  0.486600  0.985000  0.414100  1.0  0.0563
  H  H119  1  0.525000  0.918100  0.480500  1.0  0.046
  H  H120  1  0.373600  0.030500  0.059200  1.0  0.3425
  H  H121  1  0.239900  0.168200  0.919400  1.0  0.0949
  H  H122  1  0.001700  0.175100  0.995700  1.0  0.0835
  H  H123  1  0.860100  0.435600  0.748000  1.0  0.0854
  H  H124  1  0.115800  0.399100  0.701500  1.0  0.0832
  H  H125  1  0.263000  0.302200  0.035800  1.0  0.0688
  H  H126  1  0.266300  0.293400  0.943600  1.0  0.0676
  H  H127  1  0.294500  0.421200  0.985700  1.0  0.0538
  H  H128  1  0.207200  0.400400  0.841000  1.0  0.062
  H  H129  1  0.166200  0.476800  0.868400  1.0  0.0393
  H  H130  1  0.992900  0.283600  0.834700  1.0  0.0775
  H  H131  1  0.101900  0.282700  0.820800  1.0  0.0663
  H  H132  1  0.989000  0.297400  0.981300  1.0  0.063
  H  H133  1  0.094900  0.304700  0.058700  1.0  0.0769
  H  H134  1  0.018400  0.426800  0.021700  1.0  0.0519
  H  H135  1  0.997000  0.478100  0.889700  1.0  0.0619
  H  H136  1  0.930800  0.402400  0.878800  1.0  0.0588
  H  H137  1  0.200800  0.423300  0.077500  1.0  0.0651
  H  H138  1  0.163800  0.490900  0.011800  1.0  0.0642
  H  H139  1  0.644900  0.400800  0.390500  1.0  0.0845
  H  H140  1  0.881000  0.426500  0.314200  1.0  0.0866
  H  H141  1  0.470400  0.160400  0.082700  1.0  0.0855
  H  H142  1  0.767400  0.186900  0.128900  1.0  0.0765
  H  H143  1  0.697300  0.484400  0.187000  1.0  0.0561
  H  H144  1  0.773500  0.418500  0.181100  1.0  0.0532
  H  H145  1  0.651400  0.443200  0.047400  1.0  0.0474
  H  H146  1  0.712800  0.317200  0.075400  1.0  0.0764
  H  H147  1  0.595900  0.316400  0.012200  1.0  0.0718
  H  H148  1  0.660400  0.269400  0.260800  1.0  0.0728
  H  H149  1  0.752500  0.287900  0.227100  1.0  0.0774
  H  H150  1  0.553300  0.456200  0.238800  1.0  0.0815
  H  H151  1  0.538600  0.372500  0.267600  1.0  0.059
  H  H152  1  0.416900  0.396400  0.134800  1.0  0.0537
  H  H153  1  0.451000  0.287700  0.066000  1.0  0.052
  H  H154  1  0.477100  0.269500  0.162800  1.0  0.0701
  H  H155  1  0.513400  0.485000  0.085900  1.0  0.0557
  H  H156  1  0.475000  0.418100  0.019500  1.0  0.0455
  C  C157  1  0.186000  0.346400  0.438500  1.0  0.1107
  C  C158  1  0.057000  0.342600  0.479900  1.0  0.1202
  C  C159  1  0.909000  0.067900  0.220600  1.0  0.108
  C  C160  1  0.047400  0.086800  0.195300  1.0  0.1425
  C  C161  1  0.118200  0.215100  0.447100  1.0  0.2108
  C  C162  1  0.227400  0.184500  0.476700  1.0  -0.2655
  C  C163  1  0.222700  0.099100  0.466600  1.0  0.0575
  C  C164  1  0.168700  0.078400  0.375000  1.0  -0.2512
  C  C165  1  0.059700  0.110300  0.346100  1.0  0.2171
  C  C166  1  0.063600  0.195500  0.354600  1.0  -0.2364
  C  C167  1  0.059900  0.182200  0.499500  1.0  -0.271
  C  C168  1  0.057100  0.095900  0.488000  1.0  0.0236
  C  C169  1  0.001600  0.077000  0.397200  1.0  -0.2584
  C  C170  1  0.165700  0.064400  0.518100  1.0  -0.2032
  C  C171  1  0.711300  0.087200  0.889400  1.0  0.1253
  C  C172  1  0.839100  0.073300  0.847800  1.0  0.0929
  C  C173  1  0.539600  0.348900  0.587000  1.0  0.0883
  C  C174  1  0.700500  0.334600  0.612100  1.0  0.1289
  C  C175  1  0.670100  0.115900  0.736800  1.0  0.1833
  C  C176  1  0.701500  0.069700  0.675400  1.0  -0.263
  C  C177  1  0.630200  0.087600  0.587500  1.0  0.0256
  C  C178  1  0.640700  0.171300  0.569600  1.0  -0.2387
  C  C179  1  0.609000  0.217200  0.631600  1.0  0.2114
  C  C180  1  0.680300  0.200000  0.720600  1.0  -0.2496
  C  C181  1  0.559300  0.097800  0.727100  1.0  -0.2299
  C  C182  1  0.489600  0.115800  0.640400  1.0  0.0617
  C  C183  1  0.497600  0.199900  0.622900  1.0  -0.2986
  C  C184  1  0.520400  0.069300  0.576700  1.0  -0.2317
  C  C185  1  0.814000  0.846400  0.061500  1.0  0.1106
  C  C186  1  0.943000  0.842600  0.020100  1.0  0.1195
  C  C187  1  0.091000  0.567900  0.279400  1.0  0.1077
  C  C188  1  0.952600  0.586800  0.304700  1.0  0.1425
  C  C189  1  0.881800  0.715100  0.052900  1.0  0.2103
  C  C190  1  0.772600  0.684500  0.023300  1.0  -0.267
  C  C191  1  0.777300  0.599100  0.033400  1.0  0.0585
  C  C192  1  0.831300  0.578400  0.125000  1.0  -0.2523
  C  C193  1  0.940300  0.610300  0.153900  1.0  0.218
  C  C194  1  0.936400  0.695500  0.145400  1.0  -0.2368
  C  C195  1  0.940100  0.682200  0.000500  1.0  -0.2729
  C  C196  1  0.942900  0.595900  0.012000  1.0  0.0265
  C  C197  1  0.998400  0.577000  0.102800  1.0  -0.2573
  C  C198  1  0.834300  0.564400  0.981900  1.0  -0.2031
  C  C199  1  0.288700  0.587200  0.610600  1.0  0.1249
  C  C200  1  0.160900  0.573300  0.652200  1.0  0.0926
  C  C201  1  0.460400  0.848900  0.913000  1.0  0.0892
  C  C202  1  0.299500  0.834600  0.887900  1.0  0.1292
  C  C203  1  0.329900  0.615900  0.763200  1.0  0.1813
  C  C204  1  0.298500  0.569700  0.824600  1.0  -0.2651
  C  C205  1  0.369800  0.587600  0.912500  1.0  0.0241
  C  C206  1  0.359300  0.671300  0.930400  1.0  -0.2362
  C  C207  1  0.391000  0.717200  0.868400  1.0  0.2116
  C  C208  1  0.319700  0.700000  0.779400  1.0  -0.2519
  C  C209  1  0.440700  0.597800  0.772900  1.0  -0.2387
  C  C210  1  0.510400  0.615800  0.859600  1.0  0.0605
  C  C211  1  0.502400  0.699900  0.877100  1.0  -0.2971
  C  C212  1  0.479600  0.569300  0.923300  1.0  -0.2314
  C  C213  1  0.814000  0.653600  0.561500  1.0  0.1116
  C  C214  1  0.943000  0.657400  0.520100  1.0  0.1188
  C  C215  1  0.091000  0.932100  0.779400  1.0  0.108
  C  C216  1  0.952600  0.913200  0.804700  1.0  0.1433
  C  C217  1  0.881800  0.784900  0.552900  1.0  0.2099
  C  C218  1  0.772600  0.815500  0.523300  1.0  -0.2651
  C  C219  1  0.777300  0.900900  0.533400  1.0  0.0584
  C  C220  1  0.831300  0.921600  0.625000  1.0  -0.2515
  C  C221  1  0.940300  0.889700  0.653900  1.0  0.2182
  C  C222  1  0.936400  0.804500  0.645400  1.0  -0.2339
  C  C223  1  0.940100  0.817800  0.500500  1.0  -0.274
  C  C224  1  0.942900  0.904100  0.512000  1.0  0.0268
  C  C225  1  0.998400  0.923000  0.602800  1.0  -0.2573
  C  C226  1  0.834300  0.935600  0.481900  1.0  -0.2023
  C  C227  1  0.288700  0.912800  0.110600  1.0  0.1243
  C  C228  1  0.160900  0.926700  0.152200  1.0  0.0927
  C  C229  1  0.460400  0.651100  0.413000  1.0  0.0889
  C  C230  1  0.299500  0.665400  0.387900  1.0  0.1296
  C  C231  1  0.329900  0.884100  0.263200  1.0  0.1817
  C  C232  1  0.298500  0.930300  0.324600  1.0  -0.2645
  C  C233  1  0.369800  0.912400  0.412500  1.0  0.0246
  C  C234  1  0.359300  0.828700  0.430400  1.0  -0.2353
  C  C235  1  0.391000  0.782800  0.368400  1.0  0.2113
  C  C236  1  0.319700  0.800000  0.279400  1.0  -0.2498
  C  C237  1  0.440700  0.902200  0.272900  1.0  -0.2373
  C  C238  1  0.510400  0.884200  0.359600  1.0  0.0614
  C  C239  1  0.502400  0.800100  0.377100  1.0  -0.2964
  C  C240  1  0.479600  0.930700  0.423300  1.0  -0.2309
  C  C241  1  0.186000  0.153600  0.938500  1.0  0.1103
  C  C242  1  0.057000  0.157400  0.979900  1.0  0.1197
  C  C243  1  0.909000  0.432100  0.720600  1.0  0.1083
  C  C244  1  0.047400  0.413200  0.695300  1.0  0.1428
  C  C245  1  0.118200  0.284900  0.947100  1.0  0.21
  C  C246  1  0.227400  0.315500  0.976700  1.0  -0.2641
  C  C247  1  0.222700  0.400900  0.966600  1.0  0.0577
  C  C248  1  0.168700  0.421600  0.875000  1.0  -0.2507
  C  C249  1  0.059700  0.389700  0.846100  1.0  0.2172
  C  C250  1  0.063600  0.304500  0.854600  1.0  -0.2347
  C  C251  1  0.059900  0.317800  0.999500  1.0  -0.2691
  C  C252  1  0.057100  0.404100  0.988000  1.0  0.0243
  C  C253  1  0.001600  0.423000  0.897200  1.0  -0.2597
  C  C254  1  0.165700  0.435600  0.018100  1.0  -0.2041
  C  C255  1  0.711300  0.412800  0.389400  1.0  0.127
  C  C256  1  0.839100  0.426700  0.347800  1.0  0.0929
  C  C257  1  0.539600  0.151100  0.087000  1.0  0.0887
  C  C258  1  0.700500  0.165400  0.112100  1.0  0.129
  C  C259  1  0.670100  0.384100  0.236800  1.0  0.1838
  C  C260  1  0.701500  0.430300  0.175400  1.0  -0.2618
  C  C261  1  0.630200  0.412400  0.087500  1.0  0.0257
  C  C262  1  0.640700  0.328700  0.069600  1.0  -0.2403
  C  C263  1  0.609000  0.282800  0.131600  1.0  0.2115
  C  C264  1  0.680300  0.300000  0.220600  1.0  -0.2469
  C  C265  1  0.559300  0.402200  0.227100  1.0  -0.2318
  C  C266  1  0.489600  0.384200  0.140400  1.0  0.0616
  C  C267  1  0.497600  0.300100  0.122900  1.0  -0.2962
  C  C268  1  0.520400  0.430700  0.076700  1.0  -0.2312
  N  N269  1  0.163800  0.416400  0.451700  1.0  -0.3005
  N  N270  1  0.081300  0.412800  0.478400  1.0  -0.2244
  N  N271  1  0.120100  0.298600  0.456300  1.0  -0.0562
  N  N272  1  0.890000  0.052000  0.142200  1.0  -0.2506
  N  N273  1  0.979500  0.061900  0.126000  1.0  -0.288
  N  N274  1  0.007100  0.089900  0.257000  1.0  -0.1058
  N  N275  1  0.786900  0.060300  0.953000  1.0  -0.2617
  N  N276  1  0.869100  0.051000  0.926200  1.0  -0.2325
  N  N277  1  0.739800  0.095700  0.823000  1.0  -0.0502
  N  N278  1  0.574800  0.412900  0.568000  1.0  -0.2715
  N  N279  1  0.678200  0.403800  0.584500  1.0  -0.2185
  N  N280  1  0.617000  0.298900  0.613300  1.0  -0.0302
  N  N281  1  0.836200  0.916400  0.048300  1.0  -0.3011
  N  N282  1  0.918700  0.912800  0.021600  1.0  -0.2234
  N  N283  1  0.879900  0.798600  0.043700  1.0  -0.0555
  N  N284  1  0.110000  0.552000  0.357800  1.0  -0.249
  N  N285  1  0.020500  0.561900  0.374000  1.0  -0.29
  N  N286  1  0.992900  0.589900  0.243000  1.0  -0.1044
  N  N287  1  0.213100  0.560300  0.547000  1.0  -0.2603
  N  N288  1  0.130900  0.551000  0.573800  1.0  -0.2332
  N  N289  1  0.260200  0.595700  0.677000  1.0  -0.0507
  N  N290  1  0.425200  0.912900  0.932000  1.0  -0.2702
  N  N291  1  0.321800  0.903800  0.915500  1.0  -0.2188
  N  N292  1  0.383000  0.798900  0.886700  1.0  -0.0304
  N  N293  1  0.836200  0.583600  0.548300  1.0  -0.3
  N  N294  1  0.918700  0.587200  0.521600  1.0  -0.2233
  N  N295  1  0.879900  0.701400  0.543700  1.0  -0.0562
  N  N296  1  0.110000  0.948000  0.857800  1.0  -0.2494
  N  N297  1  0.020500  0.938100  0.874000  1.0  -0.2904
  N  N298  1  0.992900  0.910100  0.743000  1.0  -0.1042
  N  N299  1  0.213100  0.939700  0.047000  1.0  -0.2605
  N  N300  1  0.130900  0.949000  0.073800  1.0  -0.2328
  N  N301  1  0.260200  0.904300  0.177000  1.0  -0.0507
  N  N302  1  0.425200  0.587100  0.432000  1.0  -0.2705
  N  N303  1  0.321800  0.596200  0.415500  1.0  -0.2196
  N  N304  1  0.383000  0.701100  0.386700  1.0  -0.0312
  N  N305  1  0.163800  0.083600  0.951700  1.0  -0.3
  N  N306  1  0.081300  0.087200  0.978400  1.0  -0.2234
  N  N307  1  0.120100  0.201400  0.956300  1.0  -0.0562
  N  N308  1  0.890000  0.448000  0.642200  1.0  -0.2506
  N  N309  1  0.979500  0.438100  0.626000  1.0  -0.2886
  N  N310  1  0.007100  0.410100  0.757000  1.0  -0.106
  N  N311  1  0.786900  0.439700  0.453000  1.0  -0.2618
  N  N312  1  0.869100  0.449000  0.426200  1.0  -0.2327
  N  N313  1  0.739800  0.404300  0.323000  1.0  -0.0496
  N  N314  1  0.574800  0.087100  0.068000  1.0  -0.2721
  N  N315  1  0.678200  0.096200  0.084500  1.0  -0.2188
  N  N316  1  0.617000  0.201100  0.113300  1.0  -0.0313
  O  O317  1  0.369600  0.466700  0.501500  1.0  -0.8121
  O  O318  1  0.630400  0.966700  0.998500  1.0  -0.8098
  O  O319  1  0.630400  0.533300  0.498500  1.0  -0.8109
  O  O320  1  0.369600  0.033300  0.001500  1.0  -0.8118
