# generated using pymatgen
data_CuH13C20(NO2)3
_symmetry_space_group_name_H-M   'P 1'
_cell_length_a   24.94970000
_cell_length_b   9.48520000
_cell_length_c   21.73190000
_cell_angle_alpha   90.00000000
_cell_angle_beta   102.26100000
_cell_angle_gamma   90.00000000
_symmetry_Int_Tables_number   1
_chemical_formula_structural   CuH13C20(NO2)3
_chemical_formula_sum   'Cu8 H104 C160 N24 O48'
_cell_volume   5025.60891588
_cell_formula_units_Z   8
loop_
 _symmetry_equiv_pos_site_id
 _symmetry_equiv_pos_as_xyz
  1  'x, y, z'
loop_
 _atom_site_type_symbol
 _atom_site_label
 _atom_site_symmetry_multiplicity
 _atom_site_fract_x
 _atom_site_fract_y
 _atom_site_fract_z
 _atom_site_occupancy
 _atom_site_charge
  Cu  Cu1  1  0.797090  0.578820  0.470430  1.0  0.8262
  Cu  Cu2  1  0.297090  0.078820  0.470430  1.0  0.8262
  Cu  Cu3  1  0.797090  0.421180  0.970430  1.0  0.8262
  Cu  Cu4  1  0.297090  0.921180  0.970430  1.0  0.8262
  Cu  Cu5  1  0.202910  0.578820  0.029570  1.0  0.8269
  Cu  Cu6  1  0.702910  0.078820  0.029570  1.0  0.8269
  Cu  Cu7  1  0.202910  0.421180  0.529570  1.0  0.8268
  Cu  Cu8  1  0.702910  0.921180  0.529570  1.0  0.8268
  H  H9  1  0.861100  0.769200  0.407200  1.0  0.0907
  H  H10  1  0.950200  0.841300  0.412700  1.0  0.1397
  H  H11  1  0.996000  0.603600  0.568500  1.0  0.1335
  H  H12  1  0.905100  0.540800  0.559900  1.0  0.1055
  H  H13  1  0.068200  0.725700  0.528500  1.0  0.0982
  H  H14  1  0.031000  0.907300  0.428300  1.0  0.1275
  H  H15  1  0.098100  0.035200  0.385800  1.0  0.1387
  H  H16  1  0.188000  0.098300  0.386800  1.0  0.0916
  H  H17  1  0.241600  0.862600  0.536000  1.0  0.0927
  H  H18  1  0.154500  0.779800  0.534800  1.0  0.1382
  H  H19  1  0.361100  0.269200  0.407200  1.0  0.0907
  H  H20  1  0.450200  0.341300  0.412700  1.0  0.1397
  H  H21  1  0.496000  0.103600  0.568500  1.0  0.1335
  H  H22  1  0.405100  0.040800  0.559900  1.0  0.1055
  H  H23  1  0.568200  0.225700  0.528500  1.0  0.0982
  H  H24  1  0.531000  0.407300  0.428300  1.0  0.1275
  H  H25  1  0.598100  0.535200  0.385800  1.0  0.1387
  H  H26  1  0.688000  0.598300  0.386800  1.0  0.0916
  H  H27  1  0.741600  0.362600  0.536000  1.0  0.0927
  H  H28  1  0.654500  0.279800  0.534800  1.0  0.1382
  H  H29  1  0.358900  0.993300  0.167200  1.0  0.1147
  H  H30  1  0.380000  0.018100  0.276600  1.0  0.1283
  H  H31  1  0.220200  0.783000  0.177500  1.0  0.1277
  H  H32  1  0.858900  0.493300  0.167200  1.0  0.1147
  H  H33  1  0.880000  0.518100  0.276600  1.0  0.1283
  H  H34  1  0.720200  0.283000  0.177500  1.0  0.1277
  H  H35  1  0.358900  0.006700  0.667200  1.0  0.1145
  H  H36  1  0.380000  0.981900  0.776600  1.0  0.128
  H  H37  1  0.220200  0.217000  0.677500  1.0  0.1275
  H  H38  1  0.858900  0.506700  0.667200  1.0  0.1145
  H  H39  1  0.880000  0.481900  0.776600  1.0  0.128
  H  H40  1  0.720200  0.717000  0.677500  1.0  0.1275
  H  H41  1  0.861100  0.230800  0.907200  1.0  0.0904
  H  H42  1  0.950200  0.158700  0.912700  1.0  0.1396
  H  H43  1  0.996000  0.396400  0.068500  1.0  0.1334
  H  H44  1  0.905100  0.459200  0.059900  1.0  0.1053
  H  H45  1  0.068200  0.274300  0.028500  1.0  0.0981
  H  H46  1  0.031000  0.092700  0.928300  1.0  0.1273
  H  H47  1  0.098100  0.964800  0.885800  1.0  0.1385
  H  H48  1  0.188000  0.901700  0.886800  1.0  0.0913
  H  H49  1  0.241600  0.137400  0.036000  1.0  0.0925
  H  H50  1  0.154500  0.220200  0.034800  1.0  0.1383
  H  H51  1  0.361100  0.730800  0.907200  1.0  0.0904
  H  H52  1  0.450200  0.658700  0.912700  1.0  0.1396
  H  H53  1  0.496000  0.896400  0.068500  1.0  0.1334
  H  H54  1  0.405100  0.959200  0.059900  1.0  0.1053
  H  H55  1  0.568200  0.774300  0.028500  1.0  0.0981
  H  H56  1  0.531000  0.592700  0.928300  1.0  0.1273
  H  H57  1  0.598100  0.464800  0.885800  1.0  0.1385
  H  H58  1  0.688000  0.401700  0.886800  1.0  0.0913
  H  H59  1  0.741600  0.637400  0.036000  1.0  0.0925
  H  H60  1  0.654500  0.720200  0.034800  1.0  0.1383
  H  H61  1  0.641100  0.993300  0.332800  1.0  0.1136
  H  H62  1  0.620000  0.018100  0.223400  1.0  0.1281
  H  H63  1  0.779800  0.783000  0.322500  1.0  0.1269
  H  H64  1  0.141100  0.493300  0.332800  1.0  0.1136
  H  H65  1  0.120000  0.518100  0.223400  1.0  0.1281
  H  H66  1  0.279800  0.283000  0.322500  1.0  0.1269
  H  H67  1  0.138900  0.769200  0.092800  1.0  0.0908
  H  H68  1  0.049800  0.841300  0.087300  1.0  0.1396
  H  H69  1  0.004000  0.603600  0.931500  1.0  0.1336
  H  H70  1  0.094900  0.540800  0.940100  1.0  0.105
  H  H71  1  0.931800  0.725700  0.971500  1.0  0.0976
  H  H72  1  0.969000  0.907300  0.071700  1.0  0.1291
  H  H73  1  0.901900  0.035200  0.114200  1.0  0.139
  H  H74  1  0.812000  0.098300  0.113200  1.0  0.0909
  H  H75  1  0.758400  0.862600  0.964000  1.0  0.0921
  H  H76  1  0.845500  0.779800  0.965200  1.0  0.1381
  H  H77  1  0.638900  0.269200  0.092800  1.0  0.0908
  H  H78  1  0.549800  0.341300  0.087300  1.0  0.1396
  H  H79  1  0.504000  0.103600  0.931500  1.0  0.1336
  H  H80  1  0.594900  0.040800  0.940100  1.0  0.105
  H  H81  1  0.431800  0.225700  0.971500  1.0  0.0976
  H  H82  1  0.469000  0.407300  0.071700  1.0  0.1291
  H  H83  1  0.401900  0.535200  0.114200  1.0  0.139
  H  H84  1  0.312000  0.598300  0.113200  1.0  0.0909
  H  H85  1  0.258400  0.362600  0.964000  1.0  0.0921
  H  H86  1  0.345500  0.279800  0.965200  1.0  0.1381
  H  H87  1  0.138900  0.230800  0.592800  1.0  0.0911
  H  H88  1  0.049800  0.158700  0.587300  1.0  0.1397
  H  H89  1  0.004000  0.396400  0.431500  1.0  0.1336
  H  H90  1  0.094900  0.459200  0.440100  1.0  0.1051
  H  H91  1  0.931800  0.274300  0.471500  1.0  0.0978
  H  H92  1  0.969000  0.092700  0.571700  1.0  0.1294
  H  H93  1  0.901900  0.964800  0.614200  1.0  0.1392
  H  H94  1  0.812000  0.901700  0.613200  1.0  0.0907
  H  H95  1  0.758400  0.137400  0.464000  1.0  0.0928
  H  H96  1  0.845500  0.220200  0.465200  1.0  0.1382
  H  H97  1  0.638900  0.730800  0.592800  1.0  0.0911
  H  H98  1  0.549800  0.658700  0.587300  1.0  0.1397
  H  H99  1  0.504000  0.896400  0.431500  1.0  0.1336
  H  H100  1  0.594900  0.959200  0.440100  1.0  0.1051
  H  H101  1  0.431800  0.774300  0.471500  1.0  0.0978
  H  H102  1  0.469000  0.592700  0.571700  1.0  0.1294
  H  H103  1  0.401900  0.464800  0.614200  1.0  0.1392
  H  H104  1  0.312000  0.401700  0.613200  1.0  0.0907
  H  H105  1  0.258400  0.637400  0.464000  1.0  0.0928
  H  H106  1  0.345500  0.720200  0.465200  1.0  0.1382
  H  H107  1  0.641100  0.006700  0.832800  1.0  0.1136
  H  H108  1  0.620000  0.981900  0.723400  1.0  0.1282
  H  H109  1  0.779800  0.217000  0.822500  1.0  0.1267
  H  H110  1  0.141100  0.506700  0.832800  1.0  0.1136
  H  H111  1  0.120000  0.481900  0.723400  1.0  0.1282
  H  H112  1  0.279800  0.717000  0.822500  1.0  0.1267
  C  C113  1  0.888930  0.735200  0.440690  1.0  0.1759
  C  C114  1  0.942140  0.778800  0.443600  1.0  -0.2022
  C  C115  1  0.983690  0.731300  0.491670  1.0  0.1321
  C  C116  1  0.968820  0.640100  0.534900  1.0  -0.177
  C  C117  1  0.914460  0.602100  0.529260  1.0  0.1768
  C  C118  1  0.041430  0.769600  0.496620  1.0  -0.1391
  C  C119  1  0.058400  0.862100  0.459100  1.0  -0.1376
  C  C120  1  0.115610  0.900800  0.460830  1.0  0.1066
  C  C121  1  0.127050  0.996800  0.416800  1.0  -0.1893
  C  C122  1  0.180710  0.036200  0.418360  1.0  0.1711
  C  C123  1  0.211860  0.896900  0.504690  1.0  0.1774
  C  C124  1  0.159990  0.848400  0.504870  1.0  -0.1896
  C  C125  1  0.388930  0.235200  0.440690  1.0  0.1759
  C  C126  1  0.442140  0.278800  0.443600  1.0  -0.2022
  C  C127  1  0.483690  0.231300  0.491670  1.0  0.1321
  C  C128  1  0.468820  0.140100  0.534900  1.0  -0.177
  C  C129  1  0.414460  0.102100  0.529260  1.0  0.1768
  C  C130  1  0.541430  0.269600  0.496620  1.0  -0.1391
  C  C131  1  0.558400  0.362100  0.459100  1.0  -0.1376
  C  C132  1  0.615610  0.400800  0.460830  1.0  0.1066
  C  C133  1  0.627050  0.496800  0.416800  1.0  -0.1893
  C  C134  1  0.680710  0.536200  0.418360  1.0  0.1711
  C  C135  1  0.711860  0.396900  0.504690  1.0  0.1774
  C  C136  1  0.659990  0.348400  0.504870  1.0  -0.1896
  C  C137  1  0.274040  0.866500  0.090780  1.0  0.6291
  C  C138  1  0.286960  0.888000  0.161200  1.0  -0.1509
  C  C139  1  0.334480  0.956900  0.191350  1.0  -0.0276
  C  C140  1  0.346780  0.973300  0.256660  1.0  -0.0794
  C  C141  1  0.311000  0.925000  0.292530  1.0  -0.0204
  C  C142  1  0.264250  0.854600  0.261540  1.0  0.0358
  C  C143  1  0.252110  0.833900  0.196980  1.0  -0.0815
  C  C144  1  0.324670  0.950200  0.363260  1.0  0.678
  C  C145  1  0.774040  0.366500  0.090780  1.0  0.6291
  C  C146  1  0.786960  0.388000  0.161200  1.0  -0.1509
  C  C147  1  0.834480  0.456900  0.191350  1.0  -0.0276
  C  C148  1  0.846780  0.473300  0.256660  1.0  -0.0794
  C  C149  1  0.811000  0.425000  0.292530  1.0  -0.0204
  C  C150  1  0.764250  0.354600  0.261540  1.0  0.0358
  C  C151  1  0.752110  0.333900  0.196980  1.0  -0.0815
  C  C152  1  0.824670  0.450200  0.363260  1.0  0.678
  C  C153  1  0.274040  0.133500  0.590780  1.0  0.6292
  C  C154  1  0.286960  0.112000  0.661200  1.0  -0.1508
  C  C155  1  0.334480  0.043100  0.691350  1.0  -0.0275
  C  C156  1  0.346780  0.026700  0.756660  1.0  -0.0791
  C  C157  1  0.311000  0.075000  0.792530  1.0  -0.0208
  C  C158  1  0.264250  0.145400  0.761540  1.0  0.0357
  C  C159  1  0.252110  0.166100  0.696980  1.0  -0.081
  C  C160  1  0.324670  0.049800  0.863260  1.0  0.6777
  C  C161  1  0.774040  0.633500  0.590780  1.0  0.6292
  C  C162  1  0.786960  0.612000  0.661200  1.0  -0.1508
  C  C163  1  0.834480  0.543100  0.691350  1.0  -0.0275
  C  C164  1  0.846780  0.526700  0.756660  1.0  -0.0791
  C  C165  1  0.811000  0.575000  0.792530  1.0  -0.0208
  C  C166  1  0.764250  0.645400  0.761540  1.0  0.0357
  C  C167  1  0.752110  0.666100  0.696980  1.0  -0.081
  C  C168  1  0.824670  0.549800  0.863260  1.0  0.6777
  C  C169  1  0.888930  0.264800  0.940690  1.0  0.1757
  C  C170  1  0.942140  0.221200  0.943600  1.0  -0.2025
  C  C171  1  0.983690  0.268700  0.991670  1.0  0.1326
  C  C172  1  0.968820  0.359900  0.034900  1.0  -0.177
  C  C173  1  0.914460  0.397900  0.029260  1.0  0.1767
  C  C174  1  0.041430  0.230400  0.996620  1.0  -0.1392
  C  C175  1  0.058400  0.137900  0.959100  1.0  -0.1371
  C  C176  1  0.115610  0.099200  0.960830  1.0  0.1071
  C  C177  1  0.127050  0.003200  0.916800  1.0  -0.1892
  C  C178  1  0.180710  0.963800  0.918360  1.0  0.1708
  C  C179  1  0.211860  0.103100  0.004690  1.0  0.1776
  C  C180  1  0.159990  0.151600  0.004870  1.0  -0.1894
  C  C181  1  0.388930  0.764800  0.940690  1.0  0.1757
  C  C182  1  0.442140  0.721200  0.943600  1.0  -0.2025
  C  C183  1  0.483690  0.768700  0.991670  1.0  0.1326
  C  C184  1  0.468820  0.859900  0.034900  1.0  -0.177
  C  C185  1  0.414460  0.897900  0.029260  1.0  0.1767
  C  C186  1  0.541430  0.730400  0.996620  1.0  -0.1392
  C  C187  1  0.558400  0.637900  0.959100  1.0  -0.1371
  C  C188  1  0.615610  0.599200  0.960830  1.0  0.1071
  C  C189  1  0.627050  0.503200  0.916800  1.0  -0.1892
  C  C190  1  0.680710  0.463800  0.918360  1.0  0.1708
  C  C191  1  0.711860  0.603100  0.004690  1.0  0.1776
  C  C192  1  0.659990  0.651600  0.004870  1.0  -0.1894
  C  C193  1  0.725960  0.866500  0.409220  1.0  0.6282
  C  C194  1  0.713040  0.888000  0.338800  1.0  -0.1501
  C  C195  1  0.665520  0.956900  0.308650  1.0  -0.0282
  C  C196  1  0.653220  0.973300  0.243340  1.0  -0.079
  C  C197  1  0.689000  0.925000  0.207470  1.0  -0.0213
  C  C198  1  0.735750  0.854600  0.238460  1.0  0.0351
  C  C199  1  0.747890  0.833900  0.303020  1.0  -0.0789
  C  C200  1  0.675330  0.950200  0.136740  1.0  0.6781
  C  C201  1  0.225960  0.366500  0.409220  1.0  0.6282
  C  C202  1  0.213040  0.388000  0.338800  1.0  -0.1501
  C  C203  1  0.165520  0.456900  0.308650  1.0  -0.0282
  C  C204  1  0.153220  0.473300  0.243340  1.0  -0.079
  C  C205  1  0.189000  0.425000  0.207470  1.0  -0.0213
  C  C206  1  0.235750  0.354600  0.238460  1.0  0.0351
  C  C207  1  0.247890  0.333900  0.303020  1.0  -0.0789
  C  C208  1  0.175330  0.450200  0.136740  1.0  0.6781
  C  C209  1  0.111070  0.735200  0.059310  1.0  0.1759
  C  C210  1  0.057860  0.778800  0.056400  1.0  -0.2052
  C  C211  1  0.016310  0.731300  0.008330  1.0  0.1306
  C  C212  1  0.031180  0.640100  0.965100  1.0  -0.1781
  C  C213  1  0.085540  0.602100  0.970740  1.0  0.1775
  C  C214  1  0.958570  0.769600  0.003380  1.0  -0.1407
  C  C215  1  0.941600  0.862100  0.040900  1.0  -0.1323
  C  C216  1  0.884390  0.900800  0.039170  1.0  0.1082
  C  C217  1  0.872950  0.996800  0.083200  1.0  -0.1895
  C  C218  1  0.819290  0.036200  0.081640  1.0  0.1716
  C  C219  1  0.788140  0.896900  0.995310  1.0  0.1777
  C  C220  1  0.840010  0.848400  0.995130  1.0  -0.19
  C  C221  1  0.611070  0.235200  0.059310  1.0  0.1759
  C  C222  1  0.557860  0.278800  0.056400  1.0  -0.2052
  C  C223  1  0.516310  0.231300  0.008330  1.0  0.1306
  C  C224  1  0.531180  0.140100  0.965100  1.0  -0.1781
  C  C225  1  0.585540  0.102100  0.970740  1.0  0.1775
  C  C226  1  0.458570  0.269600  0.003380  1.0  -0.1407
  C  C227  1  0.441600  0.362100  0.040900  1.0  -0.1323
  C  C228  1  0.384390  0.400800  0.039170  1.0  0.1082
  C  C229  1  0.372950  0.496800  0.083200  1.0  -0.1895
  C  C230  1  0.319290  0.536200  0.081640  1.0  0.1716
  C  C231  1  0.288140  0.396900  0.995310  1.0  0.1777
  C  C232  1  0.340010  0.348400  0.995130  1.0  -0.19
  C  C233  1  0.111070  0.264800  0.559310  1.0  0.1758
  C  C234  1  0.057860  0.221200  0.556400  1.0  -0.2045
  C  C235  1  0.016310  0.268700  0.508330  1.0  0.1309
  C  C236  1  0.031180  0.359900  0.465100  1.0  -0.1783
  C  C237  1  0.085540  0.397900  0.470740  1.0  0.1776
  C  C238  1  0.958570  0.230400  0.503380  1.0  -0.1406
  C  C239  1  0.941600  0.137900  0.540900  1.0  -0.1316
  C  C240  1  0.884390  0.099200  0.539170  1.0  0.1086
  C  C241  1  0.872950  0.003200  0.583200  1.0  -0.1895
  C  C242  1  0.819290  0.963800  0.581640  1.0  0.1715
  C  C243  1  0.788140  0.103100  0.495310  1.0  0.1779
  C  C244  1  0.840010  0.151600  0.495130  1.0  -0.1896
  C  C245  1  0.611070  0.764800  0.559310  1.0  0.1758
  C  C246  1  0.557860  0.721200  0.556400  1.0  -0.2045
  C  C247  1  0.516310  0.768700  0.508330  1.0  0.1309
  C  C248  1  0.531180  0.859900  0.465100  1.0  -0.1783
  C  C249  1  0.585540  0.897900  0.470740  1.0  0.1776
  C  C250  1  0.458570  0.730400  0.503380  1.0  -0.1406
  C  C251  1  0.441600  0.637900  0.540900  1.0  -0.1316
  C  C252  1  0.384390  0.599200  0.539170  1.0  0.1086
  C  C253  1  0.372950  0.503200  0.583200  1.0  -0.1895
  C  C254  1  0.319290  0.463800  0.581640  1.0  0.1715
  C  C255  1  0.288140  0.603100  0.495310  1.0  0.1779
  C  C256  1  0.340010  0.651600  0.495130  1.0  -0.1896
  C  C257  1  0.725960  0.133500  0.909220  1.0  0.6282
  C  C258  1  0.713040  0.112000  0.838800  1.0  -0.1502
  C  C259  1  0.665520  0.043100  0.808650  1.0  -0.0279
  C  C260  1  0.653220  0.026700  0.743340  1.0  -0.0787
  C  C261  1  0.689000  0.075000  0.707470  1.0  -0.0216
  C  C262  1  0.735750  0.145400  0.738460  1.0  0.035
  C  C263  1  0.747890  0.166100  0.803020  1.0  -0.0787
  C  C264  1  0.675330  0.049800  0.636740  1.0  0.6781
  C  C265  1  0.225960  0.633500  0.909220  1.0  0.6282
  C  C266  1  0.213040  0.612000  0.838800  1.0  -0.1502
  C  C267  1  0.165520  0.543100  0.808650  1.0  -0.0279
  C  C268  1  0.153220  0.526700  0.743340  1.0  -0.0787
  C  C269  1  0.189000  0.575000  0.707470  1.0  -0.0216
  C  C270  1  0.235750  0.645400  0.738460  1.0  0.035
  C  C271  1  0.247890  0.666100  0.803020  1.0  -0.0787
  C  C272  1  0.175330  0.549800  0.636740  1.0  0.6781
  N  N273  1  0.874640  0.648100  0.482420  1.0  -0.3019
  N  N274  1  0.222630  0.990200  0.462510  1.0  -0.3111
  N  N275  1  0.374640  0.148100  0.482420  1.0  -0.3019
  N  N276  1  0.722630  0.490200  0.462510  1.0  -0.3111
  N  N277  1  0.225610  0.799200  0.298100  1.0  0.6059
  N  N278  1  0.725610  0.299200  0.298100  1.0  0.6059
  N  N279  1  0.225610  0.200800  0.798100  1.0  0.6057
  N  N280  1  0.725610  0.700800  0.798100  1.0  0.6057
  N  N281  1  0.874640  0.351900  0.982420  1.0  -0.302
  N  N282  1  0.222630  0.009800  0.962510  1.0  -0.3108
  N  N283  1  0.374640  0.851900  0.982420  1.0  -0.302
  N  N284  1  0.722630  0.509800  0.962510  1.0  -0.3108
  N  N285  1  0.774390  0.799200  0.201900  1.0  0.6055
  N  N286  1  0.274390  0.299200  0.201900  1.0  0.6055
  N  N287  1  0.125360  0.648100  0.017580  1.0  -0.3023
  N  N288  1  0.777370  0.990200  0.037490  1.0  -0.3119
  N  N289  1  0.625360  0.148100  0.017580  1.0  -0.3023
  N  N290  1  0.277370  0.490200  0.037490  1.0  -0.3119
  N  N291  1  0.125360  0.351900  0.517580  1.0  -0.3023
  N  N292  1  0.777370  0.009800  0.537490  1.0  -0.3116
  N  N293  1  0.625360  0.851900  0.517580  1.0  -0.3023
  N  N294  1  0.277370  0.509800  0.537490  1.0  -0.3116
  N  N295  1  0.774390  0.200800  0.701900  1.0  0.6056
  N  N296  1  0.274390  0.700800  0.701900  1.0  0.6056
  O  O297  1  0.232930  0.798000  0.066220  1.0  -0.6308
  O  O298  1  0.307830  0.923500  0.061960  1.0  -0.5711
  O  O299  1  0.292200  0.036700  0.381190  1.0  -0.5593
  O  O300  1  0.365020  0.892300  0.394990  1.0  -0.5465
  O  O301  1  0.176290  0.805200  0.274440  1.0  -0.4242
  O  O302  1  0.244150  0.749500  0.350200  1.0  -0.5008
  O  O303  1  0.732930  0.298000  0.066220  1.0  -0.6308
  O  O304  1  0.807830  0.423500  0.061960  1.0  -0.571
  O  O305  1  0.792200  0.536700  0.381190  1.0  -0.5593
  O  O306  1  0.865020  0.392300  0.394990  1.0  -0.5465
  O  O307  1  0.676290  0.305200  0.274440  1.0  -0.4242
  O  O308  1  0.744150  0.249500  0.350200  1.0  -0.5008
  O  O309  1  0.232930  0.202000  0.566220  1.0  -0.6307
  O  O310  1  0.307830  0.076500  0.561960  1.0  -0.5708
  O  O311  1  0.292200  0.963300  0.881190  1.0  -0.5596
  O  O312  1  0.365020  0.107700  0.894990  1.0  -0.5459
  O  O313  1  0.176290  0.194800  0.774440  1.0  -0.4228
  O  O314  1  0.244150  0.250500  0.850200  1.0  -0.5019
  O  O315  1  0.732930  0.702000  0.566220  1.0  -0.6307
  O  O316  1  0.807830  0.576500  0.561960  1.0  -0.5708
  O  O317  1  0.792200  0.463300  0.881190  1.0  -0.5596
  O  O318  1  0.865020  0.607700  0.894990  1.0  -0.5459
  O  O319  1  0.676290  0.694800  0.774440  1.0  -0.4228
  O  O320  1  0.744150  0.750500  0.850200  1.0  -0.5019
  O  O321  1  0.767070  0.798000  0.433780  1.0  -0.6312
  O  O322  1  0.692170  0.923500  0.438040  1.0  -0.5711
  O  O323  1  0.707800  0.036700  0.118810  1.0  -0.5605
  O  O324  1  0.634980  0.892300  0.105010  1.0  -0.5457
  O  O325  1  0.823710  0.805200  0.225560  1.0  -0.4246
  O  O326  1  0.755850  0.749500  0.149800  1.0  -0.5026
  O  O327  1  0.267070  0.298000  0.433780  1.0  -0.6312
  O  O328  1  0.192170  0.423500  0.438040  1.0  -0.5711
  O  O329  1  0.207800  0.536700  0.118810  1.0  -0.5605
  O  O330  1  0.134980  0.392300  0.105010  1.0  -0.5457
  O  O331  1  0.323710  0.305200  0.225560  1.0  -0.4246
  O  O332  1  0.255850  0.249500  0.149800  1.0  -0.5026
  O  O333  1  0.767070  0.202000  0.933780  1.0  -0.6311
  O  O334  1  0.692170  0.076500  0.938040  1.0  -0.5708
  O  O335  1  0.707800  0.963300  0.618810  1.0  -0.5607
  O  O336  1  0.634980  0.107700  0.605010  1.0  -0.5453
  O  O337  1  0.823710  0.194800  0.725560  1.0  -0.4256
  O  O338  1  0.755850  0.250500  0.649800  1.0  -0.5031
  O  O339  1  0.267070  0.702000  0.933780  1.0  -0.6311
  O  O340  1  0.192170  0.576500  0.938040  1.0  -0.5708
  O  O341  1  0.207800  0.463300  0.618810  1.0  -0.5607
  O  O342  1  0.134980  0.607700  0.605010  1.0  -0.5453
  O  O343  1  0.323710  0.694800  0.725560  1.0  -0.4256
  O  O344  1  0.255850  0.750500  0.649800  1.0  -0.5031
