# generated using pymatgen
data_CdH12(C5N2)3
_symmetry_space_group_name_H-M   'P 1'
_cell_length_a   9.04200000
_cell_length_b   9.04200000
_cell_length_c   27.23100000
_cell_angle_alpha   90.00000000
_cell_angle_beta   90.00000000
_cell_angle_gamma   90.00000000
_symmetry_Int_Tables_number   1
_chemical_formula_structural   CdH12(C5N2)3
_chemical_formula_sum   'Cd4 H48 C60 N24'
_cell_volume   2226.34567148
_cell_formula_units_Z   4
loop_
 _symmetry_equiv_pos_site_id
 _symmetry_equiv_pos_as_xyz
  1  'x, y, z'
loop_
 _atom_site_type_symbol
 _atom_site_label
 _atom_site_symmetry_multiplicity
 _atom_site_fract_x
 _atom_site_fract_y
 _atom_site_fract_z
 _atom_site_occupancy
 _atom_site_charge
  Cd  Cd1  1  0.185520  0.382490  0.199680  1.0  0.3538
  Cd  Cd2  1  0.814480  0.617510  0.699680  1.0  0.3538
  Cd  Cd3  1  0.617510  0.185520  0.449680  1.0  0.3551
  Cd  Cd4  1  0.382490  0.814480  0.949680  1.0  0.3526
  H  H5  1  0.416600  0.825000  0.332500  1.0  0.1015
  H  H6  1  0.663700  0.922400  0.213900  1.0  0.1073
  H  H7  1  0.709600  0.526500  0.280900  1.0  0.1117
  H  H8  1  0.378500  0.046800  0.200100  1.0  0.0765
  H  H9  1  0.338500  0.329000  0.308300  1.0  0.0781
  H  H10  1  0.486100  0.120500  0.338800  1.0  0.1097
  H  H11  1  0.836500  0.460900  0.211400  1.0  0.0799
  H  H12  1  0.096700  0.742800  0.145800  1.0  0.0828
  H  H13  1  0.905300  0.886400  0.186800  1.0  0.1062
  H  H14  1  0.692100  0.421400  0.357500  1.0  0.0775
  H  H15  1  0.304500  0.623200  0.372300  1.0  0.1164
  H  H16  1  0.317900  0.415300  0.429900  1.0  0.0787
  H  H17  1  0.583400  0.175000  0.832500  1.0  0.1016
  H  H18  1  0.336300  0.077600  0.713900  1.0  0.1068
  H  H19  1  0.290400  0.473500  0.780900  1.0  0.1117
  H  H20  1  0.621500  0.953200  0.700100  1.0  0.076
  H  H21  1  0.661500  0.671000  0.808300  1.0  0.0772
  H  H22  1  0.513900  0.879500  0.838800  1.0  0.1098
  H  H23  1  0.163500  0.539100  0.711400  1.0  0.0777
  H  H24  1  0.903300  0.257200  0.645800  1.0  0.0825
  H  H25  1  0.094700  0.113600  0.686800  1.0  0.1077
  H  H26  1  0.307900  0.578600  0.857500  1.0  0.0768
  H  H27  1  0.695500  0.376800  0.872300  1.0  0.1165
  H  H28  1  0.682100  0.584700  0.929900  1.0  0.0782
  H  H29  1  0.175000  0.416600  0.582500  1.0  0.101
  H  H30  1  0.077600  0.663700  0.463900  1.0  0.1074
  H  H31  1  0.473500  0.709600  0.530900  1.0  0.1107
  H  H32  1  0.953200  0.378500  0.450100  1.0  0.0757
  H  H33  1  0.671000  0.338500  0.558300  1.0  0.0779
  H  H34  1  0.879500  0.486100  0.588800  1.0  0.11
  H  H35  1  0.539100  0.836500  0.461400  1.0  0.0747
  H  H36  1  0.257200  0.096700  0.395800  1.0  0.0817
  H  H37  1  0.113600  0.905300  0.436800  1.0  0.1065
  H  H38  1  0.578600  0.692100  0.607500  1.0  0.0793
  H  H39  1  0.376800  0.304500  0.622300  1.0  0.1163
  H  H40  1  0.584700  0.317900  0.679900  1.0  0.0785
  H  H41  1  0.825000  0.583400  0.082500  1.0  0.1009
  H  H42  1  0.922400  0.336300  0.963900  1.0  0.107
  H  H43  1  0.526500  0.290400  0.030900  1.0  0.1136
  H  H44  1  0.046800  0.621500  0.950100  1.0  0.0754
  H  H45  1  0.329000  0.661500  0.058300  1.0  0.0783
  H  H46  1  0.120500  0.513900  0.088800  1.0  0.1099
  H  H47  1  0.460900  0.163500  0.961400  1.0  0.0741
  H  H48  1  0.742800  0.903300  0.895800  1.0  0.081
  H  H49  1  0.886400  0.094700  0.936800  1.0  0.1072
  H  H50  1  0.421400  0.307900  0.107500  1.0  0.0791
  H  H51  1  0.623200  0.695500  0.122300  1.0  0.1165
  H  H52  1  0.415300  0.682100  0.179900  1.0  0.0789
  C  C53  1  0.488300  0.797500  0.309770  1.0  -0.2666
  C  C54  1  0.529900  0.891700  0.272680  1.0  0.1192
  C  C55  1  0.638000  0.856500  0.238740  1.0  -0.2438
  C  C56  1  0.707000  0.720000  0.242780  1.0  0.1329
  C  C57  1  0.665200  0.619100  0.279100  1.0  -0.23
  C  C58  1  0.556600  0.659400  0.312370  1.0  0.1253
  C  C59  1  0.386800  0.091900  0.230680  1.0  0.1286
  C  C60  1  0.365600  0.246000  0.290240  1.0  -0.0094
  C  C61  1  0.446700  0.131000  0.307480  1.0  -0.1541
  C  C62  1  0.878000  0.548700  0.200160  1.0  0.0914
  C  C63  1  0.019600  0.703700  0.164290  1.0  -0.0168
  C  C64  1  0.914800  0.784000  0.186940  1.0  -0.1842
  C  C65  1  0.597200  0.444900  0.368110  1.0  0.0981
  C  C66  1  0.383100  0.557800  0.376020  1.0  -0.1782
  C  C67  1  0.391400  0.442600  0.407820  1.0  0.0075
  C  C68  1  0.511700  0.202500  0.809770  1.0  -0.2657
  C  C69  1  0.470100  0.108300  0.772680  1.0  0.1192
  C  C70  1  0.362000  0.143500  0.738740  1.0  -0.2464
  C  C71  1  0.293000  0.280000  0.742780  1.0  0.1329
  C  C72  1  0.334800  0.380900  0.779100  1.0  -0.2309
  C  C73  1  0.443400  0.340600  0.812370  1.0  0.1252
  C  C74  1  0.613200  0.908100  0.730680  1.0  0.1283
  C  C75  1  0.634400  0.754000  0.790240  1.0  -0.0094
  C  C76  1  0.553300  0.869000  0.807480  1.0  -0.1553
  C  C77  1  0.122000  0.451300  0.700160  1.0  0.0903
  C  C78  1  0.980400  0.296300  0.664290  1.0  -0.0173
  C  C79  1  0.085200  0.216000  0.686940  1.0  -0.1817
  C  C80  1  0.402800  0.555100  0.868110  1.0  0.0952
  C  C81  1  0.616900  0.442200  0.876020  1.0  -0.1782
  C  C82  1  0.608600  0.557400  0.907820  1.0  0.0075
  C  C83  1  0.202500  0.488300  0.559770  1.0  -0.2668
  C  C84  1  0.108300  0.529900  0.522680  1.0  0.1187
  C  C85  1  0.143500  0.638000  0.488740  1.0  -0.2449
  C  C86  1  0.280000  0.707000  0.492780  1.0  0.1313
  C  C87  1  0.380900  0.665200  0.529100  1.0  -0.2278
  C  C88  1  0.340600  0.556600  0.562370  1.0  0.1255
  C  C89  1  0.908100  0.386800  0.480680  1.0  0.1275
  C  C90  1  0.754000  0.365600  0.540240  1.0  -0.0102
  C  C91  1  0.869000  0.446700  0.557480  1.0  -0.1548
  C  C92  1  0.451300  0.878000  0.450160  1.0  0.0918
  C  C93  1  0.296300  0.019600  0.414290  1.0  -0.0163
  C  C94  1  0.216000  0.914800  0.436940  1.0  -0.1806
  C  C95  1  0.555100  0.597200  0.618110  1.0  0.0965
  C  C96  1  0.442200  0.383100  0.626020  1.0  -0.1772
  C  C97  1  0.557400  0.391400  0.657820  1.0  0.0078
  C  C98  1  0.797500  0.511700  0.059770  1.0  -0.2642
  C  C99  1  0.891700  0.470100  0.022680  1.0  0.12
  C  C100  1  0.856500  0.362000  0.988740  1.0  -0.2432
  C  C101  1  0.720000  0.293000  0.992780  1.0  0.1318
  C  C102  1  0.619100  0.334800  0.029100  1.0  -0.2295
  C  C103  1  0.659400  0.443400  0.062370  1.0  0.1256
  C  C104  1  0.091900  0.613200  0.980680  1.0  0.1269
  C  C105  1  0.246000  0.634400  0.040240  1.0  -0.0095
  C  C106  1  0.131000  0.553300  0.057480  1.0  -0.1547
  C  C107  1  0.548700  0.122000  0.950160  1.0  0.09
  C  C108  1  0.703700  0.980400  0.914290  1.0  -0.017
  C  C109  1  0.784000  0.085200  0.936940  1.0  -0.1805
  C  C110  1  0.444900  0.402800  0.118110  1.0  0.0959
  C  C111  1  0.557800  0.616900  0.126020  1.0  -0.1774
  C  C112  1  0.442600  0.608600  0.157820  1.0  0.0064
  N  N113  1  0.329900  0.220700  0.242070  1.0  -0.3076
  N  N114  1  0.458600  0.034200  0.269420  1.0  0.0325
  N  N115  1  0.996600  0.556500  0.172310  1.0  -0.3406
  N  N116  1  0.824500  0.684300  0.210290  1.0  0.0245
  N  N117  1  0.514800  0.558500  0.350230  1.0  0.0096
  N  N118  1  0.524800  0.372900  0.402390  1.0  -0.3129
  N  N119  1  0.670100  0.779300  0.742070  1.0  -0.3126
  N  N120  1  0.541400  0.965800  0.769420  1.0  0.0334
  N  N121  1  0.003400  0.443500  0.672310  1.0  -0.339
  N  N122  1  0.175500  0.315700  0.710290  1.0  0.0253
  N  N123  1  0.485200  0.441500  0.850230  1.0  0.0093
  N  N124  1  0.475200  0.627100  0.902390  1.0  -0.3124
  N  N125  1  0.779300  0.329900  0.492070  1.0  -0.3095
  N  N126  1  0.965800  0.458600  0.519420  1.0  0.032
  N  N127  1  0.443500  0.996600  0.422310  1.0  -0.3381
  N  N128  1  0.315700  0.824500  0.460290  1.0  0.0241
  N  N129  1  0.441500  0.514800  0.600230  1.0  0.0108
  N  N130  1  0.627100  0.524800  0.652390  1.0  -0.3147
  N  N131  1  0.220700  0.670100  0.992070  1.0  -0.3115
  N  N132  1  0.034200  0.541400  0.019420  1.0  0.0323
  N  N133  1  0.556500  0.003400  0.922310  1.0  -0.3385
  N  N134  1  0.684300  0.175500  0.960290  1.0  0.0248
  N  N135  1  0.558500  0.485200  0.100230  1.0  0.0118
  N  N136  1  0.372900  0.475200  0.152390  1.0  -0.3135
