# generated using pymatgen
data_CdH16C23N6O5
_symmetry_space_group_name_H-M   'P 1'
_cell_length_a   9.81200000
_cell_length_b   14.28300000
_cell_length_c   19.57200000
_cell_angle_alpha   90.00000000
_cell_angle_beta   96.94100000
_cell_angle_gamma   90.00000000
_symmetry_Int_Tables_number   1
_chemical_formula_structural   CdH16C23N6O5
_chemical_formula_sum   'Cd4 H64 C92 N24 O20'
_cell_volume   2722.81145916
_cell_formula_units_Z   4
loop_
 _symmetry_equiv_pos_site_id
 _symmetry_equiv_pos_as_xyz
  1  'x, y, z'
loop_
 _atom_site_type_symbol
 _atom_site_label
 _atom_site_symmetry_multiplicity
 _atom_site_fract_x
 _atom_site_fract_y
 _atom_site_fract_z
 _atom_site_occupancy
 _atom_site_charge
  Cd  Cd1  1  0.734020  0.249520  0.348630  1.0  0.9538
  Cd  Cd2  1  0.765980  0.749520  0.151370  1.0  0.9543
  Cd  Cd3  1  0.265980  0.750480  0.651370  1.0  0.9544
  Cd  Cd4  1  0.234020  0.250480  0.848630  1.0  0.954
  H  H5  1  0.228500  0.003100  0.231600  1.0  0.1145
  H  H6  1  0.167800  0.982800  0.430800  1.0  0.1294
  H  H7  1  0.526800  0.900100  0.370200  1.0  0.1166
  H  H8  1  0.044000  0.146300  0.380400  1.0  0.0912
  H  H9  1  0.748000  0.057600  0.244900  1.0  0.1031
  H  H10  1  0.947400  0.957700  0.235200  1.0  0.13
  H  H11  1  0.234000  0.924500  0.530200  1.0  0.1025
  H  H12  1  0.586300  0.810100  0.597500  1.0  0.1024
  H  H13  1  0.600000  0.857900  0.478800  1.0  0.126
  H  H14  1  0.583900  0.818400  0.271800  1.0  0.097
  H  H15  1  0.596300  0.963400  0.103700  1.0  0.0962
  H  H16  1  0.424000  0.036500  0.166300  1.0  0.1159
  H  H17  1  0.505700  0.238900  0.096500  1.0  0.1099
  H  H18  1  0.275400  0.223800  0.251400  1.0  0.105
  H  H19  1  0.106100  0.170800  0.058300  1.0  0.1131
  H  H20  1  0.989800  0.164900  0.154500  1.0  0.3789
  H  H21  1  0.271500  0.503100  0.268400  1.0  0.1143
  H  H22  1  0.332200  0.482800  0.069200  1.0  0.1301
  H  H23  1  0.973200  0.400100  0.129800  1.0  0.1165
  H  H24  1  0.456000  0.646300  0.119600  1.0  0.0916
  H  H25  1  0.752000  0.557600  0.255100  1.0  0.1048
  H  H26  1  0.552600  0.457700  0.264800  1.0  0.1289
  H  H27  1  0.266000  0.424500  0.969800  1.0  0.1028
  H  H28  1  0.913700  0.310100  0.902500  1.0  0.102
  H  H29  1  0.900000  0.357900  0.021200  1.0  0.1264
  H  H30  1  0.916100  0.318400  0.228200  1.0  0.097
  H  H31  1  0.903700  0.463400  0.396300  1.0  0.0958
  H  H32  1  0.076000  0.536500  0.333700  1.0  0.1162
  H  H33  1  0.994300  0.738900  0.403500  1.0  0.1095
  H  H34  1  0.224600  0.723800  0.248600  1.0  0.1041
  H  H35  1  0.393900  0.670800  0.441700  1.0  0.113
  H  H36  1  0.510200  0.664900  0.345500  1.0  0.3789
  H  H37  1  0.771500  0.996900  0.768400  1.0  0.1142
  H  H38  1  0.832200  0.017200  0.569200  1.0  0.1298
  H  H39  1  0.473200  0.099900  0.629800  1.0  0.1162
  H  H40  1  0.956000  0.853700  0.619600  1.0  0.0914
  H  H41  1  0.252000  0.942400  0.755100  1.0  0.1041
  H  H42  1  0.052600  0.042300  0.764800  1.0  0.1284
  H  H43  1  0.766000  0.075500  0.469800  1.0  0.103
  H  H44  1  0.413700  0.189900  0.402500  1.0  0.1028
  H  H45  1  0.400000  0.142100  0.521200  1.0  0.126
  H  H46  1  0.416100  0.181600  0.728200  1.0  0.0973
  H  H47  1  0.403700  0.036600  0.896300  1.0  0.0958
  H  H48  1  0.576000  0.963500  0.833700  1.0  0.1165
  H  H49  1  0.494300  0.761100  0.903500  1.0  0.1094
  H  H50  1  0.724600  0.776200  0.748600  1.0  0.1043
  H  H51  1  0.893900  0.829200  0.941700  1.0  0.1131
  H  H52  1  0.010200  0.835100  0.845500  1.0  0.3787
  H  H53  1  0.728500  0.496900  0.731600  1.0  0.1147
  H  H54  1  0.667800  0.517200  0.930800  1.0  0.1297
  H  H55  1  0.026800  0.599900  0.870200  1.0  0.1164
  H  H56  1  0.544000  0.353700  0.880400  1.0  0.0917
  H  H57  1  0.248000  0.442400  0.744900  1.0  0.104
  H  H58  1  0.447400  0.542300  0.735200  1.0  0.1303
  H  H59  1  0.734000  0.575500  0.030200  1.0  0.1028
  H  H60  1  0.086300  0.689900  0.097500  1.0  0.1024
  H  H61  1  0.100000  0.642100  0.978800  1.0  0.1265
  H  H62  1  0.083900  0.681600  0.771800  1.0  0.0967
  H  H63  1  0.096300  0.536600  0.603700  1.0  0.0959
  H  H64  1  0.924000  0.463500  0.666300  1.0  0.116
  H  H65  1  0.005700  0.261100  0.596500  1.0  0.1098
  H  H66  1  0.775400  0.276200  0.751400  1.0  0.1053
  H  H67  1  0.606100  0.329200  0.558300  1.0  0.1135
  H  H68  1  0.489800  0.335100  0.654500  1.0  0.3785
  C  C69  1  0.260600  0.986700  0.276600  1.0  -0.2191
  C  C70  1  0.180300  0.998900  0.329200  1.0  0.1456
  C  C71  1  0.224200  0.974200  0.396400  1.0  -0.1585
  C  C72  1  0.354200  0.936300  0.411300  1.0  0.1155
  C  C73  1  0.438800  0.924400  0.360000  1.0  -0.1745
  C  C74  1  0.389400  0.949500  0.293100  1.0  0.1273
  C  C75  1  0.994400  0.111800  0.345500  1.0  0.1594
  C  C76  1  0.833300  0.063200  0.271000  1.0  0.0372
  C  C77  1  0.942600  0.007100  0.265800  1.0  -0.1437
  C  C78  1  0.323200  0.901700  0.532400  1.0  0.143
  C  C79  1  0.516200  0.839100  0.568900  1.0  0.0393
  C  C80  1  0.525200  0.865600  0.503300  1.0  -0.1639
  C  C81  1  0.566600  0.864100  0.238000  1.0  0.156
  C  C82  1  0.572400  0.943500  0.145900  1.0  -0.0051
  C  C83  1  0.477300  0.984500  0.180200  1.0  -0.1444
  C  C84  1  0.533900  0.251600  0.233300  1.0  0.6589
  C  C85  1  0.316200  0.206900  0.989500  1.0  0.6711
  C  C86  1  0.307200  0.205700  0.065600  1.0  -0.1489
  C  C87  1  0.421300  0.227900  0.112100  1.0  -0.0125
  C  C88  1  0.408600  0.233700  0.182000  1.0  -0.1672
  C  C89  1  0.283600  0.218900  0.204700  1.0  -0.1583
  C  C90  1  0.168800  0.196600  0.158500  1.0  0.3229
  C  C91  1  0.181400  0.188100  0.089100  1.0  -0.1535
  C  C92  1  0.239400  0.486700  0.223400  1.0  -0.2191
  C  C93  1  0.319700  0.498900  0.170800  1.0  0.1475
  C  C94  1  0.275800  0.474200  0.103600  1.0  -0.1603
  C  C95  1  0.145800  0.436300  0.088700  1.0  0.1154
  C  C96  1  0.061200  0.424400  0.140000  1.0  -0.1747
  C  C97  1  0.110600  0.449500  0.206900  1.0  0.1283
  C  C98  1  0.505600  0.611800  0.154500  1.0  0.1594
  C  C99  1  0.666667  0.563200  0.229000  1.0  0.037
  C  C100  1  0.557400  0.507100  0.234200  1.0  -0.1425
  C  C101  1  0.176800  0.401700  0.967600  1.0  0.1427
  C  C102  1  0.983800  0.339100  0.931100  1.0  0.0382
  C  C103  1  0.974800  0.365600  0.996700  1.0  -0.1655
  C  C104  1  0.933400  0.364100  0.262000  1.0  0.1568
  C  C105  1  0.927600  0.443500  0.354100  1.0  -0.0064
  C  C106  1  0.022700  0.484500  0.319800  1.0  -0.1424
  C  C107  1  0.966100  0.751600  0.266700  1.0  0.6592
  C  C108  1  0.183800  0.706900  0.510500  1.0  0.6716
  C  C109  1  0.192800  0.705700  0.434400  1.0  -0.1492
  C  C110  1  0.078700  0.727900  0.387900  1.0  -0.0138
  C  C111  1  0.091400  0.733700  0.318000  1.0  -0.1674
  C  C112  1  0.216400  0.718900  0.295300  1.0  -0.1559
  C  C113  1  0.331200  0.696600  0.341500  1.0  0.3235
  C  C114  1  0.318600  0.688100  0.410900  1.0  -0.1538
  C  C115  1  0.739400  0.013300  0.723400  1.0  -0.2188
  C  C116  1  0.819700  0.001100  0.670800  1.0  0.1472
  C  C117  1  0.775800  0.025800  0.603600  1.0  -0.1603
  C  C118  1  0.645800  0.063700  0.588700  1.0  0.1154
  C  C119  1  0.561200  0.075600  0.640000  1.0  -0.1747
  C  C120  1  0.610600  0.050500  0.706900  1.0  0.1283
  C  C121  1  0.005600  0.888200  0.654500  1.0  0.1596
  C  C122  1  0.166700  0.936800  0.729000  1.0  0.0378
  C  C123  1  0.057400  0.992900  0.734200  1.0  -0.1428
  C  C124  1  0.676800  0.098300  0.467600  1.0  0.1432
  C  C125  1  0.483800  0.160900  0.431100  1.0  0.0392
  C  C126  1  0.474800  0.134400  0.496700  1.0  -0.1664
  C  C127  1  0.433400  0.135900  0.762000  1.0  0.1566
  C  C128  1  0.427600  0.056500  0.854100  1.0  -0.0064
  C  C129  1  0.522700  0.015500  0.819800  1.0  -0.1423
  C  C130  1  0.466100  0.748400  0.766700  1.0  0.6591
  C  C131  1  0.683800  0.793100  0.010500  1.0  0.6722
  C  C132  1  0.692800  0.794300  0.934400  1.0  -0.1484
  C  C133  1  0.578700  0.772100  0.887900  1.0  -0.0127
  C  C134  1  0.591400  0.766300  0.818000  1.0  -0.1679
  C  C135  1  0.716400  0.781100  0.795300  1.0  -0.1561
  C  C136  1  0.831200  0.803400  0.841500  1.0  0.3241
  C  C137  1  0.818600  0.811900  0.910900  1.0  -0.1533
  C  C138  1  0.760600  0.513300  0.776600  1.0  -0.2183
  C  C139  1  0.680300  0.501100  0.829200  1.0  0.1453
  C  C140  1  0.724200  0.525800  0.896400  1.0  -0.1588
  C  C141  1  0.854200  0.563700  0.911300  1.0  0.1156
  C  C142  1  0.938800  0.575600  0.860000  1.0  -0.1746
  C  C143  1  0.889400  0.550500  0.793100  1.0  0.1272
  C  C144  1  0.494400  0.388200  0.845500  1.0  0.16
  C  C145  1  0.333333  0.436800  0.771000  1.0  0.0359
  C  C146  1  0.442600  0.492900  0.765800  1.0  -0.1428
  C  C147  1  0.823200  0.598300  0.032400  1.0  0.1439
  C  C148  1  0.016200  0.660900  0.068900  1.0  0.04
  C  C149  1  0.025200  0.634400  0.003300  1.0  -0.165
  C  C150  1  0.066600  0.635900  0.738000  1.0  0.155
  C  C151  1  0.072400  0.556500  0.645900  1.0  -0.0046
  C  C152  1  0.977300  0.515500  0.680200  1.0  -0.144
  C  C153  1  0.033900  0.248400  0.733300  1.0  0.6589
  C  C154  1  0.816200  0.293100  0.489500  1.0  0.673
  C  C155  1  0.807200  0.294300  0.565600  1.0  -0.1488
  C  C156  1  0.921300  0.272100  0.612100  1.0  -0.0128
  C  C157  1  0.908600  0.266300  0.682000  1.0  -0.1674
  C  C158  1  0.783600  0.281100  0.704700  1.0  -0.1587
  C  C159  1  0.668800  0.303400  0.658500  1.0  0.3234
  C  C160  1  0.681400  0.311900  0.589100  1.0  -0.1532
  N  N161  1  0.867400  0.129300  0.320500  1.0  -0.352
  N  N162  1  0.044300  0.037400  0.314240  1.0  0.0366
  N  N163  1  0.389900  0.861000  0.587300  1.0  -0.364
  N  N164  1  0.401100  0.906200  0.479900  1.0  0.0399
  N  N165  1  0.628400  0.868700  0.182300  1.0  -0.3556
  N  N166  1  0.475100  0.933600  0.239960  1.0  0.0394
  N  N167  1  0.632600  0.629300  0.179500  1.0  -0.3522
  N  N168  1  0.455700  0.537400  0.185760  1.0  0.0374
  N  N169  1  0.110100  0.361000  0.912700  1.0  -0.3644
  N  N170  1  0.098900  0.406200  0.020100  1.0  0.0391
  N  N171  1  0.871600  0.368700  0.317700  1.0  -0.3572
  N  N172  1  0.024900  0.433600  0.260040  1.0  0.0396
  N  N173  1  0.132600  0.870700  0.679500  1.0  -0.3525
  N  N174  1  0.955700  0.962600  0.685760  1.0  0.0373
  N  N175  1  0.610100  0.139000  0.412700  1.0  -0.3644
  N  N176  1  0.598900  0.093800  0.520100  1.0  0.0393
  N  N177  1  0.371600  0.131300  0.817700  1.0  -0.3573
  N  N178  1  0.524900  0.066400  0.760040  1.0  0.0397
  N  N179  1  0.367400  0.370700  0.820500  1.0  -0.3519
  N  N180  1  0.544300  0.462600  0.814240  1.0  0.0366
  N  N181  1  0.889900  0.639000  0.087300  1.0  -0.365
  N  N182  1  0.901100  0.593800  0.979900  1.0  0.0399
  N  N183  1  0.128400  0.631300  0.682300  1.0  -0.3562
  N  N184  1  0.975100  0.566400  0.739960  1.0  0.0398
  O  O185  1  0.650700  0.241200  0.215200  1.0  -0.6474
  O  O186  1  0.517200  0.274700  0.293220  1.0  -0.6128
  O  O187  1  0.413600  0.249000  0.966900  1.0  -0.5899
  O  O188  1  0.219600  0.169900  0.950250  1.0  -0.5912
  O  O189  1  0.048300  0.183400  0.184940  1.0  -0.5176
  O  O190  1  0.849300  0.741200  0.284800  1.0  -0.6472
  O  O191  1  0.982800  0.774700  0.206780  1.0  -0.6107
  O  O192  1  0.086400  0.749000  0.533100  1.0  -0.588
  O  O193  1  0.280400  0.669900  0.549750  1.0  -0.5921
  O  O194  1  0.451700  0.683400  0.315060  1.0  -0.5206
  O  O195  1  0.349300  0.758800  0.784800  1.0  -0.6462
  O  O196  1  0.482800  0.725300  0.706780  1.0  -0.611
  O  O197  1  0.586400  0.751000  0.033100  1.0  -0.5891
  O  O198  1  0.780400  0.830100  0.049750  1.0  -0.5926
  O  O199  1  0.951700  0.816600  0.815060  1.0  -0.5202
  O  O200  1  0.150700  0.258800  0.715200  1.0  -0.6481
  O  O201  1  0.017200  0.225300  0.793220  1.0  -0.6117
  O  O202  1  0.913600  0.251000  0.466900  1.0  -0.5899
  O  O203  1  0.719600  0.330100  0.450250  1.0  -0.5905
  O  O204  1  0.548300  0.316600  0.684940  1.0  -0.5171
