# generated using pymatgen
data_CdH18C24(N3O2)2
_symmetry_space_group_name_H-M   'P 1'
_cell_length_a   11.56400000
_cell_length_b   22.34700000
_cell_length_c   10.17900000
_cell_angle_alpha   90.00000000
_cell_angle_beta   103.34300000
_cell_angle_gamma   90.00000000
_symmetry_Int_Tables_number   1
_chemical_formula_structural   CdH18C24(N3O2)2
_chemical_formula_sum   'Cd4 H72 C96 N24 O16'
_cell_volume   2559.45749518
_cell_formula_units_Z   4
loop_
 _symmetry_equiv_pos_site_id
 _symmetry_equiv_pos_as_xyz
  1  'x, y, z'
loop_
 _atom_site_type_symbol
 _atom_site_label
 _atom_site_symmetry_multiplicity
 _atom_site_fract_x
 _atom_site_fract_y
 _atom_site_fract_z
 _atom_site_occupancy
 _atom_site_charge
  Cd  Cd1  1  0.186770  0.090060  0.854860  1.0  0.9673
  Cd  Cd2  1  0.813230  0.590060  0.645140  1.0  0.9672
  Cd  Cd3  1  0.813230  0.909940  0.145140  1.0  0.9674
  Cd  Cd4  1  0.186770  0.409940  0.354860  1.0  0.9675
  H  H5  1  0.095700  0.788700  0.690300  1.0  0.1257
  H  H6  1  0.379800  0.871900  0.920000  1.0  0.1117
  H  H7  1  0.379000  0.692400  0.883500  1.0  0.1142
  H  H8  1  0.261800  0.949400  0.920800  1.0  0.0936
  H  H9  1  0.990500  0.989500  0.627900  1.0  0.0898
  H  H10  1  0.031400  0.883600  0.604100  1.0  0.1286
  H  H11  1  0.583100  0.857200  0.935000  1.0  0.0854
  H  H12  1  0.725200  0.751800  0.232600  1.0  0.0962
  H  H13  1  0.529700  0.710900  0.128000  1.0  0.1201
  H  H14  1  0.998400  0.701100  0.768600  1.0  0.0971
  H  H15  1  0.096200  0.555900  0.609600  1.0  0.0901
  H  H16  1  0.271500  0.620400  0.666200  1.0  0.1319
  H  H17  1  0.694700  0.110100  0.453900  1.0  0.1182
  H  H18  1  0.686200  0.043600  0.403700  1.0  0.1164
  H  H19  1  0.694200  0.057700  0.556300  1.0  0.1172
  H  H20  1  0.199700  0.090500  0.365000  1.0  0.1064
  H  H21  1  0.515400  0.082300  0.630100  1.0  0.1049
  H  H22  1  0.498200  0.063700  0.235900  1.0  0.0979
  H  H23  1  0.904300  0.288700  0.809700  1.0  0.1259
  H  H24  1  0.620200  0.371900  0.580000  1.0  0.1119
  H  H25  1  0.621000  0.192400  0.616500  1.0  0.114
  H  H26  1  0.738200  0.449400  0.579200  1.0  0.0934
  H  H27  1  0.009500  0.489500  0.872100  1.0  0.0901
  H  H28  1  0.968600  0.383600  0.895900  1.0  0.1287
  H  H29  1  0.416900  0.357200  0.565000  1.0  0.0865
  H  H30  1  0.274800  0.251800  0.267400  1.0  0.0968
  H  H31  1  0.470300  0.210900  0.372000  1.0  0.1203
  H  H32  1  0.001600  0.201100  0.731400  1.0  0.0975
  H  H33  1  0.903800  0.055900  0.890400  1.0  0.0906
  H  H34  1  0.728500  0.120400  0.833800  1.0  0.1319
  H  H35  1  0.305300  0.610100  0.046100  1.0  0.1186
  H  H36  1  0.313800  0.543600  0.096300  1.0  0.1166
  H  H37  1  0.305800  0.557700  0.943700  1.0  0.1164
  H  H38  1  0.800300  0.590500  0.135000  1.0  0.1068
  H  H39  1  0.484600  0.582300  0.869900  1.0  0.1053
  H  H40  1  0.501800  0.563700  0.264100  1.0  0.0976
  H  H41  1  0.904300  0.211300  0.309700  1.0  0.1258
  H  H42  1  0.620200  0.128100  0.080000  1.0  0.1121
  H  H43  1  0.621000  0.307600  0.116500  1.0  0.1141
  H  H44  1  0.738200  0.050600  0.079200  1.0  0.0933
  H  H45  1  0.009500  0.010500  0.372100  1.0  0.0902
  H  H46  1  0.968600  0.116400  0.395900  1.0  0.1286
  H  H47  1  0.416900  0.142800  0.065000  1.0  0.0864
  H  H48  1  0.274800  0.248200  0.767400  1.0  0.0967
  H  H49  1  0.470300  0.289100  0.872000  1.0  0.1201
  H  H50  1  0.001600  0.298900  0.231400  1.0  0.0969
  H  H51  1  0.903800  0.444100  0.390400  1.0  0.0903
  H  H52  1  0.728500  0.379600  0.333800  1.0  0.1318
  H  H53  1  0.305300  0.889900  0.546100  1.0  0.1152
  H  H54  1  0.313800  0.956400  0.596300  1.0  0.1168
  H  H55  1  0.305800  0.942300  0.443700  1.0  0.1163
  H  H56  1  0.800300  0.909500  0.635000  1.0  0.1069
  H  H57  1  0.484600  0.917700  0.369900  1.0  0.1052
  H  H58  1  0.501800  0.936300  0.764100  1.0  0.0975
  H  H59  1  0.095700  0.711300  0.190300  1.0  0.1262
  H  H60  1  0.379800  0.628100  0.420000  1.0  0.1121
  H  H61  1  0.379000  0.807600  0.383500  1.0  0.1145
  H  H62  1  0.261800  0.550600  0.420800  1.0  0.094
  H  H63  1  0.990500  0.510500  0.127900  1.0  0.0894
  H  H64  1  0.031400  0.616400  0.104100  1.0  0.1291
  H  H65  1  0.583100  0.642800  0.435000  1.0  0.0855
  H  H66  1  0.725200  0.748200  0.732600  1.0  0.0957
  H  H67  1  0.529700  0.789100  0.628000  1.0  0.12
  H  H68  1  0.998400  0.798900  0.268600  1.0  0.0972
  H  H69  1  0.096200  0.944100  0.109600  1.0  0.09
  H  H70  1  0.271500  0.879600  0.166200  1.0  0.1321
  H  H71  1  0.694700  0.389900  0.953900  1.0  0.1161
  H  H72  1  0.686200  0.456400  0.903700  1.0  0.1175
  H  H73  1  0.694200  0.442300  0.056300  1.0  0.1175
  H  H74  1  0.199700  0.409500  0.865000  1.0  0.1062
  H  H75  1  0.515400  0.417700  0.130100  1.0  0.105
  H  H76  1  0.498200  0.436300  0.735900  1.0  0.0979
  C  C77  1  0.170800  0.787230  0.748100  1.0  -0.2071
  C  C78  1  0.227500  0.839210  0.801200  1.0  0.1364
  C  C79  1  0.341500  0.836940  0.884200  1.0  -0.2062
  C  C80  1  0.397200  0.782040  0.912700  1.0  0.15
  C  C81  1  0.341400  0.729100  0.863100  1.0  -0.1835
  C  C82  1  0.227300  0.732920  0.782200  1.0  0.1609
  C  C83  1  0.199200  0.946420  0.845100  1.0  0.1609
  C  C84  1  0.050700  0.967820  0.684500  1.0  0.0487
  C  C85  1  0.072700  0.909390  0.670200  1.0  -0.1632
  C  C86  1  0.595300  0.825690  0.996300  1.0  0.1471
  C  C87  1  0.672100  0.768150  0.158500  1.0  0.0269
  C  C88  1  0.563900  0.745070  0.101200  1.0  -0.098
  C  C89  1  0.043900  0.672950  0.735900  1.0  0.1792
  C  C90  1  0.098900  0.593560  0.648900  1.0  0.0344
  C  C91  1  0.196400  0.628840  0.679800  1.0  -0.1303
  C  C92  1  0.266100  0.071460  0.134400  1.0  0.638
  C  C93  1  0.286700  0.090160  0.631700  1.0  0.6783
  C  C94  1  0.663300  0.071130  0.465400  1.0  -0.372
  C  C95  1  0.337900  0.075030  0.278400  1.0  -0.149
  C  C96  1  0.281500  0.084860  0.383400  1.0  -0.0192
  C  C97  1  0.348300  0.086260  0.516300  1.0  -0.1538
  C  C98  1  0.471100  0.081140  0.541400  1.0  -0.0679
  C  C99  1  0.529400  0.074350  0.437600  1.0  0.0563
  C  C100  1  0.460900  0.070060  0.306400  1.0  -0.0762
  C  C101  1  0.829200  0.287230  0.751900  1.0  -0.2056
  C  C102  1  0.772500  0.339210  0.698800  1.0  0.1368
  C  C103  1  0.658500  0.336940  0.615800  1.0  -0.2063
  C  C104  1  0.602800  0.282040  0.587300  1.0  0.1495
  C  C105  1  0.658600  0.229100  0.636900  1.0  -0.1845
  C  C106  1  0.772700  0.232920  0.717800  1.0  0.1615
  C  C107  1  0.800800  0.446420  0.654900  1.0  0.1612
  C  C108  1  0.949300  0.467820  0.815500  1.0  0.0484
  C  C109  1  0.927300  0.409390  0.829800  1.0  -0.1629
  C  C110  1  0.404700  0.325690  0.503700  1.0  0.1482
  C  C111  1  0.327900  0.268150  0.341500  1.0  0.0261
  C  C112  1  0.436100  0.245070  0.398800  1.0  -0.0982
  C  C113  1  0.956100  0.172950  0.764100  1.0  0.1792
  C  C114  1  0.901100  0.093560  0.851100  1.0  0.0341
  C  C115  1  0.803600  0.128840  0.820200  1.0  -0.1298
  C  C116  1  0.733900  0.571460  0.365600  1.0  0.6367
  C  C117  1  0.713300  0.590160  0.868300  1.0  0.6792
  C  C118  1  0.336700  0.571130  0.034600  1.0  -0.3713
  C  C119  1  0.662100  0.575030  0.221600  1.0  -0.1487
  C  C120  1  0.718500  0.584860  0.116600  1.0  -0.0207
  C  C121  1  0.651700  0.586260  0.983700  1.0  -0.155
  C  C122  1  0.528900  0.581140  0.958600  1.0  -0.0676
  C  C123  1  0.470600  0.574350  0.062400  1.0  0.0571
  C  C124  1  0.539100  0.570060  0.193600  1.0  -0.079
  C  C125  1  0.829200  0.212770  0.251900  1.0  -0.2055
  C  C126  1  0.772500  0.160790  0.198800  1.0  0.1369
  C  C127  1  0.658500  0.163060  0.115800  1.0  -0.2064
  C  C128  1  0.602800  0.217960  0.087300  1.0  0.1497
  C  C129  1  0.658600  0.270900  0.136900  1.0  -0.1854
  C  C130  1  0.772700  0.267080  0.217800  1.0  0.1611
  C  C131  1  0.800800  0.053580  0.154900  1.0  0.1612
  C  C132  1  0.949300  0.032180  0.315500  1.0  0.0494
  C  C133  1  0.927300  0.090610  0.329800  1.0  -0.1628
  C  C134  1  0.404700  0.174310  0.003700  1.0  0.1485
  C  C135  1  0.327900  0.231850  0.841500  1.0  0.0267
  C  C136  1  0.436100  0.254930  0.898800  1.0  -0.098
  C  C137  1  0.956100  0.327050  0.264100  1.0  0.1796
  C  C138  1  0.901100  0.406440  0.351100  1.0  0.0334
  C  C139  1  0.803600  0.371160  0.320200  1.0  -0.1304
  C  C140  1  0.733900  0.928540  0.865600  1.0  0.6309
  C  C141  1  0.713300  0.909840  0.368300  1.0  0.6787
  C  C142  1  0.336700  0.928870  0.534600  1.0  -0.3712
  C  C143  1  0.662100  0.924970  0.721600  1.0  -0.1484
  C  C144  1  0.718500  0.915140  0.616600  1.0  -0.0199
  C  C145  1  0.651700  0.913740  0.483700  1.0  -0.155
  C  C146  1  0.528900  0.918860  0.458600  1.0  -0.0671
  C  C147  1  0.470600  0.925650  0.562400  1.0  0.0568
  C  C148  1  0.539100  0.929940  0.693600  1.0  -0.0787
  C  C149  1  0.170800  0.712770  0.248100  1.0  -0.2071
  C  C150  1  0.227500  0.660790  0.301200  1.0  0.1361
  C  C151  1  0.341500  0.663060  0.384200  1.0  -0.2065
  C  C152  1  0.397200  0.717960  0.412700  1.0  0.1499
  C  C153  1  0.341400  0.770900  0.363100  1.0  -0.1847
  C  C154  1  0.227300  0.767080  0.282200  1.0  0.1606
  C  C155  1  0.199200  0.553580  0.345100  1.0  0.1607
  C  C156  1  0.050700  0.532180  0.184500  1.0  0.0493
  C  C157  1  0.072700  0.590610  0.170200  1.0  -0.1623
  C  C158  1  0.595300  0.674310  0.496300  1.0  0.1477
  C  C159  1  0.672100  0.731850  0.658500  1.0  0.0269
  C  C160  1  0.563900  0.754930  0.601200  1.0  -0.0982
  C  C161  1  0.043900  0.827050  0.235900  1.0  0.1794
  C  C162  1  0.098900  0.906440  0.148900  1.0  0.0345
  C  C163  1  0.196400  0.871160  0.179800  1.0  -0.1305
  C  C164  1  0.266100  0.428540  0.634400  1.0  0.6323
  C  C165  1  0.286700  0.409840  0.131700  1.0  0.6786
  C  C166  1  0.663300  0.428870  0.965400  1.0  -0.372
  C  C167  1  0.337900  0.424970  0.778400  1.0  -0.1488
  C  C168  1  0.281500  0.415140  0.883400  1.0  -0.0184
  C  C169  1  0.348300  0.413740  0.016300  1.0  -0.1539
  C  C170  1  0.471100  0.418860  0.041400  1.0  -0.0674
  C  C171  1  0.529400  0.425650  0.937600  1.0  0.0561
  C  C172  1  0.460900  0.429940  0.806400  1.0  -0.0757
  N  N173  1  0.129600  0.991030  0.794900  1.0  -0.3778
  N  N174  1  0.169400  0.895420  0.773900  1.0  0.0248
  N  N175  1  0.692300  0.818860  0.091900  1.0  -0.3885
  N  N176  1  0.515300  0.781870  0.997000  1.0  0.0449
  N  N177  1  0.003870  0.621580  0.684000  1.0  -0.3449
  N  N178  1  0.160790  0.680030  0.735800  1.0  0.0293
  N  N179  1  0.870400  0.491030  0.705100  1.0  -0.376
  N  N180  1  0.830600  0.395420  0.726100  1.0  0.025
  N  N181  1  0.307700  0.318860  0.408100  1.0  -0.3868
  N  N182  1  0.484700  0.281870  0.503000  1.0  0.0452
  N  N183  1  0.996130  0.121580  0.816000  1.0  -0.3443
  N  N184  1  0.839210  0.180030  0.764200  1.0  0.0287
  N  N185  1  0.870400  0.008970  0.205100  1.0  -0.3758
  N  N186  1  0.830600  0.104580  0.226100  1.0  0.0255
  N  N187  1  0.307700  0.181140  0.908100  1.0  -0.3876
  N  N188  1  0.484700  0.218130  0.003000  1.0  0.0452
  N  N189  1  0.996130  0.378420  0.316000  1.0  -0.3441
  N  N190  1  0.839210  0.319970  0.264200  1.0  0.0285
  N  N191  1  0.129600  0.508970  0.294900  1.0  -0.3755
  N  N192  1  0.169400  0.604580  0.273900  1.0  0.0251
  N  N193  1  0.692300  0.681140  0.591900  1.0  -0.3879
  N  N194  1  0.515300  0.718130  0.497000  1.0  0.045
  N  N195  1  0.003870  0.878420  0.184000  1.0  -0.3443
  N  N196  1  0.160790  0.819970  0.235800  1.0  0.0289
  O  O197  1  0.162800  0.090950  0.104900  1.0  -0.6184
  O  O198  1  0.317330  0.050680  0.047110  1.0  -0.6342
  O  O199  1  0.184270  0.112000  0.612900  1.0  -0.6164
  O  O200  1  0.340300  0.069480  0.744210  1.0  -0.6245
  O  O201  1  0.837200  0.590950  0.395100  1.0  -0.6191
  O  O202  1  0.682670  0.550680  0.452890  1.0  -0.6349
  O  O203  1  0.815730  0.612000  0.887100  1.0  -0.616
  O  O204  1  0.659700  0.569480  0.755790  1.0  -0.6211
  O  O205  1  0.837200  0.909050  0.895100  1.0  -0.6198
  O  O206  1  0.682670  0.949320  0.952890  1.0  -0.6346
  O  O207  1  0.815730  0.888000  0.387100  1.0  -0.6157
  O  O208  1  0.659700  0.930520  0.255790  1.0  -0.6209
  O  O209  1  0.162800  0.409050  0.604900  1.0  -0.6184
  O  O210  1  0.317330  0.449320  0.547110  1.0  -0.6336
  O  O211  1  0.184270  0.388000  0.112900  1.0  -0.6154
  O  O212  1  0.340300  0.430520  0.244210  1.0  -0.6239
