# generated using pymatgen
data_Cd4H13C19(N2O3)4
_symmetry_space_group_name_H-M   'P 1'
_cell_length_a   10.31230000
_cell_length_b   10.31230000
_cell_length_c   15.06200000
_cell_angle_alpha   70.32790000
_cell_angle_beta   70.32790000
_cell_angle_gamma   77.86110000
_symmetry_Int_Tables_number   1
_chemical_formula_structural   Cd4H13C19(N2O3)4
_chemical_formula_sum   'Cd8 H26 C38 N16 O24'
_cell_volume   1411.71277857
_cell_formula_units_Z   2
loop_
 _symmetry_equiv_pos_site_id
 _symmetry_equiv_pos_as_xyz
  1  'x, y, z'
loop_
 _atom_site_type_symbol
 _atom_site_label
 _atom_site_symmetry_multiplicity
 _atom_site_fract_x
 _atom_site_fract_y
 _atom_site_fract_z
 _atom_site_occupancy
 _atom_site_charge
  Cd  Cd1  1  0.327150  0.857490  0.484320  1.0  0.9936
  Cd  Cd2  1  0.170090  0.789330  0.153220  1.0  1.0502
  Cd  Cd3  1  0.911620  0.280280  0.229590  1.0  1.02
  Cd  Cd4  1  0.841950  0.540190  0.617160  1.0  1.0256
  Cd  Cd5  1  0.857490  0.327150  0.984320  1.0  0.9937
  Cd  Cd6  1  0.789330  0.170090  0.653220  1.0  1.0499
  Cd  Cd7  1  0.280280  0.911620  0.729590  1.0  1.0197
  Cd  Cd8  1  0.540190  0.841950  0.117160  1.0  1.0258
  H  H9  1  0.632800  0.903600  0.316200  1.0  0.0952
  H  H10  1  0.666200  0.827600  0.416600  1.0  0.0962
  H  H11  1  0.778000  0.006600  0.401900  1.0  0.0911
  H  H12  1  0.840500  0.965900  0.303400  1.0  0.0843
  H  H13  1  0.606100  0.213300  0.407100  1.0  0.0962
  H  H14  1  0.570400  0.303600  0.309500  1.0  0.1004
  H  H15  1  0.395100  0.165700  0.410900  1.0  0.0955
  H  H16  1  0.462500  0.127700  0.311400  1.0  0.0999
  H  H17  1  0.914700  0.635500  0.363900  1.0  0.0773
  H  H18  1  0.171400  0.012200  0.288400  1.0  0.0741
  H  H19  1  0.938000  0.826000  0.643800  1.0  0.075
  H  H20  1  0.709800  0.145600  0.233800  1.0  0.2773
  H  H21  1  0.524300  0.985900  0.481400  1.0  0.2598
  H  H22  1  0.903600  0.632800  0.816200  1.0  0.0988
  H  H23  1  0.827600  0.666200  0.916600  1.0  0.0954
  H  H24  1  0.006600  0.778000  0.901900  1.0  0.0901
  H  H25  1  0.965900  0.840500  0.803400  1.0  0.0849
  H  H26  1  0.213300  0.606100  0.907100  1.0  0.099
  H  H27  1  0.303600  0.570400  0.809500  1.0  0.1009
  H  H28  1  0.165700  0.395100  0.910900  1.0  0.0969
  H  H29  1  0.127700  0.462500  0.811400  1.0  0.1006
  H  H30  1  0.635500  0.914700  0.863900  1.0  0.0778
  H  H31  1  0.012200  0.171400  0.788400  1.0  0.0732
  H  H32  1  0.826000  0.938000  0.143800  1.0  0.0757
  H  H33  1  0.145600  0.709800  0.733800  1.0  0.2785
  H  H34  1  0.985900  0.524300  0.981400  1.0  0.2577
  C  C35  1  0.642400  0.917600  0.374100  1.0  -0.0116
  C  C36  1  0.757900  0.006900  0.343300  1.0  0.004
  C  C37  1  0.594200  0.209600  0.346900  1.0  -0.017
  C  C38  1  0.479000  0.125200  0.371700  1.0  0.0081
  C  C39  1  0.142170  0.614570  0.565500  1.0  0.6926
  C  C40  1  0.114660  0.643260  0.469900  1.0  -0.0349
  C  C41  1  0.181730  0.699530  0.371000  1.0  0.0399
  C  C42  1  0.321100  0.746500  0.315700  1.0  0.6839
  C  C43  1  0.989090  0.645690  0.381700  1.0  0.345
  C  C44  1  0.095750  0.070950  0.577100  1.0  0.6885
  C  C45  1  0.082100  0.097300  0.476000  1.0  -0.0174
  C  C46  1  0.001360  0.193760  0.419640  1.0  -0.0014
  C  C47  1  0.892360  0.312360  0.433200  1.0  0.694
  C  C48  1  0.132500  0.054900  0.338300  1.0  0.324
  C  C49  1  0.546810  0.077210  0.624750  1.0  0.7047
  C  C50  1  0.647560  0.950960  0.632700  1.0  -0.0352
  C  C51  1  0.653280  0.811880  0.637770  1.0  0.0685
  C  C52  1  0.554820  0.729620  0.630700  1.0  0.6927
  C  C53  1  0.846700  0.843700  0.641700  1.0  0.3192
  C  C54  1  0.917600  0.642400  0.874100  1.0  -0.0117
  C  C55  1  0.006900  0.757900  0.843300  1.0  0.0084
  C  C56  1  0.209600  0.594200  0.846900  1.0  -0.0149
  C  C57  1  0.125200  0.479000  0.871700  1.0  0.0062
  C  C58  1  0.614570  0.142170  0.065500  1.0  0.6948
  C  C59  1  0.643260  0.114660  0.969900  1.0  -0.0337
  C  C60  1  0.699530  0.181730  0.871000  1.0  0.0413
  C  C61  1  0.746500  0.321100  0.815700  1.0  0.6866
  C  C62  1  0.645690  0.989090  0.881700  1.0  0.3469
  C  C63  1  0.070950  0.095750  0.077100  1.0  0.6888
  C  C64  1  0.097300  0.082100  0.976000  1.0  -0.0178
  C  C65  1  0.193760  0.001360  0.919640  1.0  -0.0025
  C  C66  1  0.312360  0.892360  0.933200  1.0  0.692
  C  C67  1  0.054900  0.132500  0.838300  1.0  0.324
  C  C68  1  0.077210  0.546810  0.124750  1.0  0.7045
  C  C69  1  0.950960  0.647560  0.132700  1.0  -0.0347
  C  C70  1  0.811880  0.653280  0.137770  1.0  0.0709
  C  C71  1  0.729620  0.554820  0.130700  1.0  0.6919
  C  C72  1  0.843700  0.846700  0.141700  1.0  0.3202
  N  N73  1  0.727290  0.149890  0.288000  1.0  -0.4134
  N  N74  1  0.509450  0.980650  0.426510  1.0  -0.4029
  N  N75  1  0.103370  0.699170  0.316150  1.0  -0.4635
  N  N76  1  0.991770  0.609370  0.472080  1.0  -0.3403
  N  N77  1  0.167440  0.013840  0.419520  1.0  -0.4209
  N  N78  1  0.035460  0.164200  0.332680  1.0  -0.4206
  N  N79  1  0.775270  0.967030  0.635840  1.0  -0.4348
  N  N80  1  0.777560  0.747340  0.644160  1.0  -0.4178
  N  N81  1  0.149890  0.727290  0.788000  1.0  -0.4139
  N  N82  1  0.980650  0.509450  0.926510  1.0  -0.403
  N  N83  1  0.699170  0.103370  0.816150  1.0  -0.4628
  N  N84  1  0.609370  0.991770  0.972080  1.0  -0.3384
  N  N85  1  0.013840  0.167440  0.919520  1.0  -0.4207
  N  N86  1  0.164200  0.035460  0.832680  1.0  -0.4207
  N  N87  1  0.967030  0.775270  0.135840  1.0  -0.4318
  N  N88  1  0.747340  0.777560  0.144160  1.0  -0.4165
  O  O89  1  0.243680  0.659120  0.570540  1.0  -0.595
  O  O90  1  0.060130  0.545070  0.639020  1.0  -0.5909
  O  O91  1  0.403850  0.760330  0.354250  1.0  -0.5691
  O  O92  1  0.348160  0.778380  0.223120  1.0  -0.611
  O  O93  1  0.191710  0.975370  0.597880  1.0  -0.6849
  O  O94  1  0.022380  0.134360  0.633080  1.0  -0.564
  O  O95  1  0.847930  0.341710  0.515190  1.0  -0.677
  O  O96  1  0.848440  0.381560  0.360450  1.0  -0.6072
  O  O97  1  0.581560  0.187540  0.618770  1.0  -0.5921
  O  O98  1  0.428510  0.068470  0.620360  1.0  -0.6658
  O  O99  1  0.431570  0.780430  0.631710  1.0  -0.6708
  O  O100  1  0.604060  0.611080  0.620560  1.0  -0.6261
  O  O101  1  0.659120  0.243680  0.070540  1.0  -0.5969
  O  O102  1  0.545070  0.060130  0.139020  1.0  -0.5915
  O  O103  1  0.760330  0.403850  0.854250  1.0  -0.5742
  O  O104  1  0.778380  0.348160  0.723120  1.0  -0.6142
  O  O105  1  0.975370  0.191710  0.097880  1.0  -0.6861
  O  O106  1  0.134360  0.022380  0.133080  1.0  -0.5644
  O  O107  1  0.341710  0.847930  0.015190  1.0  -0.6764
  O  O108  1  0.381560  0.848440  0.860450  1.0  -0.6059
  O  O109  1  0.187540  0.581560  0.118770  1.0  -0.5874
  O  O110  1  0.068470  0.428510  0.120360  1.0  -0.6665
  O  O111  1  0.780430  0.431570  0.131710  1.0  -0.6729
  O  O112  1  0.611080  0.604060  0.120560  1.0  -0.6268
