# generated using pymatgen
data_CoH14C17S(NO)4
_symmetry_space_group_name_H-M   'P 1'
_cell_length_a   14.94400000
_cell_length_b   16.94000000
_cell_length_c   10.38400000
_cell_angle_alpha   90.00000000
_cell_angle_beta   123.74000000
_cell_angle_gamma   90.00000000
_symmetry_Int_Tables_number   1
_chemical_formula_structural   CoH14C17S(NO)4
_chemical_formula_sum   'Co4 H56 C68 S4 N16 O16'
_cell_volume   2185.95875587
_cell_formula_units_Z   4
loop_
 _symmetry_equiv_pos_site_id
 _symmetry_equiv_pos_as_xyz
  1  'x, y, z'
loop_
 _atom_site_type_symbol
 _atom_site_label
 _atom_site_symmetry_multiplicity
 _atom_site_fract_x
 _atom_site_fract_y
 _atom_site_fract_z
 _atom_site_occupancy
 _atom_site_charge
  Co  Co1  1  0.154700  0.451800  0.671460  1.0  0.7805
  Co  Co2  1  0.654700  0.951800  0.671460  1.0  0.7805
  Co  Co3  1  0.154700  0.548200  0.171460  1.0  0.7801
  Co  Co4  1  0.654700  0.048200  0.171460  1.0  0.7801
  H  H5  1  0.965200  0.573200  0.561700  1.0  0.0793
  H  H6  1  0.976900  0.377000  0.377000  1.0  0.0828
  H  H7  1  0.794900  0.597500  0.351700  1.0  0.1158
  H  H8  1  0.808900  0.397500  0.160400  1.0  0.1297
  H  H9  1  0.619600  0.526400  0.113600  1.0  0.1185
  H  H10  1  0.646700  0.473300  0.015500  1.0  0.097
  H  H11  1  0.696600  0.635900  0.073400  1.0  0.0971
  H  H12  1  0.729700  0.583500  0.982100  1.0  0.0931
  H  H13  1  0.551700  0.570500  0.777400  1.0  0.1188
  H  H14  1  0.512400  0.614000  0.870900  1.0  0.1055
  H  H15  1  0.463900  0.750800  0.796900  1.0  0.1299
  H  H16  1  0.694800  0.658800  0.759000  1.0  0.1052
  H  H17  1  0.493900  0.870100  0.724400  1.0  0.084
  H  H18  1  0.717700  0.779500  0.685900  1.0  0.0838
  H  H19  1  0.465200  0.073200  0.561700  1.0  0.0793
  H  H20  1  0.476900  0.877000  0.377000  1.0  0.0828
  H  H21  1  0.294900  0.097500  0.351700  1.0  0.1158
  H  H22  1  0.308900  0.897500  0.160400  1.0  0.1297
  H  H23  1  0.119600  0.026400  0.113600  1.0  0.1185
  H  H24  1  0.146700  0.973300  0.015500  1.0  0.097
  H  H25  1  0.196600  0.135900  0.073400  1.0  0.0971
  H  H26  1  0.229700  0.083500  0.982100  1.0  0.0931
  H  H27  1  0.051700  0.070500  0.777400  1.0  0.1188
  H  H28  1  0.012400  0.114000  0.870900  1.0  0.1055
  H  H29  1  0.963900  0.250800  0.796900  1.0  0.1299
  H  H30  1  0.194800  0.158800  0.759000  1.0  0.1052
  H  H31  1  0.993900  0.370100  0.724400  1.0  0.084
  H  H32  1  0.217700  0.279500  0.685900  1.0  0.0838
  H  H33  1  0.965200  0.426800  0.061700  1.0  0.0798
  H  H34  1  0.976900  0.623000  0.877000  1.0  0.0829
  H  H35  1  0.794900  0.402500  0.851700  1.0  0.1158
  H  H36  1  0.808900  0.602500  0.660400  1.0  0.1296
  H  H37  1  0.619600  0.473600  0.613600  1.0  0.1186
  H  H38  1  0.646700  0.526700  0.515500  1.0  0.0965
  H  H39  1  0.696600  0.364100  0.573400  1.0  0.0986
  H  H40  1  0.729700  0.416500  0.482100  1.0  0.0931
  H  H41  1  0.551700  0.429500  0.277400  1.0  0.1184
  H  H42  1  0.512400  0.386000  0.370900  1.0  0.1055
  H  H43  1  0.463900  0.249200  0.296900  1.0  0.1297
  H  H44  1  0.694800  0.341200  0.259000  1.0  0.1047
  H  H45  1  0.493900  0.129900  0.224400  1.0  0.0847
  H  H46  1  0.717700  0.220500  0.185900  1.0  0.084
  H  H47  1  0.465200  0.926800  0.061700  1.0  0.0798
  H  H48  1  0.476900  0.123000  0.877000  1.0  0.0829
  H  H49  1  0.294900  0.902500  0.851700  1.0  0.1158
  H  H50  1  0.308900  0.102500  0.660400  1.0  0.1296
  H  H51  1  0.119600  0.973600  0.613600  1.0  0.1186
  H  H52  1  0.146700  0.026700  0.515500  1.0  0.0965
  H  H53  1  0.196600  0.864100  0.573400  1.0  0.0986
  H  H54  1  0.229700  0.916500  0.482100  1.0  0.0931
  H  H55  1  0.051700  0.929500  0.277400  1.0  0.1184
  H  H56  1  0.012400  0.886000  0.370900  1.0  0.1055
  H  H57  1  0.963900  0.749200  0.296900  1.0  0.1297
  H  H58  1  0.194800  0.841200  0.259000  1.0  0.1047
  H  H59  1  0.993900  0.629900  0.224400  1.0  0.0847
  H  H60  1  0.217700  0.720500  0.185900  1.0  0.084
  C  C61  1  0.174200  0.565370  0.898200  1.0  0.7107
  C  C62  1  0.934000  0.537500  0.479900  1.0  0.187
  C  C63  1  0.940600  0.422960  0.370800  1.0  0.1762
  C  C64  1  0.201800  0.614080  0.803100  1.0  0.0669
  C  C65  1  0.831000  0.552400  0.353400  1.0  -0.1991
  C  C66  1  0.838700  0.434270  0.240400  1.0  -0.2308
  C  C67  1  0.233500  0.694540  0.818900  1.0  0.0805
  C  C68  1  0.781100  0.500880  0.229500  1.0  0.1517
  C  C69  1  0.241600  0.755060  0.934800  1.0  0.6806
  C  C70  1  0.670800  0.518200  0.085200  1.0  -0.1783
  C  C71  1  0.674900  0.591300  0.003600  1.0  -0.0727
  C  C72  1  0.569600  0.611500  0.853200  1.0  -0.2241
  C  C73  1  0.578400  0.689810  0.791500  1.0  0.1401
  C  C74  1  0.517200  0.755400  0.777000  1.0  -0.1758
  C  C75  1  0.653400  0.701100  0.754400  1.0  -0.2032
  C  C76  1  0.535800  0.827200  0.733300  1.0  0.1903
  C  C77  1  0.667200  0.774130  0.711000  1.0  0.1814
  C  C78  1  0.674200  0.065370  0.898200  1.0  0.7107
  C  C79  1  0.434000  0.037500  0.479900  1.0  0.187
  C  C80  1  0.440600  0.922960  0.370800  1.0  0.1762
  C  C81  1  0.701800  0.114080  0.803100  1.0  0.0669
  C  C82  1  0.331000  0.052400  0.353400  1.0  -0.1991
  C  C83  1  0.338700  0.934270  0.240400  1.0  -0.2308
  C  C84  1  0.733500  0.194540  0.818900  1.0  0.0805
  C  C85  1  0.281100  0.000880  0.229500  1.0  0.1517
  C  C86  1  0.741600  0.255060  0.934800  1.0  0.6806
  C  C87  1  0.170800  0.018200  0.085200  1.0  -0.1783
  C  C88  1  0.174900  0.091300  0.003600  1.0  -0.0727
  C  C89  1  0.069600  0.111500  0.853200  1.0  -0.2241
  C  C90  1  0.078400  0.189810  0.791500  1.0  0.1401
  C  C91  1  0.017200  0.255400  0.777000  1.0  -0.1758
  C  C92  1  0.153400  0.201100  0.754400  1.0  -0.2032
  C  C93  1  0.035800  0.327200  0.733300  1.0  0.1903
  C  C94  1  0.167200  0.274130  0.711000  1.0  0.1814
  C  C95  1  0.174200  0.434630  0.398200  1.0  0.711
  C  C96  1  0.934000  0.462500  0.979900  1.0  0.1869
  C  C97  1  0.940600  0.577040  0.870800  1.0  0.1762
  C  C98  1  0.201800  0.385920  0.303100  1.0  0.0667
  C  C99  1  0.831000  0.447600  0.853400  1.0  -0.1983
  C  C100  1  0.838700  0.565730  0.740400  1.0  -0.2327
  C  C101  1  0.233500  0.305460  0.318900  1.0  0.0808
  C  C102  1  0.781100  0.499120  0.729500  1.0  0.1518
  C  C103  1  0.241600  0.244940  0.434800  1.0  0.6805
  C  C104  1  0.670800  0.481800  0.585200  1.0  -0.179
  C  C105  1  0.674900  0.408700  0.503600  1.0  -0.0731
  C  C106  1  0.569600  0.388500  0.353200  1.0  -0.224
  C  C107  1  0.578400  0.310190  0.291500  1.0  0.14
  C  C108  1  0.517200  0.244600  0.277000  1.0  -0.1755
  C  C109  1  0.653400  0.298900  0.254400  1.0  -0.2028
  C  C110  1  0.535800  0.172800  0.233300  1.0  0.1904
  C  C111  1  0.667200  0.225870  0.211000  1.0  0.1809
  C  C112  1  0.674200  0.934630  0.398200  1.0  0.711
  C  C113  1  0.434000  0.962500  0.979900  1.0  0.1869
  C  C114  1  0.440600  0.077040  0.870800  1.0  0.1762
  C  C115  1  0.701800  0.885920  0.303100  1.0  0.0667
  C  C116  1  0.331000  0.947600  0.853400  1.0  -0.1983
  C  C117  1  0.338700  0.065730  0.740400  1.0  -0.2327
  C  C118  1  0.733500  0.805460  0.318900  1.0  0.0808
  C  C119  1  0.281100  0.999120  0.729500  1.0  0.1518
  C  C120  1  0.741600  0.744940  0.434800  1.0  0.6805
  C  C121  1  0.170800  0.981800  0.585200  1.0  -0.179
  C  C122  1  0.174900  0.908700  0.503600  1.0  -0.0731
  C  C123  1  0.069600  0.888500  0.353200  1.0  -0.224
  C  C124  1  0.078400  0.810190  0.291500  1.0  0.14
  C  C125  1  0.017200  0.744600  0.277000  1.0  -0.1755
  C  C126  1  0.153400  0.798900  0.254400  1.0  -0.2028
  C  C127  1  0.035800  0.672800  0.233300  1.0  0.1904
  C  C128  1  0.167200  0.725870  0.211000  1.0  0.1809
  S  S129  1  0.237940  0.639920  0.607640  1.0  0.0936
  S  S130  1  0.737940  0.139920  0.607640  1.0  0.0936
  S  S131  1  0.237940  0.360080  0.107640  1.0  0.0934
  S  S132  1  0.737940  0.860080  0.107640  1.0  0.0934
  N  N133  1  0.990900  0.474050  0.489800  1.0  -0.3229
  N  N134  1  0.199400  0.576680  0.687000  1.0  -0.3469
  N  N135  1  0.111500  0.338070  0.702800  1.0  -0.3319
  N  N136  1  0.257100  0.716120  0.718200  1.0  -0.2964
  N  N137  1  0.490900  0.974050  0.489800  1.0  -0.3229
  N  N138  1  0.699400  0.076680  0.687000  1.0  -0.3469
  N  N139  1  0.611500  0.838070  0.702800  1.0  -0.3319
  N  N140  1  0.757100  0.216120  0.718200  1.0  -0.2964
  N  N141  1  0.990900  0.525950  0.989800  1.0  -0.3228
  N  N142  1  0.199400  0.423320  0.187000  1.0  -0.3473
  N  N143  1  0.111500  0.661930  0.202800  1.0  -0.3307
  N  N144  1  0.257100  0.283880  0.218200  1.0  -0.2967
  N  N145  1  0.490900  0.025950  0.989800  1.0  -0.3228
  N  N146  1  0.699400  0.923320  0.187000  1.0  -0.3473
  N  N147  1  0.611500  0.161930  0.202800  1.0  -0.3307
  N  N148  1  0.757100  0.783880  0.218200  1.0  -0.2967
  O  O149  1  0.143170  0.496040  0.852700  1.0  -0.5777
  O  O150  1  0.185490  0.402470  0.514500  1.0  -0.5841
  O  O151  1  0.158500  0.792260  0.894100  1.0  -0.567
  O  O152  1  0.331700  0.763170  0.057200  1.0  -0.5701
  O  O153  1  0.643170  0.996040  0.852700  1.0  -0.5778
  O  O154  1  0.685490  0.902470  0.514500  1.0  -0.5841
  O  O155  1  0.658500  0.292260  0.894100  1.0  -0.567
  O  O156  1  0.831700  0.263170  0.057200  1.0  -0.5701
  O  O157  1  0.143170  0.503960  0.352700  1.0  -0.5752
  O  O158  1  0.185490  0.597530  0.014500  1.0  -0.584
  O  O159  1  0.158500  0.207740  0.394100  1.0  -0.5671
  O  O160  1  0.331700  0.236830  0.557200  1.0  -0.57
  O  O161  1  0.643170  0.003960  0.352700  1.0  -0.5753
  O  O162  1  0.685490  0.097530  0.014500  1.0  -0.584
  O  O163  1  0.658500  0.707740  0.394100  1.0  -0.5671
  O  O164  1  0.831700  0.736830  0.557200  1.0  -0.57
