# generated using pymatgen
data_ZnH9C15N5O4
_symmetry_space_group_name_H-M   'P 1'
_cell_length_a   9.81870000
_cell_length_b   17.63980000
_cell_length_c   12.07120000
_cell_angle_alpha   90.00000000
_cell_angle_beta   97.58200000
_cell_angle_gamma   90.00000000
_symmetry_Int_Tables_number   1
_chemical_formula_structural   ZnH9C15N5O4
_chemical_formula_sum   'Zn4 H36 C60 N20 O16'
_cell_volume   2072.45151146
_cell_formula_units_Z   4
loop_
 _symmetry_equiv_pos_site_id
 _symmetry_equiv_pos_as_xyz
  1  'x, y, z'
loop_
 _atom_site_type_symbol
 _atom_site_label
 _atom_site_symmetry_multiplicity
 _atom_site_fract_x
 _atom_site_fract_y
 _atom_site_fract_z
 _atom_site_occupancy
 _atom_site_charge
  Zn  Zn1  1  0.451280  0.546680  0.343600  1.0  0.9254
  Zn  Zn2  1  0.048720  0.046680  0.156400  1.0  0.9259
  Zn  Zn3  1  0.548720  0.453320  0.656400  1.0  0.9261
  Zn  Zn4  1  0.951280  0.953320  0.843600  1.0  0.9257
  H  H5  1  0.589500  0.061300  0.165900  1.0  0.1151
  H  H6  1  0.346100  0.214300  0.297000  1.0  0.1267
  H  H7  1  0.753400  0.255300  0.308000  1.0  0.1284
  H  H8  1  0.716400  0.261900  0.554500  1.0  0.1296
  H  H9  1  0.571900  0.218600  0.535600  1.0  0.1338
  H  H10  1  0.601200  0.280500  0.632800  1.0  0.1482
  H  H11  1  0.377400  0.337600  0.962400  1.0  0.0822
  H  H12  1  0.300500  0.461500  0.926400  1.0  0.1138
  H  H13  1  0.330500  0.548900  0.073900  1.0  0.0959
  H  H14  1  0.910500  0.561300  0.334100  1.0  0.1149
  H  H15  1  0.153900  0.714300  0.203000  1.0  0.1262
  H  H16  1  0.746600  0.755300  0.192000  1.0  0.1283
  H  H17  1  0.783600  0.761900  0.945500  1.0  0.1295
  H  H18  1  0.928100  0.718600  0.964400  1.0  0.1355
  H  H19  1  0.898800  0.780500  0.867200  1.0  0.1469
  H  H20  1  0.122600  0.837600  0.537600  1.0  0.0824
  H  H21  1  0.199500  0.961500  0.573600  1.0  0.1142
  H  H22  1  0.169500  0.048900  0.426100  1.0  0.0953
  H  H23  1  0.410500  0.938700  0.834100  1.0  0.1153
  H  H24  1  0.653900  0.785700  0.703000  1.0  0.1264
  H  H25  1  0.246600  0.744700  0.692000  1.0  0.1276
  H  H26  1  0.283600  0.738100  0.445500  1.0  0.1298
  H  H27  1  0.428100  0.781400  0.464400  1.0  0.1348
  H  H28  1  0.398800  0.719500  0.367200  1.0  0.1468
  H  H29  1  0.622600  0.662400  0.037600  1.0  0.0818
  H  H30  1  0.699500  0.538500  0.073600  1.0  0.114
  H  H31  1  0.669500  0.451100  0.926100  1.0  0.0958
  H  H32  1  0.089500  0.438700  0.665900  1.0  0.1154
  H  H33  1  0.846100  0.285700  0.797000  1.0  0.1268
  H  H34  1  0.253400  0.244700  0.808000  1.0  0.1277
  H  H35  1  0.216400  0.238100  0.054500  1.0  0.1296
  H  H36  1  0.071900  0.281400  0.035600  1.0  0.1347
  H  H37  1  0.101200  0.219500  0.132800  1.0  0.1474
  H  H38  1  0.877400  0.162400  0.462400  1.0  0.0824
  H  H39  1  0.800500  0.038500  0.426400  1.0  0.1135
  H  H40  1  0.830500  0.951100  0.573900  1.0  0.0955
  C  C41  1  0.324200  0.083300  0.185800  1.0  0.7145
  C  C42  1  0.835300  0.129400  0.217600  1.0  0.6607
  C  C43  1  0.578800  0.108100  0.202800  1.0  -0.0212
  C  C44  1  0.449300  0.130800  0.224100  1.0  -0.1322
  C  C45  1  0.693000  0.153500  0.235500  1.0  -0.1517
  C  C46  1  0.433700  0.199100  0.279600  1.0  -0.1614
  C  C47  1  0.676800  0.223000  0.287500  1.0  -0.123
  C  C48  1  0.547200  0.243900  0.308600  1.0  0.1563
  C  C49  1  0.617400  0.266900  0.556900  1.0  -0.4387
  C  C50  1  0.561000  0.327000  0.477900  1.0  0.3767
  C  C51  1  0.485400  0.382700  0.320700  1.0  0.2571
  C  C52  1  0.441200  0.402500  0.203500  1.0  0.3974
  C  C53  1  0.382900  0.373000  0.022100  1.0  0.172
  C  C54  1  0.340000  0.446500  0.999200  1.0  -0.1149
  C  C55  1  0.357200  0.497500  0.086900  1.0  0.1727
  C  C56  1  0.175800  0.583300  0.314200  1.0  0.7156
  C  C57  1  0.664700  0.629400  0.282400  1.0  0.6602
  C  C58  1  0.921200  0.608100  0.297200  1.0  -0.0209
  C  C59  1  0.050700  0.630800  0.275900  1.0  -0.133
  C  C60  1  0.807000  0.653500  0.264500  1.0  -0.1518
  C  C61  1  0.066300  0.699100  0.220400  1.0  -0.1604
  C  C62  1  0.823200  0.723000  0.212500  1.0  -0.1242
  C  C63  1  0.952800  0.743900  0.191400  1.0  0.1566
  C  C64  1  0.882600  0.766900  0.943100  1.0  -0.4396
  C  C65  1  0.939000  0.827000  0.022100  1.0  0.3764
  C  C66  1  0.014600  0.882700  0.179300  1.0  0.2562
  C  C67  1  0.058800  0.902500  0.296500  1.0  0.3981
  C  C68  1  0.117100  0.873000  0.477900  1.0  0.1728
  C  C69  1  0.160000  0.946500  0.500800  1.0  -0.1139
  C  C70  1  0.142800  0.997500  0.413100  1.0  0.1737
  C  C71  1  0.675800  0.916700  0.814200  1.0  0.7162
  C  C72  1  0.164700  0.870600  0.782400  1.0  0.6602
  C  C73  1  0.421200  0.891900  0.797200  1.0  -0.0185
  C  C74  1  0.550700  0.869200  0.775900  1.0  -0.1316
  C  C75  1  0.307000  0.846500  0.764500  1.0  -0.152
  C  C76  1  0.566300  0.800900  0.720400  1.0  -0.1604
  C  C77  1  0.323200  0.777000  0.712500  1.0  -0.1246
  C  C78  1  0.452800  0.756100  0.691400  1.0  0.1567
  C  C79  1  0.382600  0.733100  0.443100  1.0  -0.4387
  C  C80  1  0.439000  0.673000  0.522100  1.0  0.3764
  C  C81  1  0.514600  0.617300  0.679300  1.0  0.256
  C  C82  1  0.558800  0.597500  0.796500  1.0  0.398
  C  C83  1  0.617100  0.627000  0.977900  1.0  0.1729
  C  C84  1  0.660000  0.553500  0.000800  1.0  -0.113
  C  C85  1  0.642800  0.502500  0.913100  1.0  0.1734
  C  C86  1  0.824200  0.416700  0.685800  1.0  0.7137
  C  C87  1  0.335300  0.370600  0.717600  1.0  0.6605
  C  C88  1  0.078800  0.391900  0.702800  1.0  -0.0204
  C  C89  1  0.949300  0.369200  0.724100  1.0  -0.1307
  C  C90  1  0.193000  0.346500  0.735500  1.0  -0.1513
  C  C91  1  0.933700  0.300900  0.779600  1.0  -0.1619
  C  C92  1  0.176800  0.277000  0.787500  1.0  -0.1232
  C  C93  1  0.047200  0.256100  0.808600  1.0  0.1563
  C  C94  1  0.117400  0.233100  0.056900  1.0  -0.4378
  C  C95  1  0.061000  0.173000  0.977900  1.0  0.3765
  C  C96  1  0.985400  0.117300  0.820700  1.0  0.2567
  C  C97  1  0.941200  0.097500  0.703500  1.0  0.3973
  C  C98  1  0.882900  0.127000  0.522100  1.0  0.1725
  C  C99  1  0.840000  0.053500  0.499200  1.0  -0.1148
  C  C100  1  0.857200  0.002500  0.586900  1.0  0.1722
  N  N101  1  0.531100  0.315040  0.364800  1.0  -0.093
  N  N102  1  0.534200  0.397780  0.500400  1.0  -0.312
  N  N103  1  0.485900  0.433180  0.400800  1.0  -0.3185
  N  N104  1  0.410600  0.476120  0.189600  1.0  -0.3434
  N  N105  1  0.431900  0.349500  0.125500  1.0  -0.3795
  N  N106  1  0.968900  0.815040  0.135200  1.0  -0.0933
  N  N107  1  0.965800  0.897780  0.999600  1.0  -0.3108
  N  N108  1  0.014100  0.933180  0.099200  1.0  -0.3172
  N  N109  1  0.089400  0.976120  0.310400  1.0  -0.3428
  N  N110  1  0.068100  0.849500  0.374500  1.0  -0.3792
  N  N111  1  0.468900  0.684960  0.635200  1.0  -0.0941
  N  N112  1  0.465800  0.602220  0.499600  1.0  -0.3107
  N  N113  1  0.514100  0.566820  0.599200  1.0  -0.3174
  N  N114  1  0.589400  0.523880  0.810400  1.0  -0.3428
  N  N115  1  0.568100  0.650500  0.874500  1.0  -0.3793
  N  N116  1  0.031100  0.184960  0.864800  1.0  -0.0939
  N  N117  1  0.034200  0.102220  0.000400  1.0  -0.3116
  N  N118  1  0.985900  0.066820  0.900800  1.0  -0.3179
  N  N119  1  0.910600  0.023880  0.689600  1.0  -0.3431
  N  N120  1  0.931900  0.150500  0.625500  1.0  -0.3805
  O  O121  1  0.333400  0.029420  0.120500  1.0  -0.5693
  O  O122  1  0.214300  0.103660  0.221000  1.0  -0.5908
  O  O123  1  0.850900  0.063120  0.181400  1.0  -0.5997
  O  O124  1  0.932300  0.172900  0.241700  1.0  -0.5614
  O  O125  1  0.166600  0.529420  0.379500  1.0  -0.5688
  O  O126  1  0.285700  0.603660  0.279000  1.0  -0.5911
  O  O127  1  0.649100  0.563120  0.318600  1.0  -0.5985
  O  O128  1  0.567700  0.672900  0.258300  1.0  -0.5603
  O  O129  1  0.666667  0.970580  0.879500  1.0  -0.5697
  O  O130  1  0.785700  0.896340  0.779000  1.0  -0.5909
  O  O131  1  0.149100  0.936880  0.818600  1.0  -0.5991
  O  O132  1  0.067700  0.827100  0.758300  1.0  -0.5618
  O  O133  1  0.833400  0.470580  0.620500  1.0  -0.5672
  O  O134  1  0.714300  0.396340  0.721000  1.0  -0.5906
  O  O135  1  0.350900  0.436880  0.681400  1.0  -0.5995
  O  O136  1  0.432300  0.327100  0.741700  1.0  -0.5622
