# generated using pymatgen
data_Eu(CO)6
_symmetry_space_group_name_H-M   'P 1'
_cell_length_a   8.50500000
_cell_length_b   9.53600000
_cell_length_c   13.14500000
_cell_angle_alpha   90.00000000
_cell_angle_beta   90.00000000
_cell_angle_gamma   94.73000000
_symmetry_Int_Tables_number   1
_chemical_formula_structural   Eu(CO)6
_chemical_formula_sum   'Eu4 C24 O24'
_cell_volume   1062.47708044
_cell_formula_units_Z   4
loop_
 _symmetry_equiv_pos_site_id
 _symmetry_equiv_pos_as_xyz
  1  'x, y, z'
loop_
 _atom_site_type_symbol
 _atom_site_label
 _atom_site_symmetry_multiplicity
 _atom_site_fract_x
 _atom_site_fract_y
 _atom_site_fract_z
 _atom_site_occupancy
 _atom_site_charge
  Eu  Eu1  1  0.039520  0.492510  0.768350  1.0  2.109
  Eu  Eu2  1  0.460480  0.007490  0.268350  1.0  2.1083
  Eu  Eu3  1  0.960480  0.507490  0.231650  1.0  2.1124
  Eu  Eu4  1  0.539520  0.992510  0.731650  1.0  2.1092
  C  C5  1  0.092500  0.124500  0.973800  1.0  -0.1189
  C  C6  1  0.975700  0.126000  0.049200  1.0  -0.0872
  C  C7  1  0.117600  0.997200  0.925900  1.0  -0.0697
  C  C8  1  0.198400  0.257200  0.947800  1.0  0.7566
  C  C9  1  0.960300  0.255900  0.110800  1.0  0.6845
  C  C10  1  0.253800  0.989700  0.853000  1.0  0.6841
  C  C11  1  0.407500  0.375500  0.473800  1.0  -0.1188
  C  C12  1  0.524300  0.374000  0.549200  1.0  -0.088
  C  C13  1  0.382400  0.502800  0.425900  1.0  -0.0698
  C  C14  1  0.301600  0.242800  0.447800  1.0  0.7566
  C  C15  1  0.539700  0.244100  0.610800  1.0  0.6855
  C  C16  1  0.246200  0.510300  0.353000  1.0  0.6837
  C  C17  1  0.907500  0.875500  0.026200  1.0  -0.1189
  C  C18  1  0.024300  0.874000  0.950800  1.0  -0.0879
  C  C19  1  0.882400  0.002800  0.074100  1.0  -0.0694
  C  C20  1  0.801600  0.742800  0.052200  1.0  0.7561
  C  C21  1  0.039700  0.744100  0.889200  1.0  0.6853
  C  C22  1  0.746200  0.010300  0.147000  1.0  0.6836
  C  C23  1  0.592500  0.624500  0.526200  1.0  -0.1192
  C  C24  1  0.475700  0.626000  0.450800  1.0  -0.0869
  C  C25  1  0.617600  0.497200  0.574100  1.0  -0.0698
  C  C26  1  0.698400  0.757200  0.552200  1.0  0.7565
  C  C27  1  0.460300  0.755900  0.389200  1.0  0.6858
  C  C28  1  0.753800  0.489700  0.647000  1.0  0.685
  O  O29  1  0.149100  0.341400  0.885800  1.0  -0.7955
  O  O30  1  0.331400  0.268800  0.989200  1.0  -0.5488
  O  O31  1  0.950400  0.372800  0.067000  1.0  -0.6406
  O  O32  1  0.962600  0.247900  0.205700  1.0  -0.6516
  O  O33  1  0.282500  0.084000  0.787700  1.0  -0.6306
  O  O34  1  0.342100  0.889700  0.863000  1.0  -0.6923
  O  O35  1  0.350900  0.158600  0.385800  1.0  -0.7993
  O  O36  1  0.168600  0.231200  0.489200  1.0  -0.5457
  O  O37  1  0.549600  0.127200  0.567000  1.0  -0.6401
  O  O38  1  0.537400  0.252100  0.705700  1.0  -0.6526
  O  O39  1  0.217500  0.416000  0.287700  1.0  -0.6299
  O  O40  1  0.157900  0.610300  0.363000  1.0  -0.6943
  O  O41  1  0.850900  0.658600  0.114200  1.0  -0.7979
  O  O42  1  0.668600  0.731200  0.010800  1.0  -0.5467
  O  O43  1  0.049600  0.627200  0.933000  1.0  -0.6391
  O  O44  1  0.037400  0.752100  0.794300  1.0  -0.6504
  O  O45  1  0.717500  0.916000  0.212300  1.0  -0.6304
  O  O46  1  0.657900  0.110300  0.137000  1.0  -0.6939
  O  O47  1  0.649100  0.841400  0.614200  1.0  -0.7946
  O  O48  1  0.831400  0.768800  0.510800  1.0  -0.5478
  O  O49  1  0.450400  0.872800  0.433000  1.0  -0.6403
  O  O50  1  0.462600  0.747900  0.294300  1.0  -0.6505
  O  O51  1  0.782500  0.584000  0.712300  1.0  -0.6327
  O  O52  1  0.842100  0.389700  0.637000  1.0  -0.6918
