# generated using pymatgen
data_Ce(CO)6
_symmetry_space_group_name_H-M   'P 1'
_cell_length_a   8.62700000
_cell_length_b   9.65000000
_cell_length_c   13.21800000
_cell_angle_alpha   90.00000000
_cell_angle_beta   90.00000000
_cell_angle_gamma   95.93000000
_symmetry_Int_Tables_number   1
_chemical_formula_structural   Ce(CO)6
_chemical_formula_sum   'Ce4 C24 O24'
_cell_volume   1094.51734316
_cell_formula_units_Z   4
loop_
 _symmetry_equiv_pos_site_id
 _symmetry_equiv_pos_as_xyz
  1  'x, y, z'
loop_
 _atom_site_type_symbol
 _atom_site_label
 _atom_site_symmetry_multiplicity
 _atom_site_fract_x
 _atom_site_fract_y
 _atom_site_fract_z
 _atom_site_occupancy
 _atom_site_charge
  Ce  Ce1  1  0.455160  0.004330  0.765760  1.0  2.226
  Ce  Ce2  1  0.044840  0.495670  0.265760  1.0  2.2268
  Ce  Ce3  1  0.544840  0.995670  0.234240  1.0  2.2268
  Ce  Ce4  1  0.955160  0.504330  0.734240  1.0  2.2261
  C  C5  1  0.409900  0.374300  0.974600  1.0  -0.117
  C  C6  1  0.527500  0.376600  0.048600  1.0  -0.0777
  C  C7  1  0.381300  0.499500  0.927400  1.0  -0.0668
  C  C8  1  0.306700  0.240400  0.948600  1.0  0.7814
  C  C9  1  0.544500  0.248700  0.109900  1.0  0.6857
  C  C10  1  0.244200  0.504300  0.858100  1.0  0.6805
  C  C11  1  0.090100  0.125700  0.474600  1.0  -0.1168
  C  C12  1  0.972500  0.123400  0.548600  1.0  -0.0775
  C  C13  1  0.118700  0.000500  0.427400  1.0  -0.0664
  C  C14  1  0.193300  0.259600  0.448600  1.0  0.7832
  C  C15  1  0.955500  0.251300  0.609900  1.0  0.6846
  C  C16  1  0.255800  0.995700  0.358100  1.0  0.6807
  C  C17  1  0.590100  0.625700  0.025400  1.0  -0.1169
  C  C18  1  0.472500  0.623400  0.951400  1.0  -0.077
  C  C19  1  0.618700  0.500500  0.072600  1.0  -0.0666
  C  C20  1  0.693300  0.759600  0.051400  1.0  0.7839
  C  C21  1  0.455500  0.751300  0.890100  1.0  0.6858
  C  C22  1  0.755800  0.495700  0.141900  1.0  0.6825
  C  C23  1  0.909900  0.874300  0.525400  1.0  -0.1169
  C  C24  1  0.027500  0.876600  0.451400  1.0  -0.0776
  C  C25  1  0.881300  0.999500  0.572600  1.0  -0.0666
  C  C26  1  0.806700  0.740400  0.551400  1.0  0.7818
  C  C27  1  0.044500  0.748700  0.390100  1.0  0.685
  C  C28  1  0.744200  0.004300  0.641900  1.0  0.6812
  O  O29  1  0.356500  0.162200  0.884100  1.0  -0.8425
  O  O30  1  0.177800  0.220500  0.991800  1.0  -0.5716
  O  O31  1  0.550100  0.133300  0.066400  1.0  -0.6471
  O  O32  1  0.547600  0.258800  0.204100  1.0  -0.6839
  O  O33  1  0.218000  0.415900  0.789300  1.0  -0.6476
  O  O34  1  0.152300  0.596500  0.875000  1.0  -0.7244
  O  O35  1  0.143500  0.337800  0.384100  1.0  -0.845
  O  O36  1  0.322200  0.279500  0.491800  1.0  -0.5712
  O  O37  1  0.949900  0.366700  0.566400  1.0  -0.6472
  O  O38  1  0.952400  0.241200  0.704100  1.0  -0.6831
  O  O39  1  0.282000  0.084100  0.289300  1.0  -0.6491
  O  O40  1  0.347700  0.903500  0.375000  1.0  -0.7218
  O  O41  1  0.643500  0.837800  0.115900  1.0  -0.8443
  O  O42  1  0.822200  0.779500  0.008200  1.0  -0.5684
  O  O43  1  0.449900  0.866700  0.933600  1.0  -0.6474
  O  O44  1  0.452400  0.741200  0.795900  1.0  -0.6815
  O  O45  1  0.782000  0.584100  0.210700  1.0  -0.6488
  O  O46  1  0.847700  0.403500  0.125000  1.0  -0.7217
  O  O47  1  0.856500  0.662200  0.615900  1.0  -0.8406
  O  O48  1  0.677800  0.720500  0.508200  1.0  -0.5715
  O  O49  1  0.050100  0.633300  0.433600  1.0  -0.6466
  O  O50  1  0.047600  0.758800  0.295900  1.0  -0.6811
  O  O51  1  0.718000  0.915900  0.710700  1.0  -0.6478
  O  O52  1  0.652300  0.096500  0.625000  1.0  -0.7244
