# generated using pymatgen
data_ZnH8C15(NO)4
_symmetry_space_group_name_H-M   'P 1'
_cell_length_a   9.80540000
_cell_length_b   17.98140000
_cell_length_c   11.97750000
_cell_angle_alpha   90.00000000
_cell_angle_beta   97.88100000
_cell_angle_gamma   90.00000000
_symmetry_Int_Tables_number   1
_chemical_formula_structural   ZnH8C15(NO)4
_chemical_formula_sum   'Zn4 H32 C60 N16 O16'
_cell_volume   2091.86467152
_cell_formula_units_Z   4
loop_
 _symmetry_equiv_pos_site_id
 _symmetry_equiv_pos_as_xyz
  1  'x, y, z'
loop_
 _atom_site_type_symbol
 _atom_site_label
 _atom_site_symmetry_multiplicity
 _atom_site_fract_x
 _atom_site_fract_y
 _atom_site_fract_z
 _atom_site_occupancy
 _atom_site_charge
  Zn  Zn1  1  0.445530  0.547720  0.339090  1.0  0.9358
  Zn  Zn2  1  0.054470  0.047720  0.160910  1.0  0.9354
  Zn  Zn3  1  0.554470  0.452280  0.660910  1.0  0.9352
  Zn  Zn4  1  0.945530  0.952280  0.839090  1.0  0.9358
  H  H5  1  0.589000  0.068800  0.166100  1.0  0.1103
  H  H6  1  0.348200  0.221100  0.297600  1.0  0.1307
  H  H7  1  0.755700  0.263100  0.297900  1.0  0.1225
  H  H8  1  0.597200  0.297700  0.529100  1.0  0.1038
  H  H9  1  0.473300  0.310700  0.114200  1.0  0.1138
  H  H10  1  0.384500  0.356400  0.934500  1.0  0.1039
  H  H11  1  0.291700  0.474900  0.916900  1.0  0.1128
  H  H12  1  0.312000  0.552900  0.075000  1.0  0.0942
  H  H13  1  0.911000  0.568800  0.333900  1.0  0.1105
  H  H14  1  0.151800  0.721100  0.202400  1.0  0.1306
  H  H15  1  0.744300  0.763100  0.202100  1.0  0.1234
  H  H16  1  0.902800  0.797700  0.970900  1.0  0.1034
  H  H17  1  0.026700  0.810700  0.385800  1.0  0.1134
  H  H18  1  0.115500  0.856400  0.565500  1.0  0.1042
  H  H19  1  0.208300  0.974900  0.583100  1.0  0.1125
  H  H20  1  0.188000  0.052900  0.425000  1.0  0.094
  H  H21  1  0.411000  0.931200  0.833900  1.0  0.1111
  H  H22  1  0.651800  0.778900  0.702400  1.0  0.1307
  H  H23  1  0.244300  0.736900  0.702100  1.0  0.1228
  H  H24  1  0.402800  0.702300  0.470900  1.0  0.1036
  H  H25  1  0.526700  0.689300  0.885800  1.0  0.1133
  H  H26  1  0.615500  0.643600  0.065500  1.0  0.1071
  H  H27  1  0.708300  0.525100  0.083100  1.0  0.1126
  H  H28  1  0.688000  0.447100  0.925000  1.0  0.0943
  H  H29  1  0.089000  0.431200  0.666100  1.0  0.1104
  H  H30  1  0.848200  0.278900  0.797600  1.0  0.1306
  H  H31  1  0.255700  0.236900  0.797900  1.0  0.1222
  H  H32  1  0.097200  0.202300  0.029100  1.0  0.1037
  H  H33  1  0.973300  0.189300  0.614200  1.0  0.1137
  H  H34  1  0.884500  0.143600  0.434500  1.0  0.1072
  H  H35  1  0.791700  0.025100  0.416900  1.0  0.1127
  H  H36  1  0.812000  0.947100  0.575000  1.0  0.0938
  C  C37  1  0.322100  0.091200  0.189000  1.0  0.6995
  C  C38  1  0.836300  0.139400  0.204900  1.0  0.6884
  C  C39  1  0.579200  0.115700  0.200800  1.0  -0.0107
  C  C40  1  0.449300  0.138200  0.223500  1.0  -0.1338
  C  C41  1  0.696000  0.161200  0.228400  1.0  -0.1535
  C  C42  1  0.435200  0.205900  0.279100  1.0  -0.112
  C  C43  1  0.679500  0.230500  0.280700  1.0  -0.1266
  C  C44  1  0.551000  0.250200  0.306400  1.0  0.1402
  C  C45  1  0.563000  0.333900  0.474600  1.0  0.1964
  C  C46  1  0.488500  0.387500  0.315700  1.0  0.246
  C  C47  1  0.442300  0.407300  0.196300  1.0  0.1441
  C  C48  1  0.439400  0.360100  0.105000  1.0  -0.0843
  C  C49  1  0.385400  0.387100  0.999100  1.0  -0.1008
  C  C50  1  0.333900  0.457200  0.988200  1.0  -0.1204
  C  C51  1  0.344000  0.503100  0.083100  1.0  0.1496
  C  C52  1  0.177900  0.591200  0.311000  1.0  0.7015
  C  C53  1  0.663700  0.639400  0.295100  1.0  0.6893
  C  C54  1  0.920800  0.615700  0.299200  1.0  -0.0102
  C  C55  1  0.050700  0.638200  0.276500  1.0  -0.134
  C  C56  1  0.804000  0.661200  0.271600  1.0  -0.1539
  C  C57  1  0.064800  0.705900  0.220900  1.0  -0.1145
  C  C58  1  0.820500  0.730500  0.219300  1.0  -0.1271
  C  C59  1  0.949000  0.750200  0.193600  1.0  0.1405
  C  C60  1  0.937000  0.833900  0.025400  1.0  0.1967
  C  C61  1  0.011500  0.887500  0.184300  1.0  0.2442
  C  C62  1  0.057700  0.907300  0.303700  1.0  0.1447
  C  C63  1  0.060600  0.860100  0.395000  1.0  -0.0848
  C  C64  1  0.114600  0.887100  0.500900  1.0  -0.0997
  C  C65  1  0.166100  0.957200  0.511800  1.0  -0.1204
  C  C66  1  0.156000  0.003100  0.416900  1.0  0.1514
  C  C67  1  0.677900  0.908800  0.811000  1.0  0.7014
  C  C68  1  0.163700  0.860600  0.795100  1.0  0.6892
  C  C69  1  0.420800  0.884300  0.799200  1.0  -0.0075
  C  C70  1  0.550700  0.861800  0.776500  1.0  -0.1333
  C  C71  1  0.304000  0.838800  0.771600  1.0  -0.1538
  C  C72  1  0.564800  0.794100  0.720900  1.0  -0.1143
  C  C73  1  0.320500  0.769500  0.719300  1.0  -0.1259
  C  C74  1  0.449000  0.749800  0.693600  1.0  0.1406
  C  C75  1  0.437000  0.666100  0.525400  1.0  0.1962
  C  C76  1  0.511500  0.612500  0.684300  1.0  0.2445
  C  C77  1  0.557700  0.592700  0.803700  1.0  0.1447
  C  C78  1  0.560600  0.639900  0.895000  1.0  -0.0846
  C  C79  1  0.614600  0.612900  0.000900  1.0  -0.0998
  C  C80  1  0.666100  0.542800  0.011800  1.0  -0.1205
  C  C81  1  0.656000  0.496900  0.916900  1.0  0.1515
  C  C82  1  0.822100  0.408800  0.689000  1.0  0.6994
  C  C83  1  0.336300  0.360600  0.704900  1.0  0.6881
  C  C84  1  0.079200  0.384300  0.700800  1.0  -0.0076
  C  C85  1  0.949300  0.361800  0.723500  1.0  -0.1325
  C  C86  1  0.196000  0.338800  0.728400  1.0  -0.153
  C  C87  1  0.935200  0.294100  0.779100  1.0  -0.1129
  C  C88  1  0.179500  0.269500  0.780700  1.0  -0.1253
  C  C89  1  0.051000  0.249800  0.806400  1.0  0.1404
  C  C90  1  0.063000  0.166100  0.974600  1.0  0.1956
  C  C91  1  0.988500  0.112500  0.815700  1.0  0.2459
  C  C92  1  0.942300  0.092700  0.696300  1.0  0.1438
  C  C93  1  0.939400  0.139900  0.605000  1.0  -0.084
  C  C94  1  0.885400  0.112900  0.499100  1.0  -0.1002
  C  C95  1  0.833900  0.042800  0.488200  1.0  -0.1205
  C  C96  1  0.844000  0.996900  0.583100  1.0  0.1507
  N  N97  1  0.534700  0.321350  0.362100  1.0  -0.0966
  N  N98  1  0.535900  0.403960  0.497300  1.0  -0.2852
  N  N99  1  0.488900  0.437710  0.395600  1.0  -0.3124
  N  N100  1  0.398400  0.478200  0.186700  1.0  -0.3053
  N  N101  1  0.965300  0.821350  0.137900  1.0  -0.0965
  N  N102  1  0.964100  0.903960  0.002700  1.0  -0.2853
  N  N103  1  0.011100  0.937710  0.104400  1.0  -0.3117
  N  N104  1  0.101600  0.978200  0.313300  1.0  -0.3041
  N  N105  1  0.465300  0.678650  0.637900  1.0  -0.0965
  N  N106  1  0.464100  0.596040  0.502700  1.0  -0.2851
  N  N107  1  0.511100  0.562290  0.604400  1.0  -0.3107
  N  N108  1  0.601600  0.521800  0.813300  1.0  -0.3051
  N  N109  1  0.034700  0.178650  0.862100  1.0  -0.0966
  N  N110  1  0.035900  0.096040  0.997300  1.0  -0.2841
  N  N111  1  0.988900  0.062290  0.895600  1.0  -0.3111
  N  N112  1  0.898400  0.021800  0.686700  1.0  -0.3052
  O  O113  1  0.329300  0.033300  0.132200  1.0  -0.5384
  O  O114  1  0.209500  0.115750  0.218300  1.0  -0.5915
  O  O115  1  0.860200  0.070420  0.192200  1.0  -0.5806
  O  O116  1  0.924400  0.189400  0.197800  1.0  -0.5487
  O  O117  1  0.170700  0.533300  0.367800  1.0  -0.5367
  O  O118  1  0.290500  0.615750  0.281700  1.0  -0.5909
  O  O119  1  0.639800  0.570420  0.307800  1.0  -0.5802
  O  O120  1  0.575600  0.689400  0.302200  1.0  -0.5472
  O  O121  1  0.670700  0.966700  0.867800  1.0  -0.5375
  O  O122  1  0.790500  0.884250  0.781700  1.0  -0.5915
  O  O123  1  0.139800  0.929580  0.807800  1.0  -0.5811
  O  O124  1  0.075600  0.810600  0.802200  1.0  -0.547
  O  O125  1  0.829300  0.466700  0.632200  1.0  -0.5351
  O  O126  1  0.709500  0.384250  0.718300  1.0  -0.5918
  O  O127  1  0.360200  0.429580  0.692200  1.0  -0.5812
  O  O128  1  0.424400  0.310600  0.697800  1.0  -0.5474
