# generated using pymatgen
data_CuH8C15(NO)4
_symmetry_space_group_name_H-M   'P 1'
_cell_length_a   9.86600000
_cell_length_b   17.64600000
_cell_length_c   11.91420000
_cell_angle_alpha   90.00000000
_cell_angle_beta   96.01400000
_cell_angle_gamma   90.00000000
_symmetry_Int_Tables_number   1
_chemical_formula_structural   CuH8C15(NO)4
_chemical_formula_sum   'Cu4 H32 C60 N16 O16'
_cell_volume   2062.79207682
_cell_formula_units_Z   4
loop_
 _symmetry_equiv_pos_site_id
 _symmetry_equiv_pos_as_xyz
  1  'x, y, z'
loop_
 _atom_site_type_symbol
 _atom_site_label
 _atom_site_symmetry_multiplicity
 _atom_site_fract_x
 _atom_site_fract_y
 _atom_site_fract_z
 _atom_site_occupancy
 _atom_site_charge
  Cu  Cu1  1  0.424030  0.543650  0.347740  1.0  0.8292
  Cu  Cu2  1  0.075970  0.043650  0.152260  1.0  0.8311
  Cu  Cu3  1  0.575970  0.456350  0.652260  1.0  0.8311
  Cu  Cu4  1  0.924030  0.956350  0.847740  1.0  0.8292
  H  H5  1  0.603600  0.069700  0.161500  1.0  0.11
  H  H6  1  0.354800  0.220900  0.293800  1.0  0.1329
  H  H7  1  0.761200  0.260700  0.310500  1.0  0.1295
  H  H8  1  0.617900  0.299100  0.530000  1.0  0.0989
  H  H9  1  0.460000  0.313900  0.118900  1.0  0.12
  H  H10  1  0.368900  0.364100  0.947100  1.0  0.1033
  H  H11  1  0.283000  0.487800  0.939200  1.0  0.1243
  H  H12  1  0.305300  0.560600  0.102300  1.0  0.0873
  H  H13  1  0.896400  0.569700  0.338500  1.0  0.1103
  H  H14  1  0.145200  0.720900  0.206200  1.0  0.1319
  H  H15  1  0.738800  0.760700  0.189500  1.0  0.1293
  H  H16  1  0.882100  0.799100  0.970000  1.0  0.0987
  H  H17  1  0.040000  0.813900  0.381100  1.0  0.1195
  H  H18  1  0.131100  0.864100  0.552900  1.0  0.1039
  H  H19  1  0.217000  0.987800  0.560800  1.0  0.1237
  H  H20  1  0.194700  0.060600  0.397700  1.0  0.0878
  H  H21  1  0.396400  0.930300  0.838500  1.0  0.1105
  H  H22  1  0.645200  0.779100  0.706200  1.0  0.1322
  H  H23  1  0.238800  0.739300  0.689500  1.0  0.1288
  H  H24  1  0.382100  0.700900  0.470000  1.0  0.0989
  H  H25  1  0.540000  0.686100  0.881100  1.0  0.119
  H  H26  1  0.631100  0.635900  0.052900  1.0  0.1035
  H  H27  1  0.717000  0.512200  0.060800  1.0  0.124
  H  H28  1  0.694700  0.439400  0.897700  1.0  0.0881
  H  H29  1  0.103600  0.430300  0.661500  1.0  0.1103
  H  H30  1  0.854800  0.279100  0.793800  1.0  0.1331
  H  H31  1  0.261200  0.239300  0.810500  1.0  0.1291
  H  H32  1  0.117900  0.200900  0.030000  1.0  0.0985
  H  H33  1  0.960000  0.186100  0.618900  1.0  0.1193
  H  H34  1  0.868900  0.135900  0.447100  1.0  0.1034
  H  H35  1  0.783000  0.012200  0.439200  1.0  0.1244
  H  H36  1  0.805300  0.939400  0.602300  1.0  0.0875
  C  C37  1  0.338500  0.090030  0.178900  1.0  0.6785
  C  C38  1  0.849300  0.135000  0.215900  1.0  0.6943
  C  C39  1  0.591800  0.115460  0.199700  1.0  0.019
  C  C40  1  0.461400  0.137610  0.219500  1.0  -0.1282
  C  C41  1  0.705900  0.159520  0.235100  1.0  -0.129
  C  C42  1  0.441900  0.205600  0.277600  1.0  -0.1262
  C  C43  1  0.686700  0.228750  0.289000  1.0  -0.1306
  C  C44  1  0.557000  0.249310  0.310100  1.0  0.1882
  C  C45  1  0.576700  0.334640  0.478400  1.0  0.1691
  C  C46  1  0.484800  0.387530  0.324600  1.0  0.2214
  C  C47  1  0.431900  0.408910  0.209600  1.0  0.1741
  C  C48  1  0.427000  0.363900  0.114400  1.0  -0.1189
  C  C49  1  0.372700  0.393700  0.012900  1.0  -0.0997
  C  C50  1  0.323500  0.467400  0.007500  1.0  -0.1348
  C  C51  1  0.335700  0.510100  0.105600  1.0  0.1611
  C  C52  1  0.161500  0.590030  0.321100  1.0  0.678
  C  C53  1  0.650700  0.635000  0.284100  1.0  0.6935
  C  C54  1  0.908200  0.615460  0.300300  1.0  0.0191
  C  C55  1  0.038600  0.637610  0.280500  1.0  -0.1276
  C  C56  1  0.794100  0.659520  0.264900  1.0  -0.1285
  C  C57  1  0.058100  0.705600  0.222400  1.0  -0.1262
  C  C58  1  0.813300  0.728750  0.211000  1.0  -0.1298
  C  C59  1  0.943000  0.749310  0.189900  1.0  0.1886
  C  C60  1  0.923300  0.834640  0.021600  1.0  0.1689
  C  C61  1  0.015200  0.887530  0.175400  1.0  0.2201
  C  C62  1  0.068100  0.908910  0.290400  1.0  0.1742
  C  C63  1  0.073000  0.863900  0.385600  1.0  -0.1186
  C  C64  1  0.127300  0.893700  0.487100  1.0  -0.0998
  C  C65  1  0.176500  0.967400  0.492500  1.0  -0.1342
  C  C66  1  0.164300  0.010100  0.394400  1.0  0.1614
  C  C67  1  0.661500  0.909970  0.821100  1.0  0.6784
  C  C68  1  0.150700  0.865000  0.784100  1.0  0.6935
  C  C69  1  0.408200  0.884540  0.800300  1.0  0.02
  C  C70  1  0.538600  0.862390  0.780500  1.0  -0.1275
  C  C71  1  0.294100  0.840480  0.764900  1.0  -0.1285
  C  C72  1  0.558100  0.794400  0.722400  1.0  -0.1259
  C  C73  1  0.313300  0.771250  0.711000  1.0  -0.1298
  C  C74  1  0.443000  0.750690  0.689900  1.0  0.1885
  C  C75  1  0.423300  0.665360  0.521600  1.0  0.1685
  C  C76  1  0.515200  0.612470  0.675400  1.0  0.2195
  C  C77  1  0.568100  0.591090  0.790400  1.0  0.1738
  C  C78  1  0.573000  0.636100  0.885600  1.0  -0.1193
  C  C79  1  0.627300  0.606300  0.987100  1.0  -0.0993
  C  C80  1  0.676500  0.532600  0.992500  1.0  -0.1336
  C  C81  1  0.664300  0.489900  0.894400  1.0  0.1616
  C  C82  1  0.838500  0.409970  0.678900  1.0  0.6794
  C  C83  1  0.349300  0.365000  0.715900  1.0  0.6935
  C  C84  1  0.091800  0.384540  0.699700  1.0  0.0197
  C  C85  1  0.961400  0.362390  0.719500  1.0  -0.1271
  C  C86  1  0.205900  0.340480  0.735100  1.0  -0.1282
  C  C87  1  0.941900  0.294400  0.777600  1.0  -0.1268
  C  C88  1  0.186700  0.271250  0.789000  1.0  -0.1299
  C  C89  1  0.057000  0.250690  0.810100  1.0  0.1882
  C  C90  1  0.076700  0.165360  0.978400  1.0  0.1684
  C  C91  1  0.984800  0.112470  0.824600  1.0  0.2213
  C  C92  1  0.931900  0.091090  0.709600  1.0  0.1734
  C  C93  1  0.927000  0.136100  0.614400  1.0  -0.1196
  C  C94  1  0.872700  0.106300  0.512900  1.0  -0.0984
  C  C95  1  0.823500  0.032600  0.507500  1.0  -0.134
  C  C96  1  0.835700  0.989900  0.605600  1.0  0.1615
  N  N97  1  0.538400  0.320710  0.368000  1.0  -0.0489
  N  N98  1  0.548100  0.404880  0.503300  1.0  -0.2372
  N  N99  1  0.489000  0.438150  0.405400  1.0  -0.2895
  N  N100  1  0.388900  0.482140  0.204400  1.0  -0.3053
  N  N101  1  0.961600  0.820710  0.132000  1.0  -0.0488
  N  N102  1  0.951900  0.904880  0.996700  1.0  -0.2371
  N  N103  1  0.011000  0.938150  0.094600  1.0  -0.2882
  N  N104  1  0.111100  0.982140  0.295600  1.0  -0.3063
  N  N105  1  0.461600  0.679290  0.632000  1.0  -0.0489
  N  N106  1  0.451900  0.595120  0.496700  1.0  -0.2376
  N  N107  1  0.511000  0.561850  0.594600  1.0  -0.2868
  N  N108  1  0.611100  0.517860  0.795600  1.0  -0.3069
  N  N109  1  0.038400  0.179290  0.868000  1.0  -0.0489
  N  N110  1  0.048100  0.095120  0.003300  1.0  -0.2376
  N  N111  1  0.989000  0.061850  0.905400  1.0  -0.2874
  N  N112  1  0.888900  0.017860  0.704400  1.0  -0.3053
  O  O113  1  0.353200  0.031430  0.124600  1.0  -0.5688
  O  O114  1  0.223200  0.114530  0.203400  1.0  -0.6013
  O  O115  1  0.867600  0.067110  0.188000  1.0  -0.6072
  O  O116  1  0.942700  0.180740  0.234300  1.0  -0.5202
  O  O117  1  0.146800  0.531430  0.375400  1.0  -0.5672
  O  O118  1  0.276800  0.614530  0.296600  1.0  -0.6011
  O  O119  1  0.632400  0.567110  0.312000  1.0  -0.6062
  O  O120  1  0.557300  0.680740  0.265700  1.0  -0.5202
  O  O121  1  0.646800  0.968570  0.875400  1.0  -0.5687
  O  O122  1  0.776800  0.885470  0.796600  1.0  -0.6004
  O  O123  1  0.132400  0.932890  0.812000  1.0  -0.6051
  O  O124  1  0.057300  0.819260  0.765700  1.0  -0.5213
  O  O125  1  0.853200  0.468570  0.624600  1.0  -0.5662
  O  O126  1  0.723200  0.385470  0.703400  1.0  -0.6007
  O  O127  1  0.367600  0.432890  0.688000  1.0  -0.6059
  O  O128  1  0.442700  0.319260  0.734300  1.0  -0.5201
