# generated using pymatgen
data_CuH9C15N5O4
_symmetry_space_group_name_H-M   'P 1'
_cell_length_a   9.96020000
_cell_length_b   17.00860000
_cell_length_c   12.22790000
_cell_angle_alpha   90.00000000
_cell_angle_beta   96.94700000
_cell_angle_gamma   90.00000000
_symmetry_Int_Tables_number   1
_chemical_formula_structural   CuH9C15N5O4
_chemical_formula_sum   'Cu4 H36 C60 N20 O16'
_cell_volume   2056.30889001
_cell_formula_units_Z   4
loop_
 _symmetry_equiv_pos_site_id
 _symmetry_equiv_pos_as_xyz
  1  'x, y, z'
loop_
 _atom_site_type_symbol
 _atom_site_label
 _atom_site_symmetry_multiplicity
 _atom_site_fract_x
 _atom_site_fract_y
 _atom_site_fract_z
 _atom_site_occupancy
 _atom_site_charge
  Cu  Cu1  1  0.455560  0.548500  0.341400  1.0  0.867
  Cu  Cu2  1  0.044440  0.048500  0.158600  1.0  0.8669
  Cu  Cu3  1  0.544440  0.451500  0.658600  1.0  0.867
  Cu  Cu4  1  0.955560  0.951500  0.841400  1.0  0.8668
  H  H5  1  0.597000  0.038600  0.201400  1.0  0.1199
  H  H6  1  0.343300  0.197900  0.313800  1.0  0.1287
  H  H7  1  0.745800  0.246000  0.330900  1.0  0.1316
  H  H8  1  0.691700  0.256500  0.594600  1.0  0.1276
  H  H9  1  0.562700  0.203900  0.551900  1.0  0.1354
  H  H10  1  0.554400  0.266200  0.649000  1.0  0.1408
  H  H11  1  0.374300  0.329800  0.989400  1.0  0.0894
  H  H12  1  0.324800  0.461200  0.951000  1.0  0.1181
  H  H13  1  0.366900  0.552700  0.093100  1.0  0.1017
  H  H14  1  0.903000  0.538600  0.298600  1.0  0.1199
  H  H15  1  0.156700  0.697900  0.186200  1.0  0.1287
  H  H16  1  0.754200  0.746000  0.169100  1.0  0.1314
  H  H17  1  0.808300  0.756500  0.905400  1.0  0.1312
  H  H18  1  0.937300  0.703900  0.948100  1.0  0.1377
  H  H19  1  0.945600  0.766200  0.851000  1.0  0.1403
  H  H20  1  0.125700  0.829800  0.510600  1.0  0.0892
  H  H21  1  0.175200  0.961200  0.549000  1.0  0.1175
  H  H22  1  0.133100  0.052700  0.406900  1.0  0.1015
  H  H23  1  0.403000  0.961400  0.798600  1.0  0.1207
  H  H24  1  0.656700  0.802100  0.686200  1.0  0.1287
  H  H25  1  0.254200  0.754000  0.669100  1.0  0.1312
  H  H26  1  0.308300  0.743500  0.405400  1.0  0.1314
  H  H27  1  0.437300  0.796100  0.448100  1.0  0.1368
  H  H28  1  0.445600  0.733800  0.351000  1.0  0.1404
  H  H29  1  0.625700  0.670200  0.010600  1.0  0.0891
  H  H30  1  0.675200  0.538800  0.049000  1.0  0.1173
  H  H31  1  0.633100  0.447300  0.906900  1.0  0.102
  H  H32  1  0.097000  0.461400  0.701400  1.0  0.1201
  H  H33  1  0.843300  0.302100  0.813800  1.0  0.1287
  H  H34  1  0.245800  0.254000  0.830900  1.0  0.1316
  H  H35  1  0.191700  0.243500  0.094600  1.0  0.1278
  H  H36  1  0.062700  0.296100  0.051900  1.0  0.1365
  H  H37  1  0.054400  0.233800  0.149000  1.0  0.1407
  H  H38  1  0.874300  0.170200  0.489400  1.0  0.0896
  H  H39  1  0.824800  0.038800  0.451000  1.0  0.1177
  H  H40  1  0.866900  0.947300  0.593100  1.0  0.1017
  C  C41  1  0.334900  0.057400  0.217400  1.0  0.7157
  C  C42  1  0.833100  0.117000  0.238600  1.0  0.6765
  C  C43  1  0.583000  0.088300  0.233900  1.0  -0.028
  C  C44  1  0.453600  0.110900  0.253600  1.0  -0.0892
  C  C45  1  0.693000  0.139400  0.262400  1.0  -0.137
  C  C46  1  0.432000  0.182400  0.301800  1.0  -0.1316
  C  C47  1  0.672400  0.211100  0.311600  1.0  -0.1382
  C  C48  1  0.541700  0.231100  0.332500  1.0  0.1383
  C  C49  1  0.592800  0.255700  0.580300  1.0  -0.4247
  C  C50  1  0.546900  0.316600  0.498300  1.0  0.3834
  C  C51  1  0.480100  0.376000  0.343100  1.0  0.2715
  C  C52  1  0.442400  0.397200  0.226900  1.0  0.345
  C  C53  1  0.384500  0.367100  0.047600  1.0  0.1396
  C  C54  1  0.358300  0.444900  0.023500  1.0  -0.1345
  C  C55  1  0.382200  0.498400  0.107800  1.0  0.1607
  C  C56  1  0.165100  0.557400  0.282600  1.0  0.7158
  C  C57  1  0.666900  0.617000  0.261400  1.0  0.677
  C  C58  1  0.917000  0.588300  0.266100  1.0  -0.029
  C  C59  1  0.046400  0.610900  0.246400  1.0  -0.0888
  C  C60  1  0.807000  0.639400  0.237600  1.0  -0.1364
  C  C61  1  0.068000  0.682400  0.198200  1.0  -0.131
  C  C62  1  0.827600  0.711100  0.188400  1.0  -0.1398
  C  C63  1  0.958300  0.731100  0.167500  1.0  0.1384
  C  C64  1  0.907200  0.755700  0.919700  1.0  -0.4269
  C  C65  1  0.953100  0.816600  0.001700  1.0  0.3839
  C  C66  1  0.019900  0.876000  0.156900  1.0  0.2705
  C  C67  1  0.057600  0.897200  0.273100  1.0  0.3444
  C  C68  1  0.115500  0.867100  0.452400  1.0  0.1399
  C  C69  1  0.141700  0.944900  0.476500  1.0  -0.1342
  C  C70  1  0.117800  0.998400  0.392200  1.0  0.1611
  C  C71  1  0.665100  0.942600  0.782600  1.0  0.7157
  C  C72  1  0.166900  0.883000  0.761400  1.0  0.6768
  C  C73  1  0.417000  0.911700  0.766100  1.0  -0.0271
  C  C74  1  0.546400  0.889100  0.746400  1.0  -0.0894
  C  C75  1  0.307000  0.860600  0.737600  1.0  -0.1365
  C  C76  1  0.568000  0.817600  0.698200  1.0  -0.131
  C  C77  1  0.327600  0.788900  0.688400  1.0  -0.1389
  C  C78  1  0.458300  0.768900  0.667500  1.0  0.1384
  C  C79  1  0.407200  0.744300  0.419700  1.0  -0.4266
  C  C80  1  0.453100  0.683400  0.501700  1.0  0.3842
  C  C81  1  0.519900  0.624000  0.656900  1.0  0.2702
  C  C82  1  0.557600  0.602800  0.773100  1.0  0.3444
  C  C83  1  0.615500  0.632900  0.952400  1.0  0.1398
  C  C84  1  0.641700  0.555100  0.976500  1.0  -0.1331
  C  C85  1  0.617800  0.501600  0.892200  1.0  0.1609
  C  C86  1  0.834900  0.442600  0.717400  1.0  0.7165
  C  C87  1  0.333100  0.383000  0.738600  1.0  0.6762
  C  C88  1  0.083000  0.411700  0.733900  1.0  -0.0272
  C  C89  1  0.953600  0.389100  0.753600  1.0  -0.0896
  C  C90  1  0.193000  0.360600  0.762400  1.0  -0.1365
  C  C91  1  0.932000  0.317600  0.801800  1.0  -0.1315
  C  C92  1  0.172400  0.288900  0.811600  1.0  -0.138
  C  C93  1  0.041700  0.268900  0.832500  1.0  0.1382
  C  C94  1  0.092800  0.244300  0.080300  1.0  -0.4239
  C  C95  1  0.046900  0.183400  0.998300  1.0  0.3836
  C  C96  1  0.980100  0.124000  0.843100  1.0  0.2715
  C  C97  1  0.942400  0.102800  0.726900  1.0  0.3452
  C  C98  1  0.884500  0.132900  0.547600  1.0  0.1405
  C  C99  1  0.858300  0.055100  0.523500  1.0  -0.1342
  C  C100  1  0.882200  0.001600  0.607800  1.0  0.1607
  N  N101  1  0.520500  0.304120  0.387500  1.0  -0.1093
  N  N102  1  0.522100  0.391280  0.519400  1.0  -0.3217
  N  N103  1  0.479500  0.428360  0.420900  1.0  -0.242
  N  N104  1  0.426800  0.475020  0.210700  1.0  -0.3174
  N  N105  1  0.424400  0.341900  0.151100  1.0  -0.4063
  N  N106  1  0.979500  0.804120  0.112500  1.0  -0.108
  N  N107  1  0.977900  0.891280  0.980600  1.0  -0.3216
  N  N108  1  0.020500  0.928360  0.079100  1.0  -0.2414
  N  N109  1  0.073200  0.975020  0.289300  1.0  -0.3182
  N  N110  1  0.075600  0.841900  0.348900  1.0  -0.4063
  N  N111  1  0.479500  0.695880  0.612500  1.0  -0.1082
  N  N112  1  0.477900  0.608720  0.480600  1.0  -0.3204
  N  N113  1  0.520500  0.571640  0.579100  1.0  -0.2409
  N  N114  1  0.573200  0.524980  0.789300  1.0  -0.3184
  N  N115  1  0.575600  0.658100  0.848900  1.0  -0.4072
  N  N116  1  0.020500  0.195880  0.887500  1.0  -0.1097
  N  N117  1  0.022100  0.108720  0.019400  1.0  -0.3204
  N  N118  1  0.979500  0.071640  0.920900  1.0  -0.2407
  N  N119  1  0.926800  0.024980  0.710700  1.0  -0.3171
  N  N120  1  0.924400  0.158100  0.651100  1.0  -0.4076
  O  O121  1  0.352200  0.985000  0.215800  1.0  -0.5408
  O  O122  1  0.224100  0.092350  0.192900  1.0  -0.6049
  O  O123  1  0.843800  0.059520  0.172300  1.0  -0.5864
  O  O124  1  0.932000  0.154550  0.283700  1.0  -0.5814
  O  O125  1  0.147800  0.485000  0.284200  1.0  -0.5408
  O  O126  1  0.275900  0.592350  0.307100  1.0  -0.6047
  O  O127  1  0.656200  0.559520  0.327700  1.0  -0.5866
  O  O128  1  0.568000  0.654550  0.216300  1.0  -0.5812
  O  O129  1  0.647800  0.015000  0.784200  1.0  -0.5422
  O  O130  1  0.775900  0.907650  0.807100  1.0  -0.6046
  O  O131  1  0.156200  0.940480  0.827700  1.0  -0.5876
  O  O132  1  0.068000  0.845450  0.716300  1.0  -0.5821
  O  O133  1  0.852200  0.515000  0.715800  1.0  -0.5402
  O  O134  1  0.724100  0.407650  0.692900  1.0  -0.6052
  O  O135  1  0.343800  0.440480  0.672300  1.0  -0.588
  O  O136  1  0.432000  0.345450  0.783700  1.0  -0.5823
