# generated using pymatgen
data_ZnH9C15N5O4
_symmetry_space_group_name_H-M   'P 1'
_cell_length_a   9.84390000
_cell_length_b   17.67470000
_cell_length_c   11.80510000
_cell_angle_alpha   90.00000000
_cell_angle_beta   99.45800000
_cell_angle_gamma   90.00000000
_symmetry_Int_Tables_number   1
_chemical_formula_structural   ZnH9C15N5O4
_chemical_formula_sum   'Zn4 H36 C60 N20 O16'
_cell_volume   2026.02482265
_cell_formula_units_Z   4
loop_
 _symmetry_equiv_pos_site_id
 _symmetry_equiv_pos_as_xyz
  1  'x, y, z'
loop_
 _atom_site_type_symbol
 _atom_site_label
 _atom_site_symmetry_multiplicity
 _atom_site_fract_x
 _atom_site_fract_y
 _atom_site_fract_z
 _atom_site_occupancy
 _atom_site_charge
  Zn  Zn1  1  0.446640  0.547650  0.341960  1.0  0.9255
  Zn  Zn2  1  0.053360  0.047650  0.158040  1.0  0.9261
  Zn  Zn3  1  0.553360  0.452350  0.658040  1.0  0.9264
  Zn  Zn4  1  0.946640  0.952350  0.841960  1.0  0.9259
  H  H5  1  0.595600  0.062000  0.164100  1.0  0.1143
  H  H6  1  0.354800  0.214700  0.291200  1.0  0.1293
  H  H7  1  0.758100  0.259900  0.294900  1.0  0.13
  H  H8  1  0.730700  0.264500  0.543300  1.0  0.1343
  H  H9  1  0.587900  0.221400  0.529300  1.0  0.1307
  H  H10  1  0.625600  0.282200  0.628000  1.0  0.139
  H  H11  1  0.471400  0.310000  0.103900  1.0  0.0958
  H  H12  1  0.291500  0.472200  0.908400  1.0  0.0754
  H  H13  1  0.315000  0.552600  0.064400  1.0  0.1004
  H  H14  1  0.904400  0.562000  0.335900  1.0  0.1146
  H  H15  1  0.145200  0.714700  0.208800  1.0  0.1293
  H  H16  1  0.741900  0.759900  0.205100  1.0  0.1293
  H  H17  1  0.769300  0.764500  0.956700  1.0  0.1352
  H  H18  1  0.912100  0.721400  0.970700  1.0  0.1318
  H  H19  1  0.874400  0.782200  0.872000  1.0  0.1388
  H  H20  1  0.028600  0.810000  0.396100  1.0  0.0951
  H  H21  1  0.208500  0.972200  0.591600  1.0  0.0744
  H  H22  1  0.185000  0.052600  0.435600  1.0  0.0994
  H  H23  1  0.404400  0.938000  0.835900  1.0  0.1155
  H  H24  1  0.645200  0.785300  0.708800  1.0  0.1294
  H  H25  1  0.241900  0.740100  0.705100  1.0  0.1291
  H  H26  1  0.269300  0.735500  0.456700  1.0  0.1351
  H  H27  1  0.412100  0.778600  0.470700  1.0  0.1335
  H  H28  1  0.374400  0.717800  0.372000  1.0  0.1387
  H  H29  1  0.528600  0.690000  0.896100  1.0  0.0954
  H  H30  1  0.708500  0.527800  0.091600  1.0  0.0749
  H  H31  1  0.685000  0.447400  0.935600  1.0  0.0997
  H  H32  1  0.095600  0.438000  0.664100  1.0  0.1154
  H  H33  1  0.854800  0.285300  0.791200  1.0  0.1295
  H  H34  1  0.258100  0.240100  0.794900  1.0  0.1294
  H  H35  1  0.230700  0.235500  0.043300  1.0  0.1342
  H  H36  1  0.087900  0.278600  0.029300  1.0  0.1326
  H  H37  1  0.125600  0.217800  0.128000  1.0  0.1387
  H  H38  1  0.971400  0.190000  0.603900  1.0  0.0963
  H  H39  1  0.791500  0.027800  0.408400  1.0  0.0757
  H  H40  1  0.815000  0.947400  0.564400  1.0  0.0999
  C  C41  1  0.330900  0.081740  0.186400  1.0  0.6776
  C  C42  1  0.840600  0.134210  0.207700  1.0  0.6895
  C  C43  1  0.585200  0.109040  0.199000  1.0  -0.0794
  C  C44  1  0.456400  0.131070  0.221400  1.0  -0.1287
  C  C45  1  0.698100  0.156260  0.227750  1.0  -0.1413
  C  C46  1  0.440800  0.200060  0.273600  1.0  -0.1347
  C  C47  1  0.682700  0.226850  0.277100  1.0  -0.1514
  C  C48  1  0.554200  0.247040  0.299240  1.0  0.1811
  C  C49  1  0.634100  0.269130  0.549700  1.0  -0.4177
  C  C50  1  0.569900  0.329190  0.470900  1.0  0.364
  C  C51  1  0.489400  0.385350  0.310200  1.0  0.2136
  C  C52  1  0.441200  0.406370  0.189300  1.0  0.1506
  C  C53  1  0.436200  0.359400  0.094100  1.0  0.1317
  C  C54  1  0.334400  0.454260  0.980400  1.0  0.1459
  C  C55  1  0.345900  0.502360  0.074700  1.0  0.1261
  C  C56  1  0.169100  0.581740  0.313600  1.0  0.6775
  C  C57  1  0.659400  0.634210  0.292300  1.0  0.6894
  C  C58  1  0.914800  0.609040  0.301000  1.0  -0.0785
  C  C59  1  0.043600  0.631070  0.278600  1.0  -0.1286
  C  C60  1  0.801900  0.656260  0.272250  1.0  -0.1407
  C  C61  1  0.059200  0.700060  0.226400  1.0  -0.1359
  C  C62  1  0.817300  0.726850  0.222900  1.0  -0.1544
  C  C63  1  0.945800  0.747040  0.200760  1.0  0.1807
  C  C64  1  0.865900  0.769130  0.950300  1.0  -0.4191
  C  C65  1  0.930100  0.829190  0.029100  1.0  0.3636
  C  C66  1  0.010600  0.885350  0.189800  1.0  0.2125
  C  C67  1  0.058800  0.906370  0.310700  1.0  0.1506
  C  C68  1  0.063800  0.859400  0.405900  1.0  0.1316
  C  C69  1  0.165600  0.954260  0.519600  1.0  0.1452
  C  C70  1  0.154100  0.002360  0.425300  1.0  0.1255
  C  C71  1  0.669100  0.918260  0.813600  1.0  0.6794
  C  C72  1  0.159400  0.865790  0.792300  1.0  0.6898
  C  C73  1  0.414800  0.890960  0.801000  1.0  -0.0779
  C  C74  1  0.543600  0.868930  0.778600  1.0  -0.1268
  C  C75  1  0.301900  0.843740  0.772250  1.0  -0.1408
  C  C76  1  0.559200  0.799940  0.726400  1.0  -0.1357
  C  C77  1  0.317300  0.773150  0.722900  1.0  -0.1542
  C  C78  1  0.445800  0.752960  0.700760  1.0  0.1812
  C  C79  1  0.365900  0.730870  0.450300  1.0  -0.4176
  C  C80  1  0.430100  0.670810  0.529100  1.0  0.3638
  C  C81  1  0.510600  0.614650  0.689800  1.0  0.2131
  C  C82  1  0.558800  0.593630  0.810700  1.0  0.1507
  C  C83  1  0.563800  0.640600  0.905900  1.0  0.1316
  C  C84  1  0.665600  0.545740  0.019600  1.0  0.1455
  C  C85  1  0.654100  0.497640  0.925300  1.0  0.1251
  C  C86  1  0.830900  0.418260  0.686400  1.0  0.6792
  C  C87  1  0.340600  0.365790  0.707700  1.0  0.6896
  C  C88  1  0.085200  0.390960  0.699000  1.0  -0.0793
  C  C89  1  0.956400  0.368930  0.721400  1.0  -0.1268
  C  C90  1  0.198100  0.343740  0.727750  1.0  -0.1412
  C  C91  1  0.940800  0.299940  0.773600  1.0  -0.135
  C  C92  1  0.182700  0.273150  0.777100  1.0  -0.1514
  C  C93  1  0.054200  0.252960  0.799240  1.0  0.1815
  C  C94  1  0.134100  0.230870  0.049700  1.0  -0.4166
  C  C95  1  0.069900  0.170810  0.970900  1.0  0.364
  C  C96  1  0.989400  0.114650  0.810200  1.0  0.2141
  C  C97  1  0.941200  0.093630  0.689300  1.0  0.1505
  C  C98  1  0.936200  0.140600  0.594100  1.0  0.1325
  C  C99  1  0.834400  0.045740  0.480400  1.0  0.1459
  C  C100  1  0.845900  0.997640  0.574700  1.0  0.1261
  N  N101  1  0.538540  0.318270  0.355180  1.0  -0.0284
  N  N102  1  0.538930  0.399140  0.495320  1.0  -0.2988
  N  N103  1  0.487690  0.434420  0.393030  1.0  -0.2735
  N  N104  1  0.399800  0.478570  0.178600  1.0  -0.2852
  N  N105  1  0.381800  0.383650  0.988600  1.0  -0.4078
  N  N106  1  0.961460  0.818270  0.144820  1.0  -0.0281
  N  N107  1  0.961070  0.899140  0.004680  1.0  -0.297
  N  N108  1  0.012310  0.934420  0.106970  1.0  -0.2731
  N  N109  1  0.100200  0.978570  0.321400  1.0  -0.2862
  N  N110  1  0.118200  0.883650  0.511400  1.0  -0.4066
  N  N111  1  0.461460  0.681730  0.644820  1.0  -0.0284
  N  N112  1  0.461070  0.600860  0.504680  1.0  -0.2977
  N  N113  1  0.512310  0.565580  0.606970  1.0  -0.2731
  N  N114  1  0.600200  0.521430  0.821400  1.0  -0.2866
  N  N115  1  0.618200  0.616350  0.011400  1.0  -0.4089
  N  N116  1  0.038540  0.181730  0.855180  1.0  -0.0288
  N  N117  1  0.038930  0.100860  0.995320  1.0  -0.2984
  N  N118  1  0.987690  0.065580  0.893030  1.0  -0.2725
  N  N119  1  0.899800  0.021430  0.678600  1.0  -0.2846
  N  N120  1  0.881800  0.116350  0.488600  1.0  -0.4092
  O  O121  1  0.337000  0.027450  0.121200  1.0  -0.5539
  O  O122  1  0.223700  0.102460  0.222710  1.0  -0.5806
  O  O123  1  0.861530  0.064970  0.188560  1.0  -0.5964
  O  O124  1  0.928800  0.184730  0.208700  1.0  -0.579
  O  O125  1  0.163000  0.527450  0.378800  1.0  -0.5537
  O  O126  1  0.276300  0.602460  0.277290  1.0  -0.5819
  O  O127  1  0.638470  0.564970  0.311440  1.0  -0.595
  O  O128  1  0.571200  0.684730  0.291300  1.0  -0.5787
  O  O129  1  0.663000  0.972550  0.878800  1.0  -0.5551
  O  O130  1  0.776300  0.897540  0.777290  1.0  -0.5819
  O  O131  1  0.138470  0.935030  0.811440  1.0  -0.5963
  O  O132  1  0.071200  0.815270  0.791300  1.0  -0.5773
  O  O133  1  0.837000  0.472550  0.621200  1.0  -0.5524
  O  O134  1  0.723700  0.397540  0.722710  1.0  -0.5811
  O  O135  1  0.361530  0.435030  0.688560  1.0  -0.5972
  O  O136  1  0.428800  0.315270  0.708700  1.0  -0.5772
