# generated using pymatgen
data_CoH9C15N5O4
_symmetry_space_group_name_H-M   'P 1'
_cell_length_a   9.87670000
_cell_length_b   17.43890000
_cell_length_c   12.01770000
_cell_angle_alpha   90.00000000
_cell_angle_beta   97.45800000
_cell_angle_gamma   90.00000000
_symmetry_Int_Tables_number   1
_chemical_formula_structural   CoH9C15N5O4
_chemical_formula_sum   'Co4 H36 C60 N20 O16'
_cell_volume   2052.40312799
_cell_formula_units_Z   4
loop_
 _symmetry_equiv_pos_site_id
 _symmetry_equiv_pos_as_xyz
  1  'x, y, z'
loop_
 _atom_site_type_symbol
 _atom_site_label
 _atom_site_symmetry_multiplicity
 _atom_site_fract_x
 _atom_site_fract_y
 _atom_site_fract_z
 _atom_site_occupancy
 _atom_site_charge
  Co  Co1  1  0.451500  0.546250  0.344920  1.0  0.9332
  Co  Co2  1  0.048500  0.046250  0.155080  1.0  0.9335
  Co  Co3  1  0.548500  0.453750  0.655080  1.0  0.9337
  Co  Co4  1  0.951500  0.953750  0.844920  1.0  0.9333
  H  H5  1  0.586200  0.057700  0.160800  1.0  0.1116
  H  H6  1  0.349900  0.214000  0.295500  1.0  0.1248
  H  H7  1  0.756100  0.251900  0.303900  1.0  0.1221
  H  H8  1  0.718800  0.262600  0.558500  1.0  0.133
  H  H9  1  0.579900  0.214900  0.531800  1.0  0.1336
  H  H10  1  0.596600  0.276300  0.631600  1.0  0.1353
  H  H11  1  0.376200  0.340900  0.959600  1.0  0.0842
  H  H12  1  0.301600  0.466400  0.928300  1.0  0.1154
  H  H13  1  0.334500  0.553200  0.078100  1.0  0.0982
  H  H14  1  0.913800  0.557700  0.339200  1.0  0.1116
  H  H15  1  0.150100  0.714000  0.204500  1.0  0.1245
  H  H16  1  0.743900  0.751900  0.196100  1.0  0.1231
  H  H17  1  0.781200  0.762600  0.941500  1.0  0.1339
  H  H18  1  0.920100  0.714900  0.968200  1.0  0.1358
  H  H19  1  0.903400  0.776300  0.868400  1.0  0.1357
  H  H20  1  0.123800  0.840900  0.540400  1.0  0.0841
  H  H21  1  0.198400  0.966400  0.571700  1.0  0.1151
  H  H22  1  0.165500  0.053200  0.421900  1.0  0.0982
  H  H23  1  0.413800  0.942300  0.839200  1.0  0.1118
  H  H24  1  0.650100  0.786000  0.704500  1.0  0.1246
  H  H25  1  0.243900  0.748100  0.696100  1.0  0.1225
  H  H26  1  0.281200  0.737400  0.441500  1.0  0.134
  H  H27  1  0.420100  0.785100  0.468200  1.0  0.1352
  H  H28  1  0.403400  0.723700  0.368400  1.0  0.1359
  H  H29  1  0.623800  0.659100  0.040400  1.0  0.0836
  H  H30  1  0.698400  0.533600  0.071700  1.0  0.115
  H  H31  1  0.665500  0.446800  0.921900  1.0  0.0985
  H  H32  1  0.086200  0.442300  0.660800  1.0  0.1118
  H  H33  1  0.849900  0.286000  0.795500  1.0  0.1248
  H  H34  1  0.256100  0.248100  0.803900  1.0  0.1218
  H  H35  1  0.218800  0.237400  0.058500  1.0  0.1332
  H  H36  1  0.079900  0.285100  0.031800  1.0  0.135
  H  H37  1  0.096600  0.223700  0.131600  1.0  0.1354
  H  H38  1  0.876200  0.159100  0.459600  1.0  0.0843
  H  H39  1  0.801600  0.033600  0.428300  1.0  0.115
  H  H40  1  0.834500  0.946800  0.578100  1.0  0.0979
  C  C41  1  0.323100  0.082300  0.183600  1.0  0.6843
  C  C42  1  0.831800  0.122500  0.210800  1.0  0.6973
  C  C43  1  0.577500  0.104850  0.198800  1.0  -0.0252
  C  C44  1  0.449600  0.128760  0.221700  1.0  -0.1324
  C  C45  1  0.692600  0.149300  0.231100  1.0  -0.1467
  C  C46  1  0.436300  0.197720  0.277600  1.0  -0.1618
  C  C47  1  0.679000  0.219850  0.283900  1.0  -0.0844
  C  C48  1  0.551100  0.241910  0.306500  1.0  0.1545
  C  C49  1  0.619300  0.264600  0.556500  1.0  -0.4255
  C  C50  1  0.562900  0.325050  0.477200  1.0  0.3871
  C  C51  1  0.488800  0.381880  0.320500  1.0  0.2315
  C  C52  1  0.444400  0.403430  0.203100  1.0  0.3692
  C  C53  1  0.383600  0.376000  0.020600  1.0  0.1669
  C  C54  1  0.341900  0.450400  0.000700  1.0  -0.1554
  C  C55  1  0.360700  0.501100  0.089800  1.0  0.1606
  C  C56  1  0.176900  0.582300  0.316400  1.0  0.6845
  C  C57  1  0.668200  0.622500  0.289200  1.0  0.6974
  C  C58  1  0.922500  0.604850  0.301200  1.0  -0.0258
  C  C59  1  0.050400  0.628760  0.278300  1.0  -0.1332
  C  C60  1  0.807400  0.649300  0.268900  1.0  -0.1469
  C  C61  1  0.063700  0.697720  0.222400  1.0  -0.1607
  C  C62  1  0.821000  0.719850  0.216100  1.0  -0.0853
  C  C63  1  0.948900  0.741910  0.193500  1.0  0.1545
  C  C64  1  0.880700  0.764600  0.943500  1.0  -0.427
  C  C65  1  0.937100  0.825050  0.022800  1.0  0.3864
  C  C66  1  0.011200  0.881880  0.179500  1.0  0.2301
  C  C67  1  0.055600  0.903430  0.296900  1.0  0.3696
  C  C68  1  0.116400  0.876000  0.479400  1.0  0.1673
  C  C69  1  0.158100  0.950400  0.499300  1.0  -0.1537
  C  C70  1  0.139300  0.001100  0.410200  1.0  0.1608
  C  C71  1  0.676900  0.917700  0.816400  1.0  0.6857
  C  C72  1  0.168200  0.877500  0.789200  1.0  0.6975
  C  C73  1  0.422500  0.895150  0.801200  1.0  -0.0238
  C  C74  1  0.550400  0.871240  0.778300  1.0  -0.1326
  C  C75  1  0.307400  0.850700  0.768900  1.0  -0.1471
  C  C76  1  0.563700  0.802280  0.722400  1.0  -0.161
  C  C77  1  0.321000  0.780150  0.716100  1.0  -0.086
  C  C78  1  0.448900  0.758090  0.693500  1.0  0.1547
  C  C79  1  0.380700  0.735400  0.443500  1.0  -0.4264
  C  C80  1  0.437100  0.674950  0.522800  1.0  0.3867
  C  C81  1  0.511200  0.618120  0.679500  1.0  0.2302
  C  C82  1  0.555600  0.596570  0.796900  1.0  0.3702
  C  C83  1  0.616400  0.624000  0.979400  1.0  0.1655
  C  C84  1  0.658100  0.549600  0.999300  1.0  -0.1531
  C  C85  1  0.639300  0.498900  0.910200  1.0  0.1607
  C  C86  1  0.823100  0.417700  0.683600  1.0  0.685
  C  C87  1  0.331800  0.377500  0.710800  1.0  0.6971
  C  C88  1  0.077500  0.395150  0.698800  1.0  -0.0238
  C  C89  1  0.949600  0.371240  0.721700  1.0  -0.1316
  C  C90  1  0.192600  0.350700  0.731100  1.0  -0.1463
  C  C91  1  0.936300  0.302280  0.777600  1.0  -0.1624
  C  C92  1  0.179000  0.280150  0.783900  1.0  -0.0855
  C  C93  1  0.051100  0.258090  0.806500  1.0  0.1547
  C  C94  1  0.119300  0.235400  0.056500  1.0  -0.4252
  C  C95  1  0.062900  0.174950  0.977200  1.0  0.3872
  C  C96  1  0.988800  0.118120  0.820500  1.0  0.2315
  C  C97  1  0.944400  0.096570  0.703100  1.0  0.3698
  C  C98  1  0.883600  0.124000  0.520600  1.0  0.1655
  C  C99  1  0.841900  0.049600  0.500700  1.0  -0.1556
  C  C100  1  0.860700  0.998900  0.589800  1.0  0.16
  N  N101  1  0.535300  0.313820  0.363800  1.0  -0.0502
  N  N102  1  0.533700  0.396490  0.500800  1.0  -0.3085
  N  N103  1  0.486600  0.432320  0.400900  1.0  -0.2594
  N  N104  1  0.434500  0.350750  0.123500  1.0  -0.3791
  N  N105  1  0.415200  0.478310  0.192000  1.0  -0.3383
  N  N106  1  0.964700  0.813820  0.136200  1.0  -0.0498
  N  N107  1  0.966300  0.896490  0.999200  1.0  -0.3073
  N  N108  1  0.013400  0.932320  0.099100  1.0  -0.2577
  N  N109  1  0.065500  0.850750  0.376500  1.0  -0.3799
  N  N110  1  0.084800  0.978310  0.308000  1.0  -0.3373
  N  N111  1  0.464700  0.686180  0.636200  1.0  -0.0498
  N  N112  1  0.466300  0.603510  0.499200  1.0  -0.3072
  N  N113  1  0.513400  0.567680  0.599100  1.0  -0.2571
  N  N114  1  0.565500  0.649250  0.876500  1.0  -0.3795
  N  N115  1  0.584800  0.521690  0.808000  1.0  -0.3374
  N  N116  1  0.035300  0.186180  0.863800  1.0  -0.0504
  N  N117  1  0.033700  0.103510  0.000800  1.0  -0.3082
  N  N118  1  0.986600  0.067680  0.900900  1.0  -0.2578
  N  N119  1  0.934500  0.149250  0.623500  1.0  -0.3799
  N  N120  1  0.915200  0.021690  0.692000  1.0  -0.3378
  O  O121  1  0.329000  0.028580  0.116500  1.0  -0.5715
  O  O122  1  0.215700  0.102520  0.221400  1.0  -0.5923
  O  O123  1  0.843900  0.055960  0.173900  1.0  -0.6015
  O  O124  1  0.932100  0.162200  0.235100  1.0  -0.6156
  O  O125  1  0.171000  0.528580  0.383500  1.0  -0.5707
  O  O126  1  0.284300  0.602520  0.278600  1.0  -0.593
  O  O127  1  0.656100  0.555960  0.326100  1.0  -0.6009
  O  O128  1  0.567900  0.662200  0.264900  1.0  -0.6155
  O  O129  1  0.671000  0.971420  0.883500  1.0  -0.5709
  O  O130  1  0.784300  0.897480  0.778600  1.0  -0.5932
  O  O131  1  0.156100  0.944040  0.826100  1.0  -0.6002
  O  O132  1  0.067900  0.837800  0.764900  1.0  -0.6169
  O  O133  1  0.829000  0.471420  0.616500  1.0  -0.5688
  O  O134  1  0.715700  0.397480  0.721400  1.0  -0.5923
  O  O135  1  0.343900  0.444040  0.673900  1.0  -0.6013
  O  O136  1  0.432100  0.337800  0.735100  1.0  -0.6165
