# generated using pymatgen
data_CdH9C15N5O4
_symmetry_space_group_name_H-M   'P 1'
_cell_length_a   9.99770000
_cell_length_b   18.28870000
_cell_length_c   12.00820000
_cell_angle_alpha   90.00000000
_cell_angle_beta   100.58100000
_cell_angle_gamma   90.00000000
_symmetry_Int_Tables_number   1
_chemical_formula_structural   CdH9C15N5O4
_chemical_formula_sum   'Cd4 H36 C60 N20 O16'
_cell_volume   2158.30457148
_cell_formula_units_Z   4
loop_
 _symmetry_equiv_pos_site_id
 _symmetry_equiv_pos_as_xyz
  1  'x, y, z'
loop_
 _atom_site_type_symbol
 _atom_site_label
 _atom_site_symmetry_multiplicity
 _atom_site_fract_x
 _atom_site_fract_y
 _atom_site_fract_z
 _atom_site_occupancy
 _atom_site_charge
  Cd  Cd1  1  0.452150  0.551750  0.334130  1.0  0.9982
  Cd  Cd2  1  0.047850  0.051750  0.165870  1.0  0.9981
  Cd  Cd3  1  0.547850  0.448250  0.665870  1.0  0.9981
  Cd  Cd4  1  0.952150  0.948250  0.834130  1.0  0.9982
  H  H5  1  0.572100  0.060500  0.189600  1.0  0.116
  H  H6  1  0.362400  0.222800  0.311000  1.0  0.1326
  H  H7  1  0.757800  0.254400  0.284300  1.0  0.1236
  H  H8  1  0.732500  0.259700  0.541900  1.0  0.1312
  H  H9  1  0.583200  0.226600  0.536500  1.0  0.1287
  H  H10  1  0.639800  0.287800  0.628500  1.0  0.1468
  H  H11  1  0.487400  0.307800  0.109900  1.0  0.0932
  H  H12  1  0.296900  0.458200  0.906500  1.0  0.0923
  H  H13  1  0.321600  0.540300  0.056600  1.0  0.0978
  H  H14  1  0.927900  0.560500  0.310400  1.0  0.1161
  H  H15  1  0.137600  0.722800  0.189000  1.0  0.1332
  H  H16  1  0.742200  0.754400  0.215700  1.0  0.1233
  H  H17  1  0.767500  0.759700  0.958100  1.0  0.1334
  H  H18  1  0.916800  0.726600  0.963500  1.0  0.13
  H  H19  1  0.860200  0.787800  0.871500  1.0  0.1432
  H  H20  1  0.012600  0.807800  0.390100  1.0  0.0926
  H  H21  1  0.203100  0.958200  0.593500  1.0  0.0917
  H  H22  1  0.178400  0.040300  0.443400  1.0  0.0977
  H  H23  1  0.427900  0.939500  0.810400  1.0  0.1163
  H  H24  1  0.637600  0.777200  0.689000  1.0  0.1333
  H  H25  1  0.242200  0.745600  0.715700  1.0  0.1227
  H  H26  1  0.267500  0.740300  0.458100  1.0  0.1336
  H  H27  1  0.416800  0.773400  0.463500  1.0  0.1295
  H  H28  1  0.360200  0.712200  0.371500  1.0  0.1434
  H  H29  1  0.512600  0.692200  0.890100  1.0  0.0926
  H  H30  1  0.703100  0.541800  0.093500  1.0  0.0917
  H  H31  1  0.678400  0.459700  0.943400  1.0  0.0983
  H  H32  1  0.072100  0.439500  0.689600  1.0  0.1158
  H  H33  1  0.862400  0.277200  0.811000  1.0  0.1327
  H  H34  1  0.257800  0.245600  0.784300  1.0  0.1229
  H  H35  1  0.232500  0.240300  0.041900  1.0  0.1312
  H  H36  1  0.083200  0.273400  0.036500  1.0  0.1286
  H  H37  1  0.139800  0.212200  0.128500  1.0  0.1461
  H  H38  1  0.987400  0.192200  0.609900  1.0  0.0931
  H  H39  1  0.796900  0.041800  0.406500  1.0  0.0921
  H  H40  1  0.821600  0.959700  0.556600  1.0  0.0979
  C  C41  1  0.320200  0.090080  0.227400  1.0  0.6661
  C  C42  1  0.815600  0.125150  0.204000  1.0  0.7061
  C  C43  1  0.568700  0.108720  0.218400  1.0  -0.0711
  C  C44  1  0.448600  0.134660  0.246600  1.0  -0.1414
  C  C45  1  0.684500  0.152990  0.232000  1.0  -0.1452
  C  C46  1  0.443600  0.204790  0.290400  1.0  -0.1531
  C  C47  1  0.680000  0.223660  0.274900  1.0  -0.1143
  C  C48  1  0.559600  0.247880  0.303400  1.0  0.1734
  C  C49  1  0.639300  0.270800  0.551100  1.0  -0.4448
  C  C50  1  0.582100  0.328820  0.469600  1.0  0.3619
  C  C51  1  0.505400  0.383540  0.309300  1.0  0.2368
  C  C52  1  0.456400  0.402580  0.189500  1.0  0.1183
  C  C53  1  0.449900  0.355480  0.097700  1.0  0.1489
  C  C54  1  0.342300  0.442960  0.979300  1.0  0.1281
  C  C55  1  0.354800  0.491820  0.069600  1.0  0.1247
  C  C56  1  0.179800  0.590080  0.272600  1.0  0.6661
  C  C57  1  0.684400  0.625150  0.296000  1.0  0.7055
  C  C58  1  0.931300  0.608720  0.281600  1.0  -0.0704
  C  C59  1  0.051400  0.634660  0.253400  1.0  -0.1406
  C  C60  1  0.815500  0.652990  0.268000  1.0  -0.145
  C  C61  1  0.056400  0.704790  0.209600  1.0  -0.1527
  C  C62  1  0.820000  0.723660  0.225100  1.0  -0.1149
  C  C63  1  0.940400  0.747880  0.196600  1.0  0.1729
  C  C64  1  0.860700  0.770800  0.948900  1.0  -0.4453
  C  C65  1  0.917900  0.828820  0.030400  1.0  0.3619
  C  C66  1  0.994600  0.883540  0.190700  1.0  0.236
  C  C67  1  0.043600  0.902580  0.310500  1.0  0.1185
  C  C68  1  0.050100  0.855480  0.402300  1.0  0.1498
  C  C69  1  0.157700  0.942960  0.520700  1.0  0.127
  C  C70  1  0.145200  0.991820  0.430400  1.0  0.1258
  C  C71  1  0.679800  0.909920  0.772600  1.0  0.6672
  C  C72  1  0.184400  0.874850  0.796000  1.0  0.7055
  C  C73  1  0.431300  0.891280  0.781600  1.0  -0.0682
  C  C74  1  0.551400  0.865340  0.753400  1.0  -0.1404
  C  C75  1  0.315500  0.847010  0.768000  1.0  -0.1454
  C  C76  1  0.556400  0.795210  0.709600  1.0  -0.1527
  C  C77  1  0.320000  0.776340  0.725100  1.0  -0.1142
  C  C78  1  0.440400  0.752120  0.696600  1.0  0.1731
  C  C79  1  0.360700  0.729200  0.448900  1.0  -0.4455
  C  C80  1  0.417900  0.671180  0.530400  1.0  0.3618
  C  C81  1  0.494600  0.616460  0.690700  1.0  0.2362
  C  C82  1  0.543600  0.597420  0.810500  1.0  0.1184
  C  C83  1  0.550100  0.644520  0.902300  1.0  0.1494
  C  C84  1  0.657700  0.557040  0.020700  1.0  0.1274
  C  C85  1  0.645200  0.508180  0.930400  1.0  0.1257
  C  C86  1  0.820200  0.409920  0.727400  1.0  0.6673
  C  C87  1  0.315600  0.374850  0.704000  1.0  0.7061
  C  C88  1  0.068700  0.391280  0.718400  1.0  -0.0693
  C  C89  1  0.948600  0.365340  0.746600  1.0  -0.1407
  C  C90  1  0.184500  0.347010  0.732000  1.0  -0.1449
  C  C91  1  0.943600  0.295210  0.790400  1.0  -0.1531
  C  C92  1  0.180000  0.276340  0.774900  1.0  -0.1136
  C  C93  1  0.059600  0.252120  0.803400  1.0  0.1736
  C  C94  1  0.139300  0.229200  0.051100  1.0  -0.4444
  C  C95  1  0.082100  0.171180  0.969600  1.0  0.3621
  C  C96  1  0.005400  0.116460  0.809300  1.0  0.2374
  C  C97  1  0.956400  0.097420  0.689500  1.0  0.1181
  C  C98  1  0.949900  0.144520  0.597700  1.0  0.1491
  C  C99  1  0.842300  0.057040  0.479300  1.0  0.1278
  C  C100  1  0.854800  0.008180  0.569600  1.0  0.1256
  N  N101  1  0.553340  0.318730  0.355210  1.0  -0.0276
  N  N102  1  0.552900  0.396760  0.492430  1.0  -0.23
  N  N103  1  0.504600  0.431320  0.391300  1.0  -0.2357
  N  N104  1  0.412400  0.471590  0.173740  1.0  -0.328
  N  N105  1  0.392300  0.375520  0.992500  1.0  -0.4369
  N  N106  1  0.946660  0.818730  0.144790  1.0  -0.0279
  N  N107  1  0.947100  0.896760  0.007570  1.0  -0.2286
  N  N108  1  0.995400  0.931320  0.108700  1.0  -0.2338
  N  N109  1  0.087600  0.971590  0.326260  1.0  -0.3284
  N  N110  1  0.107700  0.875520  0.507500  1.0  -0.4363
  N  N111  1  0.446660  0.681270  0.644790  1.0  -0.0279
  N  N112  1  0.447100  0.603240  0.507570  1.0  -0.2285
  N  N113  1  0.495400  0.568680  0.608700  1.0  -0.2341
  N  N114  1  0.587600  0.528410  0.826260  1.0  -0.3283
  N  N115  1  0.607700  0.624480  0.007500  1.0  -0.4373
  N  N116  1  0.053340  0.181270  0.855210  1.0  -0.0274
  N  N117  1  0.052900  0.103240  0.992430  1.0  -0.2294
  N  N118  1  0.004600  0.068680  0.891300  1.0  -0.2347
  N  N119  1  0.912400  0.028410  0.673740  1.0  -0.3266
  N  N120  1  0.892300  0.124480  0.492500  1.0  -0.4359
  O  O121  1  0.315500  0.030370  0.176200  1.0  -0.6141
  O  O122  1  0.218810  0.117440  0.261320  1.0  -0.6079
  O  O123  1  0.826200  0.057570  0.187120  1.0  -0.5711
  O  O124  1  0.910790  0.168770  0.199450  1.0  -0.6087
  O  O125  1  0.184500  0.530370  0.323800  1.0  -0.6157
  O  O126  1  0.281190  0.617440  0.238680  1.0  -0.6076
  O  O127  1  0.673800  0.557570  0.312880  1.0  -0.5708
  O  O128  1  0.589210  0.668770  0.300550  1.0  -0.6071
  O  O129  1  0.684500  0.969630  0.823800  1.0  -0.6157
  O  O130  1  0.781190  0.882560  0.738680  1.0  -0.6074
  O  O131  1  0.173800  0.942430  0.812880  1.0  -0.5705
  O  O132  1  0.089210  0.831230  0.800550  1.0  -0.6079
  O  O133  1  0.815500  0.469630  0.676200  1.0  -0.6122
  O  O134  1  0.718810  0.382560  0.761320  1.0  -0.6075
  O  O135  1  0.326200  0.442430  0.687120  1.0  -0.5705
  O  O136  1  0.410790  0.331230  0.699450  1.0  -0.6083
