# generated using pymatgen
data_CuH9C15N5O4
_symmetry_space_group_name_H-M   'P 1'
_cell_length_a   10.08020000
_cell_length_b   17.45100000
_cell_length_c   11.51850000
_cell_angle_alpha   90.00000000
_cell_angle_beta   99.78100000
_cell_angle_gamma   90.00000000
_symmetry_Int_Tables_number   1
_chemical_formula_structural   CuH9C15N5O4
_chemical_formula_sum   'Cu4 H36 C60 N20 O16'
_cell_volume   1996.76191542
_cell_formula_units_Z   4
loop_
 _symmetry_equiv_pos_site_id
 _symmetry_equiv_pos_as_xyz
  1  'x, y, z'
loop_
 _atom_site_type_symbol
 _atom_site_label
 _atom_site_symmetry_multiplicity
 _atom_site_fract_x
 _atom_site_fract_y
 _atom_site_fract_z
 _atom_site_occupancy
 _atom_site_charge
  Cu  Cu1  1  0.431890  0.550000  0.337260  1.0  0.8054
  Cu  Cu2  1  0.068110  0.050000  0.162740  1.0  0.8056
  Cu  Cu3  1  0.568110  0.450000  0.662740  1.0  0.8058
  Cu  Cu4  1  0.931890  0.950000  0.837260  1.0  0.8055
  H  H5  1  0.609100  0.061000  0.151900  1.0  0.1179
  H  H6  1  0.368700  0.212300  0.286900  1.0  0.1313
  H  H7  1  0.765700  0.260500  0.296600  1.0  0.1312
  H  H8  1  0.743300  0.261800  0.549800  1.0  0.1462
  H  H9  1  0.604500  0.215400  0.536300  1.0  0.1383
  H  H10  1  0.641600  0.276800  0.640000  1.0  0.1386
  H  H11  1  0.474800  0.316600  0.098600  1.0  0.1007
  H  H12  1  0.290800  0.485200  0.908000  1.0  0.0876
  H  H13  1  0.309000  0.561900  0.074000  1.0  0.1247
  H  H14  1  0.890900  0.561000  0.348100  1.0  0.1182
  H  H15  1  0.131300  0.712300  0.213100  1.0  0.1318
  H  H16  1  0.734300  0.760500  0.203400  1.0  0.1316
  H  H17  1  0.756700  0.761800  0.950200  1.0  0.1457
  H  H18  1  0.895500  0.715400  0.963700  1.0  0.1403
  H  H19  1  0.858400  0.776800  0.860000  1.0  0.1389
  H  H20  1  0.025200  0.816600  0.401400  1.0  0.1003
  H  H21  1  0.209200  0.985200  0.592000  1.0  0.087
  H  H22  1  0.191000  0.061900  0.426000  1.0  0.1204
  H  H23  1  0.390900  0.939000  0.848100  1.0  0.1183
  H  H24  1  0.631300  0.787700  0.713100  1.0  0.1318
  H  H25  1  0.234300  0.739500  0.703400  1.0  0.1312
  H  H26  1  0.256700  0.738200  0.450200  1.0  0.1457
  H  H27  1  0.395500  0.784600  0.463700  1.0  0.1416
  H  H28  1  0.358400  0.723200  0.360000  1.0  0.1397
  H  H29  1  0.525200  0.683400  0.901400  1.0  0.1002
  H  H30  1  0.709200  0.514800  0.092000  1.0  0.0871
  H  H31  1  0.691000  0.438100  0.926000  1.0  0.1195
  H  H32  1  0.109100  0.439000  0.651900  1.0  0.118
  H  H33  1  0.868700  0.287700  0.786900  1.0  0.1315
  H  H34  1  0.265700  0.239500  0.796600  1.0  0.1307
  H  H35  1  0.243300  0.238200  0.049800  1.0  0.1462
  H  H36  1  0.104500  0.284600  0.036300  1.0  0.141
  H  H37  1  0.141600  0.223200  0.140000  1.0  0.1389
  H  H38  1  0.974800  0.183400  0.598600  1.0  0.101
  H  H39  1  0.790800  0.014800  0.408000  1.0  0.0875
  H  H40  1  0.809000  0.938100  0.574000  1.0  0.1228
  C  C41  1  0.348700  0.078300  0.175000  1.0  0.7432
  C  C42  1  0.849500  0.133800  0.206300  1.0  0.7195
  C  C43  1  0.597900  0.108300  0.189700  1.0  -0.027
  C  C44  1  0.470400  0.129000  0.211500  1.0  -0.131
  C  C45  1  0.709000  0.156000  0.222600  1.0  -0.1394
  C  C46  1  0.453800  0.198400  0.268600  1.0  -0.1454
  C  C47  1  0.691600  0.226700  0.275900  1.0  -0.1073
  C  C48  1  0.565200  0.246700  0.298100  1.0  0.1511
  C  C49  1  0.648300  0.264800  0.558100  1.0  -0.4047
  C  C50  1  0.580700  0.325800  0.479400  1.0  0.3378
  C  C51  1  0.492800  0.386200  0.316200  1.0  0.2316
  C  C52  1  0.444200  0.410900  0.195300  1.0  0.0876
  C  C53  1  0.438900  0.367100  0.092600  1.0  0.153
  C  C54  1  0.334300  0.465300  0.981500  1.0  0.1477
  C  C55  1  0.343400  0.511200  0.081300  1.0  0.1173
  C  C56  1  0.151300  0.578300  0.325000  1.0  0.7447
  C  C57  1  0.650500  0.633800  0.293700  1.0  0.7179
  C  C58  1  0.902100  0.608300  0.310300  1.0  -0.0272
  C  C59  1  0.029600  0.629000  0.288500  1.0  -0.131
  C  C60  1  0.791000  0.656000  0.277400  1.0  -0.1379
  C  C61  1  0.046200  0.698400  0.231400  1.0  -0.1444
  C  C62  1  0.808400  0.726700  0.224100  1.0  -0.1079
  C  C63  1  0.934800  0.746700  0.201900  1.0  0.1513
  C  C64  1  0.851700  0.764800  0.941900  1.0  -0.4057
  C  C65  1  0.919300  0.825800  0.020600  1.0  0.337
  C  C66  1  0.007200  0.886200  0.183800  1.0  0.2312
  C  C67  1  0.055800  0.910900  0.304700  1.0  0.088
  C  C68  1  0.061100  0.867100  0.407400  1.0  0.1531
  C  C69  1  0.165700  0.965300  0.518500  1.0  0.1488
  C  C70  1  0.156600  0.011200  0.418700  1.0  0.1183
  C  C71  1  0.651300  0.921700  0.825000  1.0  0.7466
  C  C72  1  0.150500  0.866200  0.793700  1.0  0.7179
  C  C73  1  0.402100  0.891700  0.810300  1.0  -0.0268
  C  C74  1  0.529600  0.871000  0.788500  1.0  -0.1299
  C  C75  1  0.291000  0.844000  0.777400  1.0  -0.1382
  C  C76  1  0.546200  0.801600  0.731400  1.0  -0.1438
  C  C77  1  0.308400  0.773300  0.724100  1.0  -0.1068
  C  C78  1  0.434800  0.753300  0.701900  1.0  0.1512
  C  C79  1  0.351700  0.735200  0.441900  1.0  -0.4055
  C  C80  1  0.419300  0.674200  0.520600  1.0  0.3374
  C  C81  1  0.507200  0.613800  0.683800  1.0  0.2312
  C  C82  1  0.555800  0.589100  0.804700  1.0  0.0879
  C  C83  1  0.561100  0.632900  0.907400  1.0  0.1532
  C  C84  1  0.665700  0.534700  0.018500  1.0  0.1494
  C  C85  1  0.656600  0.488800  0.918700  1.0  0.1177
  C  C86  1  0.848700  0.421700  0.675000  1.0  0.7439
  C  C87  1  0.349500  0.366200  0.706300  1.0  0.7189
  C  C88  1  0.097900  0.391700  0.689700  1.0  -0.0264
  C  C89  1  0.970400  0.371000  0.711500  1.0  -0.1293
  C  C90  1  0.209000  0.344000  0.722600  1.0  -0.1394
  C  C91  1  0.953800  0.301600  0.768600  1.0  -0.1451
  C  C92  1  0.191600  0.273300  0.775900  1.0  -0.1067
  C  C93  1  0.065200  0.253300  0.798100  1.0  0.1509
  C  C94  1  0.148300  0.235200  0.058100  1.0  -0.4044
  C  C95  1  0.080700  0.174200  0.979400  1.0  0.338
  C  C96  1  0.992800  0.113800  0.816200  1.0  0.2315
  C  C97  1  0.944200  0.089100  0.695300  1.0  0.0875
  C  C98  1  0.938900  0.132900  0.592600  1.0  0.1535
  C  C99  1  0.834300  0.034700  0.481500  1.0  0.1476
  C  C100  1  0.843400  0.988800  0.581300  1.0  0.1175
  N  N101  1  0.547300  0.317300  0.359500  1.0  -0.1118
  N  N102  1  0.546700  0.396500  0.508200  1.0  -0.3253
  N  N103  1  0.490200  0.433900  0.404900  1.0  -0.2399
  N  N104  1  0.399600  0.485000  0.187400  1.0  -0.316
  N  N105  1  0.384400  0.394500  0.985200  1.0  -0.3825
  N  N106  1  0.952700  0.817300  0.140500  1.0  -0.1112
  N  N107  1  0.953300  0.896500  0.991800  1.0  -0.3252
  N  N108  1  0.009800  0.933900  0.095100  1.0  -0.2385
  N  N109  1  0.100400  0.985000  0.312600  1.0  -0.317
  N  N110  1  0.115600  0.894500  0.514800  1.0  -0.3799
  N  N111  1  0.452700  0.682700  0.640500  1.0  -0.1114
  N  N112  1  0.453300  0.603500  0.491800  1.0  -0.3252
  N  N113  1  0.509800  0.566100  0.595100  1.0  -0.2386
  N  N114  1  0.600400  0.515000  0.812600  1.0  -0.3173
  N  N115  1  0.615600  0.605500  0.014800  1.0  -0.3815
  N  N116  1  0.047300  0.182700  0.859500  1.0  -0.112
  N  N117  1  0.046700  0.103500  0.008200  1.0  -0.3245
  N  N118  1  0.990200  0.066100  0.904900  1.0  -0.2392
  N  N119  1  0.899600  0.015000  0.687400  1.0  -0.3158
  N  N120  1  0.884400  0.105500  0.485200  1.0  -0.3831
  O  O121  1  0.351800  0.027000  0.098200  1.0  -0.5358
  O  O122  1  0.244200  0.096000  0.215200  1.0  -0.5775
  O  O123  1  0.868700  0.063450  0.182000  1.0  -0.5922
  O  O124  1  0.939500  0.184300  0.216100  1.0  -0.5781
  O  O125  1  0.148200  0.527000  0.401800  1.0  -0.5386
  O  O126  1  0.255800  0.596000  0.284800  1.0  -0.5781
  O  O127  1  0.631300  0.563450  0.318000  1.0  -0.5918
  O  O128  1  0.560500  0.684300  0.283900  1.0  -0.5774
  O  O129  1  0.648200  0.973000  0.901800  1.0  -0.5395
  O  O130  1  0.755800  0.904000  0.784800  1.0  -0.578
  O  O131  1  0.131300  0.936550  0.818000  1.0  -0.5924
  O  O132  1  0.060500  0.815700  0.783900  1.0  -0.5768
  O  O133  1  0.851800  0.473000  0.598200  1.0  -0.5338
  O  O134  1  0.744200  0.404000  0.715200  1.0  -0.5783
  O  O135  1  0.368700  0.436550  0.682000  1.0  -0.5936
  O  O136  1  0.439500  0.315700  0.716100  1.0  -0.5778
