# generated using pymatgen
data_Zn2(PO4)3
_symmetry_space_group_name_H-M   'P 1'
_cell_length_a   10.54000000
_cell_length_b   10.05000000
_cell_length_c   14.37000000
_cell_angle_alpha   90.00000000
_cell_angle_beta   90.00000000
_cell_angle_gamma   90.00000000
_symmetry_Int_Tables_number   1
_chemical_formula_structural   Zn2(PO4)3
_chemical_formula_sum   'Zn8 P12 O48'
_cell_volume   1522.17099000
_cell_formula_units_Z   4
loop_
 _symmetry_equiv_pos_site_id
 _symmetry_equiv_pos_as_xyz
  1  'x, y, z'
loop_
 _atom_site_type_symbol
 _atom_site_label
 _atom_site_symmetry_multiplicity
 _atom_site_fract_x
 _atom_site_fract_y
 _atom_site_fract_z
 _atom_site_occupancy
 _atom_site_charge
  Zn  Zn1  1  0.409610  0.627340  0.552400  1.0  1.2268
  Zn  Zn2  1  0.152720  0.131700  0.463570  1.0  1.2294
  Zn  Zn3  1  0.590390  0.372660  0.052400  1.0  1.2264
  Zn  Zn4  1  0.847280  0.868300  0.963570  1.0  1.2289
  Zn  Zn5  1  0.909610  0.872660  0.552400  1.0  1.2261
  Zn  Zn6  1  0.652720  0.368300  0.463570  1.0  1.2295
  Zn  Zn7  1  0.090390  0.127340  0.052400  1.0  1.2271
  Zn  Zn8  1  0.347280  0.631700  0.963570  1.0  1.2297
  P  P9  1  0.185000  0.812900  0.496200  1.0  1.7074
  P  P10  1  0.375200  0.322900  0.511200  1.0  1.6742
  P  P11  1  0.048200  0.022000  0.266400  1.0  1.7196
  P  P12  1  0.815000  0.187100  0.996200  1.0  1.7061
  P  P13  1  0.624800  0.677100  0.011200  1.0  1.6751
  P  P14  1  0.951800  0.978000  0.766400  1.0  1.7192
  P  P15  1  0.685000  0.687100  0.496200  1.0  1.7067
  P  P16  1  0.875200  0.177100  0.511200  1.0  1.6735
  P  P17  1  0.548200  0.478000  0.266400  1.0  1.7184
  P  P18  1  0.315000  0.312900  0.996200  1.0  1.7067
  P  P19  1  0.124800  0.822900  0.011200  1.0  1.6753
  P  P20  1  0.451800  0.522000  0.766400  1.0  1.7185
  O  O21  1  0.368800  0.468100  0.481600  1.0  -0.7105
  O  O22  1  0.260800  0.736000  0.567100  1.0  -0.6732
  O  O23  1  0.087200  0.128800  0.335900  1.0  -0.6718
  O  O24  1  0.205200  0.960500  0.509100  1.0  -0.7549
  O  O25  1  0.306100  0.234200  0.442300  1.0  -0.6521
  O  O26  1  0.045100  0.775100  0.495700  1.0  -0.6755
  O  O27  1  0.511500  0.278700  0.527900  1.0  -0.6535
  O  O28  1  0.023200  0.080600  0.172100  1.0  -0.7738
  O  O29  1  0.143900  0.907700  0.259800  1.0  -0.5685
  O  O30  1  0.239200  0.771600  0.397700  1.0  -0.4412
  O  O31  1  0.918800  0.962500  0.302300  1.0  -0.5134
  O  O32  1  0.301200  0.303700  0.606900  1.0  -0.4714
  O  O33  1  0.631200  0.531900  0.981600  1.0  -0.7097
  O  O34  1  0.739200  0.264000  0.067100  1.0  -0.6732
  O  O35  1  0.912800  0.871200  0.835900  1.0  -0.6721
  O  O36  1  0.794800  0.039500  0.009100  1.0  -0.756
  O  O37  1  0.693900  0.765800  0.942300  1.0  -0.6517
  O  O38  1  0.954900  0.224900  0.995700  1.0  -0.6742
  O  O39  1  0.488500  0.721300  0.027900  1.0  -0.6534
  O  O40  1  0.976800  0.919400  0.672100  1.0  -0.7714
  O  O41  1  0.856100  0.092300  0.759800  1.0  -0.5681
  O  O42  1  0.760800  0.228400  0.897700  1.0  -0.4398
  O  O43  1  0.081200  0.037500  0.802300  1.0  -0.5122
  O  O44  1  0.698800  0.696300  0.106900  1.0  -0.4708
  O  O45  1  0.868800  0.031900  0.481600  1.0  -0.7108
  O  O46  1  0.760800  0.764000  0.567100  1.0  -0.6732
  O  O47  1  0.587200  0.371200  0.335900  1.0  -0.6714
  O  O48  1  0.705200  0.539500  0.509100  1.0  -0.7548
  O  O49  1  0.806100  0.265800  0.442300  1.0  -0.6519
  O  O50  1  0.545100  0.724900  0.495700  1.0  -0.6739
  O  O51  1  0.011500  0.221300  0.527900  1.0  -0.653
  O  O52  1  0.523200  0.419400  0.172100  1.0  -0.7733
  O  O53  1  0.643900  0.592300  0.259800  1.0  -0.5685
  O  O54  1  0.739200  0.728400  0.397700  1.0  -0.4402
  O  O55  1  0.418800  0.537500  0.302300  1.0  -0.5124
  O  O56  1  0.801200  0.196300  0.606900  1.0  -0.4709
  O  O57  1  0.131200  0.968100  0.981600  1.0  -0.7097
  O  O58  1  0.239200  0.236000  0.067100  1.0  -0.673
  O  O59  1  0.412800  0.628800  0.835900  1.0  -0.6729
  O  O60  1  0.294800  0.460500  0.009100  1.0  -0.7558
  O  O61  1  0.193900  0.734200  0.942300  1.0  -0.6521
  O  O62  1  0.454900  0.275100  0.995700  1.0  -0.6757
  O  O63  1  0.988500  0.778700  0.027900  1.0  -0.6536
  O  O64  1  0.476800  0.580600  0.672100  1.0  -0.7716
  O  O65  1  0.356100  0.407700  0.759800  1.0  -0.5673
  O  O66  1  0.260800  0.271600  0.897700  1.0  -0.4409
  O  O67  1  0.581200  0.462500  0.802300  1.0  -0.5136
  O  O68  1  0.198800  0.803700  0.106900  1.0  -0.4716
