# generated using pymatgen
data_Zn2P3(HO4)3
_symmetry_space_group_name_H-M   'P 1'
_cell_length_a   14.31420000
_cell_length_b   10.02770000
_cell_length_c   10.49170000
_cell_angle_alpha   90.00000000
_cell_angle_beta   94.10200000
_cell_angle_gamma   90.00000000
_symmetry_Int_Tables_number   1
_chemical_formula_structural   Zn2P3(HO4)3
_chemical_formula_sum   'Zn8 P12 H12 O48'
_cell_volume   1502.10507010
_cell_formula_units_Z   4
loop_
 _symmetry_equiv_pos_site_id
 _symmetry_equiv_pos_as_xyz
  1  'x, y, z'
loop_
 _atom_site_type_symbol
 _atom_site_label
 _atom_site_symmetry_multiplicity
 _atom_site_fract_x
 _atom_site_fract_y
 _atom_site_fract_z
 _atom_site_occupancy
 _atom_site_charge
  Zn  Zn1  1  0.545640  0.873810  0.144220  1.0  1.1048
  Zn  Zn2  1  0.956540  0.866250  0.101630  1.0  1.178
  Zn  Zn3  1  0.454360  0.373810  0.355780  1.0  1.1033
  Zn  Zn4  1  0.043460  0.366250  0.398370  1.0  1.1773
  Zn  Zn5  1  0.454360  0.126190  0.855780  1.0  1.1031
  Zn  Zn6  1  0.043460  0.133750  0.898370  1.0  1.1774
  Zn  Zn7  1  0.545640  0.626190  0.644220  1.0  1.1045
  Zn  Zn8  1  0.956540  0.633750  0.601630  1.0  1.1781
  P  P9  1  0.510220  0.192850  0.134230  1.0  1.7761
  P  P10  1  0.740040  0.973540  0.042000  1.0  1.7975
  P  P11  1  0.006570  0.828390  0.826800  1.0  1.805
  P  P12  1  0.489780  0.692850  0.365770  1.0  1.7769
  P  P13  1  0.259960  0.473540  0.458000  1.0  1.7977
  P  P14  1  0.993430  0.328390  0.673200  1.0  1.8067
  P  P15  1  0.489780  0.807150  0.865770  1.0  1.777
  P  P16  1  0.259960  0.026460  0.958000  1.0  1.7982
  P  P17  1  0.993430  0.171610  0.173200  1.0  1.8067
  P  P18  1  0.510220  0.307150  0.634230  1.0  1.7761
  P  P19  1  0.740040  0.526460  0.542000  1.0  1.7977
  P  P20  1  0.006570  0.671610  0.326800  1.0  1.8053
  H  H21  1  0.645000  0.190000  0.180000  1.0  0.4154
  H  H22  1  0.649000  0.007000  0.890000  1.0  0.4282
  H  H23  1  0.149000  0.825000  0.804000  1.0  0.4061
  H  H24  1  0.355000  0.690000  0.320000  1.0  0.4137
  H  H25  1  0.351000  0.507000  0.610000  1.0  0.4267
  H  H26  1  0.851000  0.325000  0.696000  1.0  0.4061
  H  H27  1  0.355000  0.810000  0.820000  1.0  0.4133
  H  H28  1  0.351000  0.993000  0.110000  1.0  0.4269
  H  H29  1  0.851000  0.175000  0.196000  1.0  0.4053
  H  H30  1  0.645000  0.310000  0.680000  1.0  0.4147
  H  H31  1  0.649000  0.493000  0.390000  1.0  0.4285
  H  H32  1  0.149000  0.675000  0.304000  1.0  0.4057
  O  O33  1  0.607200  0.222500  0.208700  1.0  -0.6849
  O  O34  1  0.483400  0.047000  0.155800  1.0  -0.8011
  O  O35  1  0.519200  0.224100  0.994100  1.0  -0.7803
  O  O36  1  0.439800  0.285200  0.191500  1.0  -0.7445
  O  O37  1  0.699900  0.023500  0.905800  1.0  -0.7152
  O  O38  1  0.747700  0.094500  0.131300  1.0  -0.7623
  O  O39  1  0.672000  0.870800  0.088800  1.0  -0.7869
  O  O40  1  0.834400  0.912600  0.022600  1.0  -0.8127
  O  O41  1  0.103100  0.799800  0.767100  1.0  -0.5888
  O  O42  1  0.018100  0.774400  0.964400  1.0  -0.7418
  O  O43  1  0.985600  0.976700  0.823200  1.0  -0.768
  O  O44  1  0.934100  0.751900  0.742900  1.0  -0.7299
  O  O45  1  0.392800  0.722500  0.291300  1.0  -0.6828
  O  O46  1  0.516600  0.547000  0.344200  1.0  -0.8021
  O  O47  1  0.480800  0.724100  0.505900  1.0  -0.7786
  O  O48  1  0.560200  0.785200  0.308500  1.0  -0.7464
  O  O49  1  0.300100  0.523500  0.594200  1.0  -0.7151
  O  O50  1  0.252300  0.594500  0.368700  1.0  -0.7622
  O  O51  1  0.328000  0.370800  0.411200  1.0  -0.786
  O  O52  1  0.165600  0.412600  0.477400  1.0  -0.8115
  O  O53  1  0.896900  0.299800  0.732900  1.0  -0.582
  O  O54  1  0.981900  0.274400  0.535600  1.0  -0.7408
  O  O55  1  0.014400  0.476700  0.676800  1.0  -0.7673
  O  O56  1  0.065900  0.251900  0.757100  1.0  -0.731
  O  O57  1  0.392800  0.777500  0.791300  1.0  -0.6833
  O  O58  1  0.516600  0.953000  0.844200  1.0  -0.8
  O  O59  1  0.480800  0.775900  0.005900  1.0  -0.779
  O  O60  1  0.560200  0.714800  0.808500  1.0  -0.747
  O  O61  1  0.300100  0.976500  0.094200  1.0  -0.7148
  O  O62  1  0.252300  0.905500  0.868700  1.0  -0.7622
  O  O63  1  0.328000  0.129200  0.911200  1.0  -0.7848
  O  O64  1  0.165600  0.087400  0.977400  1.0  -0.8127
  O  O65  1  0.896900  0.200200  0.232900  1.0  -0.5836
  O  O66  1  0.981900  0.225600  0.035600  1.0  -0.7422
  O  O67  1  0.014400  0.023300  0.176800  1.0  -0.766
  O  O68  1  0.065900  0.248100  0.257100  1.0  -0.7306
  O  O69  1  0.607200  0.277500  0.708700  1.0  -0.6843
  O  O70  1  0.483400  0.453000  0.655800  1.0  -0.7993
  O  O71  1  0.519200  0.275900  0.494100  1.0  -0.7801
  O  O72  1  0.439800  0.214800  0.691500  1.0  -0.7452
  O  O73  1  0.699900  0.476500  0.405800  1.0  -0.714
  O  O74  1  0.747700  0.405500  0.631300  1.0  -0.7614
  O  O75  1  0.672000  0.629200  0.588800  1.0  -0.7849
  O  O76  1  0.834400  0.587400  0.522600  1.0  -0.8128
  O  O77  1  0.103100  0.700200  0.267100  1.0  -0.5897
  O  O78  1  0.018100  0.725600  0.464400  1.0  -0.7416
  O  O79  1  0.985600  0.523300  0.323200  1.0  -0.7668
  O  O80  1  0.934100  0.748100  0.242900  1.0  -0.7295
