# generated using pymatgen
data_AgH6(C5N3)2
_symmetry_space_group_name_H-M   'P 1'
_cell_length_a   20.23130000
_cell_length_b   20.23130000
_cell_length_c   20.23130000
_cell_angle_alpha   90.00000000
_cell_angle_beta   90.00000000
_cell_angle_gamma   90.00000000
_symmetry_Int_Tables_number   1
_chemical_formula_structural   AgH6(C5N3)2
_chemical_formula_sum   'Ag24 H144 C240 N144'
_cell_volume   8280.78235588
_cell_formula_units_Z   24
loop_
 _symmetry_equiv_pos_site_id
 _symmetry_equiv_pos_as_xyz
  1  'x, y, z'
loop_
 _atom_site_type_symbol
 _atom_site_label
 _atom_site_symmetry_multiplicity
 _atom_site_fract_x
 _atom_site_fract_y
 _atom_site_fract_z
 _atom_site_occupancy
 _atom_site_charge
  Ag  Ag1  1  0.375300  0.500000  0.250000  1.0  0.3815
  Ag  Ag2  1  0.124700  0.500000  0.750000  1.0  0.3811
  Ag  Ag3  1  0.624700  0.000000  0.250000  1.0  0.3811
  Ag  Ag4  1  0.875300  0.000000  0.750000  1.0  0.3815
  Ag  Ag5  1  0.250000  0.375300  0.500000  1.0  0.3813
  Ag  Ag6  1  0.750000  0.124700  0.500000  1.0  0.3812
  Ag  Ag7  1  0.250000  0.624700  0.000000  1.0  0.3812
  Ag  Ag8  1  0.750000  0.875300  0.000000  1.0  0.3813
  Ag  Ag9  1  0.500000  0.250000  0.375300  1.0  0.3815
  Ag  Ag10  1  0.500000  0.750000  0.124700  1.0  0.3814
  Ag  Ag11  1  0.000000  0.250000  0.624700  1.0  0.3814
  Ag  Ag12  1  0.000000  0.750000  0.875300  1.0  0.3815
  Ag  Ag13  1  0.750000  0.625300  0.500000  1.0  0.3813
  Ag  Ag14  1  0.750000  0.374700  0.000000  1.0  0.3812
  Ag  Ag15  1  0.250000  0.874700  0.500000  1.0  0.3812
  Ag  Ag16  1  0.250000  0.125300  0.000000  1.0  0.3813
  Ag  Ag17  1  0.625300  0.500000  0.750000  1.0  0.3815
  Ag  Ag18  1  0.374700  0.000000  0.750000  1.0  0.3811
  Ag  Ag19  1  0.874700  0.500000  0.250000  1.0  0.3811
  Ag  Ag20  1  0.125300  0.000000  0.250000  1.0  0.3815
  Ag  Ag21  1  0.500000  0.750000  0.625300  1.0  0.3815
  Ag  Ag22  1  0.000000  0.750000  0.374700  1.0  0.3814
  Ag  Ag23  1  0.500000  0.250000  0.874700  1.0  0.3814
  Ag  Ag24  1  0.000000  0.250000  0.125300  1.0  0.3815
  H  H25  1  0.227000  0.601500  0.300800  1.0  0.0583
  H  H26  1  0.495400  0.439500  0.132400  1.0  0.0508
  H  H27  1  0.137600  0.587300  0.371100  1.0  0.0536
  H  H28  1  0.727000  0.101500  0.800800  1.0  0.0583
  H  H29  1  0.995400  0.939500  0.632400  1.0  0.0508
  H  H30  1  0.637600  0.087300  0.871100  1.0  0.0536
  H  H31  1  0.273000  0.398500  0.800800  1.0  0.0584
  H  H32  1  0.004600  0.560500  0.632400  1.0  0.0507
  H  H33  1  0.362400  0.412700  0.871100  1.0  0.0534
  H  H34  1  0.773000  0.898500  0.300800  1.0  0.0584
  H  H35  1  0.504600  0.060500  0.132400  1.0  0.0507
  H  H36  1  0.862400  0.912700  0.371100  1.0  0.0534
  H  H37  1  0.773000  0.101500  0.199200  1.0  0.0583
  H  H38  1  0.504600  0.939500  0.367600  1.0  0.0517
  H  H39  1  0.862400  0.087300  0.128900  1.0  0.0529
  H  H40  1  0.273000  0.601500  0.699200  1.0  0.0583
  H  H41  1  0.004600  0.439500  0.867600  1.0  0.0517
  H  H42  1  0.362400  0.587300  0.628900  1.0  0.0529
  H  H43  1  0.727000  0.898500  0.699200  1.0  0.0575
  H  H44  1  0.995400  0.060500  0.867600  1.0  0.0515
  H  H45  1  0.637600  0.912700  0.628900  1.0  0.0531
  H  H46  1  0.227000  0.398500  0.199200  1.0  0.0575
  H  H47  1  0.495400  0.560500  0.367600  1.0  0.0515
  H  H48  1  0.137600  0.412700  0.128900  1.0  0.0531
  H  H49  1  0.300800  0.227000  0.601500  1.0  0.0597
  H  H50  1  0.132400  0.495400  0.439500  1.0  0.0502
  H  H51  1  0.371100  0.137600  0.587300  1.0  0.0518
  H  H52  1  0.800800  0.727000  0.101500  1.0  0.0597
  H  H53  1  0.632400  0.995400  0.939500  1.0  0.0502
  H  H54  1  0.871100  0.637600  0.087300  1.0  0.0518
  H  H55  1  0.800800  0.273000  0.398500  1.0  0.0595
  H  H56  1  0.632400  0.004600  0.560500  1.0  0.0494
  H  H57  1  0.871100  0.362400  0.412700  1.0  0.052
  H  H58  1  0.300800  0.773000  0.898500  1.0  0.0595
  H  H59  1  0.132400  0.504600  0.060500  1.0  0.0494
  H  H60  1  0.371100  0.862400  0.912700  1.0  0.052
  H  H61  1  0.199200  0.773000  0.101500  1.0  0.0594
  H  H62  1  0.367600  0.504600  0.939500  1.0  0.0505
  H  H63  1  0.128900  0.862400  0.087300  1.0  0.0522
  H  H64  1  0.699200  0.273000  0.601500  1.0  0.0594
  H  H65  1  0.867600  0.004600  0.439500  1.0  0.0505
  H  H66  1  0.628900  0.362400  0.587300  1.0  0.0522
  H  H67  1  0.699200  0.727000  0.898500  1.0  0.0592
  H  H68  1  0.867600  0.995400  0.060500  1.0  0.0495
  H  H69  1  0.628900  0.637600  0.912700  1.0  0.052
  H  H70  1  0.199200  0.227000  0.398500  1.0  0.0592
  H  H71  1  0.367600  0.495400  0.560500  1.0  0.0495
  H  H72  1  0.128900  0.137600  0.412700  1.0  0.052
  H  H73  1  0.601500  0.300800  0.227000  1.0  0.0593
  H  H74  1  0.439500  0.132400  0.495400  1.0  0.0501
  H  H75  1  0.587300  0.371100  0.137600  1.0  0.0519
  H  H76  1  0.101500  0.800800  0.727000  1.0  0.0593
  H  H77  1  0.939500  0.632400  0.995400  1.0  0.0501
  H  H78  1  0.087300  0.871100  0.637600  1.0  0.0519
  H  H79  1  0.398500  0.800800  0.273000  1.0  0.0593
  H  H80  1  0.560500  0.632400  0.004600  1.0  0.049
  H  H81  1  0.412700  0.871100  0.362400  1.0  0.0521
  H  H82  1  0.898500  0.300800  0.773000  1.0  0.0593
  H  H83  1  0.060500  0.132400  0.504600  1.0  0.049
  H  H84  1  0.912700  0.371100  0.862400  1.0  0.0521
  H  H85  1  0.101500  0.199200  0.773000  1.0  0.0597
  H  H86  1  0.939500  0.367600  0.504600  1.0  0.0497
  H  H87  1  0.087300  0.128900  0.862400  1.0  0.0523
  H  H88  1  0.601500  0.699200  0.273000  1.0  0.0597
  H  H89  1  0.439500  0.867600  0.004600  1.0  0.0497
  H  H90  1  0.587300  0.628900  0.362400  1.0  0.0523
  H  H91  1  0.898500  0.699200  0.727000  1.0  0.0593
  H  H92  1  0.060500  0.867600  0.995400  1.0  0.0496
  H  H93  1  0.912700  0.628900  0.637600  1.0  0.0523
  H  H94  1  0.398500  0.199200  0.227000  1.0  0.0593
  H  H95  1  0.560500  0.367600  0.495400  1.0  0.0496
  H  H96  1  0.412700  0.128900  0.137600  1.0  0.0523
  H  H97  1  0.851500  0.477000  0.550800  1.0  0.0587
  H  H98  1  0.689500  0.745400  0.382400  1.0  0.0507
  H  H99  1  0.837300  0.387600  0.621100  1.0  0.053
  H  H100  1  0.351500  0.977000  0.050800  1.0  0.0587
  H  H101  1  0.189500  0.245400  0.882400  1.0  0.0507
  H  H102  1  0.337300  0.887600  0.121100  1.0  0.053
  H  H103  1  0.648500  0.523000  0.050800  1.0  0.0587
  H  H104  1  0.810500  0.254600  0.882400  1.0  0.0503
  H  H105  1  0.662700  0.612400  0.121100  1.0  0.0535
  H  H106  1  0.148500  0.023000  0.550800  1.0  0.0587
  H  H107  1  0.310500  0.754600  0.382400  1.0  0.0503
  H  H108  1  0.162700  0.112400  0.621100  1.0  0.0535
  H  H109  1  0.351500  0.023000  0.449200  1.0  0.0585
  H  H110  1  0.189500  0.754600  0.617600  1.0  0.0514
  H  H111  1  0.337300  0.112400  0.378900  1.0  0.0528
  H  H112  1  0.851500  0.523000  0.949200  1.0  0.0585
  H  H113  1  0.689500  0.254600  0.117600  1.0  0.0514
  H  H114  1  0.837300  0.612400  0.878900  1.0  0.0528
  H  H115  1  0.148500  0.977000  0.949200  1.0  0.0584
  H  H116  1  0.310500  0.245400  0.117600  1.0  0.0508
  H  H117  1  0.162700  0.887600  0.878900  1.0  0.0531
  H  H118  1  0.648500  0.477000  0.449200  1.0  0.0584
  H  H119  1  0.810500  0.745400  0.617600  1.0  0.0508
  H  H120  1  0.662700  0.387600  0.378900  1.0  0.0531
  H  H121  1  0.477000  0.550800  0.851500  1.0  0.0607
  H  H122  1  0.745400  0.382400  0.689500  1.0  0.0513
  H  H123  1  0.387600  0.621100  0.837300  1.0  0.0524
  H  H124  1  0.977000  0.050800  0.351500  1.0  0.0607
  H  H125  1  0.245400  0.882400  0.189500  1.0  0.0513
  H  H126  1  0.887600  0.121100  0.337300  1.0  0.0524
  H  H127  1  0.523000  0.050800  0.648500  1.0  0.0613
  H  H128  1  0.254600  0.882400  0.810500  1.0  0.0503
  H  H129  1  0.612400  0.121100  0.662700  1.0  0.0522
  H  H130  1  0.023000  0.550800  0.148500  1.0  0.0613
  H  H131  1  0.754600  0.382400  0.310500  1.0  0.0503
  H  H132  1  0.112400  0.621100  0.162700  1.0  0.0522
  H  H133  1  0.023000  0.449200  0.351500  1.0  0.0614
  H  H134  1  0.754600  0.617600  0.189500  1.0  0.0514
  H  H135  1  0.112400  0.378900  0.337300  1.0  0.0527
  H  H136  1  0.523000  0.949200  0.851500  1.0  0.0614
  H  H137  1  0.254600  0.117600  0.689500  1.0  0.0514
  H  H138  1  0.612400  0.878900  0.837300  1.0  0.0527
  H  H139  1  0.977000  0.949200  0.148500  1.0  0.0615
  H  H140  1  0.245400  0.117600  0.310500  1.0  0.0505
  H  H141  1  0.887600  0.878900  0.162700  1.0  0.0524
  H  H142  1  0.477000  0.449200  0.648500  1.0  0.0615
  H  H143  1  0.745400  0.617600  0.810500  1.0  0.0505
  H  H144  1  0.387600  0.378900  0.662700  1.0  0.0524
  H  H145  1  0.550800  0.851500  0.477000  1.0  0.061
  H  H146  1  0.382400  0.689500  0.745400  1.0  0.0495
  H  H147  1  0.621100  0.837300  0.387600  1.0  0.0516
  H  H148  1  0.050800  0.351500  0.977000  1.0  0.061
  H  H149  1  0.882400  0.189500  0.245400  1.0  0.0495
  H  H150  1  0.121100  0.337300  0.887600  1.0  0.0516
  H  H151  1  0.050800  0.648500  0.523000  1.0  0.0605
  H  H152  1  0.882400  0.810500  0.254600  1.0  0.0487
  H  H153  1  0.121100  0.662700  0.612400  1.0  0.0516
  H  H154  1  0.550800  0.148500  0.023000  1.0  0.0605
  H  H155  1  0.382400  0.310500  0.754600  1.0  0.0487
  H  H156  1  0.621100  0.162700  0.112400  1.0  0.0516
  H  H157  1  0.449200  0.351500  0.023000  1.0  0.0608
  H  H158  1  0.617600  0.189500  0.754600  1.0  0.0494
  H  H159  1  0.378900  0.337300  0.112400  1.0  0.0518
  H  H160  1  0.949200  0.851500  0.523000  1.0  0.0608
  H  H161  1  0.117600  0.689500  0.254600  1.0  0.0494
  H  H162  1  0.878900  0.837300  0.612400  1.0  0.0518
  H  H163  1  0.949200  0.148500  0.977000  1.0  0.0603
  H  H164  1  0.117600  0.310500  0.245400  1.0  0.0495
  H  H165  1  0.878900  0.162700  0.887600  1.0  0.052
  H  H166  1  0.449200  0.648500  0.477000  1.0  0.0603
  H  H167  1  0.617600  0.810500  0.745400  1.0  0.0495
  H  H168  1  0.378900  0.662700  0.387600  1.0  0.052
  C  C169  1  0.272000  0.463000  0.368000  1.0  0.2118
  C  C170  1  0.225000  0.565000  0.328000  1.0  0.1234
  C  C171  1  0.328000  0.417000  0.371000  1.0  0.5532
  C  C172  1  0.501000  0.411000  0.168000  1.0  0.0813
  C  C173  1  0.171000  0.556000  0.370000  1.0  -0.1462
  C  C174  1  0.772000  0.963000  0.868000  1.0  0.2118
  C  C175  1  0.725000  0.065000  0.828000  1.0  0.1234
  C  C176  1  0.828000  0.917000  0.871000  1.0  0.5532
  C  C177  1  0.001000  0.911000  0.668000  1.0  0.0813
  C  C178  1  0.671000  0.056000  0.870000  1.0  -0.1462
  C  C179  1  0.228000  0.537000  0.868000  1.0  0.2115
  C  C180  1  0.275000  0.435000  0.828000  1.0  0.1247
  C  C181  1  0.172000  0.583000  0.871000  1.0  0.5531
  C  C182  1  0.999000  0.589000  0.668000  1.0  0.081
  C  C183  1  0.329000  0.444000  0.870000  1.0  -0.1449
  C  C184  1  0.728000  0.037000  0.368000  1.0  0.2115
  C  C185  1  0.775000  0.935000  0.328000  1.0  0.1247
  C  C186  1  0.672000  0.083000  0.371000  1.0  0.5531
  C  C187  1  0.499000  0.089000  0.168000  1.0  0.081
  C  C188  1  0.829000  0.944000  0.370000  1.0  -0.1449
  C  C189  1  0.728000  0.963000  0.132000  1.0  0.2109
  C  C190  1  0.775000  0.065000  0.172000  1.0  0.1236
  C  C191  1  0.672000  0.917000  0.129000  1.0  0.5535
  C  C192  1  0.499000  0.911000  0.332000  1.0  0.0796
  C  C193  1  0.829000  0.056000  0.130000  1.0  -0.1445
  C  C194  1  0.228000  0.463000  0.632000  1.0  0.2109
  C  C195  1  0.275000  0.565000  0.672000  1.0  0.1236
  C  C196  1  0.172000  0.417000  0.629000  1.0  0.5535
  C  C197  1  0.999000  0.411000  0.832000  1.0  0.0796
  C  C198  1  0.329000  0.556000  0.630000  1.0  -0.1445
  C  C199  1  0.772000  0.037000  0.632000  1.0  0.2111
  C  C200  1  0.725000  0.935000  0.672000  1.0  0.1263
  C  C201  1  0.828000  0.083000  0.629000  1.0  0.5531
  C  C202  1  0.001000  0.089000  0.832000  1.0  0.0809
  C  C203  1  0.671000  0.944000  0.630000  1.0  -0.1457
  C  C204  1  0.272000  0.537000  0.132000  1.0  0.2111
  C  C205  1  0.225000  0.435000  0.172000  1.0  0.1263
  C  C206  1  0.328000  0.583000  0.129000  1.0  0.5531
  C  C207  1  0.501000  0.589000  0.332000  1.0  0.0809
  C  C208  1  0.171000  0.444000  0.130000  1.0  -0.1457
  C  C209  1  0.368000  0.272000  0.463000  1.0  0.2124
  C  C210  1  0.328000  0.225000  0.565000  1.0  0.1214
  C  C211  1  0.371000  0.328000  0.417000  1.0  0.5536
  C  C212  1  0.168000  0.501000  0.411000  1.0  0.0832
  C  C213  1  0.370000  0.171000  0.556000  1.0  -0.1454
  C  C214  1  0.868000  0.772000  0.963000  1.0  0.2124
  C  C215  1  0.828000  0.725000  0.065000  1.0  0.1214
  C  C216  1  0.871000  0.828000  0.917000  1.0  0.5536
  C  C217  1  0.668000  0.001000  0.911000  1.0  0.0832
  C  C218  1  0.870000  0.671000  0.056000  1.0  -0.1454
  C  C219  1  0.868000  0.228000  0.537000  1.0  0.2125
  C  C220  1  0.828000  0.275000  0.435000  1.0  0.1215
  C  C221  1  0.871000  0.172000  0.583000  1.0  0.5547
  C  C222  1  0.668000  0.999000  0.589000  1.0  0.0844
  C  C223  1  0.870000  0.329000  0.444000  1.0  -0.1463
  C  C224  1  0.368000  0.728000  0.037000  1.0  0.2125
  C  C225  1  0.328000  0.775000  0.935000  1.0  0.1215
  C  C226  1  0.371000  0.672000  0.083000  1.0  0.5547
  C  C227  1  0.168000  0.499000  0.089000  1.0  0.0844
  C  C228  1  0.370000  0.829000  0.944000  1.0  -0.1463
  C  C229  1  0.132000  0.728000  0.963000  1.0  0.2127
  C  C230  1  0.172000  0.775000  0.065000  1.0  0.1215
  C  C231  1  0.129000  0.672000  0.917000  1.0  0.5542
  C  C232  1  0.332000  0.499000  0.911000  1.0  0.0844
  C  C233  1  0.130000  0.829000  0.056000  1.0  -0.1462
  C  C234  1  0.632000  0.228000  0.463000  1.0  0.2127
  C  C235  1  0.672000  0.275000  0.565000  1.0  0.1215
  C  C236  1  0.629000  0.172000  0.417000  1.0  0.5542
  C  C237  1  0.832000  0.999000  0.411000  1.0  0.0844
  C  C238  1  0.630000  0.329000  0.556000  1.0  -0.1462
  C  C239  1  0.632000  0.772000  0.037000  1.0  0.2123
  C  C240  1  0.672000  0.725000  0.935000  1.0  0.1211
  C  C241  1  0.629000  0.828000  0.083000  1.0  0.5546
  C  C242  1  0.832000  0.001000  0.089000  1.0  0.0843
  C  C243  1  0.630000  0.671000  0.944000  1.0  -0.1452
  C  C244  1  0.132000  0.272000  0.537000  1.0  0.2123
  C  C245  1  0.172000  0.225000  0.435000  1.0  0.1211
  C  C246  1  0.129000  0.328000  0.583000  1.0  0.5546
  C  C247  1  0.332000  0.501000  0.589000  1.0  0.0843
  C  C248  1  0.130000  0.171000  0.444000  1.0  -0.1452
  C  C249  1  0.463000  0.368000  0.272000  1.0  0.2136
  C  C250  1  0.565000  0.328000  0.225000  1.0  0.1238
  C  C251  1  0.417000  0.371000  0.328000  1.0  0.553
  C  C252  1  0.411000  0.168000  0.501000  1.0  0.0851
  C  C253  1  0.556000  0.370000  0.171000  1.0  -0.1496
  C  C254  1  0.963000  0.868000  0.772000  1.0  0.2136
  C  C255  1  0.065000  0.828000  0.725000  1.0  0.1238
  C  C256  1  0.917000  0.871000  0.828000  1.0  0.553
  C  C257  1  0.911000  0.668000  0.001000  1.0  0.0851
  C  C258  1  0.056000  0.870000  0.671000  1.0  -0.1496
  C  C259  1  0.537000  0.868000  0.228000  1.0  0.2129
  C  C260  1  0.435000  0.828000  0.275000  1.0  0.1226
  C  C261  1  0.583000  0.871000  0.172000  1.0  0.5521
  C  C262  1  0.589000  0.668000  0.999000  1.0  0.0844
  C  C263  1  0.444000  0.870000  0.329000  1.0  -0.1489
  C  C264  1  0.037000  0.368000  0.728000  1.0  0.2129
  C  C265  1  0.935000  0.328000  0.775000  1.0  0.1226
  C  C266  1  0.083000  0.371000  0.672000  1.0  0.5521
  C  C267  1  0.089000  0.168000  0.499000  1.0  0.0844
  C  C268  1  0.944000  0.370000  0.829000  1.0  -0.1489
  C  C269  1  0.963000  0.132000  0.728000  1.0  0.2139
  C  C270  1  0.065000  0.172000  0.775000  1.0  0.1229
  C  C271  1  0.917000  0.129000  0.672000  1.0  0.5532
  C  C272  1  0.911000  0.332000  0.499000  1.0  0.0843
  C  C273  1  0.056000  0.130000  0.829000  1.0  -0.1489
  C  C274  1  0.463000  0.632000  0.228000  1.0  0.2139
  C  C275  1  0.565000  0.672000  0.275000  1.0  0.1229
  C  C276  1  0.417000  0.629000  0.172000  1.0  0.5532
  C  C277  1  0.411000  0.832000  0.999000  1.0  0.0843
  C  C278  1  0.556000  0.630000  0.329000  1.0  -0.1489
  C  C279  1  0.037000  0.632000  0.772000  1.0  0.2131
  C  C280  1  0.935000  0.672000  0.725000  1.0  0.1234
  C  C281  1  0.083000  0.629000  0.828000  1.0  0.5516
  C  C282  1  0.089000  0.832000  0.001000  1.0  0.0847
  C  C283  1  0.944000  0.630000  0.671000  1.0  -0.1499
  C  C284  1  0.537000  0.132000  0.272000  1.0  0.2131
  C  C285  1  0.435000  0.172000  0.225000  1.0  0.1234
  C  C286  1  0.583000  0.129000  0.328000  1.0  0.5516
  C  C287  1  0.589000  0.332000  0.501000  1.0  0.0847
  C  C288  1  0.444000  0.130000  0.171000  1.0  -0.1499
  C  C289  1  0.713000  0.522000  0.618000  1.0  0.212
  C  C290  1  0.815000  0.475000  0.578000  1.0  0.1252
  C  C291  1  0.667000  0.578000  0.621000  1.0  0.5547
  C  C292  1  0.661000  0.751000  0.418000  1.0  0.0812
  C  C293  1  0.806000  0.421000  0.620000  1.0  -0.1449
  C  C294  1  0.213000  0.022000  0.118000  1.0  0.212
  C  C295  1  0.315000  0.975000  0.078000  1.0  0.1252
  C  C296  1  0.167000  0.078000  0.121000  1.0  0.5547
  C  C297  1  0.161000  0.251000  0.918000  1.0  0.0812
  C  C298  1  0.306000  0.921000  0.120000  1.0  -0.1449
  C  C299  1  0.787000  0.478000  0.118000  1.0  0.2114
  C  C300  1  0.685000  0.525000  0.078000  1.0  0.1248
  C  C301  1  0.833000  0.422000  0.121000  1.0  0.5532
  C  C302  1  0.839000  0.249000  0.918000  1.0  0.0815
  C  C303  1  0.694000  0.579000  0.120000  1.0  -0.1462
  C  C304  1  0.287000  0.978000  0.618000  1.0  0.2114
  C  C305  1  0.185000  0.025000  0.578000  1.0  0.1248
  C  C306  1  0.333000  0.922000  0.621000  1.0  0.5532
  C  C307  1  0.339000  0.749000  0.418000  1.0  0.0815
  C  C308  1  0.194000  0.079000  0.620000  1.0  -0.1462
  C  C309  1  0.213000  0.978000  0.382000  1.0  0.2117
  C  C310  1  0.315000  0.025000  0.422000  1.0  0.1263
  C  C311  1  0.167000  0.922000  0.379000  1.0  0.5544
  C  C312  1  0.161000  0.749000  0.582000  1.0  0.0807
  C  C313  1  0.306000  0.079000  0.380000  1.0  -0.1456
  C  C314  1  0.713000  0.478000  0.882000  1.0  0.2117
  C  C315  1  0.815000  0.525000  0.922000  1.0  0.1263
  C  C316  1  0.667000  0.422000  0.879000  1.0  0.5544
  C  C317  1  0.661000  0.249000  0.082000  1.0  0.0807
  C  C318  1  0.806000  0.579000  0.880000  1.0  -0.1456
  C  C319  1  0.287000  0.022000  0.882000  1.0  0.2105
  C  C320  1  0.185000  0.975000  0.922000  1.0  0.1256
  C  C321  1  0.333000  0.078000  0.879000  1.0  0.5535
  C  C322  1  0.339000  0.251000  0.082000  1.0  0.0812
  C  C323  1  0.194000  0.921000  0.880000  1.0  -0.1452
  C  C324  1  0.787000  0.522000  0.382000  1.0  0.2105
  C  C325  1  0.685000  0.475000  0.422000  1.0  0.1256
  C  C326  1  0.833000  0.578000  0.379000  1.0  0.5535
  C  C327  1  0.839000  0.751000  0.582000  1.0  0.0812
  C  C328  1  0.694000  0.421000  0.380000  1.0  -0.1452
  C  C329  1  0.522000  0.618000  0.713000  1.0  0.2123
  C  C330  1  0.475000  0.578000  0.815000  1.0  0.1224
  C  C331  1  0.578000  0.621000  0.667000  1.0  0.5545
  C  C332  1  0.751000  0.418000  0.661000  1.0  0.0859
  C  C333  1  0.421000  0.620000  0.806000  1.0  -0.1475
  C  C334  1  0.022000  0.118000  0.213000  1.0  0.2123
  C  C335  1  0.975000  0.078000  0.315000  1.0  0.1224
  C  C336  1  0.078000  0.121000  0.167000  1.0  0.5545
  C  C337  1  0.251000  0.918000  0.161000  1.0  0.0859
  C  C338  1  0.921000  0.120000  0.306000  1.0  -0.1475
  C  C339  1  0.478000  0.118000  0.787000  1.0  0.2119
  C  C340  1  0.525000  0.078000  0.685000  1.0  0.1223
  C  C341  1  0.422000  0.121000  0.833000  1.0  0.5555
  C  C342  1  0.249000  0.918000  0.839000  1.0  0.0865
  C  C343  1  0.579000  0.120000  0.694000  1.0  -0.1462
  C  C344  1  0.978000  0.618000  0.287000  1.0  0.2119
  C  C345  1  0.025000  0.578000  0.185000  1.0  0.1223
  C  C346  1  0.922000  0.621000  0.333000  1.0  0.5555
  C  C347  1  0.749000  0.418000  0.339000  1.0  0.0865
  C  C348  1  0.079000  0.620000  0.194000  1.0  -0.1462
  C  C349  1  0.978000  0.382000  0.213000  1.0  0.2122
  C  C350  1  0.025000  0.422000  0.315000  1.0  0.1219
  C  C351  1  0.922000  0.379000  0.167000  1.0  0.5546
  C  C352  1  0.749000  0.582000  0.161000  1.0  0.0852
  C  C353  1  0.079000  0.380000  0.306000  1.0  -0.1466
  C  C354  1  0.478000  0.882000  0.713000  1.0  0.2122
  C  C355  1  0.525000  0.922000  0.815000  1.0  0.1219
  C  C356  1  0.422000  0.879000  0.667000  1.0  0.5546
  C  C357  1  0.249000  0.082000  0.661000  1.0  0.0852
  C  C358  1  0.579000  0.880000  0.806000  1.0  -0.1466
  C  C359  1  0.022000  0.882000  0.287000  1.0  0.2124
  C  C360  1  0.975000  0.922000  0.185000  1.0  0.1216
  C  C361  1  0.078000  0.879000  0.333000  1.0  0.5549
  C  C362  1  0.251000  0.082000  0.339000  1.0  0.0862
  C  C363  1  0.921000  0.880000  0.194000  1.0  -0.1475
  C  C364  1  0.522000  0.382000  0.787000  1.0  0.2124
  C  C365  1  0.475000  0.422000  0.685000  1.0  0.1216
  C  C366  1  0.578000  0.379000  0.833000  1.0  0.5549
  C  C367  1  0.751000  0.582000  0.839000  1.0  0.0862
  C  C368  1  0.421000  0.380000  0.694000  1.0  -0.1475
  C  C369  1  0.618000  0.713000  0.522000  1.0  0.2135
  C  C370  1  0.578000  0.815000  0.475000  1.0  0.1217
  C  C371  1  0.621000  0.667000  0.578000  1.0  0.5509
  C  C372  1  0.418000  0.661000  0.751000  1.0  0.0824
  C  C373  1  0.620000  0.806000  0.421000  1.0  -0.1487
  C  C374  1  0.118000  0.213000  0.022000  1.0  0.2135
  C  C375  1  0.078000  0.315000  0.975000  1.0  0.1217
  C  C376  1  0.121000  0.167000  0.078000  1.0  0.5509
  C  C377  1  0.918000  0.161000  0.251000  1.0  0.0824
  C  C378  1  0.120000  0.306000  0.921000  1.0  -0.1487
  C  C379  1  0.118000  0.787000  0.478000  1.0  0.2136
  C  C380  1  0.078000  0.685000  0.525000  1.0  0.1218
  C  C381  1  0.121000  0.833000  0.422000  1.0  0.5508
  C  C382  1  0.918000  0.839000  0.249000  1.0  0.0828
  C  C383  1  0.120000  0.694000  0.579000  1.0  -0.1479
  C  C384  1  0.618000  0.287000  0.978000  1.0  0.2136
  C  C385  1  0.578000  0.185000  0.025000  1.0  0.1218
  C  C386  1  0.621000  0.333000  0.922000  1.0  0.5508
  C  C387  1  0.418000  0.339000  0.749000  1.0  0.0828
  C  C388  1  0.620000  0.194000  0.079000  1.0  -0.1479
  C  C389  1  0.382000  0.213000  0.978000  1.0  0.2136
  C  C390  1  0.422000  0.315000  0.025000  1.0  0.1205
  C  C391  1  0.379000  0.167000  0.922000  1.0  0.5517
  C  C392  1  0.582000  0.161000  0.749000  1.0  0.0827
  C  C393  1  0.380000  0.306000  0.079000  1.0  -0.1481
  C  C394  1  0.882000  0.713000  0.478000  1.0  0.2136
  C  C395  1  0.922000  0.815000  0.525000  1.0  0.1205
  C  C396  1  0.879000  0.667000  0.422000  1.0  0.5517
  C  C397  1  0.082000  0.661000  0.249000  1.0  0.0827
  C  C398  1  0.880000  0.806000  0.579000  1.0  -0.1481
  C  C399  1  0.882000  0.287000  0.022000  1.0  0.2136
  C  C400  1  0.922000  0.185000  0.975000  1.0  0.1226
  C  C401  1  0.879000  0.333000  0.078000  1.0  0.551
  C  C402  1  0.082000  0.339000  0.251000  1.0  0.0835
  C  C403  1  0.880000  0.194000  0.921000  1.0  -0.1483
  C  C404  1  0.382000  0.787000  0.522000  1.0  0.2136
  C  C405  1  0.422000  0.685000  0.475000  1.0  0.1226
  C  C406  1  0.379000  0.833000  0.578000  1.0  0.551
  C  C407  1  0.582000  0.839000  0.751000  1.0  0.0835
  C  C408  1  0.380000  0.694000  0.421000  1.0  -0.1483
  N  N409  1  0.275000  0.518000  0.327000  1.0  -0.4052
  N  N410  1  0.372000  0.417000  0.326000  1.0  -0.3594
  N  N411  1  0.454000  0.410000  0.219000  1.0  -0.4157
  N  N412  1  0.775000  0.018000  0.827000  1.0  -0.4052
  N  N413  1  0.872000  0.917000  0.826000  1.0  -0.3594
  N  N414  1  0.954000  0.910000  0.719000  1.0  -0.4157
  N  N415  1  0.225000  0.482000  0.827000  1.0  -0.404
  N  N416  1  0.128000  0.583000  0.826000  1.0  -0.357
  N  N417  1  0.046000  0.590000  0.719000  1.0  -0.416
  N  N418  1  0.725000  0.982000  0.327000  1.0  -0.404
  N  N419  1  0.628000  0.083000  0.326000  1.0  -0.357
  N  N420  1  0.546000  0.090000  0.219000  1.0  -0.416
  N  N421  1  0.725000  0.018000  0.173000  1.0  -0.4048
  N  N422  1  0.628000  0.917000  0.174000  1.0  -0.3579
  N  N423  1  0.546000  0.910000  0.281000  1.0  -0.4164
  N  N424  1  0.225000  0.518000  0.673000  1.0  -0.4048
  N  N425  1  0.128000  0.417000  0.674000  1.0  -0.3579
  N  N426  1  0.046000  0.410000  0.781000  1.0  -0.4164
  N  N427  1  0.775000  0.982000  0.673000  1.0  -0.4055
  N  N428  1  0.872000  0.083000  0.674000  1.0  -0.3566
  N  N429  1  0.954000  0.090000  0.781000  1.0  -0.4164
  N  N430  1  0.275000  0.482000  0.173000  1.0  -0.4055
  N  N431  1  0.372000  0.583000  0.174000  1.0  -0.3566
  N  N432  1  0.454000  0.590000  0.281000  1.0  -0.4164
  N  N433  1  0.327000  0.275000  0.518000  1.0  -0.4021
  N  N434  1  0.326000  0.372000  0.417000  1.0  -0.3558
  N  N435  1  0.219000  0.454000  0.410000  1.0  -0.4203
  N  N436  1  0.827000  0.775000  0.018000  1.0  -0.4021
  N  N437  1  0.826000  0.872000  0.917000  1.0  -0.3558
  N  N438  1  0.719000  0.954000  0.910000  1.0  -0.4203
  N  N439  1  0.827000  0.225000  0.482000  1.0  -0.4021
  N  N440  1  0.826000  0.128000  0.583000  1.0  -0.3564
  N  N441  1  0.719000  0.046000  0.590000  1.0  -0.4206
  N  N442  1  0.327000  0.725000  0.982000  1.0  -0.4021
  N  N443  1  0.326000  0.628000  0.083000  1.0  -0.3564
  N  N444  1  0.219000  0.546000  0.090000  1.0  -0.4206
  N  N445  1  0.173000  0.725000  0.018000  1.0  -0.4017
  N  N446  1  0.174000  0.628000  0.917000  1.0  -0.3572
  N  N447  1  0.281000  0.546000  0.910000  1.0  -0.42
  N  N448  1  0.673000  0.225000  0.518000  1.0  -0.4017
  N  N449  1  0.674000  0.128000  0.417000  1.0  -0.3572
  N  N450  1  0.781000  0.046000  0.410000  1.0  -0.42
  N  N451  1  0.673000  0.775000  0.982000  1.0  -0.4029
  N  N452  1  0.674000  0.872000  0.083000  1.0  -0.3575
  N  N453  1  0.781000  0.954000  0.090000  1.0  -0.4201
  N  N454  1  0.173000  0.275000  0.482000  1.0  -0.4029
  N  N455  1  0.174000  0.372000  0.583000  1.0  -0.3575
  N  N456  1  0.281000  0.454000  0.590000  1.0  -0.4201
  N  N457  1  0.518000  0.327000  0.275000  1.0  -0.4035
  N  N458  1  0.417000  0.326000  0.372000  1.0  -0.3545
  N  N459  1  0.410000  0.219000  0.454000  1.0  -0.4175
  N  N460  1  0.018000  0.827000  0.775000  1.0  -0.4035
  N  N461  1  0.917000  0.826000  0.872000  1.0  -0.3545
  N  N462  1  0.910000  0.719000  0.954000  1.0  -0.4175
  N  N463  1  0.482000  0.827000  0.225000  1.0  -0.405
  N  N464  1  0.583000  0.826000  0.128000  1.0  -0.3542
  N  N465  1  0.590000  0.719000  0.046000  1.0  -0.4175
  N  N466  1  0.982000  0.327000  0.725000  1.0  -0.405
  N  N467  1  0.083000  0.326000  0.628000  1.0  -0.3542
  N  N468  1  0.090000  0.219000  0.546000  1.0  -0.4175
  N  N469  1  0.018000  0.173000  0.725000  1.0  -0.4049
  N  N470  1  0.917000  0.174000  0.628000  1.0  -0.3548
  N  N471  1  0.910000  0.281000  0.546000  1.0  -0.4174
  N  N472  1  0.518000  0.673000  0.225000  1.0  -0.4049
  N  N473  1  0.417000  0.674000  0.128000  1.0  -0.3548
  N  N474  1  0.410000  0.781000  0.046000  1.0  -0.4174
  N  N475  1  0.982000  0.673000  0.775000  1.0  -0.404
  N  N476  1  0.083000  0.674000  0.872000  1.0  -0.3556
  N  N477  1  0.090000  0.781000  0.954000  1.0  -0.4176
  N  N478  1  0.482000  0.173000  0.275000  1.0  -0.404
  N  N479  1  0.583000  0.174000  0.372000  1.0  -0.3556
  N  N480  1  0.590000  0.281000  0.454000  1.0  -0.4176
  N  N481  1  0.768000  0.525000  0.577000  1.0  -0.4046
  N  N482  1  0.667000  0.622000  0.576000  1.0  -0.3562
  N  N483  1  0.660000  0.704000  0.469000  1.0  -0.416
  N  N484  1  0.268000  0.025000  0.077000  1.0  -0.4046
  N  N485  1  0.167000  0.122000  0.076000  1.0  -0.3562
  N  N486  1  0.160000  0.204000  0.969000  1.0  -0.416
  N  N487  1  0.732000  0.475000  0.077000  1.0  -0.4035
  N  N488  1  0.833000  0.378000  0.076000  1.0  -0.356
  N  N489  1  0.840000  0.296000  0.969000  1.0  -0.4158
  N  N490  1  0.232000  0.975000  0.577000  1.0  -0.4035
  N  N491  1  0.333000  0.878000  0.576000  1.0  -0.356
  N  N492  1  0.340000  0.796000  0.469000  1.0  -0.4158
  N  N493  1  0.268000  0.975000  0.423000  1.0  -0.4036
  N  N494  1  0.167000  0.878000  0.424000  1.0  -0.3557
  N  N495  1  0.160000  0.796000  0.531000  1.0  -0.4167
  N  N496  1  0.768000  0.475000  0.923000  1.0  -0.4036
  N  N497  1  0.667000  0.378000  0.924000  1.0  -0.3557
  N  N498  1  0.660000  0.296000  0.031000  1.0  -0.4167
  N  N499  1  0.232000  0.025000  0.923000  1.0  -0.4047
  N  N500  1  0.333000  0.122000  0.924000  1.0  -0.3552
  N  N501  1  0.340000  0.204000  0.031000  1.0  -0.4161
  N  N502  1  0.732000  0.525000  0.423000  1.0  -0.4047
  N  N503  1  0.833000  0.622000  0.424000  1.0  -0.3552
  N  N504  1  0.840000  0.704000  0.531000  1.0  -0.4161
  N  N505  1  0.525000  0.577000  0.768000  1.0  -0.4048
  N  N506  1  0.622000  0.576000  0.667000  1.0  -0.3582
  N  N507  1  0.704000  0.469000  0.660000  1.0  -0.417
  N  N508  1  0.025000  0.077000  0.268000  1.0  -0.4048
  N  N509  1  0.122000  0.076000  0.167000  1.0  -0.3582
  N  N510  1  0.204000  0.969000  0.160000  1.0  -0.417
  N  N511  1  0.475000  0.077000  0.732000  1.0  -0.4047
  N  N512  1  0.378000  0.076000  0.833000  1.0  -0.3583
  N  N513  1  0.296000  0.969000  0.840000  1.0  -0.4168
  N  N514  1  0.975000  0.577000  0.232000  1.0  -0.4047
  N  N515  1  0.878000  0.576000  0.333000  1.0  -0.3583
  N  N516  1  0.796000  0.469000  0.340000  1.0  -0.4168
  N  N517  1  0.975000  0.423000  0.268000  1.0  -0.4046
  N  N518  1  0.878000  0.424000  0.167000  1.0  -0.3592
  N  N519  1  0.796000  0.531000  0.160000  1.0  -0.4168
  N  N520  1  0.475000  0.923000  0.768000  1.0  -0.4046
  N  N521  1  0.378000  0.924000  0.667000  1.0  -0.3592
  N  N522  1  0.296000  0.031000  0.660000  1.0  -0.4168
  N  N523  1  0.025000  0.923000  0.232000  1.0  -0.4055
  N  N524  1  0.122000  0.924000  0.333000  1.0  -0.3587
  N  N525  1  0.204000  0.031000  0.340000  1.0  -0.4173
  N  N526  1  0.525000  0.423000  0.732000  1.0  -0.4055
  N  N527  1  0.622000  0.424000  0.833000  1.0  -0.3587
  N  N528  1  0.704000  0.531000  0.840000  1.0  -0.4173
  N  N529  1  0.577000  0.768000  0.525000  1.0  -0.4017
  N  N530  1  0.576000  0.667000  0.622000  1.0  -0.355
  N  N531  1  0.469000  0.660000  0.704000  1.0  -0.4208
  N  N532  1  0.077000  0.268000  0.025000  1.0  -0.4017
  N  N533  1  0.076000  0.167000  0.122000  1.0  -0.355
  N  N534  1  0.969000  0.160000  0.204000  1.0  -0.4208
  N  N535  1  0.077000  0.732000  0.475000  1.0  -0.403
  N  N536  1  0.076000  0.833000  0.378000  1.0  -0.3534
  N  N537  1  0.969000  0.840000  0.296000  1.0  -0.4203
  N  N538  1  0.577000  0.232000  0.975000  1.0  -0.403
  N  N539  1  0.576000  0.333000  0.878000  1.0  -0.3534
  N  N540  1  0.469000  0.340000  0.796000  1.0  -0.4203
  N  N541  1  0.423000  0.268000  0.975000  1.0  -0.4035
  N  N542  1  0.424000  0.167000  0.878000  1.0  -0.3547
  N  N543  1  0.531000  0.160000  0.796000  1.0  -0.4199
  N  N544  1  0.923000  0.768000  0.475000  1.0  -0.4035
  N  N545  1  0.924000  0.667000  0.378000  1.0  -0.3547
  N  N546  1  0.031000  0.660000  0.296000  1.0  -0.4199
  N  N547  1  0.923000  0.232000  0.025000  1.0  -0.4027
  N  N548  1  0.924000  0.333000  0.122000  1.0  -0.3538
  N  N549  1  0.031000  0.340000  0.204000  1.0  -0.4204
  N  N550  1  0.423000  0.732000  0.525000  1.0  -0.4027
  N  N551  1  0.424000  0.833000  0.622000  1.0  -0.3538
  N  N552  1  0.531000  0.840000  0.704000  1.0  -0.4204
