# generated using pymatgen
data_CuH12C18(N3O2)2
_symmetry_space_group_name_H-M   'P 1'
_cell_length_a   12.60650000
_cell_length_b   10.13700000
_cell_length_c   17.57010000
_cell_angle_alpha   90.00000000
_cell_angle_beta   90.00000000
_cell_angle_gamma   90.00000000
_symmetry_Int_Tables_number   1
_chemical_formula_structural   CuH12C18(N3O2)2
_chemical_formula_sum   'Cu4 H48 C72 N24 O16'
_cell_volume   2245.31980929
_cell_formula_units_Z   4
loop_
 _symmetry_equiv_pos_site_id
 _symmetry_equiv_pos_as_xyz
  1  'x, y, z'
loop_
 _atom_site_type_symbol
 _atom_site_label
 _atom_site_symmetry_multiplicity
 _atom_site_fract_x
 _atom_site_fract_y
 _atom_site_fract_z
 _atom_site_occupancy
 _atom_site_charge
  Cu  Cu1  1  0.750000  0.500000  0.834720  1.0  0.8132
  Cu  Cu2  1  0.250000  0.000000  0.334720  1.0  0.8132
  Cu  Cu3  1  0.750000  0.000000  0.665280  1.0  0.8134
  Cu  Cu4  1  0.250000  0.500000  0.165280  1.0  0.8134
  H  H5  1  0.003700  0.385800  0.002900  1.0  0.0964
  H  H6  1  0.081400  0.277400  0.106200  1.0  0.1177
  H  H7  1  0.873900  0.983700  0.079300  1.0  0.1211
  H  H8  1  0.800600  0.092200  0.976600  1.0  0.1015
  H  H9  1  0.028900  0.863000  0.293400  1.0  0.0844
  H  H10  1  0.174500  0.137100  0.180700  1.0  0.1114
  H  H11  1  0.496300  0.614200  0.002900  1.0  0.0959
  H  H12  1  0.418600  0.722600  0.106200  1.0  0.1179
  H  H13  1  0.626100  0.016300  0.079300  1.0  0.1202
  H  H14  1  0.699400  0.907800  0.976600  1.0  0.1007
  H  H15  1  0.471100  0.137000  0.293400  1.0  0.0836
  H  H16  1  0.325500  0.862900  0.180700  1.0  0.1112
  H  H17  1  0.503700  0.114200  0.502900  1.0  0.0959
  H  H18  1  0.581400  0.222600  0.606200  1.0  0.1182
  H  H19  1  0.373900  0.516300  0.579300  1.0  0.1205
  H  H20  1  0.300600  0.407800  0.476600  1.0  0.1013
  H  H21  1  0.528900  0.637000  0.793400  1.0  0.0847
  H  H22  1  0.674500  0.362900  0.680700  1.0  0.1118
  H  H23  1  0.996300  0.885800  0.502900  1.0  0.0964
  H  H24  1  0.918600  0.777400  0.606200  1.0  0.1176
  H  H25  1  0.126100  0.483700  0.579300  1.0  0.121
  H  H26  1  0.199400  0.592200  0.476600  1.0  0.1012
  H  H27  1  0.971100  0.363000  0.793400  1.0  0.0839
  H  H28  1  0.825500  0.637100  0.680700  1.0  0.1112
  H  H29  1  0.496300  0.885800  0.497100  1.0  0.0961
  H  H30  1  0.418600  0.777400  0.393800  1.0  0.1178
  H  H31  1  0.626100  0.483700  0.420700  1.0  0.1207
  H  H32  1  0.699400  0.592200  0.523400  1.0  0.102
  H  H33  1  0.471100  0.363000  0.206600  1.0  0.0838
  H  H34  1  0.325500  0.637100  0.319300  1.0  0.1109
  H  H35  1  0.003700  0.114200  0.497100  1.0  0.0959
  H  H36  1  0.081400  0.222600  0.393800  1.0  0.1178
  H  H37  1  0.873900  0.516300  0.420700  1.0  0.1204
  H  H38  1  0.800600  0.407800  0.523400  1.0  0.102
  H  H39  1  0.028900  0.637000  0.206600  1.0  0.0853
  H  H40  1  0.174500  0.362900  0.319300  1.0  0.1117
  H  H41  1  0.996300  0.614200  0.997100  1.0  0.096
  H  H42  1  0.918600  0.722600  0.893800  1.0  0.1176
  H  H43  1  0.126100  0.016300  0.920700  1.0  0.1205
  H  H44  1  0.199400  0.907800  0.023400  1.0  0.1013
  H  H45  1  0.971100  0.137000  0.706600  1.0  0.0846
  H  H46  1  0.825500  0.862900  0.819300  1.0  0.1111
  H  H47  1  0.503700  0.385800  0.997100  1.0  0.0961
  H  H48  1  0.581400  0.277400  0.893800  1.0  0.1179
  H  H49  1  0.373900  0.983700  0.920700  1.0  0.1204
  H  H50  1  0.300600  0.092200  0.023400  1.0  0.1024
  H  H51  1  0.528900  0.863000  0.706600  1.0  0.0845
  H  H52  1  0.674500  0.137100  0.819300  1.0  0.1112
  C  C53  1  0.837900  0.324300  0.919000  1.0  0.6561
  C  C54  1  0.892900  0.251900  0.980500  1.0  -0.0812
  C  C55  1  0.977000  0.304600  0.018300  1.0  -0.0345
  C  C56  1  0.024800  0.239600  0.080100  1.0  -0.1726
  C  C57  1  0.985500  0.119000  0.100900  1.0  0.187
  C  C58  1  0.901100  0.064600  0.063800  1.0  -0.1385
  C  C59  1  0.856600  0.130800  0.002900  1.0  -0.0197
  C  C60  1  0.044000  0.927600  0.257400  1.0  0.2687
  C  C61  1  0.124500  0.075800  0.197000  1.0  0.1555
  C  C62  1  0.662100  0.675700  0.919000  1.0  0.6551
  C  C63  1  0.607100  0.748100  0.980500  1.0  -0.0812
  C  C64  1  0.523000  0.695400  0.018300  1.0  -0.0343
  C  C65  1  0.475200  0.760400  0.080100  1.0  -0.1705
  C  C66  1  0.514500  0.881000  0.100900  1.0  0.1882
  C  C67  1  0.598900  0.935400  0.063800  1.0  -0.1379
  C  C68  1  0.643400  0.869200  0.002900  1.0  -0.0209
  C  C69  1  0.456000  0.072400  0.257400  1.0  0.2696
  C  C70  1  0.375500  0.924200  0.197000  1.0  0.156
  C  C71  1  0.337900  0.175700  0.419000  1.0  0.6561
  C  C72  1  0.392900  0.248100  0.480500  1.0  -0.0816
  C  C73  1  0.477000  0.195400  0.518300  1.0  -0.0341
  C  C74  1  0.524800  0.260400  0.580100  1.0  -0.1732
  C  C75  1  0.485500  0.381000  0.600900  1.0  0.1872
  C  C76  1  0.401100  0.435400  0.563800  1.0  -0.1376
  C  C77  1  0.356600  0.369200  0.502900  1.0  -0.0198
  C  C78  1  0.544000  0.572400  0.757400  1.0  0.2678
  C  C79  1  0.624500  0.424200  0.697000  1.0  0.1552
  C  C80  1  0.162100  0.824300  0.419000  1.0  0.6551
  C  C81  1  0.107100  0.751900  0.480500  1.0  -0.0809
  C  C82  1  0.023000  0.804600  0.518300  1.0  -0.0341
  C  C83  1  0.975200  0.739600  0.580100  1.0  -0.1702
  C  C84  1  0.014500  0.619000  0.600900  1.0  0.1883
  C  C85  1  0.098900  0.564600  0.563800  1.0  -0.139
  C  C86  1  0.143400  0.630800  0.502900  1.0  -0.0206
  C  C87  1  0.956000  0.427600  0.757400  1.0  0.2699
  C  C88  1  0.875500  0.575800  0.697000  1.0  0.156
  C  C89  1  0.662100  0.824300  0.581000  1.0  0.6551
  C  C90  1  0.607100  0.751900  0.519500  1.0  -0.0806
  C  C91  1  0.523000  0.804600  0.481700  1.0  -0.0344
  C  C92  1  0.475200  0.739600  0.419900  1.0  -0.1703
  C  C93  1  0.514500  0.619000  0.399100  1.0  0.1888
  C  C94  1  0.598900  0.564600  0.436200  1.0  -0.1396
  C  C95  1  0.643400  0.630800  0.497100  1.0  -0.0201
  C  C96  1  0.456000  0.427600  0.242600  1.0  0.2698
  C  C97  1  0.375500  0.575800  0.303000  1.0  0.1556
  C  C98  1  0.837900  0.175700  0.581000  1.0  0.6557
  C  C99  1  0.892900  0.248100  0.519500  1.0  -0.0815
  C  C100  1  0.977000  0.195400  0.481700  1.0  -0.0343
  C  C101  1  0.024800  0.260400  0.419900  1.0  -0.1734
  C  C102  1  0.985500  0.381000  0.399100  1.0  0.1877
  C  C103  1  0.901100  0.435400  0.436200  1.0  -0.1379
  C  C104  1  0.856600  0.369200  0.497100  1.0  -0.0193
  C  C105  1  0.044000  0.572400  0.242600  1.0  0.2682
  C  C106  1  0.124500  0.424200  0.303000  1.0  0.1547
  C  C107  1  0.162100  0.675700  0.081000  1.0  0.6551
  C  C108  1  0.107100  0.748100  0.019500  1.0  -0.0813
  C  C109  1  0.023000  0.695400  0.981700  1.0  -0.0344
  C  C110  1  0.975200  0.760400  0.919900  1.0  -0.1708
  C  C111  1  0.014500  0.881000  0.899100  1.0  0.189
  C  C112  1  0.098900  0.935400  0.936200  1.0  -0.1384
  C  C113  1  0.143400  0.869200  0.997100  1.0  -0.0204
  C  C114  1  0.956000  0.072400  0.742600  1.0  0.2699
  C  C115  1  0.875500  0.924200  0.803000  1.0  0.1557
  C  C116  1  0.337900  0.324300  0.081000  1.0  0.6557
  C  C117  1  0.392900  0.251900  0.019500  1.0  -0.0807
  C  C118  1  0.477000  0.304600  0.981700  1.0  -0.0348
  C  C119  1  0.524800  0.239600  0.919900  1.0  -0.1725
  C  C120  1  0.485500  0.119000  0.899100  1.0  0.1871
  C  C121  1  0.401100  0.064600  0.936200  1.0  -0.1385
  C  C122  1  0.356600  0.130800  0.997100  1.0  -0.0191
  C  C123  1  0.544000  0.927600  0.742600  1.0  0.2683
  C  C124  1  0.624500  0.075800  0.803000  1.0  0.155
  N  N125  1  0.032600  0.053100  0.163500  1.0  0.1471
  N  N126  1  0.979400  0.958000  0.202500  1.0  -0.387
  N  N127  1  0.135100  0.997900  0.257600  1.0  -0.3999
  N  N128  1  0.467400  0.946900  0.163500  1.0  0.1471
  N  N129  1  0.520600  0.042000  0.202500  1.0  -0.3894
  N  N130  1  0.364900  0.002100  0.257600  1.0  -0.3994
  N  N131  1  0.532600  0.446900  0.663500  1.0  0.1471
  N  N132  1  0.479400  0.542000  0.702500  1.0  -0.3867
  N  N133  1  0.635100  0.502100  0.757600  1.0  -0.4001
  N  N134  1  0.967400  0.553100  0.663500  1.0  0.1473
  N  N135  1  0.020600  0.458000  0.702500  1.0  -0.3892
  N  N136  1  0.864900  0.497900  0.757600  1.0  -0.3993
  N  N137  1  0.467400  0.553100  0.336500  1.0  0.147
  N  N138  1  0.520600  0.458000  0.297500  1.0  -0.3891
  N  N139  1  0.364900  0.497900  0.242400  1.0  -0.3998
  N  N140  1  0.032600  0.446900  0.336500  1.0  0.1468
  N  N141  1  0.979400  0.542000  0.297500  1.0  -0.3865
  N  N142  1  0.135100  0.502100  0.242400  1.0  -0.4006
  N  N143  1  0.967400  0.946900  0.836500  1.0  0.1469
  N  N144  1  0.020600  0.042000  0.797500  1.0  -0.3901
  N  N145  1  0.864900  0.002100  0.742400  1.0  -0.3997
  N  N146  1  0.532600  0.053100  0.836500  1.0  0.147
  N  N147  1  0.479400  0.958000  0.797500  1.0  -0.3866
  N  N148  1  0.635100  0.997900  0.742400  1.0  -0.4006
  O  O149  1  0.853200  0.448400  0.914020  1.0  -0.588
  O  O150  1  0.777000  0.266100  0.874700  1.0  -0.6326
  O  O151  1  0.646800  0.551600  0.914020  1.0  -0.5868
  O  O152  1  0.723000  0.733900  0.874700  1.0  -0.633
  O  O153  1  0.353200  0.051600  0.414020  1.0  -0.587
  O  O154  1  0.277000  0.233900  0.374700  1.0  -0.6328
  O  O155  1  0.146800  0.948400  0.414020  1.0  -0.5877
  O  O156  1  0.223000  0.766100  0.374700  1.0  -0.6332
  O  O157  1  0.646800  0.948400  0.585980  1.0  -0.5873
  O  O158  1  0.723000  0.766100  0.625300  1.0  -0.6321
  O  O159  1  0.853200  0.051600  0.585980  1.0  -0.5863
  O  O160  1  0.777000  0.233900  0.625300  1.0  -0.6322
  O  O161  1  0.146800  0.551600  0.085980  1.0  -0.5864
  O  O162  1  0.223000  0.733900  0.125300  1.0  -0.6325
  O  O163  1  0.353200  0.448400  0.085980  1.0  -0.5873
  O  O164  1  0.277000  0.266100  0.125300  1.0  -0.6317
