# generated using pymatgen
data_NaC12(NO2)2
_symmetry_space_group_name_H-M   'P 1'
_cell_length_a   6.97100000
_cell_length_b   12.54000000
_cell_length_c   13.21200000
_cell_angle_alpha   112.62000000
_cell_angle_beta   96.10000000
_cell_angle_gamma   93.44000000
_symmetry_Int_Tables_number   1
_chemical_formula_structural   NaC12(NO2)2
_chemical_formula_sum   'Na2 C24 N4 O8'
_cell_volume   1053.64388693
_cell_formula_units_Z   2
loop_
 _symmetry_equiv_pos_site_id
 _symmetry_equiv_pos_as_xyz
  1  'x, y, z'
loop_
 _atom_site_type_symbol
 _atom_site_label
 _atom_site_symmetry_multiplicity
 _atom_site_fract_x
 _atom_site_fract_y
 _atom_site_fract_z
 _atom_site_occupancy
 _atom_site_charge
  Na  Na1  1  0.248600  0.539900  0.479500  1.0  0.9854
  Na  Na2  1  0.751400  0.460100  0.520500  1.0  0.9847
  C  C3  1  0.461100  0.485100  0.294500  1.0  0.7062
  C  C4  1  0.540600  0.490100  0.192400  1.0  -0.0244
  C  C5  1  0.860600  0.596800  0.280900  1.0  0.0074
  C  C6  1  0.825900  0.382200  0.195100  1.0  0.0003
  C  C7  1  0.787100  0.494100  0.077800  1.0  -0.0161
  C  C8  1  0.996900  0.503400  0.058500  1.0  0.0708
  C  C9  1  0.034200  0.265000  0.387500  1.0  0.7167
  C  C10  1  0.223600  0.243300  0.336500  1.0  -0.0026
  C  C11  1  0.432100  0.136100  0.209100  1.0  0.0217
  C  C12  1  0.219300  0.029800  0.281900  1.0  0.0049
  C  C13  1  0.079700  0.110300  0.149000  1.0  0.0048
  C  C14  1  0.081200  0.001400  0.043800  1.0  0.0416
  C  C15  1  0.538900  0.514900  0.705500  1.0  0.7065
  C  C16  1  0.459400  0.509900  0.807600  1.0  -0.0267
  C  C17  1  0.139400  0.403200  0.719100  1.0  0.0085
  C  C18  1  0.174100  0.617800  0.804900  1.0  0.0028
  C  C19  1  0.212900  0.505900  0.922200  1.0  -0.0186
  C  C20  1  0.003100  0.496600  0.941500  1.0  0.0722
  C  C21  1  0.965800  0.735000  0.612500  1.0  0.7173
  C  C22  1  0.776400  0.756700  0.663500  1.0  -0.0032
  C  C23  1  0.567900  0.863900  0.790900  1.0  0.0261
  C  C24  1  0.780700  0.970200  0.718100  1.0  0.0068
  C  C25  1  0.920300  0.889700  0.851000  1.0  -0.0018
  C  C26  1  0.918800  0.998600  0.956200  1.0  0.0415
  N  N27  1  0.756600  0.490700  0.188800  1.0  -0.1577
  N  N28  1  0.235800  0.127600  0.243500  1.0  -0.1048
  N  N29  1  0.243400  0.509300  0.811200  1.0  -0.1561
  N  N30  1  0.764200  0.872400  0.756500  1.0  -0.1071
  O  O31  1  0.281500  0.485900  0.287200  1.0  -0.5657
  O  O32  1  0.568200  0.478200  0.372900  1.0  -0.7055
  O  O33  1  0.025800  0.369500  0.445100  1.0  -0.5662
  O  O34  1  0.908000  0.184000  0.368200  1.0  -0.4185
  O  O35  1  0.718500  0.514100  0.712800  1.0  -0.5638
  O  O36  1  0.431800  0.521800  0.627100  1.0  -0.7061
  O  O37  1  0.974200  0.630500  0.554900  1.0  -0.5617
  O  O38  1  0.092000  0.816000  0.631800  1.0  -0.4196
