# generated using pymatgen
data_Zn(PO4)2
_symmetry_space_group_name_H-M   'P 1'
_cell_length_a   15.97200000
_cell_length_b   9.86300000
_cell_length_c   15.15600000
_cell_angle_alpha   90.00000000
_cell_angle_beta   90.00000000
_cell_angle_gamma   90.00000000
_symmetry_Int_Tables_number   1
_chemical_formula_structural   Zn(PO4)2
_chemical_formula_sum   'Zn8 P16 O64'
_cell_volume   2387.55250642
_cell_formula_units_Z   8
loop_
 _symmetry_equiv_pos_site_id
 _symmetry_equiv_pos_as_xyz
  1  'x, y, z'
loop_
 _atom_site_type_symbol
 _atom_site_label
 _atom_site_symmetry_multiplicity
 _atom_site_fract_x
 _atom_site_fract_y
 _atom_site_fract_z
 _atom_site_occupancy
 _atom_site_charge
  Zn  Zn1  1  0.000000  0.000000  0.999300  1.0  1.1636
  Zn  Zn2  1  0.000000  0.500000  0.499300  1.0  1.1636
  Zn  Zn3  1  0.500000  0.000000  0.499300  1.0  1.1636
  Zn  Zn4  1  0.500000  0.500000  0.999300  1.0  1.1636
  Zn  Zn5  1  0.250000  0.250000  0.249300  1.0  1.1636
  Zn  Zn6  1  0.250000  0.750000  0.749300  1.0  1.1636
  Zn  Zn7  1  0.750000  0.250000  0.749300  1.0  1.1636
  Zn  Zn8  1  0.750000  0.750000  0.249300  1.0  1.1636
  P  P9  1  0.870600  0.033400  0.843300  1.0  1.6089
  P  P10  1  0.870600  0.533400  0.343300  1.0  1.6089
  P  P11  1  0.370600  0.033400  0.343300  1.0  1.6089
  P  P12  1  0.370600  0.533400  0.843300  1.0  1.6089
  P  P13  1  0.129400  0.966600  0.843300  1.0  1.6115
  P  P14  1  0.129400  0.466600  0.343300  1.0  1.6115
  P  P15  1  0.629400  0.966600  0.343300  1.0  1.6115
  P  P16  1  0.629400  0.466600  0.843300  1.0  1.6115
  P  P17  1  0.120600  0.216600  0.093300  1.0  1.6081
  P  P18  1  0.120600  0.716600  0.593300  1.0  1.6081
  P  P19  1  0.620600  0.216600  0.593300  1.0  1.6081
  P  P20  1  0.620600  0.716600  0.093300  1.0  1.6081
  P  P21  1  0.379400  0.283400  0.093300  1.0  1.6102
  P  P22  1  0.379400  0.783400  0.593300  1.0  1.6102
  P  P23  1  0.879400  0.283400  0.593300  1.0  1.6102
  P  P24  1  0.879400  0.783400  0.093300  1.0  1.6102
  O  O25  1  0.914200  0.081600  0.927300  1.0  -0.6458
  O  O26  1  0.791300  0.107300  0.825300  1.0  -0.6119
  O  O27  1  0.929000  0.041400  0.762400  1.0  -0.4919
  O  O28  1  0.850800  0.877400  0.852400  1.0  -0.4383
  O  O29  1  0.914200  0.581600  0.427300  1.0  -0.6458
  O  O30  1  0.791300  0.607300  0.325300  1.0  -0.6119
  O  O31  1  0.929000  0.541400  0.262400  1.0  -0.4919
  O  O32  1  0.850800  0.377400  0.352400  1.0  -0.4383
  O  O33  1  0.414200  0.081600  0.427300  1.0  -0.6458
  O  O34  1  0.291300  0.107300  0.325300  1.0  -0.6119
  O  O35  1  0.429000  0.041400  0.262400  1.0  -0.4919
  O  O36  1  0.350800  0.877400  0.352400  1.0  -0.4383
  O  O37  1  0.414200  0.581600  0.927300  1.0  -0.6458
  O  O38  1  0.291300  0.607300  0.825300  1.0  -0.6119
  O  O39  1  0.429000  0.541400  0.762400  1.0  -0.4919
  O  O40  1  0.350800  0.377400  0.852400  1.0  -0.4383
  O  O41  1  0.085800  0.918400  0.927300  1.0  -0.6469
  O  O42  1  0.208700  0.892700  0.825300  1.0  -0.6137
  O  O43  1  0.071000  0.958600  0.762400  1.0  -0.4937
  O  O44  1  0.149200  0.122600  0.852400  1.0  -0.4406
  O  O45  1  0.085800  0.418400  0.427300  1.0  -0.6469
  O  O46  1  0.208700  0.392700  0.325300  1.0  -0.6137
  O  O47  1  0.071000  0.458600  0.262400  1.0  -0.4937
  O  O48  1  0.149200  0.622600  0.352400  1.0  -0.4406
  O  O49  1  0.585800  0.918400  0.427300  1.0  -0.6469
  O  O50  1  0.708700  0.892700  0.325300  1.0  -0.6137
  O  O51  1  0.571000  0.958600  0.262400  1.0  -0.4937
  O  O52  1  0.649200  0.122600  0.352400  1.0  -0.4406
  O  O53  1  0.585800  0.418400  0.927300  1.0  -0.6469
  O  O54  1  0.708700  0.392700  0.825300  1.0  -0.6137
  O  O55  1  0.571000  0.458600  0.762400  1.0  -0.4937
  O  O56  1  0.649200  0.622600  0.852400  1.0  -0.4406
  O  O57  1  0.164200  0.168400  0.177300  1.0  -0.6466
  O  O58  1  0.041300  0.142700  0.075300  1.0  -0.6122
  O  O59  1  0.179000  0.208600  0.012400  1.0  -0.4918
  O  O60  1  0.100800  0.372600  0.102400  1.0  -0.4408
  O  O61  1  0.164200  0.668400  0.677300  1.0  -0.6466
  O  O62  1  0.041300  0.642700  0.575300  1.0  -0.6122
  O  O63  1  0.179000  0.708600  0.512400  1.0  -0.4918
  O  O64  1  0.100800  0.872600  0.602400  1.0  -0.4408
  O  O65  1  0.664200  0.168400  0.677300  1.0  -0.6466
  O  O66  1  0.541300  0.142700  0.575300  1.0  -0.6122
  O  O67  1  0.679000  0.208600  0.512400  1.0  -0.4918
  O  O68  1  0.600800  0.372600  0.602400  1.0  -0.4408
  O  O69  1  0.664200  0.668400  0.177300  1.0  -0.6466
  O  O70  1  0.541300  0.642700  0.075300  1.0  -0.6122
  O  O71  1  0.679000  0.708600  0.012400  1.0  -0.4918
  O  O72  1  0.600800  0.872600  0.102400  1.0  -0.4408
  O  O73  1  0.335800  0.331600  0.177300  1.0  -0.6457
  O  O74  1  0.458700  0.357300  0.075300  1.0  -0.6132
  O  O75  1  0.321000  0.291400  0.012400  1.0  -0.4939
  O  O76  1  0.399200  0.127400  0.102400  1.0  -0.439
  O  O77  1  0.335800  0.831600  0.677300  1.0  -0.6457
  O  O78  1  0.458700  0.857300  0.575300  1.0  -0.6132
  O  O79  1  0.321000  0.791400  0.512400  1.0  -0.4939
  O  O80  1  0.399200  0.627400  0.602400  1.0  -0.439
  O  O81  1  0.835800  0.331600  0.677300  1.0  -0.6457
  O  O82  1  0.958700  0.357300  0.575300  1.0  -0.6132
  O  O83  1  0.821000  0.291400  0.512400  1.0  -0.4939
  O  O84  1  0.899200  0.127400  0.602400  1.0  -0.439
  O  O85  1  0.835800  0.831600  0.177300  1.0  -0.6457
  O  O86  1  0.958700  0.857300  0.075300  1.0  -0.6132
  O  O87  1  0.821000  0.791400  0.012400  1.0  -0.4939
  O  O88  1  0.899200  0.627400  0.102400  1.0  -0.439
