# generated using pymatgen
data_ZnP2H3O8
_symmetry_space_group_name_H-M   'P 1'
_cell_length_a   16.00600000
_cell_length_b   9.87300000
_cell_length_c   15.19800000
_cell_angle_alpha   90.00000000
_cell_angle_beta   90.00000000
_cell_angle_gamma   90.00000000
_symmetry_Int_Tables_number   1
_chemical_formula_structural   ZnP2H3O8
_chemical_formula_sum   'Zn8 P16 H24 O64'
_cell_volume   2401.69796312
_cell_formula_units_Z   8
loop_
 _symmetry_equiv_pos_site_id
 _symmetry_equiv_pos_as_xyz
  1  'x, y, z'
loop_
 _atom_site_type_symbol
 _atom_site_label
 _atom_site_symmetry_multiplicity
 _atom_site_fract_x
 _atom_site_fract_y
 _atom_site_fract_z
 _atom_site_occupancy
 _atom_site_charge
  Zn  Zn1  1  0.000000  0.500000  0.236810  1.0  1.0831
  Zn  Zn2  1  0.000000  0.000000  0.736810  1.0  1.0831
  Zn  Zn3  1  0.500000  0.500000  0.736810  1.0  1.0831
  Zn  Zn4  1  0.500000  0.000000  0.236810  1.0  1.0831
  Zn  Zn5  1  0.250000  0.750000  0.486810  1.0  1.0831
  Zn  Zn6  1  0.250000  0.250000  0.986810  1.0  1.0831
  Zn  Zn7  1  0.750000  0.750000  0.986810  1.0  1.0831
  Zn  Zn8  1  0.750000  0.250000  0.486810  1.0  1.0831
  P  P9  1  0.129320  0.533620  0.392340  1.0  1.7941
  P  P10  1  0.129320  0.033620  0.892340  1.0  1.7941
  P  P11  1  0.629320  0.533620  0.892340  1.0  1.7941
  P  P12  1  0.629320  0.033620  0.392340  1.0  1.7941
  P  P13  1  0.870680  0.466380  0.392340  1.0  1.7929
  P  P14  1  0.870680  0.966380  0.892340  1.0  1.7929
  P  P15  1  0.370680  0.466380  0.892340  1.0  1.7929
  P  P16  1  0.370680  0.966380  0.392340  1.0  1.7929
  P  P17  1  0.379320  0.716380  0.642340  1.0  1.7954
  P  P18  1  0.379320  0.216380  0.142340  1.0  1.7954
  P  P19  1  0.879320  0.716380  0.142340  1.0  1.7954
  P  P20  1  0.879320  0.216380  0.642340  1.0  1.7954
  P  P21  1  0.120680  0.783620  0.642340  1.0  1.7943
  P  P22  1  0.120680  0.283620  0.142340  1.0  1.7943
  P  P23  1  0.620680  0.783620  0.142340  1.0  1.7943
  P  P24  1  0.620680  0.283620  0.642340  1.0  1.7943
  H  H25  1  0.157000  0.354000  0.326800  1.0  0.3382
  H  H26  1  0.157000  0.854000  0.826800  1.0  0.3382
  H  H27  1  0.657000  0.354000  0.826800  1.0  0.3382
  H  H28  1  0.657000  0.854000  0.326800  1.0  0.3382
  H  H29  1  0.843000  0.646000  0.326800  1.0  0.3352
  H  H30  1  0.843000  0.146000  0.826800  1.0  0.3352
  H  H31  1  0.343000  0.646000  0.826800  1.0  0.3352
  H  H32  1  0.343000  0.146000  0.326800  1.0  0.3352
  H  H33  1  0.407000  0.896000  0.576800  1.0  0.3358
  H  H34  1  0.407000  0.396000  0.076800  1.0  0.3358
  H  H35  1  0.907000  0.896000  0.076800  1.0  0.3358
  H  H36  1  0.907000  0.396000  0.576800  1.0  0.3358
  H  H37  1  0.093000  0.604000  0.576800  1.0  0.338
  H  H38  1  0.093000  0.104000  0.076800  1.0  0.338
  H  H39  1  0.593000  0.604000  0.076800  1.0  0.338
  H  H40  1  0.593000  0.104000  0.576800  1.0  0.338
  H  H41  1  0.000000  0.500000  0.489000  1.0  0.4274
  H  H42  1  0.000000  0.000000  0.989000  1.0  0.4274
  H  H43  1  0.500000  0.500000  0.989000  1.0  0.4274
  H  H44  1  0.500000  0.000000  0.489000  1.0  0.4274
  H  H45  1  0.250000  0.750000  0.739000  1.0  0.4272
  H  H46  1  0.250000  0.250000  0.239000  1.0  0.4272
  H  H47  1  0.750000  0.750000  0.239000  1.0  0.4272
  H  H48  1  0.750000  0.250000  0.739000  1.0  0.4272
  O  O49  1  0.086510  0.580800  0.309740  1.0  -0.8079
  O  O50  1  0.208720  0.609100  0.410740  1.0  -0.8299
  O  O51  1  0.071370  0.542200  0.472680  1.0  -0.6446
  O  O52  1  0.148500  0.378500  0.383180  1.0  -0.6049
  O  O53  1  0.086510  0.080800  0.809740  1.0  -0.8079
  O  O54  1  0.208720  0.109100  0.910740  1.0  -0.8299
  O  O55  1  0.071370  0.042200  0.972680  1.0  -0.6446
  O  O56  1  0.148500  0.878500  0.883180  1.0  -0.6049
  O  O57  1  0.586510  0.580800  0.809740  1.0  -0.8079
  O  O58  1  0.708720  0.609100  0.910740  1.0  -0.8299
  O  O59  1  0.571370  0.542200  0.972680  1.0  -0.6446
  O  O60  1  0.648500  0.378500  0.883180  1.0  -0.6049
  O  O61  1  0.586510  0.080800  0.309740  1.0  -0.8079
  O  O62  1  0.708720  0.109100  0.410740  1.0  -0.8299
  O  O63  1  0.571370  0.042200  0.472680  1.0  -0.6446
  O  O64  1  0.648500  0.878500  0.383180  1.0  -0.6049
  O  O65  1  0.913490  0.419200  0.309740  1.0  -0.8077
  O  O66  1  0.791280  0.390900  0.410740  1.0  -0.8302
  O  O67  1  0.928630  0.457800  0.472680  1.0  -0.6431
  O  O68  1  0.851500  0.621500  0.383180  1.0  -0.6057
  O  O69  1  0.913490  0.919200  0.809740  1.0  -0.8077
  O  O70  1  0.791280  0.890900  0.910740  1.0  -0.8302
  O  O71  1  0.928630  0.957800  0.972680  1.0  -0.6431
  O  O72  1  0.851500  0.121500  0.883180  1.0  -0.6057
  O  O73  1  0.413490  0.419200  0.809740  1.0  -0.8077
  O  O74  1  0.291280  0.390900  0.910740  1.0  -0.8302
  O  O75  1  0.428630  0.457800  0.972680  1.0  -0.6431
  O  O76  1  0.351500  0.621500  0.883180  1.0  -0.6057
  O  O77  1  0.413490  0.919200  0.309740  1.0  -0.8077
  O  O78  1  0.291280  0.890900  0.410740  1.0  -0.8302
  O  O79  1  0.428630  0.957800  0.472680  1.0  -0.6431
  O  O80  1  0.351500  0.121500  0.383180  1.0  -0.6057
  O  O81  1  0.336510  0.669200  0.559740  1.0  -0.8078
  O  O82  1  0.458720  0.640900  0.660740  1.0  -0.8301
  O  O83  1  0.321370  0.707800  0.722680  1.0  -0.6436
  O  O84  1  0.398500  0.871500  0.633180  1.0  -0.6062
  O  O85  1  0.336510  0.169200  0.059740  1.0  -0.8078
  O  O86  1  0.458720  0.140900  0.160740  1.0  -0.8301
  O  O87  1  0.321370  0.207800  0.222680  1.0  -0.6436
  O  O88  1  0.398500  0.371500  0.133180  1.0  -0.6062
  O  O89  1  0.836510  0.669200  0.059740  1.0  -0.8078
  O  O90  1  0.958720  0.640900  0.160740  1.0  -0.8301
  O  O91  1  0.821370  0.707800  0.222680  1.0  -0.6436
  O  O92  1  0.898500  0.871500  0.133180  1.0  -0.6062
  O  O93  1  0.836510  0.169200  0.559740  1.0  -0.8078
  O  O94  1  0.958720  0.140900  0.660740  1.0  -0.8301
  O  O95  1  0.821370  0.207800  0.722680  1.0  -0.6436
  O  O96  1  0.898500  0.371500  0.633180  1.0  -0.6062
  O  O97  1  0.163490  0.830800  0.559740  1.0  -0.8084
  O  O98  1  0.041280  0.859100  0.660740  1.0  -0.8296
  O  O99  1  0.178630  0.792200  0.722680  1.0  -0.6418
  O  O100  1  0.101500  0.628500  0.633180  1.0  -0.6032
  O  O101  1  0.163490  0.330800  0.059740  1.0  -0.8084
  O  O102  1  0.041280  0.359100  0.160740  1.0  -0.8296
  O  O103  1  0.178630  0.292200  0.222680  1.0  -0.6418
  O  O104  1  0.101500  0.128500  0.133180  1.0  -0.6032
  O  O105  1  0.663490  0.830800  0.059740  1.0  -0.8084
  O  O106  1  0.541280  0.859100  0.160740  1.0  -0.8296
  O  O107  1  0.678630  0.792200  0.222680  1.0  -0.6418
  O  O108  1  0.601500  0.628500  0.133180  1.0  -0.6032
  O  O109  1  0.663490  0.330800  0.559740  1.0  -0.8084
  O  O110  1  0.541280  0.359100  0.660740  1.0  -0.8296
  O  O111  1  0.678630  0.292200  0.722680  1.0  -0.6418
  O  O112  1  0.601500  0.128500  0.633180  1.0  -0.6032
