# generated using pymatgen
data_CoH19C23(NO)3
_symmetry_space_group_name_H-M   'P 1'
_cell_length_a   11.43930000
_cell_length_b   24.67490000
_cell_length_c   20.32450000
_cell_angle_alpha   90.00000000
_cell_angle_beta   92.34710000
_cell_angle_gamma   90.00000000
_symmetry_Int_Tables_number   1
_chemical_formula_structural   CoH19C23(NO)3
_chemical_formula_sum   'Co8 H152 C184 N24 O24'
_cell_volume   5732.05335883
_cell_formula_units_Z   8
loop_
 _symmetry_equiv_pos_site_id
 _symmetry_equiv_pos_as_xyz
  1  'x, y, z'
loop_
 _atom_site_type_symbol
 _atom_site_label
 _atom_site_symmetry_multiplicity
 _atom_site_fract_x
 _atom_site_fract_y
 _atom_site_fract_z
 _atom_site_occupancy
 _atom_site_charge
  Co  Co1  1  0.444760  0.509370  0.263800  1.0  0.888
  Co  Co2  1  0.425150  0.591580  0.510200  1.0  0.7852
  Co  Co3  1  0.442960  0.587680  0.011720  1.0  0.8126
  Co  Co4  1  0.457710  0.505980  0.761120  1.0  0.8369
  Co  Co5  1  0.555240  0.009370  0.736200  1.0  0.8868
  Co  Co6  1  0.574850  0.091580  0.489800  1.0  0.7848
  Co  Co7  1  0.557040  0.087680  0.988280  1.0  0.8122
  Co  Co8  1  0.542290  0.005980  0.238880  1.0  0.8364
  H  H9  1  0.500000  0.605600  0.223000  1.0  0.2498
  H  H10  1  0.649900  0.520200  0.167600  1.0  0.0639
  H  H11  1  0.657100  0.496100  0.358800  1.0  0.0676
  H  H12  1  0.484400  0.656600  0.301600  1.0  0.0985
  H  H13  1  0.352700  0.446700  0.058500  1.0  0.1021
  H  H14  1  0.851700  0.515000  0.166200  1.0  0.1138
  H  H15  1  0.859500  0.491300  0.363100  1.0  0.1198
  H  H16  1  0.347000  0.498300  0.973700  1.0  0.1442
  H  H17  1  0.222900  0.608000  0.226300  1.0  0.0856
  H  H18  1  0.351200  0.720600  0.354600  1.0  0.1093
  H  H19  1  0.333000  0.497000  0.476000  1.0  0.1704
  H  H20  1  0.445900  0.366700  0.095800  1.0  0.1059
  H  H21  1  0.641500  0.480200  0.009400  1.0  0.0811
  H  H22  1  0.040400  0.651600  0.223900  1.0  0.0937
  H  H23  1  0.167500  0.763500  0.351700  1.0  0.0923
  H  H24  1  0.219000  0.568500  0.600600  1.0  0.068
  H  H25  1  0.211900  0.634000  0.424200  1.0  0.0694
  H  H26  1  0.392200  0.650000  0.641600  1.0  0.0634
  H  H27  1  0.476300  0.709800  0.471100  1.0  0.0785
  H  H28  1  0.366700  0.444400  0.554100  1.0  0.098
  H  H29  1  0.649800  0.573900  0.913800  1.0  0.0691
  H  H30  1  0.654100  0.607300  0.103700  1.0  0.069
  H  H31  1  0.365100  0.651800  0.131400  1.0  0.0677
  H  H32  1  0.550800  0.698800  0.983300  1.0  0.0709
  H  H33  1  0.607400  0.306300  0.096400  1.0  0.1054
  H  H34  1  0.801100  0.420400  0.009200  1.0  0.1037
  H  H35  1  0.037300  0.524800  0.360500  1.0  0.108
  H  H36  1  0.026800  0.477300  0.169900  1.0  0.1174
  H  H37  1  0.011600  0.727100  0.288800  1.0  0.1029
  H  H38  1  0.017600  0.574800  0.604300  1.0  0.1064
  H  H39  1  0.009800  0.639400  0.422100  1.0  0.1132
  H  H40  1  0.422600  0.733100  0.692300  1.0  0.1121
  H  H41  1  0.506600  0.794500  0.516900  1.0  0.1062
  H  H42  1  0.852100  0.581300  0.912700  1.0  0.1122
  H  H43  1  0.855900  0.615100  0.107600  1.0  0.1175
  H  H44  1  0.507000  0.653500  0.805500  1.0  0.0959
  H  H45  1  0.389600  0.734700  0.182600  1.0  0.1061
  H  H46  1  0.582500  0.782800  0.031100  1.0  0.1147
  H  H47  1  0.781500  0.334200  0.051100  1.0  0.0882
  H  H48  1  0.240200  0.525200  0.358900  1.0  0.0741
  H  H49  1  0.229200  0.477700  0.173800  1.0  0.0701
  H  H50  1  0.500000  0.376300  0.598500  1.0  0.1126
  H  H51  1  0.616500  0.491300  0.478200  1.0  0.088
  H  H52  1  0.514000  0.603000  0.726000  1.0  0.2273
  H  H53  1  0.684100  0.332800  0.593600  1.0  0.086
  H  H54  1  0.797200  0.448700  0.476100  1.0  0.0922
  H  H55  1  0.250100  0.605700  0.724400  1.0  0.0897
  H  H56  1  0.369400  0.715000  0.859400  1.0  0.097
  H  H57  1  0.835000  0.596200  0.411400  1.0  0.1129
  H  H58  1  0.837200  0.615600  0.609000  1.0  0.1197
  H  H59  1  0.660600  0.515700  0.664700  1.0  0.0619
  H  H60  1  0.671700  0.485200  0.853900  1.0  0.0608
  H  H61  1  0.398800  0.817100  0.723200  1.0  0.1039
  H  H62  1  0.602700  0.855900  0.572200  1.0  0.1116
  H  H63  1  0.829100  0.367900  0.530900  1.0  0.1064
  H  H64  1  0.035500  0.573500  0.106400  1.0  0.1071
  H  H65  1  0.025900  0.627800  0.918700  1.0  0.1127
  H  H66  1  0.068100  0.649600  0.719300  1.0  0.0905
  H  H67  1  0.190100  0.760300  0.851300  1.0  0.0932
  H  H68  1  0.499400  0.800500  0.239500  1.0  0.1111
  H  H69  1  0.521700  0.864800  0.058600  1.0  0.1038
  H  H70  1  0.633100  0.591100  0.411000  1.0  0.0643
  H  H71  1  0.635900  0.608100  0.603100  1.0  0.0715
  H  H72  1  0.861400  0.512200  0.662000  1.0  0.1116
  H  H73  1  0.873500  0.481200  0.857700  1.0  0.1205
  H  H74  1  0.439300  0.901100  0.768200  1.0  0.0643
  H  H75  1  0.633500  0.940500  0.621000  1.0  0.0643
  H  H76  1  0.237100  0.569100  0.103400  1.0  0.0726
  H  H77  1  0.229200  0.625500  0.922400  1.0  0.063
  H  H78  1  0.037200  0.725600  0.783600  1.0  0.0966
  H  H79  1  0.520500  0.887000  0.282500  1.0  0.0692
  H  H80  1  0.543500  0.948600  0.107100  1.0  0.0733
  H  H81  1  0.050600  0.519800  0.855400  1.0  0.1096
  H  H82  1  0.040600  0.474200  0.664400  1.0  0.1142
  H  H83  1  0.251800  0.521700  0.853200  1.0  0.0687
  H  H84  1  0.241900  0.476500  0.667800  1.0  0.0686
  H  H85  1  0.500000  0.105600  0.777000  1.0  0.2506
  H  H86  1  0.350100  0.020200  0.832400  1.0  0.0642
  H  H87  1  0.342900  0.996100  0.641200  1.0  0.0673
  H  H88  1  0.515600  0.156600  0.698400  1.0  0.0975
  H  H89  1  0.647300  0.946700  0.941500  1.0  0.103
  H  H90  1  0.148300  0.015000  0.833800  1.0  0.1141
  H  H91  1  0.140500  0.991300  0.636900  1.0  0.1191
  H  H92  1  0.653000  0.998300  0.026300  1.0  0.1444
  H  H93  1  0.777100  0.108000  0.773700  1.0  0.0848
  H  H94  1  0.648800  0.220600  0.645400  1.0  0.109
  H  H95  1  0.667000  0.997000  0.524000  1.0  0.17
  H  H96  1  0.554100  0.866700  0.904200  1.0  0.1057
  H  H97  1  0.358500  0.980200  0.990600  1.0  0.0809
  H  H98  1  0.959600  0.151600  0.776100  1.0  0.0951
  H  H99  1  0.832500  0.263500  0.648300  1.0  0.093
  H  H100  1  0.781000  0.068500  0.399400  1.0  0.0676
  H  H101  1  0.788100  0.134000  0.575800  1.0  0.07
  H  H102  1  0.607800  0.150000  0.358400  1.0  0.0635
  H  H103  1  0.523700  0.209800  0.528900  1.0  0.0782
  H  H104  1  0.633300  0.944400  0.445900  1.0  0.0987
  H  H105  1  0.350200  0.073900  0.086200  1.0  0.0693
  H  H106  1  0.345900  0.107300  0.896300  1.0  0.0703
  H  H107  1  0.634900  0.151800  0.868600  1.0  0.0678
  H  H108  1  0.449200  0.198800  0.016700  1.0  0.0708
  H  H109  1  0.392600  0.806300  0.903600  1.0  0.105
  H  H110  1  0.198900  0.920400  0.990800  1.0  0.1048
  H  H111  1  0.962700  0.024800  0.639500  1.0  0.1084
  H  H112  1  0.973200  0.977300  0.830100  1.0  0.1188
  H  H113  1  0.988400  0.227100  0.711200  1.0  0.1034
  H  H114  1  0.982400  0.074800  0.395700  1.0  0.1062
  H  H115  1  0.990200  0.139400  0.577900  1.0  0.1129
  H  H116  1  0.577400  0.233100  0.307700  1.0  0.1122
  H  H117  1  0.493400  0.294500  0.483100  1.0  0.1066
  H  H118  1  0.147900  0.081300  0.087300  1.0  0.1125
  H  H119  1  0.144100  0.115100  0.892400  1.0  0.1179
  H  H120  1  0.493000  0.153500  0.194500  1.0  0.0957
  H  H121  1  0.610400  0.234700  0.817400  1.0  0.1067
  H  H122  1  0.417500  0.282800  0.968900  1.0  0.1148
  H  H123  1  0.218500  0.834200  0.948900  1.0  0.0895
  H  H124  1  0.759800  0.025200  0.641100  1.0  0.0735
  H  H125  1  0.770800  0.977700  0.826200  1.0  0.0698
  H  H126  1  0.500000  0.876300  0.401500  1.0  0.1124
  H  H127  1  0.383500  0.991300  0.521800  1.0  0.0878
  H  H128  1  0.486000  0.103000  0.274000  1.0  0.228
  H  H129  1  0.315900  0.832800  0.406400  1.0  0.0867
  H  H130  1  0.202800  0.948700  0.523900  1.0  0.0913
  H  H131  1  0.749900  0.105700  0.275600  1.0  0.0895
  H  H132  1  0.630600  0.215000  0.140600  1.0  0.0972
  H  H133  1  0.165000  0.096200  0.588600  1.0  0.1131
  H  H134  1  0.162800  0.115600  0.391000  1.0  0.1204
  H  H135  1  0.339400  0.015700  0.335300  1.0  0.0629
  H  H136  1  0.328300  0.985200  0.146100  1.0  0.0613
  H  H137  1  0.601200  0.317100  0.276800  1.0  0.1045
  H  H138  1  0.397300  0.355900  0.427800  1.0  0.1119
  H  H139  1  0.170900  0.867900  0.469100  1.0  0.1062
  H  H140  1  0.964500  0.073500  0.893600  1.0  0.1072
  H  H141  1  0.974100  0.127800  0.081300  1.0  0.1134
  H  H142  1  0.931900  0.149600  0.280700  1.0  0.0907
  H  H143  1  0.809900  0.260300  0.148700  1.0  0.0926
  H  H144  1  0.500600  0.300500  0.760500  1.0  0.1103
  H  H145  1  0.478300  0.364800  0.941400  1.0  0.1037
  H  H146  1  0.366900  0.091100  0.589000  1.0  0.0642
  H  H147  1  0.364100  0.108100  0.396900  1.0  0.0717
  H  H148  1  0.138600  0.012200  0.338000  1.0  0.112
  H  H149  1  0.126500  0.981200  0.142300  1.0  0.1201
  H  H150  1  0.560700  0.401100  0.231800  1.0  0.0645
  H  H151  1  0.366500  0.440500  0.379000  1.0  0.0644
  H  H152  1  0.762900  0.069100  0.896600  1.0  0.071
  H  H153  1  0.770800  0.125500  0.077600  1.0  0.0638
  H  H154  1  0.962800  0.225600  0.216400  1.0  0.0966
  H  H155  1  0.479500  0.387000  0.717500  1.0  0.0687
  H  H156  1  0.456500  0.448600  0.892900  1.0  0.0731
  H  H157  1  0.949400  0.019800  0.144600  1.0  0.1098
  H  H158  1  0.959400  0.974200  0.335600  1.0  0.1147
  H  H159  1  0.748200  0.021700  0.146800  1.0  0.0685
  H  H160  1  0.758100  0.976500  0.332200  1.0  0.068
  C  C161  1  0.427300  0.594310  0.360990  1.0  0.6548
  C  C162  1  0.441700  0.505250  0.114680  1.0  0.6307
  C  C163  1  0.693100  0.514200  0.207900  1.0  0.1676
  C  C164  1  0.697400  0.500300  0.319200  1.0  0.1566
  C  C165  1  0.420300  0.629000  0.298340  1.0  0.0623
  C  C166  1  0.426300  0.468170  0.054600  1.0  0.0608
  C  C167  1  0.813700  0.511400  0.206700  1.0  -0.1967
  C  C168  1  0.818300  0.497410  0.322200  1.0  -0.2091
  C  C169  1  0.304000  0.658840  0.291900  1.0  0.0013
  C  C170  1  0.528800  0.429410  0.052700  1.0  0.0636
  C  C171  1  0.878700  0.503510  0.264600  1.0  0.0371
  C  C172  1  0.212100  0.639300  0.252600  1.0  -0.1098
  C  C173  1  0.288100  0.705900  0.328500  1.0  -0.1249
  C  C174  1  0.517800  0.377800  0.078300  1.0  -0.0668
  C  C175  1  0.633900  0.444800  0.027100  1.0  -0.1017
  C  C176  1  0.009100  0.502180  0.265400  1.0  0.0749
  C  C177  1  0.103000  0.665400  0.251200  1.0  -0.1121
  C  C178  1  0.178500  0.731500  0.326700  1.0  -0.1163
  C  C179  1  0.176100  0.582600  0.563500  1.0  0.1703
  C  C180  1  0.171600  0.620460  0.460600  1.0  0.1655
  C  C181  1  0.442700  0.506590  0.610850  1.0  0.6228
  C  C182  1  0.417300  0.679630  0.615900  1.0  0.1585
  C  C183  1  0.465800  0.714400  0.516800  1.0  0.155
  C  C184  1  0.432000  0.470850  0.548900  1.0  0.0723
  C  C185  1  0.692300  0.581800  0.953800  1.0  0.1503
  C  C186  1  0.694900  0.601190  0.064600  1.0  0.1429
  C  C187  1  0.446900  0.589780  0.862300  1.0  0.6391
  C  C188  1  0.410200  0.678770  0.110900  1.0  0.1647
  C  C189  1  0.518600  0.706200  0.024700  1.0  0.1603
  C  C190  1  0.613800  0.341600  0.078400  1.0  -0.1627
  C  C191  1  0.729200  0.409300  0.026700  1.0  -0.1502
  C  C192  1  0.074700  0.515670  0.321100  1.0  -0.1919
  C  C193  1  0.068800  0.487590  0.209300  1.0  -0.2196
  C  C194  1  0.086400  0.710300  0.288700  1.0  -0.0858
  C  C195  1  0.055300  0.585900  0.565800  1.0  -0.1854
  C  C196  1  0.050800  0.624090  0.459200  1.0  -0.2211
  C  C197  1  0.435100  0.729320  0.646600  1.0  -0.1935
  C  C198  1  0.484500  0.765100  0.544000  1.0  -0.2175
  C  C199  1  0.544300  0.439720  0.541200  1.0  0.0343
  C  C200  1  0.813400  0.586100  0.952700  1.0  -0.2093
  C  C201  1  0.815500  0.606020  0.067400  1.0  -0.2016
  C  C202  1  0.443200  0.625910  0.800500  1.0  0.0664
  C  C203  1  0.424300  0.728130  0.141700  1.0  -0.2133
  C  C204  1  0.537200  0.756500  0.052700  1.0  -0.2173
  C  C205  1  0.717300  0.358600  0.051800  1.0  -0.1244
  C  C206  1  0.196500  0.515900  0.319800  1.0  0.1409
  C  C207  1  0.189600  0.488420  0.211900  1.0  0.1562
  C  C208  1  0.990000  0.605150  0.512500  1.0  0.0943
  C  C209  1  0.471200  0.773260  0.610600  1.0  0.0424
  C  C210  1  0.560600  0.391700  0.573900  1.0  -0.176
  C  C211  1  0.630100  0.459300  0.503300  1.0  -0.1178
  C  C212  1  0.877100  0.597380  0.010500  1.0  0.0484
  C  C213  1  0.326900  0.655400  0.792690  1.0  0.0247
  C  C214  1  0.489600  0.768450  0.112500  1.0  0.0698
  C  C215  1  0.860000  0.604890  0.511000  1.0  0.0763
  C  C216  1  0.494500  0.826630  0.641500  1.0  0.068
  C  C217  1  0.670300  0.365600  0.570100  1.0  -0.0859
  C  C218  1  0.736900  0.433300  0.500900  1.0  -0.1005
  C  C219  1  0.007100  0.599460  0.011500  1.0  0.0821
  C  C220  1  0.237900  0.636710  0.751100  1.0  -0.122
  C  C221  1  0.308500  0.701700  0.830600  1.0  -0.1101
  C  C222  1  0.506700  0.822680  0.143500  1.0  0.0872
  C  C223  1  0.796000  0.598330  0.451700  1.0  -0.2199
  C  C224  1  0.797500  0.609500  0.567700  1.0  -0.2301
  C  C225  1  0.704600  0.508800  0.704500  1.0  0.1719
  C  C226  1  0.711300  0.491170  0.814400  1.0  0.1701
  C  C227  1  0.447600  0.841640  0.700900  1.0  -0.2071
  C  C228  1  0.566600  0.864400  0.612200  1.0  -0.1899
  C  C229  1  0.756400  0.386300  0.533500  1.0  -0.129
  C  C230  1  0.073200  0.583200  0.067300  1.0  -0.2103
  C  C231  1  0.067300  0.615550  0.957300  1.0  -0.2108
  C  C232  1  0.129400  0.663000  0.747700  1.0  -0.1067
  C  C233  1  0.201600  0.728400  0.826300  1.0  -0.1273
  C  C234  1  0.507800  0.830500  0.210700  1.0  -0.2267
  C  C235  1  0.521000  0.868000  0.105200  1.0  -0.2147
  C  C236  1  0.675300  0.594930  0.452000  1.0  0.1355
  C  C237  1  0.677100  0.605100  0.563600  1.0  0.16
  C  C238  1  0.824500  0.507000  0.702500  1.0  -0.1984
  C  C239  1  0.831900  0.488750  0.817300  1.0  -0.2247
  C  C240  1  0.471700  0.891930  0.727300  1.0  0.1625
  C  C241  1  0.585400  0.914900  0.641900  1.0  0.1592
  C  C242  1  0.193700  0.581310  0.065360  1.0  0.1605
  C  C243  1  0.189100  0.613650  0.959800  1.0  0.159
  C  C244  1  0.111300  0.708200  0.785500  1.0  -0.0914
  C  C245  1  0.521200  0.882500  0.236100  1.0  0.1631
  C  C246  1  0.534300  0.918000  0.134700  1.0  0.1569
  C  C247  1  0.891700  0.497600  0.759800  1.0  0.0758
  C  C248  1  0.021500  0.497920  0.760100  1.0  0.0895
  C  C249  1  0.087800  0.511330  0.815700  1.0  -0.2104
  C  C250  1  0.082200  0.484500  0.703800  1.0  -0.2104
  C  C251  1  0.208200  0.512420  0.814000  1.0  0.1651
  C  C252  1  0.202300  0.486300  0.706300  1.0  0.1684
  C  C253  1  0.572700  0.094310  0.639010  1.0  0.6567
  C  C254  1  0.558300  0.005250  0.885320  1.0  0.6326
  C  C255  1  0.306900  0.014200  0.792100  1.0  0.1669
  C  C256  1  0.302600  0.000300  0.680800  1.0  0.1554
  C  C257  1  0.579700  0.129000  0.701660  1.0  0.062
  C  C258  1  0.573700  0.968170  0.945400  1.0  0.0618
  C  C259  1  0.186300  0.011400  0.793300  1.0  -0.1965
  C  C260  1  0.181700  0.997410  0.677800  1.0  -0.2081
  C  C261  1  0.696000  0.158840  0.708100  1.0  0.0013
  C  C262  1  0.471200  0.929410  0.947300  1.0  0.064
  C  C263  1  0.121300  0.003510  0.735400  1.0  0.0364
  C  C264  1  0.787900  0.139300  0.747400  1.0  -0.1118
  C  C265  1  0.711900  0.205900  0.671500  1.0  -0.1242
  C  C266  1  0.482200  0.877800  0.921700  1.0  -0.0691
  C  C267  1  0.366100  0.944800  0.972900  1.0  -0.1011
  C  C268  1  0.990900  0.002180  0.734600  1.0  0.0757
  C  C269  1  0.897000  0.165400  0.748800  1.0  -0.1107
  C  C270  1  0.821500  0.231500  0.673300  1.0  -0.1152
  C  C271  1  0.823900  0.082600  0.436500  1.0  0.1713
  C  C272  1  0.828400  0.120460  0.539400  1.0  0.1655
  C  C273  1  0.557300  0.006590  0.389150  1.0  0.6242
  C  C274  1  0.582700  0.179630  0.384100  1.0  0.158
  C  C275  1  0.534200  0.214400  0.483200  1.0  0.1539
  C  C276  1  0.568000  0.970850  0.451100  1.0  0.0731
  C  C277  1  0.307700  0.081800  0.046200  1.0  0.1505
  C  C278  1  0.305100  0.101190  0.935400  1.0  0.1427
  C  C279  1  0.553100  0.089780  0.137700  1.0  0.6404
  C  C280  1  0.589800  0.178770  0.889100  1.0  0.1639
  C  C281  1  0.481400  0.206200  0.975300  1.0  0.161
  C  C282  1  0.386200  0.841600  0.921600  1.0  -0.164
  C  C283  1  0.270800  0.909300  0.973300  1.0  -0.1505
  C  C284  1  0.925300  0.015670  0.678900  1.0  -0.1925
  C  C285  1  0.931200  0.987590  0.790700  1.0  -0.2206
  C  C286  1  0.913600  0.210300  0.711300  1.0  -0.0842
  C  C287  1  0.944700  0.085900  0.434200  1.0  -0.186
  C  C288  1  0.949200  0.124090  0.540800  1.0  -0.2207
  C  C289  1  0.564900  0.229320  0.353400  1.0  -0.1923
  C  C290  1  0.515500  0.265100  0.456000  1.0  -0.22
  C  C291  1  0.455700  0.939720  0.458800  1.0  0.0345
  C  C292  1  0.186600  0.086100  0.047300  1.0  -0.2107
  C  C293  1  0.184500  0.106020  0.932600  1.0  -0.2014
  C  C294  1  0.556800  0.125910  0.199500  1.0  0.0661
  C  C295  1  0.575700  0.228130  0.858300  1.0  -0.2131
  C  C296  1  0.462800  0.256500  0.947300  1.0  -0.2166
  C  C297  1  0.282700  0.858600  0.948200  1.0  -0.1255
  C  C298  1  0.803500  0.015900  0.680200  1.0  0.1407
  C  C299  1  0.810400  0.988420  0.788100  1.0  0.1567
  C  C300  1  0.010000  0.105150  0.487500  1.0  0.0947
  C  C301  1  0.528800  0.273260  0.389400  1.0  0.0427
  C  C302  1  0.439400  0.891700  0.426100  1.0  -0.1774
  C  C303  1  0.369900  0.959300  0.496700  1.0  -0.1177
  C  C304  1  0.122900  0.097380  0.989500  1.0  0.0479
  C  C305  1  0.673100  0.155400  0.207310  1.0  0.0248
  C  C306  1  0.510400  0.268450  0.887500  1.0  0.0689
  C  C307  1  0.140000  0.104890  0.489000  1.0  0.0765
  C  C308  1  0.505500  0.326630  0.358500  1.0  0.0686
  C  C309  1  0.329700  0.865600  0.429900  1.0  -0.0864
  C  C310  1  0.263100  0.933300  0.499100  1.0  -0.1031
  C  C311  1  0.992900  0.099460  0.988500  1.0  0.0811
  C  C312  1  0.762100  0.136710  0.248900  1.0  -0.1231
  C  C313  1  0.691500  0.201700  0.169400  1.0  -0.1084
  C  C314  1  0.493300  0.322680  0.856500  1.0  0.0882
  C  C315  1  0.204000  0.098330  0.548300  1.0  -0.2211
  C  C316  1  0.202500  0.109500  0.432300  1.0  -0.2291
  C  C317  1  0.295400  0.008800  0.295500  1.0  0.1719
  C  C318  1  0.288700  0.991170  0.185600  1.0  0.1687
  C  C319  1  0.552400  0.341640  0.299100  1.0  -0.2062
  C  C320  1  0.433400  0.364400  0.387800  1.0  -0.1899
  C  C321  1  0.243600  0.886300  0.466500  1.0  -0.1294
  C  C322  1  0.926800  0.083200  0.932700  1.0  -0.2104
  C  C323  1  0.932700  0.115550  0.042700  1.0  -0.2108
  C  C324  1  0.870600  0.163000  0.252300  1.0  -0.1072
  C  C325  1  0.798400  0.228400  0.173700  1.0  -0.1284
  C  C326  1  0.492200  0.330500  0.789300  1.0  -0.2272
  C  C327  1  0.479000  0.368000  0.894800  1.0  -0.2139
  C  C328  1  0.324700  0.094930  0.548000  1.0  0.1353
  C  C329  1  0.322900  0.105100  0.436400  1.0  0.1594
  C  C330  1  0.175500  0.007000  0.297500  1.0  -0.1997
  C  C331  1  0.168100  0.988750  0.182700  1.0  -0.2237
  C  C332  1  0.528300  0.391930  0.272700  1.0  0.1617
  C  C333  1  0.414600  0.414900  0.358100  1.0  0.1599
  C  C334  1  0.806300  0.081310  0.934640  1.0  0.1614
  C  C335  1  0.810900  0.113650  0.040200  1.0  0.1594
  C  C336  1  0.888700  0.208200  0.214500  1.0  -0.0919
  C  C337  1  0.478800  0.382500  0.763900  1.0  0.1615
  C  C338  1  0.465700  0.418000  0.865300  1.0  0.1566
  C  C339  1  0.108300  0.997600  0.240200  1.0  0.074
  C  C340  1  0.978500  0.997920  0.239900  1.0  0.0904
  C  C341  1  0.912200  0.011330  0.184300  1.0  -0.2093
  C  C342  1  0.917800  0.984500  0.296200  1.0  -0.2122
  C  C343  1  0.791800  0.012420  0.186000  1.0  0.1655
  C  C344  1  0.797700  0.986300  0.293700  1.0  0.1691
  N  N345  1  0.634200  0.508850  0.262940  1.0  -0.3353
  N  N346  1  0.538700  0.928520  0.698350  1.0  -0.3299
  N  N347  1  0.254700  0.503660  0.265880  1.0  -0.3323
  N  N348  1  0.234900  0.598550  0.511470  1.0  -0.3445
  N  N349  1  0.433400  0.671160  0.552270  1.0  -0.3371
  N  N350  1  0.615000  0.596770  0.506970  1.0  -0.3324
  N  N351  1  0.632500  0.588250  0.009060  1.0  -0.3393
  N  N352  1  0.457000  0.667060  0.053360  1.0  -0.3305
  N  N353  1  0.252400  0.595860  0.012490  1.0  -0.3392
  N  N354  1  0.646800  0.501380  0.759680  1.0  -0.3265
  N  N355  1  0.535000  0.926050  0.199230  1.0  -0.3434
  N  N356  1  0.267000  0.501090  0.759980  1.0  -0.3418
  N  N357  1  0.365800  0.008850  0.737060  1.0  -0.3349
  N  N358  1  0.461300  0.428520  0.301650  1.0  -0.3306
  N  N359  1  0.745300  0.003660  0.734120  1.0  -0.3324
  N  N360  1  0.765100  0.098550  0.488530  1.0  -0.344
  N  N361  1  0.566600  0.171160  0.447730  1.0  -0.3369
  N  N362  1  0.385000  0.096770  0.493030  1.0  -0.3319
  N  N363  1  0.367500  0.088250  0.990940  1.0  -0.3399
  N  N364  1  0.543000  0.167060  0.946640  1.0  -0.3286
  N  N365  1  0.747600  0.095860  0.987510  1.0  -0.3371
  N  N366  1  0.353200  0.001380  0.240320  1.0  -0.3267
  N  N367  1  0.465000  0.426050  0.800770  1.0  -0.3451
  N  N368  1  0.733000  0.001090  0.240020  1.0  -0.3414
  O  O369  1  0.447600  0.544630  0.356280  1.0  -0.5815
  O  O370  1  0.440300  0.481490  0.169430  1.0  -0.5976
  O  O371  1  0.439200  0.595710  0.243040  1.0  -0.5676
  O  O372  1  0.416500  0.619510  0.414810  1.0  -0.6018
  O  O373  1  0.454300  0.555150  0.106250  1.0  -0.5789
  O  O374  1  0.416100  0.500880  0.996550  1.0  -0.5628
  O  O375  1  0.440600  0.556930  0.604270  1.0  -0.5685
  O  O376  1  0.404200  0.504760  0.493310  1.0  -0.5687
  O  O377  1  0.437100  0.614010  0.916060  1.0  -0.5988
  O  O378  1  0.451900  0.481450  0.664620  1.0  -0.5966
  O  O379  1  0.460400  0.539540  0.855340  1.0  -0.5867
  O  O380  1  0.465200  0.592940  0.744700  1.0  -0.5564
  O  O381  1  0.552400  0.044630  0.643720  1.0  -0.5817
  O  O382  1  0.559700  0.981490  0.830570  1.0  -0.5969
  O  O383  1  0.560800  0.095710  0.756960  1.0  -0.5685
  O  O384  1  0.583500  0.119510  0.585190  1.0  -0.6013
  O  O385  1  0.545700  0.055150  0.893750  1.0  -0.5787
  O  O386  1  0.583900  0.000880  0.003450  1.0  -0.5651
  O  O387  1  0.559400  0.056930  0.395730  1.0  -0.5688
  O  O388  1  0.595800  0.004760  0.506690  1.0  -0.5688
  O  O389  1  0.562900  0.114010  0.083940  1.0  -0.5993
  O  O390  1  0.548100  0.981450  0.335380  1.0  -0.596
  O  O391  1  0.539600  0.039540  0.144660  1.0  -0.5855
  O  O392  1  0.534800  0.092940  0.255300  1.0  -0.5573
