# generated using pymatgen
data_CoH19C23(NO)3
_symmetry_space_group_name_H-M   'P 1'
_cell_length_a   10.24160000
_cell_length_b   24.95600000
_cell_length_c   11.44530000
_cell_angle_alpha   90.00000000
_cell_angle_beta   91.10600000
_cell_angle_gamma   90.00000000
_symmetry_Int_Tables_number   1
_chemical_formula_structural   CoH19C23(NO)3
_chemical_formula_sum   'Co4 H76 C92 N12 O12'
_cell_volume   2924.75201819
_cell_formula_units_Z   4
loop_
 _symmetry_equiv_pos_site_id
 _symmetry_equiv_pos_as_xyz
  1  'x, y, z'
loop_
 _atom_site_type_symbol
 _atom_site_label
 _atom_site_symmetry_multiplicity
 _atom_site_fract_x
 _atom_site_fract_y
 _atom_site_fract_z
 _atom_site_occupancy
 _atom_site_charge
  Co  Co1  1  0.549130  0.861450  0.452440  1.0  0.8807
  Co  Co2  1  0.049840  0.941290  0.435740  1.0  0.8991
  Co  Co3  1  0.450870  0.361450  0.547560  1.0  0.8803
  Co  Co4  1  0.950160  0.441290  0.564260  1.0  0.8986
  H  H5  1  0.867300  0.971100  0.642300  1.0  0.0752
  H  H6  1  0.349900  0.857700  0.240100  1.0  0.0704
  H  H7  1  0.238200  0.925200  0.658500  1.0  0.0775
  H  H8  1  0.727200  0.883200  0.677000  1.0  0.0671
  H  H9  1  0.960000  0.835000  0.382000  1.0  0.1681
  H  H10  1  0.467000  0.957000  0.510000  1.0  0.2414
  H  H11  1  0.242400  0.930300  0.856200  1.0  0.115
  H  H12  1  0.729500  0.880000  0.871800  1.0  0.1042
  H  H13  1  0.346900  0.856500  0.039700  1.0  0.0948
  H  H14  1  0.141100  0.799000  0.368500  1.0  0.0959
  H  H15  1  0.864600  0.973700  0.843400  1.0  0.1097
  H  H16  1  0.730700  0.843000  0.250800  1.0  0.0799
  H  H17  1  0.691500  0.501200  0.544900  1.0  0.0843
  H  H18  1  0.237800  0.958000  0.231900  1.0  0.0604
  H  H19  1  0.039300  0.558300  0.590700  1.0  0.0771
  H  H20  1  0.860600  0.936700  0.224500  1.0  0.0661
  H  H21  1  0.245300  0.964400  0.035100  1.0  0.1138
  H  H22  1  0.739800  0.838000  0.052800  1.0  0.0998
  H  H23  1  0.373400  0.823400  0.657000  1.0  0.0643
  H  H24  1  0.853100  0.941500  0.024600  1.0  0.111
  H  H25  1  0.361500  0.820000  0.857200  1.0  0.1134
  H  H26  1  0.639200  0.008100  0.492200  1.0  0.0939
  H  H27  1  0.966200  0.643200  0.548400  1.0  0.102
  H  H28  1  0.894100  0.719000  0.545700  1.0  0.1162
  H  H29  1  0.605700  0.584300  0.515400  1.0  0.1154
  H  H30  1  0.541100  0.658600  0.460700  1.0  0.1112
  H  H31  1  0.494300  0.954700  0.231100  1.0  0.0897
  H  H32  1  0.014100  0.837900  0.647300  1.0  0.1119
  H  H33  1  0.233500  0.724700  0.476400  1.0  0.1266
  H  H34  1  0.248400  0.678000  0.657100  1.0  0.078
  H  H35  1  0.754600  0.065800  0.349000  1.0  0.0995
  H  H36  1  0.765700  0.099900  0.163300  1.0  0.09
  H  H37  1  0.654400  0.059500  0.006400  1.0  0.1065
  H  H38  1  0.507200  0.990000  0.045300  1.0  0.0937
  H  H39  1  0.038400  0.786100  0.817200  1.0  0.0883
  H  H40  1  0.809500  0.805000  0.509400  1.0  0.0775
  H  H41  1  0.470100  0.745500  0.417800  1.0  0.069
  H  H42  1  0.154000  0.710000  0.825500  1.0  0.1091
  H  H43  1  0.132700  0.471100  0.357700  1.0  0.076
  H  H44  1  0.650100  0.357700  0.759900  1.0  0.0708
  H  H45  1  0.761800  0.425200  0.341500  1.0  0.0778
  H  H46  1  0.272800  0.383200  0.323000  1.0  0.0671
  H  H47  1  0.040000  0.335000  0.618000  1.0  0.1703
  H  H48  1  0.533000  0.457000  0.490000  1.0  0.2389
  H  H49  1  0.757600  0.430300  0.143800  1.0  0.1146
  H  H50  1  0.270500  0.380000  0.128200  1.0  0.1038
  H  H51  1  0.653100  0.356500  0.960300  1.0  0.0957
  H  H52  1  0.858900  0.299000  0.631500  1.0  0.0977
  H  H53  1  0.135400  0.473700  0.156600  1.0  0.1099
  H  H54  1  0.269300  0.343000  0.749200  1.0  0.0803
  H  H55  1  0.308500  0.001200  0.455100  1.0  0.0839
  H  H56  1  0.762200  0.458000  0.768100  1.0  0.0602
  H  H57  1  0.960700  0.058300  0.409300  1.0  0.0774
  H  H58  1  0.139400  0.436700  0.775500  1.0  0.0663
  H  H59  1  0.754700  0.464400  0.964900  1.0  0.1137
  H  H60  1  0.260200  0.338000  0.947200  1.0  0.0999
  H  H61  1  0.626600  0.323400  0.343000  1.0  0.0656
  H  H62  1  0.146900  0.441500  0.975400  1.0  0.1111
  H  H63  1  0.638500  0.320000  0.142800  1.0  0.1135
  H  H64  1  0.360800  0.508100  0.507800  1.0  0.0942
  H  H65  1  0.033800  0.143200  0.451600  1.0  0.1015
  H  H66  1  0.105900  0.219000  0.454300  1.0  0.1168
  H  H67  1  0.394300  0.084300  0.484600  1.0  0.1147
  H  H68  1  0.458900  0.158600  0.539300  1.0  0.112
  H  H69  1  0.505700  0.454700  0.768900  1.0  0.0898
  H  H70  1  0.985900  0.337900  0.352700  1.0  0.1121
  H  H71  1  0.766500  0.224700  0.523600  1.0  0.126
  H  H72  1  0.751600  0.178000  0.342900  1.0  0.0774
  H  H73  1  0.245400  0.565800  0.651000  1.0  0.0999
  H  H74  1  0.234300  0.599900  0.836700  1.0  0.0906
  H  H75  1  0.345600  0.559500  0.993600  1.0  0.1074
  H  H76  1  0.492800  0.490000  0.954700  1.0  0.0955
  H  H77  1  0.961600  0.286100  0.182800  1.0  0.0891
  H  H78  1  0.190500  0.305000  0.490600  1.0  0.0778
  H  H79  1  0.529900  0.245500  0.582200  1.0  0.0696
  H  H80  1  0.846000  0.210000  0.174500  1.0  0.1084
  C  C81  1  0.252500  0.859500  0.443800  1.0  0.6487
  C  C82  1  0.944100  0.960900  0.684600  1.0  0.138
  C  C83  1  0.430400  0.855100  0.200700  1.0  0.14
  C  C84  1  0.159500  0.934900  0.695800  1.0  0.1679
  C  C85  1  0.650300  0.870900  0.713700  1.0  0.1661
  C  C86  1  0.546900  0.849700  0.891200  1.0  0.0848
  C  C87  1  0.051900  0.951100  0.002900  1.0  0.0733
  C  C88  1  0.163600  0.937600  0.814000  1.0  -0.1726
  C  C89  1  0.544300  0.848600  0.017500  1.0  0.0795
  C  C90  1  0.653400  0.868600  0.830100  1.0  -0.2098
  C  C91  1  0.750700  0.942700  0.437900  1.0  0.6296
  C  C92  1  0.428100  0.853800  0.080800  1.0  -0.2007
  C  C93  1  0.133000  0.823000  0.438000  1.0  0.0626
  C  C94  1  0.942400  0.963400  0.805500  1.0  -0.2
  C  C95  1  0.652100  0.846100  0.206000  1.0  0.1593
  C  C96  1  0.749800  0.530800  0.544800  1.0  0.1459
  C  C97  1  0.052900  0.951100  0.871300  1.0  0.0639
  C  C98  1  0.158600  0.954500  0.187900  1.0  0.1921
  C  C99  1  0.950000  0.563300  0.569000  1.0  0.1508
  C  C100  1  0.939700  0.942100  0.184200  1.0  0.1785
  C  C101  1  0.164200  0.957700  0.071200  1.0  -0.2152
  C  C102  1  0.657800  0.843500  0.088400  1.0  -0.2069
  C  C103  1  0.445600  0.836700  0.701600  1.0  0.1711
  C  C104  1  0.776200  0.624500  0.530200  1.0  0.0595
  C  C105  1  0.725000  0.679600  0.508300  1.0  0.0606
  C  C106  1  0.934500  0.944400  0.065300  1.0  -0.199
  C  C107  1  0.438200  0.833200  0.821800  1.0  -0.2006
  C  C108  1  0.631200  0.979700  0.430900  1.0  0.0843
  C  C109  1  0.905700  0.614400  0.549000  1.0  -0.1855
  C  C110  1  0.805400  0.723400  0.521800  1.0  -0.2036
  C  C111  1  0.697100  0.580400  0.528200  1.0  -0.2358
  C  C112  1  0.599100  0.688000  0.470900  1.0  -0.1757
  C  C113  1  0.551100  0.984000  0.217300  1.0  -0.1071
  C  C114  1  0.624900  0.005600  0.310100  1.0  -0.0111
  C  C115  1  0.064600  0.805900  0.647300  1.0  -0.1814
  C  C116  1  0.195400  0.738600  0.545100  1.0  -0.2193
  C  C117  1  0.128300  0.788100  0.546300  1.0  -0.0085
  C  C118  1  0.202000  0.711000  0.654000  1.0  -0.0811
  C  C119  1  0.705100  0.049700  0.287300  1.0  -0.1873
  C  C120  1  0.712200  0.069500  0.177000  1.0  -0.1048
  C  C121  1  0.643800  0.046700  0.083800  1.0  -0.0986
  C  C122  1  0.559600  0.004700  0.106800  1.0  -0.1107
  C  C123  1  0.079000  0.774100  0.748200  1.0  -0.0928
  C  C124  1  0.753900  0.774800  0.499600  1.0  0.1495
  C  C125  1  0.556300  0.740400  0.447700  1.0  0.1484
  C  C126  1  0.145000  0.729200  0.754000  1.0  -0.1414
  C  C127  1  0.747500  0.359500  0.556200  1.0  0.6486
  C  C128  1  0.055900  0.460900  0.315400  1.0  0.139
  C  C129  1  0.569600  0.355100  0.799300  1.0  0.1394
  C  C130  1  0.840500  0.434900  0.304200  1.0  0.168
  C  C131  1  0.349700  0.370900  0.286300  1.0  0.1672
  C  C132  1  0.453100  0.349700  0.108800  1.0  0.0841
  C  C133  1  0.948100  0.451100  0.997100  1.0  0.0737
  C  C134  1  0.836400  0.437600  0.186000  1.0  -0.1724
  C  C135  1  0.455700  0.348600  0.982500  1.0  0.0792
  C  C136  1  0.346600  0.368600  0.169900  1.0  -0.209
  C  C137  1  0.249300  0.442700  0.562100  1.0  0.6277
  C  C138  1  0.571900  0.353800  0.919200  1.0  -0.2005
  C  C139  1  0.867000  0.323000  0.562000  1.0  0.0605
  C  C140  1  0.057600  0.463400  0.194500  1.0  -0.1999
  C  C141  1  0.347900  0.346100  0.794000  1.0  0.16
  C  C142  1  0.250200  0.030800  0.455200  1.0  0.1454
  C  C143  1  0.947100  0.451100  0.128700  1.0  0.0635
  C  C144  1  0.841400  0.454500  0.812100  1.0  0.1916
  C  C145  1  0.050000  0.063300  0.431000  1.0  0.1508
  C  C146  1  0.060300  0.442100  0.815800  1.0  0.1773
  C  C147  1  0.835800  0.457700  0.928800  1.0  -0.2177
  C  C148  1  0.342200  0.343500  0.911600  1.0  -0.2089
  C  C149  1  0.554400  0.336700  0.298400  1.0  0.1711
  C  C150  1  0.223800  0.124500  0.469800  1.0  0.0602
  C  C151  1  0.275000  0.179600  0.491700  1.0  0.0611
  C  C152  1  0.065500  0.444400  0.934700  1.0  -0.1992
  C  C153  1  0.561800  0.333200  0.178200  1.0  -0.2011
  C  C154  1  0.368800  0.479700  0.569100  1.0  0.0828
  C  C155  1  0.094300  0.114400  0.451000  1.0  -0.187
  C  C156  1  0.194600  0.223400  0.478200  1.0  -0.2021
  C  C157  1  0.302900  0.080400  0.471800  1.0  -0.2325
  C  C158  1  0.400900  0.188000  0.529100  1.0  -0.1763
  C  C159  1  0.448900  0.484000  0.782700  1.0  -0.1088
  C  C160  1  0.375100  0.505600  0.689900  1.0  -0.0103
  C  C161  1  0.935400  0.305900  0.352700  1.0  -0.1835
  C  C162  1  0.804600  0.238600  0.454900  1.0  -0.2193
  C  C163  1  0.871700  0.288100  0.453700  1.0  -0.0083
  C  C164  1  0.798000  0.211000  0.346000  1.0  -0.0807
  C  C165  1  0.294900  0.549700  0.712700  1.0  -0.1884
  C  C166  1  0.287800  0.569500  0.823000  1.0  -0.1057
  C  C167  1  0.356200  0.546700  0.916200  1.0  -0.1
  C  C168  1  0.440400  0.504700  0.893200  1.0  -0.1096
  C  C169  1  0.921000  0.274100  0.251800  1.0  -0.0928
  C  C170  1  0.246100  0.274800  0.500400  1.0  0.1492
  C  C171  1  0.443700  0.240400  0.552300  1.0  0.1483
  C  C172  1  0.855000  0.229200  0.246000  1.0  -0.1414
  N  N173  1  0.537900  0.853000  0.262500  1.0  -0.322
  N  N174  1  0.546800  0.857400  0.641700  1.0  -0.3557
  N  N175  1  0.050000  0.944800  0.622600  1.0  -0.3841
  N  N176  1  0.048900  0.946900  0.246000  1.0  -0.3215
  N  N177  1  0.873800  0.520700  0.560500  1.0  -0.3271
  N  N178  1  0.631000  0.782700  0.465600  1.0  -0.3282
  N  N179  1  0.462100  0.353000  0.737500  1.0  -0.3222
  N  N180  1  0.453200  0.357400  0.358300  1.0  -0.3557
  N  N181  1  0.950000  0.444800  0.377400  1.0  -0.3847
  N  N182  1  0.951100  0.446900  0.754000  1.0  -0.3236
  N  N183  1  0.126200  0.020700  0.439500  1.0  -0.3278
  N  N184  1  0.369000  0.282700  0.534400  1.0  -0.3282
  O  O185  1  0.736400  0.893700  0.447500  1.0  -0.5675
  O  O186  1  0.236200  0.908800  0.441000  1.0  -0.5704
  O  O187  1  0.860500  0.966600  0.431300  1.0  -0.6115
  O  O188  1  0.360700  0.835700  0.451600  1.0  -0.5976
  O  O189  1  0.017600  0.854800  0.422300  1.0  -0.596
  O  O190  1  0.518000  0.947900  0.451100  1.0  -0.5687
  O  O191  1  0.263600  0.393700  0.552500  1.0  -0.5681
  O  O192  1  0.763800  0.408800  0.559000  1.0  -0.5697
  O  O193  1  0.139500  0.466600  0.568700  1.0  -0.6123
  O  O194  1  0.639300  0.335700  0.548400  1.0  -0.5981
  O  O195  1  0.982400  0.354800  0.577700  1.0  -0.5933
  O  O196  1  0.482000  0.447900  0.548900  1.0  -0.5679
