# generated using pymatgen
data_CoH19C23(NO)3
_symmetry_space_group_name_H-M   'P 1'
_cell_length_a   11.44630000
_cell_length_b   24.65280000
_cell_length_c   20.32560000
_cell_angle_alpha   90.00000000
_cell_angle_beta   92.69480000
_cell_angle_gamma   90.00000000
_symmetry_Int_Tables_number   1
_chemical_formula_structural   CoH19C23(NO)3
_chemical_formula_sum   'Co8 H152 C184 N24 O24'
_cell_volume   5729.20311410
_cell_formula_units_Z   8
loop_
 _symmetry_equiv_pos_site_id
 _symmetry_equiv_pos_as_xyz
  1  'x, y, z'
loop_
 _atom_site_type_symbol
 _atom_site_label
 _atom_site_symmetry_multiplicity
 _atom_site_fract_x
 _atom_site_fract_y
 _atom_site_fract_z
 _atom_site_occupancy
 _atom_site_charge
  Co  Co1  1  0.438820  0.190400  0.267300  1.0  0.8896
  Co  Co2  1  0.441190  0.266070  0.014500  1.0  0.9169
  Co  Co3  1  0.464460  0.186210  0.762660  1.0  0.894
  Co  Co4  1  0.425790  0.271850  0.512470  1.0  0.8443
  Co  Co5  1  0.561180  0.690400  0.732700  1.0  0.894
  Co  Co6  1  0.558810  0.766070  0.985500  1.0  0.9166
  Co  Co7  1  0.535540  0.686210  0.237340  1.0  0.8944
  Co  Co8  1  0.574210  0.771850  0.487530  1.0  0.8432
  H  H9  1  0.632000  0.272600  0.413000  1.0  0.0659
  H  H10  1  0.503000  0.280000  0.233000  1.0  0.2075
  H  H11  1  0.034100  0.253200  0.111100  1.0  0.1148
  H  H12  1  0.236100  0.248600  0.107600  1.0  0.0708
  H  H13  1  0.235100  0.206600  0.363100  1.0  0.0706
  H  H14  1  0.034500  0.204900  0.366100  1.0  0.1038
  H  H15  1  0.057400  0.200500  0.854200  1.0  0.1061
  H  H16  1  0.220500  0.157300  0.178600  1.0  0.0671
  H  H17  1  0.023200  0.303700  0.921500  1.0  0.1082
  H  H18  1  0.225500  0.298700  0.923500  1.0  0.0731
  H  H19  1  0.249800  0.148900  0.670900  1.0  0.0722
  H  H20  1  0.852400  0.169600  0.367200  1.0  0.1121
  H  H21  1  0.219400  0.244400  0.601100  1.0  0.0683
  H  H22  1  0.009500  0.321600  0.426600  1.0  0.1151
  H  H23  1  0.046900  0.146200  0.666500  1.0  0.1151
  H  H24  1  0.257400  0.203700  0.852600  1.0  0.0649
  H  H25  1  0.651300  0.175300  0.362900  1.0  0.0707
  H  H26  1  0.370000  0.124900  0.555300  1.0  0.0918
  H  H27  1  0.480100  0.337900  0.304100  1.0  0.0945
  H  H28  1  0.834700  0.277900  0.413600  1.0  0.1104
  H  H29  1  0.020300  0.156600  0.175000  1.0  0.1153
  H  H30  1  0.212900  0.316400  0.428700  1.0  0.0661
  H  H31  1  0.018600  0.248200  0.603700  1.0  0.1106
  H  H32  1  0.636400  0.286000  0.605000  1.0  0.0652
  H  H33  1  0.358000  0.178000  0.978000  1.0  0.1423
  H  H34  1  0.523000  0.290000  0.727000  1.0  0.1459
  H  H35  1  0.595700  0.998300  0.277000  1.0  0.1113
  H  H36  1  0.360900  0.119600  0.381400  1.0  0.0639
  H  H37  1  0.848500  0.250900  0.920000  1.0  0.1083
  H  H38  1  0.881000  0.158500  0.857500  1.0  0.1149
  H  H39  1  0.648900  0.245000  0.921400  1.0  0.0576
  H  H40  1  0.505100  0.333700  0.808800  1.0  0.0954
  H  H41  1  0.652800  0.294500  0.105700  1.0  0.0645
  H  H42  1  0.260600  0.284900  0.718900  1.0  0.0869
  H  H43  1  0.488500  0.972700  0.483500  1.0  0.1
  H  H44  1  0.434600  0.963000  0.969600  1.0  0.1084
  H  H45  1  0.074700  0.322400  0.711100  1.0  0.0928
  H  H46  1  0.522100  0.888200  0.527100  1.0  0.0658
  H  H47  1  0.506100  0.980100  0.760700  1.0  0.1116
  H  H48  1  0.607200  0.830700  0.357400  1.0  0.0616
  H  H49  1  0.476900  0.065900  0.718200  1.0  0.0695
  H  H50  1  0.463200  0.878600  0.016600  1.0  0.073
  H  H51  1  0.618900  0.913400  0.815300  1.0  0.1029
  H  H52  1  0.574300  0.914000  0.307300  1.0  0.1077
  H  H53  1  0.637600  0.829400  0.865600  1.0  0.0678
  H  H54  1  0.213900  0.287300  0.233600  1.0  0.0837
  H  H55  1  0.032900  0.330300  0.232300  1.0  0.0915
  H  H56  1  0.679700  0.165500  0.854700  1.0  0.0668
  H  H57  1  0.027900  0.395100  0.778200  1.0  0.1048
  H  H58  1  0.167500  0.427800  0.855200  1.0  0.0979
  H  H59  1  0.853700  0.299700  0.110100  1.0  0.1183
  H  H60  1  0.844400  0.198900  0.170600  1.0  0.1128
  H  H61  1  0.865600  0.183300  0.660800  1.0  0.1083
  H  H62  1  0.488400  0.129100  0.895300  1.0  0.0741
  H  H63  1  0.645000  0.204700  0.172800  1.0  0.0623
  H  H64  1  0.556200  0.083200  0.234000  1.0  0.0588
  H  H65  1  0.353500  0.389500  0.864700  1.0  0.1007
  H  H66  1  0.668900  0.192800  0.665400  1.0  0.0528
  H  H67  1  0.838100  0.291100  0.612000  1.0  0.1152
  H  H68  1  0.629700  0.174400  0.490200  1.0  0.0786
  H  H69  1  0.393500  0.035300  0.428800  1.0  0.1126
  H  H70  1  0.517000  0.045000  0.942600  1.0  0.098
  H  H71  1  0.341900  0.131100  0.059500  1.0  0.0957
  H  H72  1  0.171000  0.448900  0.348000  1.0  0.0957
  H  H73  1  0.648000  0.150100  0.040000  1.0  0.1035
  H  H74  1  0.350400  0.404400  0.352600  1.0  0.1
  H  H75  1  0.007500  0.407900  0.293000  1.0  0.1058
  H  H76  1  0.831800  0.045100  0.537100  1.0  0.1094
  H  H77  1  0.496100  0.053700  0.594900  1.0  0.1101
  H  H78  1  0.675600  0.008200  0.591700  1.0  0.0822
  H  H79  1  0.400200  0.046100  0.092800  1.0  0.094
  H  H80  1  0.726700  0.993400  0.086500  1.0  0.0851
  H  H81  1  0.790700  0.079700  0.056400  1.0  0.1129
  H  H82  1  0.534300  0.976000  0.105500  1.0  0.107
  H  H83  1  0.807300  0.128000  0.485300  1.0  0.0915
  H  H84  1  0.342300  0.186000  0.477200  1.0  0.3369
  H  H85  1  0.368000  0.772600  0.587000  1.0  0.0664
  H  H86  1  0.497000  0.780000  0.767000  1.0  0.2073
  H  H87  1  0.965900  0.753200  0.888900  1.0  0.1145
  H  H88  1  0.763900  0.748600  0.892400  1.0  0.07
  H  H89  1  0.764900  0.706600  0.636900  1.0  0.0696
  H  H90  1  0.965500  0.704900  0.633900  1.0  0.105
  H  H91  1  0.942600  0.700500  0.145800  1.0  0.106
  H  H92  1  0.779500  0.657300  0.821400  1.0  0.0693
  H  H93  1  0.976800  0.803700  0.078500  1.0  0.108
  H  H94  1  0.774500  0.798700  0.076500  1.0  0.0739
  H  H95  1  0.750200  0.648900  0.329100  1.0  0.0735
  H  H96  1  0.147600  0.669600  0.632800  1.0  0.1111
  H  H97  1  0.780600  0.744400  0.398900  1.0  0.0665
  H  H98  1  0.990500  0.821600  0.573400  1.0  0.1131
  H  H99  1  0.953100  0.646200  0.333500  1.0  0.1133
  H  H100  1  0.742600  0.703700  0.147400  1.0  0.0649
  H  H101  1  0.348700  0.675300  0.637100  1.0  0.0707
  H  H102  1  0.630000  0.624900  0.444700  1.0  0.0937
  H  H103  1  0.519900  0.837900  0.695900  1.0  0.0932
  H  H104  1  0.165300  0.777900  0.586400  1.0  0.1097
  H  H105  1  0.979700  0.656600  0.825000  1.0  0.1141
  H  H106  1  0.787100  0.816400  0.571300  1.0  0.0667
  H  H107  1  0.981400  0.748200  0.396300  1.0  0.1102
  H  H108  1  0.363600  0.786000  0.395000  1.0  0.066
  H  H109  1  0.642000  0.678000  0.022000  1.0  0.1402
  H  H110  1  0.477000  0.790000  0.273000  1.0  0.1482
  H  H111  1  0.404300  0.498300  0.723000  1.0  0.111
  H  H112  1  0.639100  0.619600  0.618600  1.0  0.0632
  H  H113  1  0.151500  0.750900  0.080000  1.0  0.1085
  H  H114  1  0.119000  0.658500  0.142500  1.0  0.1166
  H  H115  1  0.351100  0.745000  0.078600  1.0  0.0578
  H  H116  1  0.494900  0.833700  0.191200  1.0  0.0962
  H  H117  1  0.347200  0.794500  0.894300  1.0  0.0655
  H  H118  1  0.739400  0.784900  0.281100  1.0  0.0871
  H  H119  1  0.511500  0.472700  0.516500  1.0  0.0997
  H  H120  1  0.565400  0.463000  0.030400  1.0  0.1072
  H  H121  1  0.925300  0.822400  0.288900  1.0  0.0927
  H  H122  1  0.477900  0.388200  0.472900  1.0  0.0661
  H  H123  1  0.493900  0.480100  0.239300  1.0  0.1124
  H  H124  1  0.392800  0.330700  0.642600  1.0  0.062
  H  H125  1  0.523100  0.565900  0.281800  1.0  0.0685
  H  H126  1  0.536800  0.378600  0.983400  1.0  0.0733
  H  H127  1  0.381100  0.413400  0.184700  1.0  0.1018
  H  H128  1  0.425700  0.414000  0.692700  1.0  0.1068
  H  H129  1  0.362400  0.329400  0.134400  1.0  0.0687
  H  H130  1  0.786100  0.787300  0.766400  1.0  0.0832
  H  H131  1  0.967100  0.830300  0.767700  1.0  0.0923
  H  H132  1  0.320300  0.665500  0.145300  1.0  0.0667
  H  H133  1  0.972100  0.895100  0.221800  1.0  0.1044
  H  H134  1  0.832500  0.927800  0.144800  1.0  0.0974
  H  H135  1  0.146300  0.799700  0.889900  1.0  0.1196
  H  H136  1  0.155600  0.698900  0.829400  1.0  0.1138
  H  H137  1  0.134400  0.683300  0.339200  1.0  0.1081
  H  H138  1  0.511600  0.629100  0.104700  1.0  0.0751
  H  H139  1  0.355000  0.704700  0.827200  1.0  0.0623
  H  H140  1  0.443800  0.583200  0.766000  1.0  0.0594
  H  H141  1  0.646500  0.889500  0.135300  1.0  0.1008
  H  H142  1  0.331100  0.692800  0.334600  1.0  0.0538
  H  H143  1  0.161900  0.791100  0.388000  1.0  0.1146
  H  H144  1  0.370300  0.674400  0.509800  1.0  0.0788
  H  H145  1  0.606500  0.535300  0.571200  1.0  0.1119
  H  H146  1  0.483000  0.545000  0.057400  1.0  0.0964
  H  H147  1  0.658100  0.631100  0.940500  1.0  0.097
  H  H148  1  0.829000  0.948900  0.652000  1.0  0.095
  H  H149  1  0.352000  0.650100  0.960000  1.0  0.1042
  H  H150  1  0.649600  0.904400  0.647400  1.0  0.099
  H  H151  1  0.992500  0.907900  0.707000  1.0  0.1057
  H  H152  1  0.168200  0.545100  0.462900  1.0  0.1106
  H  H153  1  0.503900  0.553700  0.405100  1.0  0.1097
  H  H154  1  0.324400  0.508200  0.408300  1.0  0.0839
  H  H155  1  0.599800  0.546100  0.907200  1.0  0.0937
  H  H156  1  0.273300  0.493400  0.913500  1.0  0.0844
  H  H157  1  0.209300  0.579700  0.943600  1.0  0.1113
  H  H158  1  0.465700  0.476000  0.894500  1.0  0.1056
  H  H159  1  0.192700  0.628000  0.514700  1.0  0.0912
  H  H160  1  0.657700  0.686000  0.522800  1.0  0.3373
  C  C161  1  0.674800  0.275800  0.454000  1.0  0.1275
  C  C162  1  0.070900  0.262000  0.071500  1.0  -0.2189
  C  C163  1  0.192000  0.259400  0.069000  1.0  0.1629
  C  C164  1  0.190800  0.196700  0.324200  1.0  0.1423
  C  C165  1  0.070800  0.196300  0.326400  1.0  -0.2064
  C  C166  1  0.094900  0.190800  0.815200  1.0  -0.2177
  C  C167  1  0.182100  0.168400  0.216800  1.0  0.1544
  C  C168  1  0.064900  0.291700  0.960300  1.0  -0.2044
  C  C169  1  0.186100  0.288500  0.961700  1.0  0.1692
  C  C170  1  0.003900  0.277300  0.015700  1.0  0.0799
  C  C171  1  0.209600  0.160900  0.708000  1.0  0.1489
  C  C172  1  0.424500  0.275700  0.364200  1.0  0.6561
  C  C173  1  0.811200  0.177100  0.326500  1.0  -0.2069
  C  C174  1  0.860900  0.283900  0.512800  1.0  0.0868
  C  C175  1  0.176300  0.259500  0.564400  1.0  0.1627
  C  C176  1  0.050900  0.304900  0.462800  1.0  -0.2198
  C  C177  1  0.088200  0.158700  0.705200  1.0  -0.2201
  C  C178  1  0.214300  0.192500  0.813900  1.0  0.1627
  C  C179  1  0.691600  0.180500  0.323600  1.0  0.1557
  C  C180  1  0.447100  0.186700  0.613200  1.0  0.6396
  C  C181  1  0.028000  0.174900  0.759400  1.0  0.0793
  C  C182  1  0.435900  0.151000  0.550500  1.0  0.0745
  C  C183  1  0.002600  0.183000  0.270100  1.0  0.0846
  C  C184  1  0.415900  0.310300  0.301400  1.0  0.0642
  C  C185  1  0.796400  0.279000  0.454000  1.0  -0.2138
  C  C186  1  0.872400  0.184900  0.269300  1.0  0.0741
  C  C187  1  0.062500  0.167500  0.214100  1.0  -0.2102
  C  C188  1  0.991100  0.283800  0.514600  1.0  0.0624
  C  C189  1  0.172700  0.301300  0.464200  1.0  0.1674
  C  C190  1  0.056300  0.261900  0.566400  1.0  -0.2167
  C  C191  1  0.677400  0.283500  0.565600  1.0  0.157
  C  C192  1  0.436500  0.186000  0.118600  1.0  0.6332
  C  C193  1  0.299800  0.340200  0.295000  1.0  0.0485
  C  C194  1  0.500400  0.007100  0.359000  1.0  0.0536
  C  C195  1  0.547400  0.022600  0.299700  1.0  -0.2161
  C  C196  1  0.409400  0.094500  0.360100  1.0  0.1641
  C  C197  1  0.810100  0.259800  0.959000  1.0  -0.211
  C  C198  1  0.899500  0.175400  0.759000  1.0  0.053
  C  C199  1  0.839200  0.166900  0.817400  1.0  -0.2312
  C  C200  1  0.691400  0.256100  0.960400  1.0  0.162
  C  C201  1  0.443800  0.305000  0.803100  1.0  0.0626
  C  C202  1  0.693500  0.284700  0.067800  1.0  0.1491
  C  C203  1  0.325100  0.332200  0.793600  1.0  0.0142
  C  C204  1  0.241600  0.313700  0.747500  1.0  -0.1436
  C  C205  1  0.509600  0.002600  0.857000  1.0  0.0987
  C  C206  1  0.512100  0.944000  0.455800  1.0  -0.2286
  C  C207  1  0.477800  0.936300  0.947400  1.0  -0.2331
  C  C208  1  0.131400  0.336400  0.742300  1.0  -0.1247
  C  C209  1  0.532400  0.893500  0.481500  1.0  0.1628
  C  C210  1  0.500800  0.010200  0.789600  1.0  -0.2343
  C  C211  1  0.581500  0.860100  0.383300  1.0  0.1381
  C  C212  1  0.484100  0.061600  0.764700  1.0  0.1601
  C  C213  1  0.493900  0.885600  0.974900  1.0  0.158
  C  C214  1  0.585400  0.907300  0.856500  1.0  -0.2096
  C  C215  1  0.562300  0.910000  0.353000  1.0  -0.1981
  C  C216  1  0.596100  0.857200  0.886900  1.0  0.1503
  C  C217  1  0.205000  0.319500  0.258400  1.0  -0.1105
  C  C218  1  0.547900  0.119000  0.544000  1.0  0.0367
  C  C219  1  0.874400  0.276400  0.014700  1.0  0.0606
  C  C220  1  0.097100  0.345300  0.257400  1.0  -0.117
  C  C221  1  0.448600  0.269100  0.864400  1.0  0.6686
  C  C222  1  0.718900  0.171000  0.815000  1.0  0.1662
  C  C223  1  0.103400  0.379100  0.782000  1.0  -0.0988
  C  C224  1  0.186400  0.398400  0.827400  1.0  -0.1224
  C  C225  1  0.813000  0.288700  0.070500  1.0  -0.2147
  C  C226  1  0.524800  0.948500  0.887200  1.0  0.0738
  C  C227  1  0.807000  0.194500  0.211000  1.0  -0.2196
  C  C228  1  0.830700  0.181900  0.702200  1.0  -0.209
  C  C229  1  0.490700  0.098200  0.867400  1.0  0.1536
  C  C230  1  0.688200  0.197500  0.212900  1.0  0.1497
  C  C231  1  0.523100  0.073300  0.274400  1.0  0.1647
  C  C232  1  0.297000  0.375500  0.833400  1.0  -0.1581
  C  C233  1  0.712800  0.186300  0.705400  1.0  0.1771
  C  C234  1  0.798200  0.286800  0.570300  1.0  -0.2324
  C  C235  1  0.525900  0.953600  0.389000  1.0  0.0849
  C  C236  1  0.638800  0.140200  0.511300  1.0  -0.0976
  C  C237  1  0.428800  0.044300  0.388900  1.0  -0.2087
  C  C238  1  0.507300  0.048100  0.896000  1.0  -0.2048
  C  C239  1  0.421100  0.148200  0.058700  1.0  0.0717
  C  C240  1  0.511800  0.103600  0.063800  1.0  0.045
  C  C241  1  0.179100  0.415100  0.326300  1.0  -0.1288
  C  C242  1  0.625400  0.114800  0.053300  1.0  -0.0582
  C  C243  1  0.285800  0.389000  0.328300  1.0  -0.0574
  C  C244  1  0.082500  0.391500  0.292000  1.0  -0.125
  C  C245  1  0.759600  0.064000  0.538200  1.0  -0.1535
  C  C246  1  0.559400  0.069500  0.573200  1.0  -0.1858
  C  C247  1  0.666500  0.042400  0.570600  1.0  -0.1037
  C  C248  1  0.479800  0.052600  0.084200  1.0  -0.1123
  C  C249  1  0.671200  0.021900  0.081400  1.0  -0.097
  C  C250  1  0.710200  0.073000  0.062700  1.0  -0.1623
  C  C251  1  0.558300  0.011100  0.092400  1.0  -0.1383
  C  C252  1  0.745100  0.112600  0.508400  1.0  -0.0984
  C  C253  1  0.325200  0.775800  0.546000  1.0  0.1276
  C  C254  1  0.929100  0.762000  0.928500  1.0  -0.2129
  C  C255  1  0.808000  0.759400  0.931000  1.0  0.1637
  C  C256  1  0.809200  0.696700  0.675800  1.0  0.1422
  C  C257  1  0.929200  0.696300  0.673600  1.0  -0.206
  C  C258  1  0.905100  0.690800  0.184800  1.0  -0.2169
  C  C259  1  0.817900  0.668400  0.783200  1.0  0.1543
  C  C260  1  0.935100  0.791700  0.039700  1.0  -0.2053
  C  C261  1  0.813900  0.788500  0.038300  1.0  0.1703
  C  C262  1  0.996100  0.777300  0.984300  1.0  0.0803
  C  C263  1  0.790400  0.660900  0.292000  1.0  0.1499
  C  C264  1  0.575500  0.775700  0.635800  1.0  0.6586
  C  C265  1  0.188800  0.677100  0.673500  1.0  -0.2072
  C  C266  1  0.139100  0.783900  0.487200  1.0  0.0855
  C  C267  1  0.823700  0.759500  0.435600  1.0  0.1625
  C  C268  1  0.949100  0.804900  0.537200  1.0  -0.2196
  C  C269  1  0.911800  0.658700  0.294800  1.0  -0.2215
  C  C270  1  0.785700  0.692500  0.186100  1.0  0.1618
  C  C271  1  0.308400  0.680500  0.676400  1.0  0.1551
  C  C272  1  0.552900  0.686700  0.386800  1.0  0.638
  C  C273  1  0.972000  0.674900  0.240600  1.0  0.0799
  C  C274  1  0.564100  0.651000  0.449500  1.0  0.0746
  C  C275  1  0.997400  0.683000  0.729900  1.0  0.0846
  C  C276  1  0.584100  0.810300  0.698600  1.0  0.0639
  C  C277  1  0.203600  0.779000  0.546000  1.0  -0.2141
  C  C278  1  0.127600  0.684900  0.730700  1.0  0.0737
  C  C279  1  0.937500  0.667500  0.785900  1.0  -0.2114
  C  C280  1  0.008900  0.783800  0.485400  1.0  0.0631
  C  C281  1  0.827300  0.801300  0.535800  1.0  0.1687
  C  C282  1  0.943700  0.761900  0.433600  1.0  -0.2138
  C  C283  1  0.322600  0.783500  0.434400  1.0  0.1563
  C  C284  1  0.563500  0.686000  0.881400  1.0  0.6339
  C  C285  1  0.700200  0.840200  0.705000  1.0  0.0492
  C  C286  1  0.499600  0.507100  0.641000  1.0  0.0539
  C  C287  1  0.452600  0.522600  0.700300  1.0  -0.2164
  C  C288  1  0.590600  0.594500  0.639900  1.0  0.1635
  C  C289  1  0.189900  0.759800  0.041000  1.0  -0.2143
  C  C290  1  0.100500  0.675400  0.241000  1.0  0.0536
  C  C291  1  0.160800  0.666900  0.182600  1.0  -0.2324
  C  C292  1  0.308600  0.756100  0.039600  1.0  0.1625
  C  C293  1  0.556200  0.805000  0.196900  1.0  0.0617
  C  C294  1  0.306500  0.784700  0.932200  1.0  0.1486
  C  C295  1  0.674900  0.832200  0.206400  1.0  0.0143
  C  C296  1  0.758400  0.813700  0.252500  1.0  -0.1454
  C  C297  1  0.490400  0.502600  0.143000  1.0  0.0985
  C  C298  1  0.487900  0.444000  0.544200  1.0  -0.2269
  C  C299  1  0.522200  0.436300  0.052600  1.0  -0.2325
  C  C300  1  0.868600  0.836400  0.257700  1.0  -0.1238
  C  C301  1  0.467600  0.393500  0.518500  1.0  0.1581
  C  C302  1  0.499200  0.510200  0.210400  1.0  -0.2343
  C  C303  1  0.418500  0.360100  0.616700  1.0  0.1384
  C  C304  1  0.515900  0.561600  0.235300  1.0  0.1559
  C  C305  1  0.506100  0.385600  0.025100  1.0  0.1577
  C  C306  1  0.414600  0.407300  0.143500  1.0  -0.2097
  C  C307  1  0.437700  0.410000  0.647000  1.0  -0.1989
  C  C308  1  0.403900  0.357200  0.113100  1.0  0.1513
  C  C309  1  0.795000  0.819500  0.741600  1.0  -0.1199
  C  C310  1  0.452100  0.619000  0.456000  1.0  0.0377
  C  C311  1  0.125600  0.776400  0.985300  1.0  0.059
  C  C312  1  0.902900  0.845300  0.742600  1.0  -0.1136
  C  C313  1  0.551400  0.769100  0.135600  1.0  0.6707
  C  C314  1  0.281100  0.671000  0.185000  1.0  0.1646
  C  C315  1  0.896600  0.879100  0.218000  1.0  -0.0996
  C  C316  1  0.813600  0.898400  0.172600  1.0  -0.1202
  C  C317  1  0.187000  0.788700  0.929500  1.0  -0.2144
  C  C318  1  0.475200  0.448500  0.112800  1.0  0.075
  C  C319  1  0.193000  0.694500  0.789000  1.0  -0.2198
  C  C320  1  0.169300  0.681900  0.297800  1.0  -0.2109
  C  C321  1  0.509300  0.598200  0.132600  1.0  0.1528
  C  C322  1  0.311800  0.697500  0.787100  1.0  0.1504
  C  C323  1  0.476900  0.573300  0.725600  1.0  0.1715
  C  C324  1  0.703000  0.875500  0.166600  1.0  -0.1578
  C  C325  1  0.287200  0.686300  0.294600  1.0  0.1767
  C  C326  1  0.201800  0.786800  0.429700  1.0  -0.2308
  C  C327  1  0.474100  0.453600  0.611000  1.0  0.0853
  C  C328  1  0.361200  0.640200  0.488700  1.0  -0.1005
  C  C329  1  0.571200  0.544300  0.611100  1.0  -0.2082
  C  C330  1  0.492700  0.548100  0.104000  1.0  -0.2086
  C  C331  1  0.578900  0.648200  0.941300  1.0  0.0708
  C  C332  1  0.488200  0.603600  0.936200  1.0  0.0442
  C  C333  1  0.820900  0.915100  0.673700  1.0  -0.1301
  C  C334  1  0.374600  0.614800  0.946700  1.0  -0.0626
  C  C335  1  0.714200  0.889000  0.671700  1.0  -0.0594
  C  C336  1  0.917500  0.891500  0.708000  1.0  -0.124
  C  C337  1  0.240400  0.564000  0.461800  1.0  -0.1581
  C  C338  1  0.440600  0.569500  0.426800  1.0  -0.1859
  C  C339  1  0.333500  0.542400  0.429400  1.0  -0.1049
  C  C340  1  0.520200  0.552600  0.915800  1.0  -0.1111
  C  C341  1  0.328800  0.521900  0.918600  1.0  -0.101
  C  C342  1  0.289800  0.573000  0.937300  1.0  -0.1629
  C  C343  1  0.441700  0.511100  0.907600  1.0  -0.135
  C  C344  1  0.254900  0.612600  0.491600  1.0  -0.1015
  N  N345  1  0.628400  0.191000  0.267200  1.0  -0.3254
  N  N346  1  0.249600  0.183800  0.269900  1.0  -0.3362
  N  N347  1  0.631000  0.267400  0.013900  1.0  -0.3427
  N  N348  1  0.235300  0.277500  0.513400  1.0  -0.3318
  N  N349  1  0.249700  0.271500  0.015000  1.0  -0.3444
  N  N350  1  0.273300  0.179300  0.761100  1.0  -0.3587
  N  N351  1  0.615500  0.277000  0.509400  1.0  -0.3141
  N  N352  1  0.455500  0.109500  0.303400  1.0  -0.339
  N  N353  1  0.550400  0.846000  0.945400  1.0  -0.3415
  N  N354  1  0.477600  0.105800  0.802400  1.0  -0.3234
  N  N355  1  0.565700  0.851600  0.446200  1.0  -0.3357
  N  N356  1  0.653900  0.182200  0.759900  1.0  -0.3125
  N  N357  1  0.371600  0.691000  0.732800  1.0  -0.3236
  N  N358  1  0.750400  0.683800  0.730100  1.0  -0.3355
  N  N359  1  0.369000  0.767400  0.986100  1.0  -0.3407
  N  N360  1  0.764700  0.777500  0.486600  1.0  -0.3314
  N  N361  1  0.750300  0.771500  0.985000  1.0  -0.3444
  N  N362  1  0.726700  0.679300  0.238900  1.0  -0.3604
  N  N363  1  0.384500  0.777000  0.490600  1.0  -0.3134
  N  N364  1  0.544500  0.609500  0.696600  1.0  -0.3379
  N  N365  1  0.449600  0.346000  0.054600  1.0  -0.3414
  N  N366  1  0.522400  0.605800  0.197600  1.0  -0.3237
  N  N367  1  0.434300  0.351600  0.553800  1.0  -0.3368
  N  N368  1  0.346100  0.682200  0.240100  1.0  -0.3146
  O  O369  1  0.432200  0.162330  0.173200  1.0  -0.6047
  O  O370  1  0.442400  0.225750  0.359000  1.0  -0.5841
  O  O371  1  0.457500  0.161490  0.666400  1.0  -0.5911
  O  O372  1  0.451900  0.235280  0.109600  1.0  -0.5756
  O  O373  1  0.414600  0.300620  0.417700  1.0  -0.5988
  O  O374  1  0.441500  0.236850  0.606600  1.0  -0.568
  O  O375  1  0.433000  0.276320  0.245800  1.0  -0.5708
  O  O376  1  0.409200  0.184600  0.495000  1.0  -0.5771
  O  O377  1  0.425900  0.179430  0.000100  1.0  -0.5776
  O  O378  1  0.469000  0.272770  0.747200  1.0  -0.5736
  O  O379  1  0.466300  0.218660  0.857600  1.0  -0.5917
  O  O380  1  0.435900  0.292150  0.918600  1.0  -0.5929
  O  O381  1  0.567800  0.662330  0.826800  1.0  -0.6017
  O  O382  1  0.557600  0.725750  0.641000  1.0  -0.5825
  O  O383  1  0.542500  0.661490  0.333600  1.0  -0.5924
  O  O384  1  0.548100  0.735280  0.890400  1.0  -0.5755
  O  O385  1  0.585400  0.800620  0.582300  1.0  -0.5972
  O  O386  1  0.558500  0.736850  0.393400  1.0  -0.5684
  O  O387  1  0.567000  0.776320  0.754200  1.0  -0.5708
  O  O388  1  0.590800  0.684600  0.505000  1.0  -0.5756
  O  O389  1  0.574100  0.679430  0.999900  1.0  -0.5749
  O  O390  1  0.531000  0.772770  0.252800  1.0  -0.5742
  O  O391  1  0.533700  0.718660  0.142400  1.0  -0.5918
  O  O392  1  0.564100  0.792150  0.081400  1.0  -0.5936
