# generated using pymatgen
data_CoH19C23(NO)3
_symmetry_space_group_name_H-M   'P 1'
_cell_length_a   10.22080000
_cell_length_b   23.96600000
_cell_length_c   11.42860000
_cell_angle_alpha   90.00000000
_cell_angle_beta   91.71140000
_cell_angle_gamma   90.00000000
_symmetry_Int_Tables_number   1
_chemical_formula_structural   CoH19C23(NO)3
_chemical_formula_sum   'Co4 H76 C92 N12 O12'
_cell_volume   2798.20618508
_cell_formula_units_Z   4
loop_
 _symmetry_equiv_pos_site_id
 _symmetry_equiv_pos_as_xyz
  1  'x, y, z'
loop_
 _atom_site_type_symbol
 _atom_site_label
 _atom_site_symmetry_multiplicity
 _atom_site_fract_x
 _atom_site_fract_y
 _atom_site_fract_z
 _atom_site_occupancy
 _atom_site_charge
  Co  Co1  1  0.995980  0.660510  0.580530  1.0  0.8016
  Co  Co2  1  0.493380  0.741610  0.561910  1.0  0.9319
  Co  Co3  1  0.004020  0.160510  0.419470  1.0  0.8017
  Co  Co4  1  0.506620  0.241610  0.438090  1.0  0.933
  H  H5  1  0.186500  0.667500  0.369200  1.0  0.06
  H  H6  1  0.307000  0.725900  0.767900  1.0  0.08
  H  H7  1  0.683600  0.729100  0.353900  1.0  0.0609
  H  H8  1  0.192300  0.660000  0.169800  1.0  0.1148
  H  H9  1  0.687700  0.735500  0.151300  1.0  0.1173
  H  H10  1  0.805000  0.672100  0.989100  1.0  0.1022
  H  H11  1  0.537000  0.651000  0.483100  1.0  0.1271
  H  H12  1  0.077000  0.771000  0.639000  1.0  0.1396
  H  H13  1  0.261900  0.102400  0.371700  1.0  0.0652
  H  H14  1  0.301400  0.731600  0.970000  1.0  0.0972
  H  H15  1  0.811400  0.678500  0.788400  1.0  0.0741
  H  H16  1  0.307600  0.759600  0.351400  1.0  0.0703
  H  H17  1  0.812800  0.637300  0.373200  1.0  0.0661
  H  H18  1  0.675800  0.774300  0.774600  1.0  0.0702
  H  H19  1  0.683000  0.777900  0.976900  1.0  0.1146
  H  H20  1  0.174500  0.614100  0.994200  1.0  0.1085
  H  H21  1  0.300700  0.766300  0.150300  1.0  0.1151
  H  H22  1  0.172200  0.621400  0.792600  1.0  0.0711
  H  H23  1  0.405100  0.589800  0.518800  1.0  0.1008
  H  H24  1  0.802200  0.628700  0.171500  1.0  0.1153
  H  H25  1  0.904300  0.811100  0.636800  1.0  0.0949
  H  H26  1  0.369800  0.019300  0.406400  1.0  0.1018
  H  H27  1  0.156500  0.893900  0.614400  1.0  0.1127
  H  H28  1  0.436600  0.933900  0.385200  1.0  0.1093
  H  H29  1  0.931900  0.037000  0.473300  1.0  0.0714
  H  H30  1  0.567600  0.600700  0.957500  1.0  0.0835
  H  H31  1  0.297200  0.527200  0.661300  1.0  0.098
  H  H32  1  0.029200  0.953900  0.513600  1.0  0.1043
  H  H33  1  0.563800  0.641500  0.771300  1.0  0.0951
  H  H34  1  0.538800  0.850600  0.431100  1.0  0.0692
  H  H35  1  0.061100  0.769800  0.382300  1.0  0.0823
  H  H36  1  0.431700  0.526100  0.999600  1.0  0.1139
  H  H37  1  0.302100  0.486700  0.844900  1.0  0.101
  H  H38  1  0.784700  0.873700  0.498400  1.0  0.1106
  H  H39  1  0.779000  0.919300  0.318100  1.0  0.1012
  H  H40  1  0.271900  0.813300  0.656700  1.0  0.0715
  H  H41  1  0.039900  0.809600  0.191000  1.0  0.1158
  H  H42  1  0.907800  0.887800  0.168700  1.0  0.088
  H  H43  1  0.813500  0.167500  0.630800  1.0  0.0598
  H  H44  1  0.693000  0.225900  0.232100  1.0  0.0802
  H  H45  1  0.316400  0.229100  0.646100  1.0  0.0611
  H  H46  1  0.807700  0.160000  0.830200  1.0  0.1148
  H  H47  1  0.312300  0.235500  0.848700  1.0  0.1173
  H  H48  1  0.195000  0.172100  0.010900  1.0  0.1017
  H  H49  1  0.463000  0.151000  0.516900  1.0  0.1264
  H  H50  1  0.923000  0.271000  0.361000  1.0  0.1394
  H  H51  1  0.738100  0.602400  0.628300  1.0  0.0654
  H  H52  1  0.698600  0.231600  0.030000  1.0  0.0973
  H  H53  1  0.188600  0.178500  0.211600  1.0  0.074
  H  H54  1  0.692400  0.259600  0.648600  1.0  0.0697
  H  H55  1  0.187200  0.137300  0.626800  1.0  0.0661
  H  H56  1  0.324200  0.274300  0.225400  1.0  0.0702
  H  H57  1  0.317000  0.277900  0.023100  1.0  0.1152
  H  H58  1  0.825500  0.114100  0.005800  1.0  0.1079
  H  H59  1  0.699300  0.266300  0.849700  1.0  0.1155
  H  H60  1  0.827800  0.121400  0.207400  1.0  0.0708
  H  H61  1  0.594900  0.089800  0.481200  1.0  0.102
  H  H62  1  0.197800  0.128700  0.828500  1.0  0.1153
  H  H63  1  0.095700  0.311100  0.363200  1.0  0.0946
  H  H64  1  0.630200  0.519300  0.593600  1.0  0.1013
  H  H65  1  0.843500  0.393900  0.385600  1.0  0.1129
  H  H66  1  0.563400  0.433900  0.614800  1.0  0.1095
  H  H67  1  0.068100  0.537000  0.526700  1.0  0.0711
  H  H68  1  0.432400  0.100700  0.042500  1.0  0.0832
  H  H69  1  0.702800  0.027200  0.338700  1.0  0.0988
  H  H70  1  0.970800  0.453900  0.486400  1.0  0.1043
  H  H71  1  0.436200  0.141500  0.228700  1.0  0.0948
  H  H72  1  0.461200  0.350600  0.568900  1.0  0.0697
  H  H73  1  0.938900  0.269800  0.617700  1.0  0.0819
  H  H74  1  0.568300  0.026100  0.000400  1.0  0.1136
  H  H75  1  0.697900  0.986700  0.155100  1.0  0.1001
  H  H76  1  0.215300  0.373700  0.501600  1.0  0.1109
  H  H77  1  0.221000  0.419300  0.681900  1.0  0.1017
  H  H78  1  0.728100  0.313300  0.343300  1.0  0.0702
  H  H79  1  0.960100  0.309600  0.809000  1.0  0.1156
  H  H80  1  0.092200  0.387800  0.831300  1.0  0.0877
  C  C81  1  0.106600  0.660200  0.327500  1.0  0.1596
  C  C82  1  0.384100  0.736600  0.810600  1.0  0.1321
  C  C83  1  0.604100  0.736600  0.311700  1.0  0.1551
  C  C84  1  0.112000  0.656000  0.208700  1.0  -0.221
  C  C85  1  0.608000  0.740500  0.190600  1.0  -0.217
  C  C86  1  0.883300  0.662600  0.950900  1.0  -0.1731
  C  C87  1  0.996500  0.645900  0.147500  1.0  0.0648
  C  C88  1  0.291600  0.656200  0.576000  1.0  0.6479
  C  C89  1  0.991400  0.645200  0.016700  1.0  0.0836
  C  C90  1  0.214700  0.071900  0.402900  1.0  0.137
  C  C91  1  0.381000  0.739100  0.932200  1.0  -0.1655
  C  C92  1  0.887500  0.666500  0.831000  1.0  0.1664
  C  C93  1  0.386000  0.754200  0.310300  1.0  0.1459
  C  C94  1  0.890200  0.642800  0.330600  1.0  0.1573
  C  C95  1  0.492900  0.751700  0.129000  1.0  0.0714
  C  C96  1  0.790300  0.745900  0.566100  1.0  0.6269
  C  C97  1  0.599400  0.764300  0.815200  1.0  0.1683
  C  C98  1  0.604800  0.766700  0.936300  1.0  -0.2169
  C  C99  1  0.099300  0.628600  0.954000  1.0  -0.2263
  C  C100  1  0.381400  0.758600  0.190400  1.0  -0.1933
  C  C101  1  0.097400  0.633300  0.833300  1.0  0.1731
  C  C102  1  0.414100  0.618700  0.581600  1.0  0.0652
  C  C103  1  0.492000  0.752300  0.998800  1.0  0.0852
  C  C104  1  0.282900  0.924000  0.494600  1.0  0.0366
  C  C105  1  0.882800  0.637700  0.210700  1.0  -0.2242
  C  C106  1  0.912700  0.783800  0.571200  1.0  0.0492
  C  C107  1  0.213900  0.976800  0.467000  1.0  0.078
  C  C108  1  0.279500  0.022300  0.422900  1.0  -0.1923
  C  C109  1  0.235600  0.886300  0.575600  1.0  -0.2093
  C  C110  1  0.427200  0.589500  0.698100  1.0  0.0518
  C  C111  1  0.399600  0.909500  0.440700  1.0  -0.2131
  C  C112  1  0.023400  0.033700  0.462500  1.0  0.1561
  C  C113  1  0.510800  0.586000  0.897900  1.0  -0.0931
  C  C114  1  0.351500  0.542800  0.721800  1.0  -0.1293
  C  C115  1  0.079800  0.984000  0.485300  1.0  -0.2166
  C  C116  1  0.508900  0.610500  0.786300  1.0  -0.1541
  C  C117  1  0.918600  0.816100  0.455300  1.0  0.0372
  C  C118  1  0.460100  0.859800  0.468800  1.0  0.1657
  C  C119  1  0.999500  0.798700  0.367100  1.0  -0.1021
  C  C120  1  0.432800  0.541400  0.922900  1.0  -0.1507
  C  C121  1  0.353900  0.518800  0.831000  1.0  -0.1189
  C  C122  1  0.838100  0.861000  0.437300  1.0  -0.0322
  C  C123  1  0.834200  0.887900  0.330400  1.0  -0.1066
  C  C124  1  0.304600  0.837900  0.599300  1.0  0.1662
  C  C125  1  0.991500  0.823700  0.254400  1.0  -0.1241
  C  C126  1  0.911100  0.868700  0.241600  1.0  -0.1093
  C  C127  1  0.893400  0.160200  0.672500  1.0  0.1608
  C  C128  1  0.615900  0.236600  0.189400  1.0  0.1305
  C  C129  1  0.395900  0.236600  0.688300  1.0  0.1563
  C  C130  1  0.888000  0.156000  0.791300  1.0  -0.2208
  C  C131  1  0.392000  0.240500  0.809400  1.0  -0.2179
  C  C132  1  0.116700  0.162600  0.049100  1.0  -0.1726
  C  C133  1  0.003500  0.145900  0.852500  1.0  0.0649
  C  C134  1  0.708400  0.156200  0.424000  1.0  0.6504
  C  C135  1  0.008600  0.145200  0.983300  1.0  0.0837
  C  C136  1  0.785300  0.571900  0.597100  1.0  0.1369
  C  C137  1  0.619000  0.239100  0.067800  1.0  -0.1651
  C  C138  1  0.112500  0.166500  0.169000  1.0  0.1668
  C  C139  1  0.614000  0.254200  0.689700  1.0  0.1451
  C  C140  1  0.109800  0.142800  0.669400  1.0  0.156
  C  C141  1  0.507100  0.251700  0.871000  1.0  0.0711
  C  C142  1  0.209700  0.245900  0.433900  1.0  0.6272
  C  C143  1  0.400600  0.264300  0.184800  1.0  0.1673
  C  C144  1  0.395200  0.266700  0.063700  1.0  -0.2184
  C  C145  1  0.900700  0.128600  0.046000  1.0  -0.2275
  C  C146  1  0.618600  0.258600  0.809600  1.0  -0.1922
  C  C147  1  0.902600  0.133300  0.166700  1.0  0.175
  C  C148  1  0.585900  0.118700  0.418400  1.0  0.0661
  C  C149  1  0.508000  0.252300  0.001200  1.0  0.0853
  C  C150  1  0.717100  0.424000  0.505400  1.0  0.0359
  C  C151  1  0.117200  0.137700  0.789300  1.0  -0.2254
  C  C152  1  0.087300  0.283800  0.428800  1.0  0.0519
  C  C153  1  0.786100  0.476800  0.533000  1.0  0.0784
  C  C154  1  0.720500  0.522300  0.577100  1.0  -0.1925
  C  C155  1  0.764400  0.386300  0.424400  1.0  -0.2095
  C  C156  1  0.572800  0.089500  0.301900  1.0  0.0512
  C  C157  1  0.600400  0.409500  0.559300  1.0  -0.2149
  C  C158  1  0.976600  0.533700  0.537500  1.0  0.1558
  C  C159  1  0.489200  0.086000  0.102100  1.0  -0.0925
  C  C160  1  0.648500  0.042800  0.278200  1.0  -0.1292
  C  C161  1  0.920200  0.484000  0.514700  1.0  -0.2164
  C  C162  1  0.491100  0.110500  0.213700  1.0  -0.1526
  C  C163  1  0.081400  0.316100  0.544700  1.0  0.0369
  C  C164  1  0.539900  0.359800  0.531200  1.0  0.1656
  C  C165  1  0.000500  0.298700  0.632900  1.0  -0.1001
  C  C166  1  0.567200  0.041400  0.077100  1.0  -0.1499
  C  C167  1  0.646100  0.018800  0.169000  1.0  -0.1207
  C  C168  1  0.161900  0.361000  0.562700  1.0  -0.0331
  C  C169  1  0.165800  0.387900  0.669600  1.0  -0.1058
  C  C170  1  0.695400  0.337900  0.400700  1.0  0.1668
  C  C171  1  0.008500  0.323700  0.745600  1.0  -0.1235
  C  C172  1  0.088900  0.368700  0.758400  1.0  -0.1088
  N  N173  1  0.995700  0.653700  0.771500  1.0  -0.3436
  N  N174  1  0.492700  0.748800  0.751400  1.0  -0.3321
  N  N175  1  0.496900  0.742800  0.371900  1.0  -0.3211
  N  N176  1  0.000600  0.655000  0.389900  1.0  -0.3146
  N  N177  1  0.088100  0.079000  0.425500  1.0  -0.3368
  N  N178  1  0.413500  0.823500  0.546900  1.0  -0.3289
  N  N179  1  0.004300  0.153700  0.228500  1.0  -0.343
  N  N180  1  0.507300  0.248800  0.248600  1.0  -0.3308
  N  N181  1  0.503100  0.242800  0.628100  1.0  -0.3208
  N  N182  1  0.999400  0.155000  0.610100  1.0  -0.3157
  N  N183  1  0.911900  0.579000  0.574500  1.0  -0.3354
  N  N184  1  0.586500  0.323500  0.453100  1.0  -0.3292
  O  O185  1  0.305800  0.707600  0.561600  1.0  -0.5906
  O  O186  1  0.808000  0.694100  0.569400  1.0  -0.5804
  O  O187  1  0.185000  0.631500  0.585200  1.0  -0.5904
  O  O188  1  0.682500  0.770500  0.563500  1.0  -0.6041
  O  O189  1  0.527700  0.652300  0.559400  1.0  -0.5828
  O  O190  1  0.025000  0.750700  0.593000  1.0  -0.5974
  O  O191  1  0.694200  0.207600  0.438400  1.0  -0.5909
  O  O192  1  0.192000  0.194100  0.430600  1.0  -0.5801
  O  O193  1  0.815000  0.131500  0.414800  1.0  -0.5909
  O  O194  1  0.317500  0.270500  0.436500  1.0  -0.6062
  O  O195  1  0.472300  0.152300  0.440600  1.0  -0.5812
  O  O196  1  0.975000  0.250700  0.407000  1.0  -0.5967
