# generated using pymatgen
data_CoH19C23(NO)3
_symmetry_space_group_name_H-M   'P 1'
_cell_length_a   10.22920000
_cell_length_b   24.70020000
_cell_length_c   11.42430000
_cell_angle_alpha   90.00000000
_cell_angle_beta   90.08700000
_cell_angle_gamma   90.00000000
_symmetry_Int_Tables_number   1
_chemical_formula_structural   CoH19C23(NO)3
_chemical_formula_sum   'Co4 H76 C92 N12 O12'
_cell_volume   2886.49784879
_cell_formula_units_Z   4
loop_
 _symmetry_equiv_pos_site_id
 _symmetry_equiv_pos_as_xyz
  1  'x, y, z'
loop_
 _atom_site_type_symbol
 _atom_site_label
 _atom_site_symmetry_multiplicity
 _atom_site_fract_x
 _atom_site_fract_y
 _atom_site_fract_z
 _atom_site_occupancy
 _atom_site_charge
  Co  Co1  1  0.955680  0.181830  0.079180  1.0  0.8763
  Co  Co2  1  0.456870  0.261130  0.056560  1.0  0.8773
  Co  Co3  1  0.044320  0.681830  0.920820  1.0  0.8767
  Co  Co4  1  0.543130  0.761130  0.943440  1.0  0.8768
  H  H5  1  0.770600  0.190100  0.871000  1.0  0.0686
  H  H6  1  0.281100  0.240000  0.844200  1.0  0.0581
  H  H7  1  0.035000  0.283000  0.146000  1.0  0.2142
  H  H8  1  0.268100  0.250900  0.644500  1.0  0.1066
  H  H9  1  0.506000  0.170000  0.976000  1.0  0.1733
  H  H10  1  0.145300  0.187200  0.293200  1.0  0.0659
  H  H11  1  0.762000  0.186600  0.669900  1.0  0.0961
  H  H12  1  0.657100  0.266300  0.471600  1.0  0.119
  H  H13  1  0.637600  0.294500  0.851200  1.0  0.0737
  H  H14  1  0.140200  0.154400  0.869100  1.0  0.0642
  H  H15  1  0.149100  0.180800  0.491600  1.0  0.109
  H  H16  1  0.762200  0.155500  0.487900  1.0  0.1167
  H  H17  1  0.640900  0.300800  0.645100  1.0  0.1059
  H  H18  1  0.653600  0.260800  0.271400  1.0  0.0704
  H  H19  1  0.766800  0.162300  0.288600  1.0  0.0607
  H  H20  1  0.142900  0.147900  0.669900  1.0  0.1025
  H  H21  1  0.362700  0.114800  0.012500  1.0  0.0993
  H  H22  1  0.865600  0.326800  0.140100  1.0  0.0996
  H  H23  1  0.273200  0.280600  0.261200  1.0  0.063
  H  H24  1  0.305800  0.622300  0.930600  1.0  0.0636
  H  H25  1  0.195400  0.319100  0.024300  1.0  0.0733
  H  H26  1  0.543600  0.377600  0.045800  1.0  0.0744
  H  H27  1  0.266500  0.285200  0.461700  1.0  0.11
  H  H28  1  0.464500  0.464100  0.005800  1.0  0.116
  H  H29  1  0.107300  0.402600  0.984600  1.0  0.0941
  H  H30  1  0.961200  0.563500  0.914800  1.0  0.0595
  H  H31  1  0.371800  0.052100  0.493000  1.0  0.1026
  H  H32  1  0.511800  0.165300  0.267600  1.0  0.1091
  H  H33  1  0.393000  0.538000  0.968900  1.0  0.0995
  H  H34  1  0.036700  0.478000  0.941100  1.0  0.1041
  H  H35  1  0.997400  0.283700  0.867800  1.0  0.0963
  H  H36  1  0.250300  0.053800  0.159500  1.0  0.0834
  H  H37  1  0.765900  0.448900  0.856200  1.0  0.0927
  H  H38  1  0.988900  0.338400  0.688700  1.0  0.1118
  H  H39  1  0.774100  0.396100  0.025700  1.0  0.0971
  H  H40  1  0.865900  0.417500  0.692300  1.0  0.0837
  H  H41  1  0.495100  0.127100  0.454900  1.0  0.0796
  H  H42  1  0.235500  0.020100  0.344200  1.0  0.089
  H  H43  1  0.229400  0.690100  0.129000  1.0  0.0687
  H  H44  1  0.718900  0.740000  0.155800  1.0  0.0584
  H  H45  1  0.965000  0.783000  0.854000  1.0  0.2131
  H  H46  1  0.731900  0.750900  0.355500  1.0  0.1072
  H  H47  1  0.494000  0.670000  0.024000  1.0  0.1717
  H  H48  1  0.854700  0.687200  0.706800  1.0  0.0657
  H  H49  1  0.238000  0.686600  0.330100  1.0  0.0966
  H  H50  1  0.342900  0.766300  0.528400  1.0  0.1183
  H  H51  1  0.362400  0.794500  0.148800  1.0  0.074
  H  H52  1  0.859800  0.654400  0.130900  1.0  0.0641
  H  H53  1  0.850900  0.680800  0.508400  1.0  0.1087
  H  H54  1  0.237800  0.655500  0.512100  1.0  0.1163
  H  H55  1  0.359100  0.800800  0.354900  1.0  0.1051
  H  H56  1  0.346400  0.760800  0.728600  1.0  0.0699
  H  H57  1  0.233200  0.662300  0.711400  1.0  0.0605
  H  H58  1  0.857100  0.647900  0.330100  1.0  0.103
  H  H59  1  0.637300  0.614800  0.987500  1.0  0.0996
  H  H60  1  0.134400  0.826800  0.859900  1.0  0.0992
  H  H61  1  0.726800  0.780600  0.738800  1.0  0.0626
  H  H62  1  0.694200  0.122300  0.069400  1.0  0.0634
  H  H63  1  0.804600  0.819100  0.975700  1.0  0.073
  H  H64  1  0.456400  0.877600  0.954200  1.0  0.0735
  H  H65  1  0.733500  0.785200  0.538300  1.0  0.11
  H  H66  1  0.535500  0.964100  0.994200  1.0  0.1155
  H  H67  1  0.892700  0.902600  0.015400  1.0  0.0944
  H  H68  1  0.038800  0.063500  0.085200  1.0  0.0595
  H  H69  1  0.628200  0.552100  0.507000  1.0  0.1023
  H  H70  1  0.488200  0.665300  0.732400  1.0  0.1092
  H  H71  1  0.607000  0.038000  0.031100  1.0  0.0997
  H  H72  1  0.963300  0.978000  0.058900  1.0  0.1048
  H  H73  1  0.002600  0.783700  0.132200  1.0  0.0957
  H  H74  1  0.749700  0.553800  0.840500  1.0  0.0837
  H  H75  1  0.234100  0.948900  0.143800  1.0  0.0921
  H  H76  1  0.011100  0.838400  0.311300  1.0  0.1106
  H  H77  1  0.225900  0.896100  0.974300  1.0  0.0977
  H  H78  1  0.134100  0.917500  0.307700  1.0  0.0841
  H  H79  1  0.504900  0.627100  0.545100  1.0  0.0796
  H  H80  1  0.764500  0.520100  0.655800  1.0  0.0882
  C  C81  1  0.849100  0.183800  0.828900  1.0  0.1539
  C  C82  1  0.251700  0.179400  0.073700  1.0  0.6335
  C  C83  1  0.356300  0.252500  0.803700  1.0  0.1882
  C  C84  1  0.953700  0.171000  0.511800  1.0  0.0591
  C  C85  1  0.348700  0.257400  0.683500  1.0  -0.2055
  C  C86  1  0.065100  0.181100  0.332800  1.0  0.1764
  C  C87  1  0.955600  0.171400  0.641200  1.0  0.0744
  C  C88  1  0.843500  0.181400  0.708300  1.0  -0.2151
  C  C89  1  0.576300  0.267900  0.430600  1.0  -0.2363
  C  C90  1  0.563100  0.283200  0.807800  1.0  0.1619
  C  C91  1  0.062700  0.162900  0.827000  1.0  0.1446
  C  C92  1  0.068300  0.178000  0.450900  1.0  -0.213
  C  C93  1  0.459000  0.271800  0.619600  1.0  0.0766
  C  C94  1  0.842100  0.163200  0.449200  1.0  -0.2124
  C  C95  1  0.460600  0.272900  0.489800  1.0  0.0845
  C  C96  1  0.754200  0.265400  0.066800  1.0  0.6721
  C  C97  1  0.565300  0.287300  0.683500  1.0  -0.1698
  C  C98  1  0.572700  0.265300  0.310900  1.0  0.1579
  C  C99  1  0.846400  0.166700  0.330400  1.0  0.1709
  C  C100  1  0.065000  0.159100  0.707900  1.0  -0.2276
  C  C101  1  0.373000  0.142600  0.075500  1.0  0.0651
  C  C102  1  0.277000  0.443200  0.990000  1.0  0.046
  C  C103  1  0.875100  0.301500  0.072300  1.0  0.0582
  C  C104  1  0.352400  0.276500  0.303800  1.0  0.1492
  C  C105  1  0.247700  0.592500  0.937700  1.0  0.1433
  C  C106  1  0.252600  0.349400  0.021600  1.0  0.1552
  C  C107  1  0.452400  0.382500  0.034000  1.0  0.1409
  C  C108  1  0.223500  0.498400  0.963600  1.0  0.1011
  C  C109  1  0.882000  0.334900  0.960300  1.0  0.0126
  C  C110  1  0.347700  0.279100  0.423700  1.0  -0.2231
  C  C111  1  0.405200  0.434600  0.009000  1.0  -0.1528
  C  C112  1  0.198800  0.399200  0.996800  1.0  -0.1914
  C  C113  1  0.052400  0.559000  0.927000  1.0  0.1773
  C  C114  1  0.381700  0.113600  0.191800  1.0  0.0668
  C  C115  1  0.371000  0.068300  0.418000  1.0  -0.1257
  C  C116  1  0.455800  0.135300  0.281000  1.0  -0.231
  C  C117  1  0.301300  0.541900  0.958400  1.0  -0.1987
  C  C118  1  0.096300  0.507500  0.944000  1.0  -0.2321
  C  C119  1  0.949200  0.316600  0.864900  1.0  -0.0815
  C  C120  1  0.301800  0.069700  0.219700  1.0  -0.1407
  C  C121  1  0.811300  0.415300  0.857000  1.0  -0.1369
  C  C122  1  0.945000  0.349300  0.757800  1.0  -0.1642
  C  C123  1  0.816800  0.383700  0.957000  1.0  -0.1184
  C  C124  1  0.872000  0.396700  0.762000  1.0  -0.1033
  C  C125  1  0.446000  0.111500  0.392900  1.0  -0.0816
  C  C126  1  0.295000  0.048800  0.328800  1.0  -0.1312
  C  C127  1  0.150900  0.683800  0.171100  1.0  0.1551
  C  C128  1  0.748300  0.679400  0.926300  1.0  0.6355
  C  C129  1  0.643700  0.752500  0.196300  1.0  0.1883
  C  C130  1  0.046300  0.671000  0.488200  1.0  0.0599
  C  C131  1  0.651300  0.757400  0.316500  1.0  -0.2059
  C  C132  1  0.934900  0.681100  0.667200  1.0  0.1762
  C  C133  1  0.044400  0.671400  0.358800  1.0  0.0743
  C  C134  1  0.156500  0.681400  0.291700  1.0  -0.217
  C  C135  1  0.423700  0.767900  0.569400  1.0  -0.237
  C  C136  1  0.436900  0.783200  0.192200  1.0  0.1614
  C  C137  1  0.937300  0.662900  0.173000  1.0  0.1444
  C  C138  1  0.931700  0.678000  0.549100  1.0  -0.2125
  C  C139  1  0.541000  0.771800  0.380400  1.0  0.0776
  C  C140  1  0.157900  0.663200  0.550800  1.0  -0.209
  C  C141  1  0.539400  0.772900  0.510200  1.0  0.0842
  C  C142  1  0.245800  0.765400  0.933200  1.0  0.6739
  C  C143  1  0.434700  0.787300  0.316500  1.0  -0.1715
  C  C144  1  0.427300  0.765300  0.689100  1.0  0.1573
  C  C145  1  0.153600  0.666667  0.669600  1.0  0.1712
  C  C146  1  0.935000  0.659100  0.292100  1.0  -0.2291
  C  C147  1  0.627000  0.642600  0.924500  1.0  0.0641
  C  C148  1  0.723000  0.943200  0.010000  1.0  0.0456
  C  C149  1  0.124900  0.801500  0.927700  1.0  0.0614
  C  C150  1  0.647600  0.776500  0.696200  1.0  0.1503
  C  C151  1  0.752300  0.092500  0.062300  1.0  0.1435
  C  C152  1  0.747400  0.849400  0.978400  1.0  0.1552
  C  C153  1  0.547600  0.882500  0.966000  1.0  0.1399
  C  C154  1  0.776500  0.998400  0.036400  1.0  0.1008
  C  C155  1  0.118000  0.834900  0.039700  1.0  0.0127
  C  C156  1  0.652300  0.779100  0.576300  1.0  -0.2215
  C  C157  1  0.594800  0.934600  0.991000  1.0  -0.1533
  C  C158  1  0.801200  0.899200  0.003200  1.0  -0.1905
  C  C159  1  0.947600  0.059000  0.073000  1.0  0.177
  C  C160  1  0.618300  0.613600  0.808200  1.0  0.0661
  C  C161  1  0.629000  0.568300  0.582000  1.0  -0.1241
  C  C162  1  0.544200  0.635300  0.719000  1.0  -0.2316
  C  C163  1  0.698700  0.041900  0.041600  1.0  -0.2002
  C  C164  1  0.903700  0.007500  0.056000  1.0  -0.2312
  C  C165  1  0.050800  0.816600  0.135100  1.0  -0.0821
  C  C166  1  0.698200  0.569700  0.780300  1.0  -0.1418
  C  C167  1  0.188700  0.915300  0.143000  1.0  -0.1362
  C  C168  1  0.055000  0.849300  0.242200  1.0  -0.1627
  C  C169  1  0.183200  0.883700  0.043000  1.0  -0.1171
  C  C170  1  0.128000  0.896700  0.238000  1.0  -0.1054
  C  C171  1  0.554000  0.611500  0.607100  1.0  -0.084
  C  C172  1  0.705000  0.548800  0.671200  1.0  -0.1301
  N  N173  1  0.956700  0.176100  0.267600  1.0  -0.3559
  N  N174  1  0.957100  0.177900  0.887200  1.0  -0.3254
  N  N175  1  0.460000  0.264000  0.865000  1.0  -0.3219
  N  N176  1  0.463000  0.268600  0.244000  1.0  -0.3411
  N  N177  1  0.375800  0.340800  0.041600  1.0  -0.3165
  N  N178  1  0.123100  0.601800  0.927400  1.0  -0.2971
  N  N179  1  0.043300  0.676100  0.732400  1.0  -0.3545
  N  N180  1  0.042900  0.677900  0.112800  1.0  -0.3254
  N  N181  1  0.540000  0.764000  0.135000  1.0  -0.323
  N  N182  1  0.537000  0.768600  0.756000  1.0  -0.3392
  N  N183  1  0.624200  0.840800  0.958400  1.0  -0.3177
  N  N184  1  0.876900  0.101800  0.072600  1.0  -0.2969
  O  O185  1  0.768800  0.214200  0.075000  1.0  -0.5853
  O  O186  1  0.268700  0.228300  0.064200  1.0  -0.5626
  O  O187  1  0.646500  0.288000  0.055500  1.0  -0.5859
  O  O188  1  0.145100  0.155600  0.081400  1.0  -0.5932
  O  O189  1  0.986900  0.269200  0.090900  1.0  -0.5749
  O  O190  1  0.486400  0.173600  0.050800  1.0  -0.5788
  O  O191  1  0.231200  0.714200  0.925000  1.0  -0.586
  O  O192  1  0.731300  0.728300  0.935800  1.0  -0.5629
  O  O193  1  0.353500  0.788000  0.944500  1.0  -0.5868
  O  O194  1  0.854900  0.655600  0.918600  1.0  -0.5927
  O  O195  1  0.013100  0.769200  0.909100  1.0  -0.5734
  O  O196  1  0.513600  0.673600  0.949200  1.0  -0.576
