# generated using pymatgen
data_MnH9C14(NO2)2
_symmetry_space_group_name_H-M   'P 1'
_cell_length_a   18.68800000
_cell_length_b   15.05200000
_cell_length_c   16.25900000
_cell_angle_alpha   90.00000000
_cell_angle_beta   113.10400000
_cell_angle_gamma   90.00000000
_symmetry_Int_Tables_number   1
_chemical_formula_structural   MnH9C14(NO2)2
_chemical_formula_sum   'Mn8 H72 C112 N16 O32'
_cell_volume   4206.69948059
_cell_formula_units_Z   8
loop_
 _symmetry_equiv_pos_site_id
 _symmetry_equiv_pos_as_xyz
  1  'x, y, z'
loop_
 _atom_site_type_symbol
 _atom_site_label
 _atom_site_symmetry_multiplicity
 _atom_site_fract_x
 _atom_site_fract_y
 _atom_site_fract_z
 _atom_site_occupancy
 _atom_site_charge
  Mn  Mn1  1  0.220450  0.609250  0.951140  1.0  1.0354
  Mn  Mn2  1  0.720450  0.109250  0.951140  1.0  1.0354
  Mn  Mn3  1  0.779550  0.609250  0.548860  1.0  1.0359
  Mn  Mn4  1  0.279550  0.109250  0.548860  1.0  1.0359
  Mn  Mn5  1  0.779550  0.390750  0.048860  1.0  1.0368
  Mn  Mn6  1  0.279550  0.890750  0.048860  1.0  1.0368
  Mn  Mn7  1  0.220450  0.390750  0.451140  1.0  1.0362
  Mn  Mn8  1  0.720450  0.890750  0.451140  1.0  1.0362
  H  H9  1  0.229800  0.578100  0.221800  1.0  0.1023
  H  H10  1  0.317300  0.822700  0.260200  1.0  0.1027
  H  H11  1  0.323200  0.848000  0.476500  1.0  0.2067
  H  H12  1  0.350700  0.979400  0.430800  1.0  0.101
  H  H13  1  0.323100  0.940800  0.333600  1.0  0.0815
  H  H14  1  0.565800  0.994300  0.341600  1.0  0.0643
  H  H15  1  0.472300  0.827300  0.505900  1.0  0.1185
  H  H16  1  0.437700  0.008600  0.318800  1.0  0.1267
  H  H17  1  0.597500  0.819300  0.522800  1.0  0.0737
  H  H18  1  0.729800  0.078100  0.221800  1.0  0.1023
  H  H19  1  0.817300  0.322700  0.260200  1.0  0.1027
  H  H20  1  0.823200  0.348000  0.476500  1.0  0.2067
  H  H21  1  0.850700  0.479400  0.430800  1.0  0.101
  H  H22  1  0.823100  0.440800  0.333600  1.0  0.0815
  H  H23  1  0.065800  0.494300  0.341600  1.0  0.0643
  H  H24  1  0.972300  0.327300  0.505900  1.0  0.1185
  H  H25  1  0.937700  0.508600  0.318800  1.0  0.1267
  H  H26  1  0.097500  0.319300  0.522800  1.0  0.0737
  H  H27  1  0.770200  0.578100  0.278200  1.0  0.1027
  H  H28  1  0.682700  0.822700  0.239800  1.0  0.1027
  H  H29  1  0.676800  0.848000  0.023500  1.0  0.207
  H  H30  1  0.649300  0.979400  0.069200  1.0  0.1009
  H  H31  1  0.676900  0.940800  0.166400  1.0  0.081
  H  H32  1  0.434200  0.994300  0.158400  1.0  0.064
  H  H33  1  0.527700  0.827300  0.994100  1.0  0.1175
  H  H34  1  0.562300  0.008600  0.181200  1.0  0.1269
  H  H35  1  0.402500  0.819300  0.977200  1.0  0.0736
  H  H36  1  0.270200  0.078100  0.278200  1.0  0.1027
  H  H37  1  0.182700  0.322700  0.239800  1.0  0.1027
  H  H38  1  0.176800  0.348000  0.023500  1.0  0.207
  H  H39  1  0.149300  0.479400  0.069200  1.0  0.1009
  H  H40  1  0.176900  0.440800  0.166400  1.0  0.081
  H  H41  1  0.934200  0.494300  0.158400  1.0  0.064
  H  H42  1  0.027700  0.327300  0.994100  1.0  0.1175
  H  H43  1  0.062300  0.508600  0.181200  1.0  0.1269
  H  H44  1  0.902500  0.319300  0.977200  1.0  0.0736
  H  H45  1  0.770200  0.421900  0.778200  1.0  0.1031
  H  H46  1  0.682700  0.177300  0.739800  1.0  0.1031
  H  H47  1  0.676800  0.152000  0.523500  1.0  0.2071
  H  H48  1  0.649300  0.020600  0.569200  1.0  0.1007
  H  H49  1  0.676900  0.059200  0.666400  1.0  0.081
  H  H50  1  0.434200  0.005700  0.658400  1.0  0.0645
  H  H51  1  0.527700  0.172700  0.494100  1.0  0.1186
  H  H52  1  0.562300  0.991400  0.681200  1.0  0.1271
  H  H53  1  0.402500  0.180700  0.477200  1.0  0.075
  H  H54  1  0.270200  0.921900  0.778200  1.0  0.1031
  H  H55  1  0.182700  0.677300  0.739800  1.0  0.1031
  H  H56  1  0.176800  0.652000  0.523500  1.0  0.2071
  H  H57  1  0.149300  0.520600  0.569200  1.0  0.1007
  H  H58  1  0.176900  0.559200  0.666400  1.0  0.081
  H  H59  1  0.934200  0.505700  0.658400  1.0  0.0645
  H  H60  1  0.027700  0.672700  0.494100  1.0  0.1186
  H  H61  1  0.062300  0.491400  0.681200  1.0  0.1271
  H  H62  1  0.902500  0.680700  0.477200  1.0  0.075
  H  H63  1  0.229800  0.421900  0.721800  1.0  0.103
  H  H64  1  0.317300  0.177300  0.760200  1.0  0.1031
  H  H65  1  0.323200  0.152000  0.976500  1.0  0.2065
  H  H66  1  0.350700  0.020600  0.930800  1.0  0.1019
  H  H67  1  0.323100  0.059200  0.833600  1.0  0.0818
  H  H68  1  0.565800  0.005700  0.841600  1.0  0.0642
  H  H69  1  0.472300  0.172700  0.005900  1.0  0.1193
  H  H70  1  0.437700  0.991400  0.818800  1.0  0.1264
  H  H71  1  0.597500  0.180700  0.022800  1.0  0.0734
  H  H72  1  0.729800  0.921900  0.721800  1.0  0.103
  H  H73  1  0.817300  0.677300  0.760200  1.0  0.1031
  H  H74  1  0.823200  0.652000  0.976500  1.0  0.2065
  H  H75  1  0.850700  0.520600  0.930800  1.0  0.1019
  H  H76  1  0.823100  0.559200  0.833600  1.0  0.0818
  H  H77  1  0.065800  0.505700  0.841600  1.0  0.0642
  H  H78  1  0.972300  0.672700  0.005900  1.0  0.1193
  H  H79  1  0.937700  0.491400  0.818800  1.0  0.1264
  H  H80  1  0.097500  0.680700  0.022800  1.0  0.0734
  C  C81  1  0.247600  0.627400  0.258600  1.0  0.0203
  C  C82  1  0.299100  0.774100  0.281500  1.0  -0.1593
  C  C83  1  0.249300  0.627100  0.345500  1.0  -0.1138
  C  C84  1  0.229000  0.544300  0.381900  1.0  0.6719
  C  C85  1  0.272100  0.700700  0.134800  1.0  0.7278
  C  C86  1  0.272600  0.701300  0.228600  1.0  -0.1424
  C  C87  1  0.274900  0.701700  0.398900  1.0  0.0539
  C  C88  1  0.437800  0.918100  0.407400  1.0  0.1174
  C  C89  1  0.354900  0.928800  0.396000  1.0  -0.0774
  C  C90  1  0.299100  0.776900  0.367900  1.0  0.216
  C  C91  1  0.546200  0.958200  0.374400  1.0  0.1798
  C  C92  1  0.489300  0.862000  0.469800  1.0  -0.2621
  C  C93  1  0.468600  0.967800  0.360600  1.0  -0.2159
  C  C94  1  0.564400  0.857000  0.479100  1.0  0.1863
  C  C95  1  0.747600  0.127400  0.258600  1.0  0.0203
  C  C96  1  0.799100  0.274100  0.281500  1.0  -0.1593
  C  C97  1  0.749300  0.127100  0.345500  1.0  -0.1138
  C  C98  1  0.729000  0.044300  0.381900  1.0  0.6713
  C  C99  1  0.772100  0.200700  0.134800  1.0  0.7278
  C  C100  1  0.772600  0.201300  0.228600  1.0  -0.1424
  C  C101  1  0.774900  0.201700  0.398900  1.0  0.0539
  C  C102  1  0.937800  0.418100  0.407400  1.0  0.1174
  C  C103  1  0.854900  0.428800  0.396000  1.0  -0.0774
  C  C104  1  0.799100  0.276900  0.367900  1.0  0.216
  C  C105  1  0.046200  0.458200  0.374400  1.0  0.1798
  C  C106  1  0.989300  0.362000  0.469800  1.0  -0.2621
  C  C107  1  0.968600  0.467800  0.360600  1.0  -0.2159
  C  C108  1  0.064400  0.357000  0.479100  1.0  0.1863
  C  C109  1  0.752400  0.627400  0.241400  1.0  0.0206
  C  C110  1  0.700900  0.774100  0.218500  1.0  -0.161
  C  C111  1  0.750700  0.627100  0.154500  1.0  -0.1122
  C  C112  1  0.771000  0.544300  0.118100  1.0  0.6732
  C  C113  1  0.727900  0.700700  0.365200  1.0  0.726
  C  C114  1  0.727400  0.701300  0.271400  1.0  -0.1413
  C  C115  1  0.725100  0.701700  0.101100  1.0  0.053
  C  C116  1  0.562200  0.918100  0.092600  1.0  0.1176
  C  C117  1  0.645100  0.928800  0.104000  1.0  -0.0781
  C  C118  1  0.700900  0.776900  0.132100  1.0  0.2172
  C  C119  1  0.453800  0.958200  0.125600  1.0  0.1802
  C  C120  1  0.510700  0.862000  0.030200  1.0  -0.2614
  C  C121  1  0.531400  0.967800  0.139400  1.0  -0.2146
  C  C122  1  0.435600  0.857000  0.020900  1.0  0.1885
  C  C123  1  0.252400  0.127400  0.241400  1.0  0.0206
  C  C124  1  0.200900  0.274100  0.218500  1.0  -0.161
  C  C125  1  0.250700  0.127100  0.154500  1.0  -0.1122
  C  C126  1  0.271000  0.044300  0.118100  1.0  0.6725
  C  C127  1  0.227900  0.200700  0.365200  1.0  0.726
  C  C128  1  0.227400  0.201300  0.271400  1.0  -0.1413
  C  C129  1  0.225100  0.201700  0.101100  1.0  0.053
  C  C130  1  0.062200  0.418100  0.092600  1.0  0.1176
  C  C131  1  0.145100  0.428800  0.104000  1.0  -0.0781
  C  C132  1  0.200900  0.276900  0.132100  1.0  0.2172
  C  C133  1  0.953800  0.458200  0.125600  1.0  0.1802
  C  C134  1  0.010700  0.362000  0.030200  1.0  -0.2614
  C  C135  1  0.031400  0.467800  0.139400  1.0  -0.2146
  C  C136  1  0.935600  0.357000  0.020900  1.0  0.1885
  C  C137  1  0.752400  0.372600  0.741400  1.0  0.0212
  C  C138  1  0.700900  0.225900  0.718500  1.0  -0.1612
  C  C139  1  0.750700  0.372900  0.654500  1.0  -0.1122
  C  C140  1  0.771000  0.455700  0.618100  1.0  0.6726
  C  C141  1  0.727900  0.299300  0.865200  1.0  0.7261
  C  C142  1  0.727400  0.298700  0.771400  1.0  -0.1413
  C  C143  1  0.725100  0.298300  0.601100  1.0  0.0538
  C  C144  1  0.562200  0.081900  0.592600  1.0  0.118
  C  C145  1  0.645100  0.071200  0.604000  1.0  -0.0789
  C  C146  1  0.700900  0.223100  0.632100  1.0  0.2183
  C  C147  1  0.453800  0.041800  0.625600  1.0  0.1798
  C  C148  1  0.510700  0.138000  0.530200  1.0  -0.2611
  C  C149  1  0.531400  0.032200  0.639400  1.0  -0.2148
  C  C150  1  0.435600  0.143000  0.520900  1.0  0.187
  C  C151  1  0.252400  0.872600  0.741400  1.0  0.0212
  C  C152  1  0.200900  0.725900  0.718500  1.0  -0.1612
  C  C153  1  0.250700  0.872900  0.654500  1.0  -0.1122
  C  C154  1  0.271000  0.955700  0.618100  1.0  0.6719
  C  C155  1  0.227900  0.799300  0.865200  1.0  0.7261
  C  C156  1  0.227400  0.798700  0.771400  1.0  -0.1413
  C  C157  1  0.225100  0.798300  0.601100  1.0  0.0538
  C  C158  1  0.062200  0.581900  0.592600  1.0  0.118
  C  C159  1  0.145100  0.571200  0.604000  1.0  -0.0789
  C  C160  1  0.200900  0.723100  0.632100  1.0  0.2183
  C  C161  1  0.953800  0.541800  0.625600  1.0  0.1798
  C  C162  1  0.010700  0.638000  0.530200  1.0  -0.2611
  C  C163  1  0.031400  0.532200  0.639400  1.0  -0.2148
  C  C164  1  0.935600  0.643000  0.520900  1.0  0.187
  C  C165  1  0.247600  0.372600  0.758600  1.0  0.021
  C  C166  1  0.299100  0.225900  0.781500  1.0  -0.1594
  C  C167  1  0.249300  0.372900  0.845500  1.0  -0.114
  C  C168  1  0.229000  0.455700  0.881900  1.0  0.6719
  C  C169  1  0.272100  0.299300  0.634800  1.0  0.7278
  C  C170  1  0.272600  0.298700  0.728600  1.0  -0.1421
  C  C171  1  0.274900  0.298300  0.898900  1.0  0.0539
  C  C172  1  0.437800  0.081900  0.907400  1.0  0.1181
  C  C173  1  0.354900  0.071200  0.896000  1.0  -0.0791
  C  C174  1  0.299100  0.223100  0.867900  1.0  0.2161
  C  C175  1  0.546200  0.041800  0.874400  1.0  0.1798
  C  C176  1  0.489300  0.138000  0.969800  1.0  -0.2626
  C  C177  1  0.468600  0.032200  0.860600  1.0  -0.2158
  C  C178  1  0.564400  0.143000  0.979100  1.0  0.1862
  C  C179  1  0.747600  0.872600  0.758600  1.0  0.021
  C  C180  1  0.799100  0.725900  0.781500  1.0  -0.1594
  C  C181  1  0.749300  0.872900  0.845500  1.0  -0.114
  C  C182  1  0.729000  0.955700  0.881900  1.0  0.6713
  C  C183  1  0.772100  0.799300  0.634800  1.0  0.7278
  C  C184  1  0.772600  0.798700  0.728600  1.0  -0.1421
  C  C185  1  0.774900  0.798300  0.898900  1.0  0.0539
  C  C186  1  0.937800  0.581900  0.907400  1.0  0.1181
  C  C187  1  0.854900  0.571200  0.896000  1.0  -0.0791
  C  C188  1  0.799100  0.723100  0.867900  1.0  0.2161
  C  C189  1  0.046200  0.541800  0.874400  1.0  0.1798
  C  C190  1  0.989300  0.638000  0.969800  1.0  -0.2626
  C  C191  1  0.968600  0.532200  0.860600  1.0  -0.2158
  C  C192  1  0.064400  0.643000  0.979100  1.0  0.1862
  N  N193  1  0.593500  0.902100  0.430300  1.0  -0.3432
  N  N194  1  0.324800  0.849400  0.424400  1.0  -0.3764
  N  N195  1  0.093500  0.402100  0.430300  1.0  -0.3432
  N  N196  1  0.824800  0.349400  0.424400  1.0  -0.3764
  N  N197  1  0.406500  0.902100  0.069700  1.0  -0.3419
  N  N198  1  0.675200  0.849400  0.075600  1.0  -0.3774
  N  N199  1  0.906500  0.402100  0.069700  1.0  -0.3419
  N  N200  1  0.175200  0.349400  0.075600  1.0  -0.3774
  N  N201  1  0.406500  0.097900  0.569700  1.0  -0.3413
  N  N202  1  0.675200  0.150600  0.575600  1.0  -0.378
  N  N203  1  0.906500  0.597900  0.569700  1.0  -0.3413
  N  N204  1  0.175200  0.650600  0.575600  1.0  -0.378
  N  N205  1  0.593500  0.097900  0.930300  1.0  -0.3417
  N  N206  1  0.324800  0.150600  0.924400  1.0  -0.3774
  N  N207  1  0.093500  0.597900  0.930300  1.0  -0.3417
  N  N208  1  0.824800  0.650600  0.924400  1.0  -0.3774
  O  O209  1  0.244100  0.633700  0.086800  1.0  -0.6179
  O  O210  1  0.211000  0.474800  0.334500  1.0  -0.5832
  O  O211  1  0.232700  0.543700  0.461200  1.0  -0.6303
  O  O212  1  0.302300  0.765800  0.111600  1.0  -0.6647
  O  O213  1  0.744100  0.133700  0.086800  1.0  -0.6179
  O  O214  1  0.711000  0.974800  0.334500  1.0  -0.5832
  O  O215  1  0.732700  0.043700  0.461200  1.0  -0.6303
  O  O216  1  0.802300  0.265800  0.111600  1.0  -0.6647
  O  O217  1  0.755900  0.633700  0.413200  1.0  -0.618
  O  O218  1  0.789000  0.474800  0.165500  1.0  -0.5838
  O  O219  1  0.767300  0.543700  0.038800  1.0  -0.6325
  O  O220  1  0.697700  0.765800  0.388400  1.0  -0.6661
  O  O221  1  0.255900  0.133700  0.413200  1.0  -0.618
  O  O222  1  0.289000  0.974800  0.165500  1.0  -0.5838
  O  O223  1  0.267300  0.043700  0.038800  1.0  -0.6325
  O  O224  1  0.197700  0.265800  0.388400  1.0  -0.6661
  O  O225  1  0.755900  0.366300  0.913200  1.0  -0.6195
  O  O226  1  0.789000  0.525200  0.665500  1.0  -0.584
  O  O227  1  0.767300  0.456300  0.538800  1.0  -0.6328
  O  O228  1  0.697700  0.234200  0.888400  1.0  -0.6678
  O  O229  1  0.255900  0.866300  0.913200  1.0  -0.6195
  O  O230  1  0.289000  0.025200  0.665500  1.0  -0.584
  O  O231  1  0.267300  0.956300  0.538800  1.0  -0.6328
  O  O232  1  0.197700  0.734200  0.888400  1.0  -0.6678
  O  O233  1  0.244100  0.366300  0.586800  1.0  -0.6189
  O  O234  1  0.211000  0.525200  0.834500  1.0  -0.583
  O  O235  1  0.232700  0.456300  0.961200  1.0  -0.6305
  O  O236  1  0.302300  0.234200  0.611600  1.0  -0.6659
  O  O237  1  0.744100  0.866300  0.586800  1.0  -0.6189
  O  O238  1  0.711000  0.025200  0.834500  1.0  -0.583
  O  O239  1  0.732700  0.956300  0.961200  1.0  -0.6305
  O  O240  1  0.802300  0.734200  0.611600  1.0  -0.6659
