# generated using pymatgen
data_MnH10C14(NO2)2
_symmetry_space_group_name_H-M   'P 1'
_cell_length_a   11.94740000
_cell_length_b   11.94740000
_cell_length_c   16.24600000
_cell_angle_alpha   72.26530000
_cell_angle_beta   72.26530000
_cell_angle_gamma   77.79970000
_symmetry_Int_Tables_number   1
_chemical_formula_structural   MnH10C14(NO2)2
_chemical_formula_sum   'Mn4 H40 C56 N8 O16'
_cell_volume   2085.75291190
_cell_formula_units_Z   4
loop_
 _symmetry_equiv_pos_site_id
 _symmetry_equiv_pos_as_xyz
  1  'x, y, z'
loop_
 _atom_site_type_symbol
 _atom_site_label
 _atom_site_symmetry_multiplicity
 _atom_site_fract_x
 _atom_site_fract_y
 _atom_site_fract_z
 _atom_site_occupancy
 _atom_site_charge
  Mn  Mn1  1  0.833140  0.613040  0.047520  1.0  1.0248
  Mn  Mn2  1  0.386960  0.166860  0.452480  1.0  1.0311
  Mn  Mn3  1  0.166860  0.386960  0.952480  1.0  1.0273
  Mn  Mn4  1  0.613040  0.833140  0.547520  1.0  1.0274
  H  H5  1  0.192100  0.347900  0.224100  1.0  0.0901
  H  H6  1  0.823200  0.530200  0.474700  1.0  0.2679
  H  H7  1  0.710900  0.353100  0.488900  1.0  0.1185
  H  H8  1  0.856800  0.510000  0.259800  1.0  0.1104
  H  H9  1  0.019100  0.425900  0.458100  1.0  0.1139
  H  H10  1  0.543500  0.576900  0.321400  1.0  0.1179
  H  H11  1  0.735500  0.621100  0.331200  1.0  0.0967
  H  H12  1  0.667500  0.632300  0.428000  1.0  0.0966
  H  H13  1  0.592800  0.218400  0.506200  1.0  0.0678
  H  H14  1  0.434000  0.432200  0.339500  1.0  0.0662
  H  H15  1  0.652100  0.807900  0.275900  1.0  0.0906
  H  H16  1  0.469800  0.176800  0.025300  1.0  0.2725
  H  H17  1  0.646900  0.289100  0.011100  1.0  0.1181
  H  H18  1  0.490000  0.143200  0.240200  1.0  0.11
  H  H19  1  0.574100  0.980900  0.041900  1.0  0.1156
  H  H20  1  0.423100  0.456500  0.178600  1.0  0.117
  H  H21  1  0.378900  0.264500  0.168800  1.0  0.0967
  H  H22  1  0.367700  0.332500  0.072000  1.0  0.0969
  H  H23  1  0.781600  0.407200  0.993800  1.0  0.0693
  H  H24  1  0.567800  0.566000  0.160500  1.0  0.0658
  H  H25  1  0.807900  0.652100  0.775900  1.0  0.0901
  H  H26  1  0.176800  0.469800  0.525300  1.0  0.2736
  H  H27  1  0.289100  0.646900  0.511100  1.0  0.1197
  H  H28  1  0.143200  0.490000  0.740200  1.0  0.1105
  H  H29  1  0.980900  0.574100  0.541900  1.0  0.1137
  H  H30  1  0.456500  0.423100  0.678600  1.0  0.1184
  H  H31  1  0.264500  0.378900  0.668800  1.0  0.0968
  H  H32  1  0.332500  0.367700  0.572000  1.0  0.0961
  H  H33  1  0.407200  0.781600  0.493800  1.0  0.0693
  H  H34  1  0.566000  0.567800  0.660500  1.0  0.0662
  H  H35  1  0.347900  0.192100  0.724100  1.0  0.0901
  H  H36  1  0.530200  0.823200  0.974700  1.0  0.267
  H  H37  1  0.353100  0.710900  0.988900  1.0  0.1183
  H  H38  1  0.510000  0.856800  0.759800  1.0  0.1101
  H  H39  1  0.425900  0.019100  0.958100  1.0  0.1159
  H  H40  1  0.576900  0.543500  0.821400  1.0  0.1173
  H  H41  1  0.621100  0.735500  0.831200  1.0  0.0967
  H  H42  1  0.632300  0.667500  0.928000  1.0  0.0956
  H  H43  1  0.218400  0.592800  0.006200  1.0  0.0689
  H  H44  1  0.432200  0.434000  0.839500  1.0  0.066
  C  C45  1  0.124400  0.380000  0.260300  1.0  -0.0329
  C  C46  1  0.025500  0.431100  0.227300  1.0  -0.1412
  C  C47  1  0.920500  0.480300  0.368400  1.0  0.2017
  C  C48  1  0.653000  0.374000  0.457500  1.0  -0.2302
  C  C49  1  0.122300  0.376700  0.347300  1.0  -0.1517
  C  C50  1  0.923600  0.478800  0.281400  1.0  -0.1613
  C  C51  1  0.223900  0.313900  0.385400  1.0  0.6445
  C  C52  1  0.640900  0.483700  0.403500  1.0  0.1435
  C  C53  1  0.020200  0.427400  0.400300  1.0  -0.1604
  C  C54  1  0.027100  0.428700  0.135000  1.0  0.7258
  C  C55  1  0.557100  0.503100  0.360200  1.0  -0.2267
  C  C56  1  0.714500  0.577100  0.393500  1.0  -0.0087
  C  C57  1  0.581500  0.292500  0.467100  1.0  0.1917
  C  C58  1  0.489900  0.414900  0.372400  1.0  0.1841
  C  C59  1  0.620000  0.875600  0.239700  1.0  -0.0317
  C  C60  1  0.568900  0.974500  0.272700  1.0  -0.1424
  C  C61  1  0.519700  0.079500  0.131600  1.0  0.2042
  C  C62  1  0.626000  0.347000  0.042500  1.0  -0.2279
  C  C63  1  0.623300  0.877700  0.152700  1.0  -0.1504
  C  C64  1  0.521200  0.076400  0.218600  1.0  -0.1602
  C  C65  1  0.686100  0.776100  0.114600  1.0  0.645
  C  C66  1  0.516300  0.359100  0.096500  1.0  0.1447
  C  C67  1  0.572600  0.979800  0.099700  1.0  -0.1626
  C  C68  1  0.571300  0.972900  0.365000  1.0  0.7262
  C  C69  1  0.496900  0.442900  0.139800  1.0  -0.2343
  C  C70  1  0.422900  0.285500  0.106500  1.0  -0.0067
  C  C71  1  0.707500  0.418500  0.032900  1.0  0.1938
  C  C72  1  0.585100  0.510100  0.127600  1.0  0.1843
  C  C73  1  0.875600  0.620000  0.739700  1.0  -0.0331
  C  C74  1  0.974500  0.568900  0.772700  1.0  -0.1417
  C  C75  1  0.079500  0.519700  0.631600  1.0  0.2029
  C  C76  1  0.347000  0.626000  0.542500  1.0  -0.2283
  C  C77  1  0.877700  0.623300  0.652700  1.0  -0.151
  C  C78  1  0.076400  0.521200  0.718600  1.0  -0.1601
  C  C79  1  0.776100  0.686100  0.614600  1.0  0.6485
  C  C80  1  0.359100  0.516300  0.596500  1.0  0.1433
  C  C81  1  0.979800  0.572600  0.599700  1.0  -0.1618
  C  C82  1  0.972900  0.571300  0.865000  1.0  0.725
  C  C83  1  0.442900  0.496900  0.639800  1.0  -0.2322
  C  C84  1  0.285500  0.422900  0.606500  1.0  -0.0121
  C  C85  1  0.418500  0.707500  0.532900  1.0  0.1919
  C  C86  1  0.510100  0.585100  0.627600  1.0  0.1843
  C  C87  1  0.380000  0.124400  0.760300  1.0  -0.0313
  C  C88  1  0.431100  0.025500  0.727300  1.0  -0.1416
  C  C89  1  0.480300  0.920500  0.868400  1.0  0.2038
  C  C90  1  0.374000  0.653000  0.957500  1.0  -0.2295
  C  C91  1  0.376700  0.122300  0.847300  1.0  -0.1502
  C  C92  1  0.478800  0.923600  0.781400  1.0  -0.1588
  C  C93  1  0.313900  0.223900  0.885400  1.0  0.6458
  C  C94  1  0.483700  0.640900  0.903500  1.0  0.144
  C  C95  1  0.427400  0.020200  0.900300  1.0  -0.1608
  C  C96  1  0.428700  0.027100  0.635000  1.0  0.7266
  C  C97  1  0.503100  0.557100  0.860200  1.0  -0.2266
  C  C98  1  0.577100  0.714500  0.893500  1.0  -0.0074
  C  C99  1  0.292500  0.581500  0.967100  1.0  0.193
  C  C100  1  0.414900  0.489900  0.872400  1.0  0.185
  N  N101  1  0.821200  0.528800  0.422600  1.0  -0.3774
  N  N102  1  0.499700  0.310500  0.426100  1.0  -0.3477
  N  N103  1  0.471200  0.178800  0.077400  1.0  -0.3813
  N  N104  1  0.689500  0.500300  0.073900  1.0  -0.3475
  N  N105  1  0.178800  0.471200  0.577400  1.0  -0.3787
  N  N106  1  0.500300  0.689500  0.573900  1.0  -0.3477
  N  N107  1  0.528800  0.821200  0.922600  1.0  -0.3793
  N  N108  1  0.310500  0.499700  0.926100  1.0  -0.3468
  O  O109  1  0.219200  0.305600  0.465300  1.0  -0.6016
  O  O110  1  0.312700  0.265300  0.336300  1.0  -0.5919
  O  O111  1  0.122900  0.389300  0.088100  1.0  -0.5957
  O  O112  1  0.932600  0.464000  0.110900  1.0  -0.6418
  O  O113  1  0.694400  0.780800  0.034700  1.0  -0.6018
  O  O114  1  0.734700  0.687300  0.163700  1.0  -0.5941
  O  O115  1  0.610700  0.877100  0.411900  1.0  -0.5958
  O  O116  1  0.536000  0.067400  0.389100  1.0  -0.6434
  O  O117  1  0.780800  0.694400  0.534700  1.0  -0.5984
  O  O118  1  0.687300  0.734700  0.663700  1.0  -0.5942
  O  O119  1  0.877100  0.610700  0.911900  1.0  -0.5964
  O  O120  1  0.067400  0.536000  0.889100  1.0  -0.6417
  O  O121  1  0.305600  0.219200  0.965300  1.0  -0.6029
  O  O122  1  0.265300  0.312700  0.836300  1.0  -0.5921
  O  O123  1  0.389300  0.122900  0.588100  1.0  -0.5955
  O  O124  1  0.464000  0.932600  0.610900  1.0  -0.6436
