# generated using pymatgen
data_MnH9C14(NO2)2
_symmetry_space_group_name_H-M   'P 1'
_cell_length_a   15.20900000
_cell_length_b   16.36100000
_cell_length_c   17.46300000
_cell_angle_alpha   110.41000000
_cell_angle_beta   90.00000000
_cell_angle_gamma   90.00000000
_symmetry_Int_Tables_number   1
_chemical_formula_structural   MnH9C14(NO2)2
_chemical_formula_sum   'Mn8 H72 C112 N16 O32'
_cell_volume   4072.59696778
_cell_formula_units_Z   8
loop_
 _symmetry_equiv_pos_site_id
 _symmetry_equiv_pos_as_xyz
  1  'x, y, z'
loop_
 _atom_site_type_symbol
 _atom_site_label
 _atom_site_symmetry_multiplicity
 _atom_site_fract_x
 _atom_site_fract_y
 _atom_site_fract_z
 _atom_site_occupancy
 _atom_site_charge
  Mn  Mn1  1  0.566440  0.541870  0.766620  1.0  1.0526
  Mn  Mn2  1  0.850960  0.449770  0.718310  1.0  1.0287
  Mn  Mn3  1  0.066440  0.958130  0.733380  1.0  1.0516
  Mn  Mn4  1  0.350960  0.050230  0.781690  1.0  1.0292
  Mn  Mn5  1  0.433560  0.458130  0.233380  1.0  1.0537
  Mn  Mn6  1  0.149040  0.550230  0.281690  1.0  1.0281
  Mn  Mn7  1  0.933560  0.041870  0.266620  1.0  1.0527
  Mn  Mn8  1  0.649040  0.949770  0.218310  1.0  1.0283
  H  H9  1  0.810200  0.033600  0.680200  1.0  0.2807
  H  H10  1  0.590300  0.937000  0.765800  1.0  0.2696
  H  H11  1  0.884000  0.720900  0.722000  1.0  0.081
  H  H12  1  0.533100  0.271300  0.750900  1.0  0.0979
  H  H13  1  0.659200  0.045700  0.716700  1.0  0.1092
  H  H14  1  0.786000  0.243800  0.682100  1.0  0.102
  H  H15  1  0.514900  0.817900  0.811200  1.0  0.0825
  H  H16  1  0.482700  0.914800  0.838500  1.0  0.0959
  H  H17  1  0.629300  0.738700  0.779900  1.0  0.1061
  H  H18  1  0.753900  0.943800  0.755900  1.0  0.1035
  H  H19  1  0.815300  0.011300  0.393600  1.0  0.0756
  H  H20  1  0.017300  0.157700  0.575200  1.0  0.1001
  H  H21  1  0.513300  0.786300  0.934900  1.0  0.1137
  H  H22  1  0.045700  0.121700  0.440400  1.0  0.098
  H  H23  1  0.792000  0.037400  0.531200  1.0  0.1205
  H  H24  1  0.635300  0.001900  0.940300  1.0  0.127
  H  H25  1  0.563300  0.809500  0.062900  1.0  0.0613
  H  H26  1  0.671900  0.024300  0.071800  1.0  0.0776
  H  H27  1  0.310200  0.466400  0.819800  1.0  0.2812
  H  H28  1  0.090300  0.563000  0.734200  1.0  0.2687
  H  H29  1  0.384000  0.779100  0.778000  1.0  0.0804
  H  H30  1  0.033100  0.228700  0.749100  1.0  0.0982
  H  H31  1  0.159200  0.454300  0.783300  1.0  0.1091
  H  H32  1  0.286000  0.256200  0.817900  1.0  0.1024
  H  H33  1  0.014900  0.682100  0.688800  1.0  0.0834
  H  H34  1  0.982700  0.585200  0.661500  1.0  0.0953
  H  H35  1  0.129300  0.761300  0.720100  1.0  0.1066
  H  H36  1  0.253900  0.556200  0.744100  1.0  0.1033
  H  H37  1  0.315300  0.488700  0.106400  1.0  0.0754
  H  H38  1  0.517300  0.342300  0.924800  1.0  0.1004
  H  H39  1  0.013300  0.713700  0.565100  1.0  0.1133
  H  H40  1  0.545700  0.378300  0.059600  1.0  0.0978
  H  H41  1  0.292000  0.462600  0.968800  1.0  0.1205
  H  H42  1  0.135300  0.498100  0.559700  1.0  0.1272
  H  H43  1  0.063300  0.690500  0.437100  1.0  0.0618
  H  H44  1  0.171900  0.475700  0.428200  1.0  0.0774
  H  H45  1  0.189800  0.966400  0.319800  1.0  0.2806
  H  H46  1  0.409700  0.063000  0.234200  1.0  0.2684
  H  H47  1  0.116000  0.279100  0.278000  1.0  0.0799
  H  H48  1  0.466900  0.728700  0.249100  1.0  0.0984
  H  H49  1  0.340800  0.954300  0.283300  1.0  0.1088
  H  H50  1  0.214000  0.756200  0.317900  1.0  0.1025
  H  H51  1  0.485100  0.182100  0.188800  1.0  0.0828
  H  H52  1  0.517300  0.085200  0.161500  1.0  0.0953
  H  H53  1  0.370700  0.261300  0.220100  1.0  0.1063
  H  H54  1  0.246100  0.056200  0.244100  1.0  0.1036
  H  H55  1  0.184700  0.988700  0.606400  1.0  0.0755
  H  H56  1  0.982700  0.842300  0.424800  1.0  0.1001
  H  H57  1  0.486700  0.213700  0.065100  1.0  0.1136
  H  H58  1  0.954300  0.878300  0.559600  1.0  0.0973
  H  H59  1  0.208000  0.962600  0.468800  1.0  0.1208
  H  H60  1  0.364700  0.998100  0.059700  1.0  0.1275
  H  H61  1  0.436700  0.190500  0.937100  1.0  0.0616
  H  H62  1  0.328100  0.975700  0.928200  1.0  0.0766
  H  H63  1  0.689800  0.533600  0.180200  1.0  0.2804
  H  H64  1  0.909700  0.437000  0.265800  1.0  0.2692
  H  H65  1  0.616000  0.220900  0.222000  1.0  0.0805
  H  H66  1  0.966900  0.771300  0.250900  1.0  0.0979
  H  H67  1  0.840800  0.545700  0.216700  1.0  0.1089
  H  H68  1  0.714000  0.743800  0.182100  1.0  0.1022
  H  H69  1  0.985100  0.317900  0.311200  1.0  0.0816
  H  H70  1  0.017300  0.414800  0.338500  1.0  0.0951
  H  H71  1  0.870700  0.238700  0.279900  1.0  0.1059
  H  H72  1  0.746100  0.443800  0.255900  1.0  0.1039
  H  H73  1  0.684700  0.511300  0.893600  1.0  0.0752
  H  H74  1  0.482700  0.657700  0.075200  1.0  0.0995
  H  H75  1  0.986700  0.286300  0.434900  1.0  0.1137
  H  H76  1  0.454300  0.621700  0.940400  1.0  0.0979
  H  H77  1  0.708000  0.537400  0.031200  1.0  0.1207
  H  H78  1  0.864700  0.501900  0.440300  1.0  0.1276
  H  H79  1  0.936700  0.309500  0.562900  1.0  0.0611
  H  H80  1  0.828100  0.524300  0.571800  1.0  0.0775
  C  C81  1  0.584500  0.152400  0.738100  1.0  -0.1323
  C  C82  1  0.660100  0.272500  0.716400  1.0  -0.1526
  C  C83  1  0.896800  0.117500  0.660500  1.0  0.0043
  C  C84  1  0.831500  0.837900  0.736000  1.0  -0.1247
  C  C85  1  0.832100  0.752900  0.734000  1.0  -0.0369
  C  C86  1  0.502400  0.115100  0.760100  1.0  0.6486
  C  C87  1  0.584000  0.237900  0.737400  1.0  -0.0079
  C  C88  1  0.757600  0.715300  0.749600  1.0  -0.1306
  C  C89  1  0.660100  0.103000  0.717800  1.0  -0.1329
  C  C90  1  0.735500  0.220900  0.697000  1.0  -0.0889
  C  C91  1  0.677600  0.849100  0.767700  1.0  0.2023
  C  C92  1  0.564700  0.893000  0.921300  1.0  0.1297
  C  C93  1  0.738300  0.137300  0.698900  1.0  0.1763
  C  C94  1  0.758300  0.624600  0.751500  1.0  0.7168
  C  C95  1  0.533500  0.878100  0.836000  1.0  0.0117
  C  C96  1  0.905900  0.099900  0.570000  1.0  0.0941
  C  C97  1  0.915400  0.880800  0.724600  1.0  0.639
  C  C98  1  0.679900  0.763600  0.767700  1.0  -0.1487
  C  C99  1  0.661200  0.362900  0.715600  1.0  0.7212
  C  C100  1  0.753900  0.886100  0.753600  1.0  -0.1542
  C  C101  1  0.858500  0.040700  0.430700  1.0  0.1754
  C  C102  1  0.975500  0.124600  0.538600  1.0  -0.1571
  C  C103  1  0.546100  0.836200  0.961300  1.0  -0.2286
  C  C104  1  0.992200  0.106100  0.457100  1.0  0.1422
  C  C105  1  0.843600  0.056400  0.514200  1.0  -0.1903
  C  C106  1  0.616100  0.962800  0.964600  1.0  -0.2197
  C  C107  1  0.575100  0.851700  0.039900  1.0  0.1896
  C  C108  1  0.639000  0.974900  0.043900  1.0  0.1787
  C  C109  1  0.084500  0.347600  0.761900  1.0  -0.1317
  C  C110  1  0.160100  0.227500  0.783600  1.0  -0.153
  C  C111  1  0.396800  0.382500  0.839500  1.0  0.0051
  C  C112  1  0.331500  0.662100  0.764000  1.0  -0.1246
  C  C113  1  0.332100  0.747100  0.766000  1.0  -0.037
  C  C114  1  0.002400  0.384900  0.739900  1.0  0.6475
  C  C115  1  0.084000  0.262100  0.762600  1.0  -0.0089
  C  C116  1  0.257600  0.784700  0.750400  1.0  -0.1301
  C  C117  1  0.160100  0.397000  0.782200  1.0  -0.1324
  C  C118  1  0.235500  0.279100  0.803000  1.0  -0.0904
  C  C119  1  0.177600  0.650900  0.732300  1.0  0.2026
  C  C120  1  0.064700  0.607000  0.578700  1.0  0.1302
  C  C121  1  0.238300  0.362700  0.801100  1.0  0.1754
  C  C122  1  0.258300  0.875400  0.748500  1.0  0.7179
  C  C123  1  0.033500  0.621900  0.664000  1.0  0.0112
  C  C124  1  0.405900  0.400100  0.930000  1.0  0.094
  C  C125  1  0.415400  0.619200  0.775400  1.0  0.6389
  C  C126  1  0.179900  0.736400  0.732300  1.0  -0.1493
  C  C127  1  0.161200  0.137100  0.784400  1.0  0.7208
  C  C128  1  0.253900  0.613900  0.746400  1.0  -0.1538
  C  C129  1  0.358500  0.459300  0.069300  1.0  0.1759
  C  C130  1  0.475500  0.375400  0.961400  1.0  -0.1553
  C  C131  1  0.046100  0.663800  0.538700  1.0  -0.2291
  C  C132  1  0.492200  0.393900  0.042900  1.0  0.1433
  C  C133  1  0.343600  0.443600  0.985800  1.0  -0.1903
  C  C134  1  0.116100  0.537200  0.535400  1.0  -0.2191
  C  C135  1  0.075100  0.648300  0.460100  1.0  0.1899
  C  C136  1  0.139000  0.525100  0.456100  1.0  0.1778
  C  C137  1  0.415500  0.847600  0.261900  1.0  -0.1323
  C  C138  1  0.339900  0.727500  0.283600  1.0  -0.1535
  C  C139  1  0.103200  0.882500  0.339500  1.0  0.0043
  C  C140  1  0.168500  0.162100  0.264000  1.0  -0.1253
  C  C141  1  0.167900  0.247100  0.266000  1.0  -0.0371
  C  C142  1  0.497600  0.884900  0.239900  1.0  0.6483
  C  C143  1  0.416000  0.762100  0.262600  1.0  -0.0094
  C  C144  1  0.242400  0.284700  0.250400  1.0  -0.13
  C  C145  1  0.339900  0.897000  0.282200  1.0  -0.1319
  C  C146  1  0.264500  0.779100  0.303000  1.0  -0.091
  C  C147  1  0.322400  0.150900  0.232300  1.0  0.2031
  C  C148  1  0.435300  0.107000  0.078700  1.0  0.1293
  C  C149  1  0.261700  0.862700  0.301100  1.0  0.1752
  C  C150  1  0.241700  0.375400  0.248500  1.0  0.7179
  C  C151  1  0.466500  0.121900  0.164000  1.0  0.0127
  C  C152  1  0.094100  0.900100  0.430000  1.0  0.0949
  C  C153  1  0.084600  0.119200  0.275400  1.0  0.638
  C  C154  1  0.320100  0.236400  0.232300  1.0  -0.1479
  C  C155  1  0.338800  0.637100  0.284400  1.0  0.7215
  C  C156  1  0.246100  0.113900  0.246400  1.0  -0.1535
  C  C157  1  0.141500  0.959300  0.569300  1.0  0.1762
  C  C158  1  0.024500  0.875400  0.461400  1.0  -0.1542
  C  C159  1  0.453900  0.163800  0.038700  1.0  -0.2293
  C  C160  1  0.007800  0.893900  0.542900  1.0  0.144
  C  C161  1  0.156400  0.943600  0.485800  1.0  -0.1916
  C  C162  1  0.383900  0.037200  0.035400  1.0  -0.2184
  C  C163  1  0.424900  0.148300  0.960100  1.0  0.1897
  C  C164  1  0.361000  0.025100  0.956100  1.0  0.1773
  C  C165  1  0.915500  0.652400  0.238100  1.0  -0.1325
  C  C166  1  0.839900  0.772500  0.216400  1.0  -0.1533
  C  C167  1  0.603200  0.617500  0.160500  1.0  0.0037
  C  C168  1  0.668500  0.337900  0.236000  1.0  -0.1253
  C  C169  1  0.667900  0.252900  0.234000  1.0  -0.0373
  C  C170  1  0.997600  0.615100  0.260100  1.0  0.648
  C  C171  1  0.916000  0.737900  0.237400  1.0  -0.0083
  C  C172  1  0.742400  0.215300  0.249600  1.0  -0.1305
  C  C173  1  0.839900  0.603000  0.217800  1.0  -0.1323
  C  C174  1  0.764500  0.720900  0.197000  1.0  -0.0904
  C  C175  1  0.822400  0.349100  0.267700  1.0  0.2027
  C  C176  1  0.935300  0.393000  0.421300  1.0  0.1292
  C  C177  1  0.761700  0.637300  0.198900  1.0  0.1762
  C  C178  1  0.741700  0.124600  0.251500  1.0  0.7168
  C  C179  1  0.966500  0.378100  0.336000  1.0  0.013
  C  C180  1  0.594100  0.599900  0.070000  1.0  0.0946
  C  C181  1  0.584600  0.380800  0.224600  1.0  0.6372
  C  C182  1  0.820100  0.263600  0.267700  1.0  -0.1481
  C  C183  1  0.838800  0.862900  0.215600  1.0  0.7213
  C  C184  1  0.746100  0.386100  0.253600  1.0  -0.1536
  C  C185  1  0.641500  0.540700  0.930700  1.0  0.1752
  C  C186  1  0.524500  0.624600  0.038600  1.0  -0.1555
  C  C187  1  0.953900  0.336200  0.461300  1.0  -0.2282
  C  C188  1  0.507800  0.606100  0.957100  1.0  0.1429
  C  C189  1  0.656400  0.556400  0.014200  1.0  -0.1905
  C  C190  1  0.883900  0.462800  0.464600  1.0  -0.2192
  C  C191  1  0.924900  0.351700  0.539900  1.0  0.1894
  C  C192  1  0.861000  0.474900  0.543900  1.0  0.1779
  N  N193  1  0.930900  0.065400  0.401700  1.0  -0.3594
  N  N194  1  0.813200  0.086100  0.680200  1.0  -0.2735
  N  N195  1  0.599200  0.896400  0.785500  1.0  -0.3984
  N  N196  1  0.618100  0.921500  0.084700  1.0  -0.3607
  N  N197  1  0.430900  0.434600  0.098300  1.0  -0.3579
  N  N198  1  0.313200  0.413900  0.819800  1.0  -0.2777
  N  N199  1  0.099200  0.603600  0.714500  1.0  -0.3987
  N  N200  1  0.118100  0.578500  0.415300  1.0  -0.3618
  N  N201  1  0.069100  0.934600  0.598300  1.0  -0.357
  N  N202  1  0.186800  0.913900  0.319800  1.0  -0.2746
  N  N203  1  0.400800  0.103600  0.214500  1.0  -0.3999
  N  N204  1  0.381900  0.078500  0.915300  1.0  -0.3632
  N  N205  1  0.569100  0.565400  0.901700  1.0  -0.3587
  N  N206  1  0.686800  0.586100  0.180200  1.0  -0.2717
  N  N207  1  0.900800  0.396400  0.285500  1.0  -0.4002
  N  N208  1  0.881900  0.421500  0.584700  1.0  -0.3613
  O  O209  1  0.434800  0.161000  0.778500  1.0  -0.5836
  O  O210  1  0.502400  0.037400  0.758700  1.0  -0.6164
  O  O211  1  0.690900  0.598300  0.778100  1.0  -0.6581
  O  O212  1  0.984900  0.839200  0.713500  1.0  -0.5761
  O  O213  1  0.914200  0.961600  0.733000  1.0  -0.6278
  O  O214  1  0.827400  0.581000  0.728100  1.0  -0.5963
  O  O215  1  0.728100  0.389300  0.690100  1.0  -0.635
  O  O216  1  0.592000  0.408200  0.740200  1.0  -0.6198
  O  O217  1  0.934800  0.339000  0.721500  1.0  -0.5853
  O  O218  1  0.002400  0.462600  0.741300  1.0  -0.6164
  O  O219  1  0.190900  0.901700  0.721900  1.0  -0.6583
  O  O220  1  0.484900  0.660800  0.786500  1.0  -0.5756
  O  O221  1  0.414200  0.538400  0.767000  1.0  -0.6267
  O  O222  1  0.327400  0.919000  0.771900  1.0  -0.5963
  O  O223  1  0.228100  0.110700  0.809900  1.0  -0.6358
  O  O224  1  0.092000  0.091800  0.759800  1.0  -0.6201
  O  O225  1  0.565200  0.839000  0.221500  1.0  -0.5856
  O  O226  1  0.497600  0.962600  0.241300  1.0  -0.6156
  O  O227  1  0.309100  0.401700  0.221900  1.0  -0.6564
  O  O228  1  0.015100  0.160800  0.286500  1.0  -0.5757
  O  O229  1  0.085800  0.038400  0.267000  1.0  -0.6272
  O  O230  1  0.172600  0.419000  0.271900  1.0  -0.5956
  O  O231  1  0.271900  0.610700  0.309900  1.0  -0.6382
  O  O232  1  0.408000  0.591800  0.259800  1.0  -0.6188
  O  O233  1  0.065200  0.661000  0.278500  1.0  -0.5844
  O  O234  1  0.997600  0.537400  0.258700  1.0  -0.6167
  O  O235  1  0.809100  0.098300  0.278100  1.0  -0.6556
  O  O236  1  0.515100  0.339200  0.213500  1.0  -0.5748
  O  O237  1  0.585800  0.461600  0.233000  1.0  -0.6287
  O  O238  1  0.672600  0.081000  0.228100  1.0  -0.5957
  O  O239  1  0.771900  0.889300  0.190100  1.0  -0.6369
  O  O240  1  0.908000  0.908200  0.240200  1.0  -0.6198
