# generated using pymatgen
data_ErH12(C5O2)3
_symmetry_space_group_name_H-M   'P 1'
_cell_length_a   9.97190000
_cell_length_b   21.62000000
_cell_length_c   14.04530000
_cell_angle_alpha   91.58400000
_cell_angle_beta   90.00000000
_cell_angle_gamma   90.00000000
_symmetry_Int_Tables_number   1
_chemical_formula_structural   ErH12(C5O2)3
_chemical_formula_sum   'Er8 H96 C120 O48'
_cell_volume   3026.90392815
_cell_formula_units_Z   8
loop_
 _symmetry_equiv_pos_site_id
 _symmetry_equiv_pos_as_xyz
  1  'x, y, z'
loop_
 _atom_site_type_symbol
 _atom_site_label
 _atom_site_symmetry_multiplicity
 _atom_site_fract_x
 _atom_site_fract_y
 _atom_site_fract_z
 _atom_site_occupancy
 _atom_site_charge
  Er  Er1  1  0.433440  0.741460  0.726360  1.0  1.4976
  Er  Er2  1  0.245720  0.750060  0.974170  1.0  1.4639
  Er  Er3  1  0.933440  0.258540  0.773640  1.0  1.4978
  Er  Er4  1  0.745720  0.249940  0.525830  1.0  1.4661
  Er  Er5  1  0.566560  0.258540  0.273640  1.0  1.4969
  Er  Er6  1  0.754280  0.249940  0.025830  1.0  1.4655
  Er  Er7  1  0.066560  0.741460  0.226360  1.0  1.4968
  Er  Er8  1  0.254280  0.750060  0.474170  1.0  1.465
  H  H9  1  0.644000  0.537500  0.864900  1.0  0.1148
  H  H10  1  0.702800  0.439100  0.814000  1.0  0.1065
  H  H11  1  0.320800  0.387200  0.822800  1.0  0.1104
  H  H12  1  0.260700  0.484900  0.873200  1.0  0.0987
  H  H13  1  0.317100  0.579700  0.945600  1.0  0.1493
  H  H14  1  0.467000  0.594800  0.968700  1.0  0.1502
  H  H15  1  0.614200  0.338400  0.727900  1.0  0.1416
  H  H16  1  0.480300  0.313100  0.770800  1.0  0.1434
  H  H17  1  0.821600  0.907200  0.794200  1.0  0.1058
  H  H18  1  0.767500  0.997600  0.874400  1.0  0.0985
  H  H19  1  0.152200  0.044100  0.882700  1.0  0.1052
  H  H20  1  0.208000  0.952600  0.808000  1.0  0.1063
  H  H21  1  0.106600  0.869900  0.682900  1.0  0.1439
  H  H22  1  0.975600  0.839100  0.720600  1.0  0.148
  H  H23  1  0.825100  0.088600  0.957100  1.0  0.1568
  H  H24  1  0.973600  0.095900  0.991400  1.0  0.1537
  H  H25  1  0.585700  0.528100  0.355400  1.0  0.0959
  H  H26  1  0.506900  0.568400  0.629600  1.0  0.1131
  H  H27  1  0.636600  0.629600  0.413000  1.0  0.1397
  H  H28  1  0.703500  0.623800  0.513700  1.0  0.138
  H  H29  1  0.450100  0.979600  0.842300  1.0  0.1009
  H  H30  1  0.596500  0.925300  0.090800  1.0  0.111
  H  H31  1  0.570200  0.884200  0.845500  1.0  0.1319
  H  H32  1  0.644100  0.864600  0.938300  1.0  0.1564
  H  H33  1  0.144000  0.462500  0.635100  1.0  0.115
  H  H34  1  0.202800  0.560900  0.686000  1.0  0.1067
  H  H35  1  0.820800  0.612800  0.677200  1.0  0.112
  H  H36  1  0.760700  0.515100  0.626800  1.0  0.099
  H  H37  1  0.817100  0.420300  0.554400  1.0  0.1495
  H  H38  1  0.967000  0.405200  0.531300  1.0  0.1494
  H  H39  1  0.114200  0.661600  0.772100  1.0  0.1411
  H  H40  1  0.980300  0.686900  0.729200  1.0  0.1434
  H  H41  1  0.321600  0.092800  0.705800  1.0  0.1071
  H  H42  1  0.267500  0.002400  0.625600  1.0  0.0978
  H  H43  1  0.652200  0.955900  0.617300  1.0  0.1058
  H  H44  1  0.708000  0.047400  0.692000  1.0  0.1065
  H  H45  1  0.606600  0.130100  0.817100  1.0  0.1441
  H  H46  1  0.475600  0.160900  0.779400  1.0  0.1472
  H  H47  1  0.325100  0.911400  0.542900  1.0  0.157
  H  H48  1  0.473600  0.904100  0.508600  1.0  0.1522
  H  H49  1  0.085700  0.471900  0.144600  1.0  0.0948
  H  H50  1  0.006900  0.431600  0.870400  1.0  0.1135
  H  H51  1  0.136600  0.370400  0.087000  1.0  0.1402
  H  H52  1  0.203500  0.376200  0.986300  1.0  0.1373
  H  H53  1  0.950100  0.020400  0.657700  1.0  0.0999
  H  H54  1  0.096500  0.074700  0.409200  1.0  0.1098
  H  H55  1  0.070200  0.115800  0.654500  1.0  0.1324
  H  H56  1  0.144100  0.135400  0.561700  1.0  0.1565
  H  H57  1  0.356000  0.462500  0.135100  1.0  0.1149
  H  H58  1  0.297200  0.560900  0.186000  1.0  0.1086
  H  H59  1  0.679200  0.612800  0.177200  1.0  0.1121
  H  H60  1  0.739300  0.515100  0.126800  1.0  0.0986
  H  H61  1  0.682900  0.420300  0.054400  1.0  0.15
  H  H62  1  0.533000  0.405200  0.031300  1.0  0.15
  H  H63  1  0.385800  0.661600  0.272100  1.0  0.1409
  H  H64  1  0.519700  0.686900  0.229200  1.0  0.1414
  H  H65  1  0.178400  0.092800  0.205800  1.0  0.1068
  H  H66  1  0.232500  0.002400  0.125600  1.0  0.098
  H  H67  1  0.847800  0.955900  0.117300  1.0  0.1054
  H  H68  1  0.792000  0.047400  0.192000  1.0  0.1068
  H  H69  1  0.893400  0.130100  0.317100  1.0  0.1436
  H  H70  1  0.024400  0.160900  0.279400  1.0  0.1452
  H  H71  1  0.174900  0.911400  0.042900  1.0  0.1583
  H  H72  1  0.026400  0.904100  0.008600  1.0  0.153
  H  H73  1  0.414300  0.471900  0.644600  1.0  0.0947
  H  H74  1  0.493100  0.431600  0.370400  1.0  0.1135
  H  H75  1  0.363400  0.370400  0.587000  1.0  0.1398
  H  H76  1  0.296500  0.376200  0.486300  1.0  0.1391
  H  H77  1  0.549900  0.020400  0.157700  1.0  0.1001
  H  H78  1  0.403500  0.074700  0.909200  1.0  0.1097
  H  H79  1  0.429800  0.115800  0.154500  1.0  0.133
  H  H80  1  0.355900  0.135400  0.061700  1.0  0.1565
  H  H81  1  0.856000  0.537500  0.364900  1.0  0.1147
  H  H82  1  0.797200  0.439100  0.314000  1.0  0.1081
  H  H83  1  0.179200  0.387200  0.322800  1.0  0.1111
  H  H84  1  0.239300  0.484900  0.373200  1.0  0.0987
  H  H85  1  0.182900  0.579700  0.445600  1.0  0.1499
  H  H86  1  0.033000  0.594800  0.468700  1.0  0.1507
  H  H87  1  0.885800  0.338400  0.227900  1.0  0.141
  H  H88  1  0.019700  0.313100  0.270800  1.0  0.1408
  H  H89  1  0.678400  0.907200  0.294200  1.0  0.1064
  H  H90  1  0.732500  0.997600  0.374400  1.0  0.0984
  H  H91  1  0.347800  0.044100  0.382700  1.0  0.1052
  H  H92  1  0.292000  0.952600  0.308000  1.0  0.1065
  H  H93  1  0.393400  0.869900  0.182900  1.0  0.1432
  H  H94  1  0.524400  0.839100  0.220600  1.0  0.1451
  H  H95  1  0.674900  0.088600  0.457100  1.0  0.1584
  H  H96  1  0.526400  0.095900  0.491400  1.0  0.1544
  H  H97  1  0.914300  0.528100  0.855400  1.0  0.0959
  H  H98  1  0.993100  0.568400  0.129600  1.0  0.1131
  H  H99  1  0.863400  0.629600  0.913000  1.0  0.1392
  H  H100  1  0.796500  0.623800  0.013700  1.0  0.1403
  H  H101  1  0.049900  0.979600  0.342300  1.0  0.101
  H  H102  1  0.903500  0.925300  0.590800  1.0  0.1108
  H  H103  1  0.929800  0.884200  0.345500  1.0  0.1322
  H  H104  1  0.855900  0.864600  0.438300  1.0  0.1574
  C  C105  1  0.446500  0.521500  0.876000  1.0  0.1282
  C  C106  1  0.578300  0.507300  0.857000  1.0  -0.1193
  C  C107  1  0.613200  0.448200  0.826300  1.0  -0.1175
  C  C108  1  0.518800  0.402700  0.813800  1.0  0.1237
  C  C109  1  0.386500  0.417400  0.831500  1.0  -0.1359
  C  C110  1  0.350600  0.475800  0.861900  1.0  -0.1263
  C  C111  1  0.405400  0.583900  0.917500  1.0  -0.4059
  C  C112  1  0.401100  0.635800  0.851600  1.0  0.7788
  C  C113  1  0.559700  0.337600  0.785000  1.0  -0.3667
  C  C114  1  0.636900  0.308400  0.862500  1.0  0.7475
  C  C115  1  0.020900  0.919500  0.792100  1.0  0.1402
  C  C116  1  0.889500  0.934600  0.812500  1.0  -0.133
  C  C117  1  0.856700  0.989400  0.859300  1.0  -0.1248
  C  C118  1  0.953100  0.031800  0.883900  1.0  0.1401
  C  C119  1  0.084600  0.016500  0.864700  1.0  -0.1127
  C  C120  1  0.118300  0.961600  0.819900  1.0  -0.1211
  C  C121  1  0.057400  0.860100  0.740100  1.0  -0.3808
  C  C122  1  0.140800  0.816600  0.798000  1.0  0.7571
  C  C123  1  0.917100  0.091600  0.935300  1.0  -0.3889
  C  C124  1  0.930500  0.149300  0.879200  1.0  0.7802
  C  C125  1  0.554500  0.559200  0.489800  1.0  0.1231
  C  C126  1  0.550700  0.517000  0.413800  1.0  -0.1182
  C  C127  1  0.503900  0.541100  0.577200  1.0  -0.1197
  C  C128  1  0.618800  0.622400  0.479600  1.0  -0.3632
  C  C129  1  0.526000  0.671900  0.519600  1.0  0.7849
  C  C130  1  0.531400  0.942300  0.958600  1.0  0.1418
  C  C131  1  0.471100  0.987700  0.905900  1.0  -0.1248
  C  C132  1  0.558100  0.955500  0.053700  1.0  -0.1218
  C  C133  1  0.559900  0.879900  0.913600  1.0  -0.3923
  C  C134  1  0.451900  0.833300  0.931600  1.0  0.7747
  C  C135  1  0.946500  0.478500  0.624000  1.0  0.1281
  C  C136  1  0.078300  0.492700  0.643000  1.0  -0.1195
  C  C137  1  0.113200  0.551800  0.673700  1.0  -0.1172
  C  C138  1  0.018800  0.597300  0.686200  1.0  0.124
  C  C139  1  0.886500  0.582600  0.668500  1.0  -0.136
  C  C140  1  0.850600  0.524200  0.638100  1.0  -0.1262
  C  C141  1  0.905400  0.416100  0.582500  1.0  -0.4065
  C  C142  1  0.901100  0.364200  0.648400  1.0  0.7748
  C  C143  1  0.059700  0.662400  0.715000  1.0  -0.3697
  C  C144  1  0.136900  0.691600  0.637500  1.0  0.7528
  C  C145  1  0.520900  0.080500  0.707900  1.0  0.1393
  C  C146  1  0.389500  0.065400  0.687500  1.0  -0.1359
  C  C147  1  0.356700  0.010600  0.640700  1.0  -0.1253
  C  C148  1  0.453100  0.968200  0.616100  1.0  0.1401
  C  C149  1  0.584600  0.983500  0.635300  1.0  -0.1127
  C  C150  1  0.618300  0.038400  0.680100  1.0  -0.1212
  C  C151  1  0.557400  0.139900  0.759900  1.0  -0.3822
  C  C152  1  0.640800  0.183400  0.702000  1.0  0.7565
  C  C153  1  0.417100  0.908400  0.564700  1.0  -0.3891
  C  C154  1  0.430500  0.850700  0.620800  1.0  0.7807
  C  C155  1  0.054500  0.440800  0.010200  1.0  0.123
  C  C156  1  0.050700  0.483000  0.086200  1.0  -0.1192
  C  C157  1  0.003900  0.458900  0.922800  1.0  -0.1177
  C  C158  1  0.118800  0.377600  0.020400  1.0  -0.3632
  C  C159  1  0.026000  0.328100  0.980400  1.0  0.7842
  C  C160  1  0.031400  0.057700  0.541400  1.0  0.1421
  C  C161  1  0.971100  0.012300  0.594100  1.0  -0.1241
  C  C162  1  0.058100  0.044500  0.446300  1.0  -0.1224
  C  C163  1  0.059900  0.120100  0.586400  1.0  -0.3927
  C  C164  1  0.951900  0.166700  0.568400  1.0  0.7739
  C  C165  1  0.553500  0.478500  0.124000  1.0  0.1282
  C  C166  1  0.421700  0.492700  0.143000  1.0  -0.1191
  C  C167  1  0.386800  0.551800  0.173700  1.0  -0.1184
  C  C168  1  0.481200  0.597300  0.186200  1.0  0.1256
  C  C169  1  0.613500  0.582600  0.168500  1.0  -0.1364
  C  C170  1  0.649400  0.524200  0.138100  1.0  -0.1273
  C  C171  1  0.594600  0.416100  0.082500  1.0  -0.4053
  C  C172  1  0.598900  0.364200  0.148400  1.0  0.7738
  C  C173  1  0.440300  0.662400  0.215000  1.0  -0.3681
  C  C174  1  0.363100  0.691600  0.137500  1.0  0.7512
  C  C175  1  0.979100  0.080500  0.207900  1.0  0.1401
  C  C176  1  0.110500  0.065400  0.187500  1.0  -0.1365
  C  C177  1  0.143300  0.010600  0.140700  1.0  -0.1248
  C  C178  1  0.046900  0.968200  0.116100  1.0  0.1398
  C  C179  1  0.915400  0.983500  0.135300  1.0  -0.1116
  C  C180  1  0.881700  0.038400  0.180100  1.0  -0.1211
  C  C181  1  0.942600  0.139900  0.259900  1.0  -0.3813
  C  C182  1  0.859200  0.183400  0.202000  1.0  0.7549
  C  C183  1  0.082900  0.908400  0.064700  1.0  -0.3885
  C  C184  1  0.069500  0.850700  0.120800  1.0  0.7814
  C  C185  1  0.445500  0.440800  0.510200  1.0  0.1231
  C  C186  1  0.449300  0.483000  0.586200  1.0  -0.1202
  C  C187  1  0.496100  0.458900  0.422800  1.0  -0.1181
  C  C188  1  0.381200  0.377600  0.520400  1.0  -0.3634
  C  C189  1  0.474000  0.328100  0.480400  1.0  0.7837
  C  C190  1  0.468600  0.057700  0.041400  1.0  0.1416
  C  C191  1  0.528900  0.012300  0.094100  1.0  -0.1235
  C  C192  1  0.441900  0.044500  0.946300  1.0  -0.1215
  C  C193  1  0.440100  0.120100  0.086400  1.0  -0.3937
  C  C194  1  0.548100  0.166700  0.068400  1.0  0.7733
  C  C195  1  0.053500  0.521500  0.376000  1.0  0.1286
  C  C196  1  0.921700  0.507300  0.357000  1.0  -0.119
  C  C197  1  0.886800  0.448200  0.326300  1.0  -0.119
  C  C198  1  0.981200  0.402700  0.313800  1.0  0.1252
  C  C199  1  0.113500  0.417400  0.331500  1.0  -0.1364
  C  C200  1  0.149400  0.475800  0.361900  1.0  -0.127
  C  C201  1  0.094600  0.583900  0.417500  1.0  -0.4061
  C  C202  1  0.098900  0.635800  0.351600  1.0  0.7783
  C  C203  1  0.940300  0.337600  0.285000  1.0  -0.3663
  C  C204  1  0.863100  0.308400  0.362500  1.0  0.7494
  C  C205  1  0.479100  0.919500  0.292100  1.0  0.1404
  C  C206  1  0.610500  0.934600  0.312500  1.0  -0.1344
  C  C207  1  0.643300  0.989400  0.359300  1.0  -0.1242
  C  C208  1  0.546900  0.031800  0.383900  1.0  0.1397
  C  C209  1  0.415400  0.016500  0.364700  1.0  -0.112
  C  C210  1  0.381700  0.961600  0.319900  1.0  -0.1209
  C  C211  1  0.442600  0.860100  0.240100  1.0  -0.3808
  C  C212  1  0.359200  0.816600  0.298000  1.0  0.7553
  C  C213  1  0.582900  0.091600  0.435300  1.0  -0.3881
  C  C214  1  0.569500  0.149300  0.379200  1.0  0.7808
  C  C215  1  0.945500  0.559200  0.989800  1.0  0.1227
  C  C216  1  0.949300  0.517000  0.913800  1.0  -0.1188
  C  C217  1  0.996100  0.541100  0.077200  1.0  -0.1203
  C  C218  1  0.881200  0.622400  0.979600  1.0  -0.3638
  C  C219  1  0.974000  0.671900  0.019600  1.0  0.7854
  C  C220  1  0.968600  0.942300  0.458600  1.0  0.1417
  C  C221  1  0.028900  0.987700  0.405900  1.0  -0.1237
  C  C222  1  0.941900  0.955500  0.553700  1.0  -0.1213
  C  C223  1  0.940100  0.879900  0.413600  1.0  -0.3925
  C  C224  1  0.048100  0.833300  0.431600  1.0  0.774
  O  O225  1  0.481200  0.641300  0.784800  1.0  -0.6136
  O  O226  1  0.315600  0.678100  0.864500  1.0  -0.6618
  O  O227  1  0.763600  0.309800  0.865100  1.0  -0.6834
  O  O228  1  0.574600  0.285900  0.931200  1.0  -0.5925
  O  O229  1  0.233800  0.789700  0.760200  1.0  -0.6012
  O  O230  1  0.106900  0.807700  0.882300  1.0  -0.5981
  O  O231  1  0.986000  0.150700  0.801800  1.0  -0.6303
  O  O232  1  0.880100  0.199100  0.914200  1.0  -0.6797
  O  O233  1  0.436300  0.689600  0.465500  1.0  -0.6002
  O  O234  1  0.546300  0.691100  0.602800  1.0  -0.6567
  O  O235  1  0.452400  0.782800  0.884000  1.0  -0.7109
  O  O236  1  0.366700  0.842100  0.993500  1.0  -0.5975
  O  O237  1  0.981200  0.358700  0.715200  1.0  -0.6134
  O  O238  1  0.815600  0.321900  0.635500  1.0  -0.6616
  O  O239  1  0.263600  0.690200  0.634900  1.0  -0.6839
  O  O240  1  0.074600  0.714100  0.568800  1.0  -0.5918
  O  O241  1  0.733800  0.210300  0.739800  1.0  -0.6012
  O  O242  1  0.606900  0.192300  0.617700  1.0  -0.5984
  O  O243  1  0.486000  0.849300  0.698200  1.0  -0.6322
  O  O244  1  0.380100  0.800900  0.585800  1.0  -0.6802
  O  O245  1  0.936300  0.310400  0.034500  1.0  -0.6013
  O  O246  1  0.046300  0.308900  0.897200  1.0  -0.654
  O  O247  1  0.952400  0.217200  0.616000  1.0  -0.7098
  O  O248  1  0.866700  0.157900  0.506500  1.0  -0.5977
  O  O249  1  0.518800  0.358700  0.215200  1.0  -0.6126
  O  O250  1  0.684400  0.321900  0.135500  1.0  -0.6591
  O  O251  1  0.236400  0.690200  0.134900  1.0  -0.6866
  O  O252  1  0.425400  0.714100  0.068800  1.0  -0.5911
  O  O253  1  0.766200  0.210300  0.239800  1.0  -0.6014
  O  O254  1  0.893100  0.192300  0.117700  1.0  -0.598
  O  O255  1  0.014000  0.849300  0.198200  1.0  -0.6317
  O  O256  1  0.119900  0.800900  0.085800  1.0  -0.6798
  O  O257  1  0.563700  0.310400  0.534500  1.0  -0.6027
  O  O258  1  0.453700  0.308900  0.397200  1.0  -0.6545
  O  O259  1  0.547600  0.217200  0.116000  1.0  -0.707
  O  O260  1  0.633300  0.157900  0.006500  1.0  -0.5979
  O  O261  1  0.018800  0.641300  0.284800  1.0  -0.6137
  O  O262  1  0.184400  0.678100  0.364500  1.0  -0.6596
  O  O263  1  0.736400  0.309800  0.365100  1.0  -0.686
  O  O264  1  0.925400  0.285900  0.431200  1.0  -0.5926
  O  O265  1  0.266200  0.789700  0.260200  1.0  -0.6013
  O  O266  1  0.393100  0.807700  0.382300  1.0  -0.5984
  O  O267  1  0.514000  0.150700  0.301800  1.0  -0.632
  O  O268  1  0.619900  0.199100  0.414200  1.0  -0.68
  O  O269  1  0.063700  0.689600  0.965500  1.0  -0.6019
  O  O270  1  0.953700  0.691100  0.102800  1.0  -0.6567
  O  O271  1  0.047600  0.782800  0.384000  1.0  -0.7066
  O  O272  1  0.133300  0.842100  0.493500  1.0  -0.598
