# generated using pymatgen
data_LaH12(C5O2)3
_symmetry_space_group_name_H-M   'P 1'
_cell_length_a   10.21800000
_cell_length_b   22.10100000
_cell_length_c   14.28300000
_cell_angle_alpha   91.27600000
_cell_angle_beta   90.00000000
_cell_angle_gamma   90.00000000
_symmetry_Int_Tables_number   1
_chemical_formula_structural   LaH12(C5O2)3
_chemical_formula_sum   'La8 H96 C120 O48'
_cell_volume   3224.70173690
_cell_formula_units_Z   8
loop_
 _symmetry_equiv_pos_site_id
 _symmetry_equiv_pos_as_xyz
  1  'x, y, z'
loop_
 _atom_site_type_symbol
 _atom_site_label
 _atom_site_symmetry_multiplicity
 _atom_site_fract_x
 _atom_site_fract_y
 _atom_site_fract_z
 _atom_site_occupancy
 _atom_site_charge
  La  La1  1  0.443380  0.741800  0.734990  1.0  2.1791
  La  La2  1  0.248860  0.750070  0.978730  1.0  2.1639
  La  La3  1  0.943380  0.258200  0.765010  1.0  2.1789
  La  La4  1  0.748860  0.249930  0.521270  1.0  2.164
  La  La5  1  0.556620  0.258200  0.265010  1.0  2.1796
  La  La6  1  0.751140  0.249930  0.021270  1.0  2.1642
  La  La7  1  0.056620  0.741800  0.234990  1.0  2.1798
  La  La8  1  0.251140  0.750070  0.478730  1.0  2.164
  H  H9  1  0.639200  0.533600  0.870700  1.0  0.1085
  H  H10  1  0.702300  0.439300  0.814400  1.0  0.1102
  H  H11  1  0.330500  0.386100  0.813100  1.0  0.1078
  H  H12  1  0.267400  0.480600  0.863700  1.0  0.0968
  H  H13  1  0.455900  0.585800  0.969700  1.0  0.1552
  H  H14  1  0.314000  0.573100  0.933700  1.0  0.1508
  H  H15  1  0.624300  0.343400  0.721200  1.0  0.1294
  H  H16  1  0.489600  0.317100  0.754300  1.0  0.1377
  H  H17  1  0.839400  0.903300  0.789600  1.0  0.1132
  H  H18  1  0.773900  0.991300  0.862300  1.0  0.0928
  H  H19  1  0.144700  0.044000  0.884300  1.0  0.1097
  H  H20  1  0.210700  0.954900  0.813200  1.0  0.1039
  H  H21  1  0.008100  0.841400  0.715400  1.0  0.1438
  H  H22  1  0.147900  0.869600  0.704200  1.0  0.1357
  H  H23  1  0.956900  0.092000  0.984000  1.0  0.1549
  H  H24  1  0.815300  0.082400  0.944800  1.0  0.1594
  H  H25  1  0.581200  0.531100  0.358800  1.0  0.1014
  H  H26  1  0.506700  0.564700  0.627200  1.0  0.1039
  H  H27  1  0.699000  0.620800  0.524300  1.0  0.1332
  H  H28  1  0.646100  0.625800  0.421400  1.0  0.1299
  H  H29  1  0.466000  0.978400  0.843300  1.0  0.0929
  H  H30  1  0.592000  0.928700  0.095300  1.0  0.1107
  H  H31  1  0.652100  0.868900  0.952200  1.0  0.1491
  H  H32  1  0.588700  0.885300  0.856100  1.0  0.1349
  H  H33  1  0.139200  0.466400  0.629300  1.0  0.109
  H  H34  1  0.202300  0.560700  0.685600  1.0  0.1101
  H  H35  1  0.830500  0.613900  0.686900  1.0  0.1081
  H  H36  1  0.767400  0.519400  0.636300  1.0  0.0967
  H  H37  1  0.955900  0.414200  0.530300  1.0  0.155
  H  H38  1  0.814000  0.426900  0.566300  1.0  0.1506
  H  H39  1  0.124300  0.656600  0.778800  1.0  0.1312
  H  H40  1  0.989600  0.682900  0.745700  1.0  0.1376
  H  H41  1  0.339400  0.096700  0.710400  1.0  0.1138
  H  H42  1  0.273900  0.008700  0.637700  1.0  0.0926
  H  H43  1  0.644700  0.956000  0.615700  1.0  0.1101
  H  H44  1  0.710700  0.045100  0.686800  1.0  0.1034
  H  H45  1  0.508100  0.158600  0.784600  1.0  0.1439
  H  H46  1  0.647900  0.130400  0.795800  1.0  0.1357
  H  H47  1  0.456900  0.908000  0.516000  1.0  0.1534
  H  H48  1  0.315300  0.917600  0.555200  1.0  0.1591
  H  H49  1  0.081200  0.468900  0.141200  1.0  0.101
  H  H50  1  0.006700  0.435300  0.872800  1.0  0.1044
  H  H51  1  0.199000  0.379200  0.975700  1.0  0.133
  H  H52  1  0.146100  0.374200  0.078600  1.0  0.1296
  H  H53  1  0.966000  0.021600  0.656700  1.0  0.0922
  H  H54  1  0.092000  0.071300  0.404700  1.0  0.11
  H  H55  1  0.152100  0.131100  0.547800  1.0  0.1495
  H  H56  1  0.088700  0.114700  0.643900  1.0  0.1352
  H  H57  1  0.360800  0.466400  0.129300  1.0  0.1088
  H  H58  1  0.297700  0.560700  0.185600  1.0  0.1105
  H  H59  1  0.669500  0.613900  0.186900  1.0  0.1086
  H  H60  1  0.732600  0.519400  0.136300  1.0  0.0967
  H  H61  1  0.544100  0.414200  0.030300  1.0  0.1557
  H  H62  1  0.686000  0.426900  0.066300  1.0  0.1499
  H  H63  1  0.375700  0.656600  0.278800  1.0  0.1315
  H  H64  1  0.510400  0.682900  0.245700  1.0  0.1361
  H  H65  1  0.160600  0.096700  0.210400  1.0  0.1135
  H  H66  1  0.226100  0.008700  0.137700  1.0  0.0922
  H  H67  1  0.855300  0.956000  0.115700  1.0  0.1098
  H  H68  1  0.789300  0.045100  0.186800  1.0  0.1037
  H  H69  1  0.991900  0.158600  0.284600  1.0  0.143
  H  H70  1  0.852100  0.130400  0.295800  1.0  0.1354
  H  H71  1  0.043100  0.908000  0.016000  1.0  0.1525
  H  H72  1  0.184700  0.917600  0.055200  1.0  0.158
  H  H73  1  0.418800  0.468900  0.641200  1.0  0.1008
  H  H74  1  0.493300  0.435300  0.372800  1.0  0.1047
  H  H75  1  0.301000  0.379200  0.475700  1.0  0.1341
  H  H76  1  0.353900  0.374200  0.578600  1.0  0.1297
  H  H77  1  0.534000  0.021600  0.156700  1.0  0.0923
  H  H78  1  0.408000  0.071300  0.904700  1.0  0.1102
  H  H79  1  0.347900  0.131100  0.047800  1.0  0.1493
  H  H80  1  0.411300  0.114700  0.143900  1.0  0.1355
  H  H81  1  0.860800  0.533600  0.370700  1.0  0.1086
  H  H82  1  0.797700  0.439300  0.314400  1.0  0.1104
  H  H83  1  0.169500  0.386100  0.313100  1.0  0.1084
  H  H84  1  0.232600  0.480600  0.363700  1.0  0.0965
  H  H85  1  0.044100  0.585800  0.469700  1.0  0.1562
  H  H86  1  0.186000  0.573100  0.433700  1.0  0.1505
  H  H87  1  0.875700  0.343400  0.221200  1.0  0.1301
  H  H88  1  0.010400  0.317100  0.254300  1.0  0.1361
  H  H89  1  0.660600  0.903300  0.289600  1.0  0.1139
  H  H90  1  0.726100  0.991300  0.362300  1.0  0.0926
  H  H91  1  0.355300  0.044000  0.384300  1.0  0.1098
  H  H92  1  0.289300  0.954900  0.313200  1.0  0.1039
  H  H93  1  0.491900  0.841400  0.215400  1.0  0.1432
  H  H94  1  0.352100  0.869600  0.204200  1.0  0.1354
  H  H95  1  0.543100  0.092000  0.484000  1.0  0.154
  H  H96  1  0.684700  0.082400  0.444800  1.0  0.1583
  H  H97  1  0.918800  0.531100  0.858800  1.0  0.1014
  H  H98  1  0.993300  0.564700  0.127200  1.0  0.1045
  H  H99  1  0.801000  0.620800  0.024300  1.0  0.1342
  H  H100  1  0.853900  0.625800  0.921400  1.0  0.1301
  H  H101  1  0.034000  0.978400  0.343300  1.0  0.0926
  H  H102  1  0.908000  0.928700  0.595300  1.0  0.1106
  H  H103  1  0.847900  0.868900  0.452200  1.0  0.1503
  H  H104  1  0.911300  0.885300  0.356100  1.0  0.1352
  C  C105  1  0.447600  0.516600  0.875200  1.0  0.1176
  C  C106  1  0.576300  0.504000  0.859000  1.0  -0.1217
  C  C107  1  0.614100  0.447200  0.825100  1.0  -0.1377
  C  C108  1  0.523600  0.402700  0.807100  1.0  0.1056
  C  C109  1  0.393500  0.415800  0.823600  1.0  -0.1358
  C  C110  1  0.355900  0.472100  0.855400  1.0  -0.134
  C  C111  1  0.404400  0.576800  0.914000  1.0  -0.411
  C  C112  1  0.414100  0.629800  0.850900  1.0  0.8053
  C  C113  1  0.565600  0.340300  0.774200  1.0  -0.3776
  C  C114  1  0.633500  0.308700  0.852400  1.0  0.7838
  C  C115  1  0.032600  0.918700  0.794700  1.0  0.1125
  C  C116  1  0.902100  0.931300  0.809100  1.0  -0.1388
  C  C117  1  0.862700  0.984700  0.851900  1.0  -0.1309
  C  C118  1  0.949400  0.028100  0.879100  1.0  0.1172
  C  C119  1  0.082300  0.015700  0.865100  1.0  -0.1249
  C  C120  1  0.121900  0.962000  0.822800  1.0  -0.1372
  C  C121  1  0.080000  0.860400  0.749200  1.0  -0.3751
  C  C122  1  0.132500  0.817500  0.818100  1.0  0.8006
  C  C123  1  0.906400  0.086400  0.927000  1.0  -0.4003
  C  C124  1  0.921000  0.142400  0.868800  1.0  0.7816
  C  C125  1  0.555600  0.556900  0.493600  1.0  0.0979
  C  C126  1  0.549300  0.518700  0.416300  1.0  -0.1313
  C  C127  1  0.505100  0.538500  0.575300  1.0  -0.1205
  C  C128  1  0.620800  0.619100  0.485800  1.0  -0.3613
  C  C129  1  0.523500  0.668300  0.518800  1.0  0.8107
  C  C130  1  0.536700  0.943500  0.961600  1.0  0.1141
  C  C131  1  0.480300  0.986900  0.906500  1.0  -0.1216
  C  C132  1  0.555200  0.957400  0.056600  1.0  -0.1274
  C  C133  1  0.571900  0.882300  0.922700  1.0  -0.3926
  C  C134  1  0.466900  0.835600  0.937300  1.0  0.8048
  C  C135  1  0.947600  0.483400  0.624800  1.0  0.1178
  C  C136  1  0.076300  0.496000  0.641000  1.0  -0.1216
  C  C137  1  0.114100  0.552800  0.674900  1.0  -0.1377
  C  C138  1  0.023600  0.597300  0.692900  1.0  0.1055
  C  C139  1  0.893500  0.584200  0.676400  1.0  -0.1363
  C  C140  1  0.855900  0.527900  0.644600  1.0  -0.1346
  C  C141  1  0.904400  0.423200  0.586000  1.0  -0.4082
  C  C142  1  0.914100  0.370200  0.649100  1.0  0.8049
  C  C143  1  0.065600  0.659700  0.725800  1.0  -0.3797
  C  C144  1  0.133500  0.691300  0.647600  1.0  0.784
  C  C145  1  0.532600  0.081300  0.705300  1.0  0.112
  C  C146  1  0.402100  0.068700  0.690900  1.0  -0.1405
  C  C147  1  0.362700  0.015300  0.648100  1.0  -0.1307
  C  C148  1  0.449400  0.971900  0.620900  1.0  0.117
  C  C149  1  0.582300  0.984300  0.634900  1.0  -0.1244
  C  C150  1  0.621900  0.038000  0.677200  1.0  -0.1374
  C  C151  1  0.580000  0.139600  0.750800  1.0  -0.3769
  C  C152  1  0.632500  0.182500  0.681900  1.0  0.801
  C  C153  1  0.406400  0.913600  0.573000  1.0  -0.399
  C  C154  1  0.421000  0.857600  0.631200  1.0  0.7841
  C  C155  1  0.055600  0.443100  0.006400  1.0  0.0982
  C  C156  1  0.049300  0.481300  0.083700  1.0  -0.131
  C  C157  1  0.005100  0.461500  0.924700  1.0  -0.1223
  C  C158  1  0.120800  0.380900  0.014200  1.0  -0.3614
  C  C159  1  0.023500  0.331700  0.981200  1.0  0.8124
  C  C160  1  0.036700  0.056500  0.538400  1.0  0.1149
  C  C161  1  0.980300  0.013100  0.593500  1.0  -0.1217
  C  C162  1  0.055200  0.042600  0.443400  1.0  -0.1274
  C  C163  1  0.071900  0.117700  0.577300  1.0  -0.393
  C  C164  1  0.966900  0.164400  0.562700  1.0  0.8045
  C  C165  1  0.552400  0.483400  0.124800  1.0  0.1177
  C  C166  1  0.423700  0.496000  0.141000  1.0  -0.1205
  C  C167  1  0.385900  0.552800  0.174900  1.0  -0.1386
  C  C168  1  0.476400  0.597300  0.192900  1.0  0.1068
  C  C169  1  0.606500  0.584200  0.176400  1.0  -0.1374
  C  C170  1  0.644100  0.527900  0.144600  1.0  -0.1362
  C  C171  1  0.595600  0.423200  0.086000  1.0  -0.4089
  C  C172  1  0.585900  0.370200  0.149100  1.0  0.8047
  C  C173  1  0.434400  0.659700  0.225800  1.0  -0.3787
  C  C174  1  0.366500  0.691300  0.147600  1.0  0.7846
  C  C175  1  0.967400  0.081300  0.205300  1.0  0.1127
  C  C176  1  0.097900  0.068700  0.190900  1.0  -0.1415
  C  C177  1  0.137300  0.015300  0.148100  1.0  -0.1318
  C  C178  1  0.050600  0.971900  0.120900  1.0  0.117
  C  C179  1  0.917700  0.984300  0.134900  1.0  -0.1225
  C  C180  1  0.878100  0.038000  0.177200  1.0  -0.1379
  C  C181  1  0.920000  0.139600  0.250800  1.0  -0.3762
  C  C182  1  0.867500  0.182500  0.181900  1.0  0.8017
  C  C183  1  0.093600  0.913600  0.073000  1.0  -0.3989
  C  C184  1  0.079000  0.857600  0.131200  1.0  0.7828
  C  C185  1  0.444400  0.443100  0.506400  1.0  0.098
  C  C186  1  0.450700  0.481300  0.583700  1.0  -0.132
  C  C187  1  0.494900  0.461500  0.424700  1.0  -0.1208
  C  C188  1  0.379200  0.380900  0.514200  1.0  -0.3614
  C  C189  1  0.476500  0.331700  0.481200  1.0  0.8145
  C  C190  1  0.463300  0.056500  0.038400  1.0  0.1146
  C  C191  1  0.519700  0.013100  0.093500  1.0  -0.122
  C  C192  1  0.444800  0.042600  0.943400  1.0  -0.1349
  C  C193  1  0.428100  0.117700  0.077300  1.0  -0.3937
  C  C194  1  0.533100  0.164400  0.062700  1.0  0.8063
  C  C195  1  0.052400  0.516600  0.375200  1.0  0.1174
  C  C196  1  0.923700  0.504000  0.359000  1.0  -0.1212
  C  C197  1  0.885900  0.447200  0.325100  1.0  -0.1389
  C  C198  1  0.976400  0.402700  0.307100  1.0  0.1067
  C  C199  1  0.106500  0.415800  0.323600  1.0  -0.1372
  C  C200  1  0.144100  0.472100  0.355400  1.0  -0.1353
  C  C201  1  0.095600  0.576800  0.414000  1.0  -0.4106
  C  C202  1  0.085900  0.629800  0.350900  1.0  0.8056
  C  C203  1  0.934400  0.340300  0.274200  1.0  -0.3778
  C  C204  1  0.866500  0.308700  0.352400  1.0  0.7837
  C  C205  1  0.467400  0.918700  0.294700  1.0  0.113
  C  C206  1  0.597900  0.931300  0.309100  1.0  -0.1398
  C  C207  1  0.637300  0.984700  0.351900  1.0  -0.1322
  C  C208  1  0.550600  0.028100  0.379100  1.0  0.1171
  C  C209  1  0.417700  0.015700  0.365100  1.0  -0.1232
  C  C210  1  0.378100  0.962000  0.322800  1.0  -0.1379
  C  C211  1  0.420000  0.860400  0.249200  1.0  -0.375
  C  C212  1  0.367500  0.817500  0.318100  1.0  0.8008
  C  C213  1  0.593600  0.086400  0.427000  1.0  -0.3995
  C  C214  1  0.579000  0.142400  0.368800  1.0  0.7828
  C  C215  1  0.944400  0.556900  0.993600  1.0  0.0977
  C  C216  1  0.950700  0.518700  0.916300  1.0  -0.1317
  C  C217  1  0.994900  0.538500  0.075300  1.0  -0.1193
  C  C218  1  0.879200  0.619100  0.985800  1.0  -0.3624
  C  C219  1  0.976500  0.668300  0.018800  1.0  0.8138
  C  C220  1  0.963300  0.943500  0.461600  1.0  0.1142
  C  C221  1  0.019700  0.986900  0.406500  1.0  -0.1219
  C  C222  1  0.944800  0.957400  0.556600  1.0  -0.1352
  C  C223  1  0.928100  0.882300  0.422700  1.0  -0.3925
  C  C224  1  0.033100  0.835600  0.437300  1.0  0.8058
  O  O225  1  0.489300  0.630400  0.781900  1.0  -0.6724
  O  O226  1  0.342400  0.675200  0.868500  1.0  -0.8037
  O  O227  1  0.756400  0.306800  0.856700  1.0  -0.7977
  O  O228  1  0.565400  0.284600  0.915200  1.0  -0.6918
  O  O229  1  0.232500  0.786000  0.799200  1.0  -0.8144
  O  O230  1  0.075500  0.811200  0.894100  1.0  -0.6562
  O  O231  1  0.980100  0.143300  0.794400  1.0  -0.6754
  O  O232  1  0.865800  0.190900  0.899300  1.0  -0.8421
  O  O233  1  0.432800  0.678900  0.466300  1.0  -0.6929
  O  O234  1  0.545700  0.695900  0.594300  1.0  -0.7643
  O  O235  1  0.475700  0.784900  0.896400  1.0  -0.8119
  O  O236  1  0.372500  0.846800  0.990700  1.0  -0.6554
  O  O237  1  0.989300  0.369600  0.718100  1.0  -0.6729
  O  O238  1  0.842400  0.324800  0.631500  1.0  -0.8045
  O  O239  1  0.256400  0.693200  0.643300  1.0  -0.7972
  O  O240  1  0.065400  0.715400  0.584800  1.0  -0.6927
  O  O241  1  0.732500  0.214000  0.700800  1.0  -0.814
  O  O242  1  0.575500  0.188800  0.605900  1.0  -0.6562
  O  O243  1  0.480100  0.856700  0.705600  1.0  -0.6778
  O  O244  1  0.365800  0.809100  0.600700  1.0  -0.8425
  O  O245  1  0.932800  0.321100  0.033700  1.0  -0.6922
  O  O246  1  0.045700  0.304100  0.905700  1.0  -0.7625
  O  O247  1  0.975700  0.215100  0.603600  1.0  -0.8098
  O  O248  1  0.872500  0.153200  0.509300  1.0  -0.6551
  O  O249  1  0.510700  0.369600  0.218100  1.0  -0.6726
  O  O250  1  0.657600  0.324800  0.131500  1.0  -0.8041
  O  O251  1  0.243600  0.693200  0.143300  1.0  -0.7979
  O  O252  1  0.434600  0.715400  0.084800  1.0  -0.6916
  O  O253  1  0.767500  0.214000  0.200800  1.0  -0.8146
  O  O254  1  0.924500  0.188800  0.105900  1.0  -0.6564
  O  O255  1  0.019900  0.856700  0.205600  1.0  -0.6777
  O  O256  1  0.134200  0.809100  0.100700  1.0  -0.8395
  O  O257  1  0.567200  0.321100  0.533700  1.0  -0.6929
  O  O258  1  0.454300  0.304100  0.405700  1.0  -0.7619
  O  O259  1  0.524300  0.215100  0.103600  1.0  -0.8114
  O  O260  1  0.627500  0.153200  0.009300  1.0  -0.6556
  O  O261  1  0.010700  0.630400  0.281900  1.0  -0.6727
  O  O262  1  0.157600  0.675200  0.368500  1.0  -0.8036
  O  O263  1  0.743600  0.306800  0.356700  1.0  -0.798
  O  O264  1  0.934600  0.284600  0.415200  1.0  -0.694
  O  O265  1  0.267500  0.786000  0.299200  1.0  -0.8149
  O  O266  1  0.424500  0.811200  0.394100  1.0  -0.6573
  O  O267  1  0.519900  0.143300  0.294400  1.0  -0.6767
  O  O268  1  0.634200  0.190900  0.399300  1.0  -0.84
  O  O269  1  0.067200  0.678900  0.966300  1.0  -0.6944
  O  O270  1  0.954300  0.695900  0.094300  1.0  -0.7631
  O  O271  1  0.024300  0.784900  0.396400  1.0  -0.8102
  O  O272  1  0.127500  0.846800  0.490700  1.0  -0.6554
