# generated using pymatgen
data_Pr2Mn3H18C42(NO4)6
_symmetry_space_group_name_H-M   'P 1'
_cell_length_a   15.51200000
_cell_length_b   15.51200000
_cell_length_c   15.64500000
_cell_angle_alpha   90.00000000
_cell_angle_beta   90.00000000
_cell_angle_gamma   120.00000000
_symmetry_Int_Tables_number   1
_chemical_formula_structural   Pr2Mn3H18C42(NO4)6
_chemical_formula_sum   'Pr4 Mn6 H36 C84 N12 O48'
_cell_volume   3260.18159493
_cell_formula_units_Z   2
loop_
 _symmetry_equiv_pos_site_id
 _symmetry_equiv_pos_as_xyz
  1  'x, y, z'
loop_
 _atom_site_type_symbol
 _atom_site_label
 _atom_site_symmetry_multiplicity
 _atom_site_fract_x
 _atom_site_fract_y
 _atom_site_fract_z
 _atom_site_occupancy
 _atom_site_charge
  Pr  Pr1  1  0.333333  0.666667  0.750000  1.0  2.105
  Pr  Pr2  1  0.666667  0.333333  0.750000  1.0  2.105
  Pr  Pr3  1  0.666667  0.333333  0.250000  1.0  2.105
  Pr  Pr4  1  0.333333  0.666667  0.250000  1.0  2.105
  Mn  Mn5  1  0.500000  0.500000  0.000000  1.0  1.2638
  Mn  Mn6  1  0.000000  0.500000  0.000000  1.0  1.2638
  Mn  Mn7  1  0.500000  0.000000  0.000000  1.0  1.2638
  Mn  Mn8  1  0.000000  0.500000  0.500000  1.0  1.2638
  Mn  Mn9  1  0.500000  0.500000  0.500000  1.0  1.2638
  Mn  Mn10  1  0.500000  0.000000  0.500000  1.0  1.2638
  H  H11  1  0.232800  0.286300  0.841400  1.0  0.1157
  H  H12  1  0.053500  0.767200  0.841400  1.0  0.1152
  H  H13  1  0.713700  0.946500  0.841400  1.0  0.1148
  H  H14  1  0.767200  0.713700  0.841400  1.0  0.1155
  H  H15  1  0.946500  0.232800  0.841400  1.0  0.1152
  H  H16  1  0.286300  0.053500  0.841400  1.0  0.1154
  H  H17  1  0.946500  0.713700  0.658600  1.0  0.1153
  H  H18  1  0.286300  0.232800  0.658600  1.0  0.1151
  H  H19  1  0.767200  0.053500  0.658600  1.0  0.1144
  H  H20  1  0.053500  0.286300  0.658600  1.0  0.1149
  H  H21  1  0.713700  0.767200  0.658600  1.0  0.1147
  H  H22  1  0.232800  0.946500  0.658600  1.0  0.1148
  H  H23  1  0.767200  0.713700  0.158600  1.0  0.1152
  H  H24  1  0.946500  0.232800  0.158600  1.0  0.1148
  H  H25  1  0.286300  0.053500  0.158600  1.0  0.1146
  H  H26  1  0.232800  0.286300  0.158600  1.0  0.1152
  H  H27  1  0.053500  0.767200  0.158600  1.0  0.1149
  H  H28  1  0.713700  0.946500  0.158600  1.0  0.1146
  H  H29  1  0.053500  0.286300  0.341400  1.0  0.1155
  H  H30  1  0.713700  0.767200  0.341400  1.0  0.1151
  H  H31  1  0.232800  0.946500  0.341400  1.0  0.1152
  H  H32  1  0.946500  0.713700  0.341400  1.0  0.1155
  H  H33  1  0.286300  0.232800  0.341400  1.0  0.1153
  H  H34  1  0.767200  0.053500  0.341400  1.0  0.1149
  H  H35  1  0.100350  0.200700  0.750000  1.0  0.0837
  H  H36  1  0.100350  0.899650  0.750000  1.0  0.0864
  H  H37  1  0.799300  0.899650  0.750000  1.0  0.0866
  H  H38  1  0.899650  0.799300  0.750000  1.0  0.0843
  H  H39  1  0.899650  0.100350  0.750000  1.0  0.0868
  H  H40  1  0.200700  0.100350  0.750000  1.0  0.0865
  H  H41  1  0.899650  0.799300  0.250000  1.0  0.0843
  H  H42  1  0.899650  0.100350  0.250000  1.0  0.0868
  H  H43  1  0.200700  0.100350  0.250000  1.0  0.0865
  H  H44  1  0.100350  0.200700  0.250000  1.0  0.0837
  H  H45  1  0.100350  0.899650  0.250000  1.0  0.0864
  H  H46  1  0.799300  0.899650  0.250000  1.0  0.0866
  C  C47  1  0.263300  0.423600  0.803400  1.0  0.1352
  C  C48  1  0.351200  0.487500  0.860600  1.0  0.6727
  C  C49  1  0.213300  0.320400  0.804400  1.0  -0.1222
  C  C50  1  0.160300  0.736700  0.803400  1.0  0.1352
  C  C51  1  0.136300  0.648800  0.860600  1.0  0.6734
  C  C52  1  0.107100  0.786700  0.804400  1.0  -0.1225
  C  C53  1  0.576400  0.839700  0.803400  1.0  0.1345
  C  C54  1  0.512500  0.863700  0.860600  1.0  0.6726
  C  C55  1  0.679600  0.892900  0.804400  1.0  -0.1225
  C  C56  1  0.736700  0.576400  0.803400  1.0  0.1354
  C  C57  1  0.648800  0.512500  0.860600  1.0  0.6729
  C  C58  1  0.786700  0.679600  0.804400  1.0  -0.1219
  C  C59  1  0.839700  0.263300  0.803400  1.0  0.135
  C  C60  1  0.863700  0.351200  0.860600  1.0  0.673
  C  C61  1  0.892900  0.213300  0.804400  1.0  -0.1229
  C  C62  1  0.423600  0.160300  0.803400  1.0  0.1352
  C  C63  1  0.487500  0.136300  0.860600  1.0  0.6732
  C  C64  1  0.320400  0.107100  0.804400  1.0  -0.123
  C  C65  1  0.839700  0.576400  0.696600  1.0  0.1347
  C  C66  1  0.863700  0.512500  0.639400  1.0  0.6728
  C  C67  1  0.892900  0.679600  0.695600  1.0  -0.1229
  C  C68  1  0.423600  0.263300  0.696600  1.0  0.1348
  C  C69  1  0.487500  0.351200  0.639400  1.0  0.6734
  C  C70  1  0.320400  0.213300  0.695600  1.0  -0.123
  C  C71  1  0.736700  0.160300  0.696600  1.0  0.1343
  C  C72  1  0.648800  0.136300  0.639400  1.0  0.673
  C  C73  1  0.786700  0.107100  0.695600  1.0  -0.123
  C  C74  1  0.160300  0.423600  0.696600  1.0  0.1349
  C  C75  1  0.136300  0.487500  0.639400  1.0  0.6731
  C  C76  1  0.107100  0.320400  0.695600  1.0  -0.1221
  C  C77  1  0.576400  0.736700  0.696600  1.0  0.1344
  C  C78  1  0.512500  0.648800  0.639400  1.0  0.6735
  C  C79  1  0.679600  0.786700  0.695600  1.0  -0.1234
  C  C80  1  0.263300  0.839700  0.696600  1.0  0.1349
  C  C81  1  0.351200  0.863700  0.639400  1.0  0.6731
  C  C82  1  0.213300  0.892900  0.695600  1.0  -0.1231
  C  C83  1  0.736700  0.576400  0.196600  1.0  0.1347
  C  C84  1  0.648800  0.512500  0.139400  1.0  0.6732
  C  C85  1  0.786700  0.679600  0.195600  1.0  -0.1217
  C  C86  1  0.839700  0.263300  0.196600  1.0  0.135
  C  C87  1  0.863700  0.351200  0.139400  1.0  0.6737
  C  C88  1  0.892900  0.213300  0.195600  1.0  -0.1237
  C  C89  1  0.423600  0.160300  0.196600  1.0  0.1352
  C  C90  1  0.487500  0.136300  0.139400  1.0  0.673
  C  C91  1  0.320400  0.107100  0.195600  1.0  -0.1221
  C  C92  1  0.263300  0.423600  0.196600  1.0  0.135
  C  C93  1  0.351200  0.487500  0.139400  1.0  0.6729
  C  C94  1  0.213300  0.320400  0.195600  1.0  -0.1226
  C  C95  1  0.160300  0.736700  0.196600  1.0  0.1346
  C  C96  1  0.136300  0.648800  0.139400  1.0  0.6732
  C  C97  1  0.107100  0.786700  0.195600  1.0  -0.1222
  C  C98  1  0.576400  0.839700  0.196600  1.0  0.1343
  C  C99  1  0.512500  0.863700  0.139400  1.0  0.6731
  C  C100  1  0.679600  0.892900  0.195600  1.0  -0.1233
  C  C101  1  0.160300  0.423600  0.303400  1.0  0.135
  C  C102  1  0.136300  0.487500  0.360600  1.0  0.6724
  C  C103  1  0.107100  0.320400  0.304400  1.0  -0.1223
  C  C104  1  0.576400  0.736700  0.303400  1.0  0.1351
  C  C105  1  0.512500  0.648800  0.360600  1.0  0.6735
  C  C106  1  0.679600  0.786700  0.304400  1.0  -0.1226
  C  C107  1  0.263300  0.839700  0.303400  1.0  0.135
  C  C108  1  0.351200  0.863700  0.360600  1.0  0.6733
  C  C109  1  0.213300  0.892900  0.304400  1.0  -0.1234
  C  C110  1  0.839700  0.576400  0.303400  1.0  0.1354
  C  C111  1  0.863700  0.512500  0.360600  1.0  0.6732
  C  C112  1  0.892900  0.679600  0.304400  1.0  -0.1226
  C  C113  1  0.423600  0.263300  0.303400  1.0  0.1349
  C  C114  1  0.487500  0.351200  0.360600  1.0  0.6729
  C  C115  1  0.320400  0.213300  0.304400  1.0  -0.1235
  C  C116  1  0.736700  0.160300  0.303400  1.0  0.1345
  C  C117  1  0.648800  0.136300  0.360600  1.0  0.6725
  C  C118  1  0.786700  0.107100  0.304400  1.0  -0.1229
  C  C119  1  0.134950  0.269900  0.750000  1.0  -0.0201
  C  C120  1  0.134950  0.865050  0.750000  1.0  -0.0222
  C  C121  1  0.730100  0.865050  0.750000  1.0  -0.0228
  C  C122  1  0.865050  0.730100  0.750000  1.0  -0.0201
  C  C123  1  0.865050  0.134950  0.750000  1.0  -0.0227
  C  C124  1  0.269900  0.134950  0.750000  1.0  -0.0222
  C  C125  1  0.865050  0.730100  0.250000  1.0  -0.0201
  C  C126  1  0.865050  0.134950  0.250000  1.0  -0.0227
  C  C127  1  0.269900  0.134950  0.250000  1.0  -0.0222
  C  C128  1  0.134950  0.269900  0.250000  1.0  -0.0201
  C  C129  1  0.134950  0.865050  0.250000  1.0  -0.0222
  C  C130  1  0.730100  0.865050  0.250000  1.0  -0.0228
  N  N131  1  0.237200  0.474400  0.750000  1.0  -0.4087
  N  N132  1  0.237200  0.762800  0.750000  1.0  -0.4086
  N  N133  1  0.525600  0.762800  0.750000  1.0  -0.4085
  N  N134  1  0.762800  0.525600  0.750000  1.0  -0.4078
  N  N135  1  0.762800  0.237200  0.750000  1.0  -0.4085
  N  N136  1  0.474400  0.237200  0.750000  1.0  -0.4089
  N  N137  1  0.762800  0.525600  0.250000  1.0  -0.4078
  N  N138  1  0.762800  0.237200  0.250000  1.0  -0.4085
  N  N139  1  0.474400  0.237200  0.250000  1.0  -0.4089
  N  N140  1  0.237200  0.474400  0.250000  1.0  -0.4087
  N  N141  1  0.237200  0.762800  0.250000  1.0  -0.4086
  N  N142  1  0.525600  0.762800  0.250000  1.0  -0.4085
  O  O143  1  0.383200  0.444100  0.904900  1.0  -0.6213
  O  O144  1  0.383900  0.580700  0.857300  1.0  -0.6726
  O  O145  1  0.060900  0.616800  0.904900  1.0  -0.6203
  O  O146  1  0.196800  0.616100  0.857300  1.0  -0.6749
  O  O147  1  0.555900  0.939100  0.904900  1.0  -0.6193
  O  O148  1  0.419300  0.803200  0.857300  1.0  -0.6748
  O  O149  1  0.616800  0.555900  0.904900  1.0  -0.6207
  O  O150  1  0.616100  0.419300  0.857300  1.0  -0.6724
  O  O151  1  0.939100  0.383200  0.904900  1.0  -0.6213
  O  O152  1  0.803200  0.383900  0.857300  1.0  -0.6745
  O  O153  1  0.444100  0.060900  0.904900  1.0  -0.6189
  O  O154  1  0.580700  0.196800  0.857300  1.0  -0.6751
  O  O155  1  0.939100  0.555900  0.595100  1.0  -0.6217
  O  O156  1  0.803200  0.419300  0.642700  1.0  -0.6724
  O  O157  1  0.444100  0.383200  0.595100  1.0  -0.6216
  O  O158  1  0.580700  0.383900  0.642700  1.0  -0.6755
  O  O159  1  0.616800  0.060900  0.595100  1.0  -0.6191
  O  O160  1  0.616100  0.196800  0.642700  1.0  -0.6742
  O  O161  1  0.060900  0.444100  0.595100  1.0  -0.6209
  O  O162  1  0.196800  0.580700  0.642700  1.0  -0.6727
  O  O163  1  0.555900  0.616800  0.595100  1.0  -0.6214
  O  O164  1  0.419300  0.616100  0.642700  1.0  -0.6742
  O  O165  1  0.383200  0.939100  0.595100  1.0  -0.6197
  O  O166  1  0.383900  0.803200  0.642700  1.0  -0.6751
  O  O167  1  0.616800  0.555900  0.095100  1.0  -0.6219
  O  O168  1  0.616100  0.419300  0.142700  1.0  -0.6723
  O  O169  1  0.939100  0.383200  0.095100  1.0  -0.6222
  O  O170  1  0.803200  0.383900  0.142700  1.0  -0.6747
  O  O171  1  0.444100  0.060900  0.095100  1.0  -0.6197
  O  O172  1  0.580700  0.196800  0.142700  1.0  -0.6754
  O  O173  1  0.383200  0.444100  0.095100  1.0  -0.6222
  O  O174  1  0.383900  0.580700  0.142700  1.0  -0.6728
  O  O175  1  0.060900  0.616800  0.095100  1.0  -0.6216
  O  O176  1  0.196800  0.616100  0.142700  1.0  -0.6754
  O  O177  1  0.555900  0.939100  0.095100  1.0  -0.6204
  O  O178  1  0.419300  0.803200  0.142700  1.0  -0.6752
  O  O179  1  0.060900  0.444100  0.404900  1.0  -0.6209
  O  O180  1  0.196800  0.580700  0.357300  1.0  -0.6727
  O  O181  1  0.555900  0.616800  0.404900  1.0  -0.6218
  O  O182  1  0.419300  0.616100  0.357300  1.0  -0.6737
  O  O183  1  0.383200  0.939100  0.404900  1.0  -0.6198
  O  O184  1  0.383900  0.803200  0.357300  1.0  -0.675
  O  O185  1  0.939100  0.555900  0.404900  1.0  -0.6219
  O  O186  1  0.803200  0.419300  0.357300  1.0  -0.6724
  O  O187  1  0.444100  0.383200  0.404900  1.0  -0.6212
  O  O188  1  0.580700  0.383900  0.357300  1.0  -0.6751
  O  O189  1  0.616800  0.060900  0.404900  1.0  -0.6197
  O  O190  1  0.616100  0.196800  0.357300  1.0  -0.6738
