# generated using pymatgen
data_Er2Mn3H18C42(NO4)6
_symmetry_space_group_name_H-M   'P 1'
_cell_length_a   15.22900000
_cell_length_b   15.22900000
_cell_length_c   15.85200000
_cell_angle_alpha   90.00000000
_cell_angle_beta   90.00000000
_cell_angle_gamma   120.00000000
_symmetry_Int_Tables_number   1
_chemical_formula_structural   Er2Mn3H18C42(NO4)6
_chemical_formula_sum   'Er4 Mn6 H36 C84 N12 O48'
_cell_volume   3183.88570243
_cell_formula_units_Z   2
loop_
 _symmetry_equiv_pos_site_id
 _symmetry_equiv_pos_as_xyz
  1  'x, y, z'
loop_
 _atom_site_type_symbol
 _atom_site_label
 _atom_site_symmetry_multiplicity
 _atom_site_fract_x
 _atom_site_fract_y
 _atom_site_fract_z
 _atom_site_occupancy
 _atom_site_charge
  Er  Er1  1  0.333333  0.666667  0.750000  1.0  1.1897
  Er  Er2  1  0.666667  0.333333  0.750000  1.0  1.1897
  Er  Er3  1  0.666667  0.333333  0.250000  1.0  1.1897
  Er  Er4  1  0.333333  0.666667  0.250000  1.0  1.1897
  Mn  Mn5  1  0.500000  0.000000  0.000000  1.0  1.3751
  Mn  Mn6  1  0.500000  0.500000  0.000000  1.0  1.3751
  Mn  Mn7  1  0.000000  0.500000  0.000000  1.0  1.3751
  Mn  Mn8  1  0.500000  0.000000  0.500000  1.0  1.3751
  Mn  Mn9  1  0.000000  0.500000  0.500000  1.0  1.3751
  Mn  Mn10  1  0.500000  0.500000  0.500000  1.0  1.3751
  H  H11  1  0.708600  0.941700  0.843300  1.0  0.1128
  H  H12  1  0.233100  0.291400  0.843300  1.0  0.1117
  H  H13  1  0.058300  0.766900  0.843300  1.0  0.1133
  H  H14  1  0.291400  0.058300  0.843300  1.0  0.1115
  H  H15  1  0.766900  0.708600  0.843300  1.0  0.1133
  H  H16  1  0.941700  0.233100  0.843300  1.0  0.1119
  H  H17  1  0.766900  0.058300  0.656700  1.0  0.1126
  H  H18  1  0.941700  0.708600  0.656700  1.0  0.1119
  H  H19  1  0.291400  0.233100  0.656700  1.0  0.1114
  H  H20  1  0.233100  0.941700  0.656700  1.0  0.111
  H  H21  1  0.058300  0.291400  0.656700  1.0  0.1118
  H  H22  1  0.708600  0.766900  0.656700  1.0  0.1129
  H  H23  1  0.291400  0.058300  0.156700  1.0  0.1111
  H  H24  1  0.766900  0.708600  0.156700  1.0  0.1131
  H  H25  1  0.941700  0.233100  0.156700  1.0  0.1114
  H  H26  1  0.708600  0.941700  0.156700  1.0  0.1126
  H  H27  1  0.233100  0.291400  0.156700  1.0  0.1116
  H  H28  1  0.058300  0.766900  0.156700  1.0  0.1125
  H  H29  1  0.233100  0.941700  0.343300  1.0  0.1113
  H  H30  1  0.058300  0.291400  0.343300  1.0  0.112
  H  H31  1  0.708600  0.766900  0.343300  1.0  0.113
  H  H32  1  0.766900  0.058300  0.343300  1.0  0.1128
  H  H33  1  0.941700  0.708600  0.343300  1.0  0.1121
  H  H34  1  0.291400  0.233100  0.343300  1.0  0.1118
  H  H35  1  0.797800  0.898900  0.750000  1.0  0.0982
  H  H36  1  0.101100  0.202200  0.750000  1.0  0.0959
  H  H37  1  0.101100  0.898900  0.750000  1.0  0.0986
  H  H38  1  0.202200  0.101100  0.750000  1.0  0.0988
  H  H39  1  0.898900  0.797800  0.750000  1.0  0.0964
  H  H40  1  0.898900  0.101100  0.750000  1.0  0.0987
  H  H41  1  0.202200  0.101100  0.250000  1.0  0.0988
  H  H42  1  0.898900  0.797800  0.250000  1.0  0.0964
  H  H43  1  0.898900  0.101100  0.250000  1.0  0.0987
  H  H44  1  0.797800  0.898900  0.250000  1.0  0.0982
  H  H45  1  0.101100  0.202200  0.250000  1.0  0.0959
  H  H46  1  0.101100  0.898900  0.250000  1.0  0.0986
  C  C47  1  0.504900  0.858100  0.859100  1.0  0.6556
  C  C48  1  0.571200  0.837500  0.802900  1.0  0.1148
  C  C49  1  0.674300  0.889200  0.804900  1.0  -0.1194
  C  C50  1  0.353200  0.495100  0.859100  1.0  0.6522
  C  C51  1  0.266300  0.428800  0.802900  1.0  0.1139
  C  C52  1  0.214900  0.325700  0.804900  1.0  -0.1151
  C  C53  1  0.141900  0.646800  0.859100  1.0  0.6527
  C  C54  1  0.162500  0.733700  0.802900  1.0  0.1132
  C  C55  1  0.110800  0.785100  0.804900  1.0  -0.1142
  C  C56  1  0.495100  0.141900  0.859100  1.0  0.6527
  C  C57  1  0.428800  0.162500  0.802900  1.0  0.1149
  C  C58  1  0.325700  0.110800  0.804900  1.0  -0.116
  C  C59  1  0.646800  0.504900  0.859100  1.0  0.6525
  C  C60  1  0.733700  0.571200  0.802900  1.0  0.1148
  C  C61  1  0.785100  0.674300  0.804900  1.0  -0.1175
  C  C62  1  0.858100  0.353200  0.859100  1.0  0.653
  C  C63  1  0.837500  0.266300  0.802900  1.0  0.1139
  C  C64  1  0.889200  0.214900  0.804900  1.0  -0.1169
  C  C65  1  0.646800  0.141900  0.640900  1.0  0.6543
  C  C66  1  0.733700  0.162500  0.697100  1.0  0.115
  C  C67  1  0.785100  0.110800  0.695100  1.0  -0.1163
  C  C68  1  0.858100  0.504900  0.640900  1.0  0.6549
  C  C69  1  0.837500  0.571200  0.697100  1.0  0.1137
  C  C70  1  0.889200  0.674300  0.695100  1.0  -0.1182
  C  C71  1  0.495100  0.353200  0.640900  1.0  0.6534
  C  C72  1  0.428800  0.266300  0.697100  1.0  0.1211
  C  C73  1  0.325700  0.214900  0.695100  1.0  -0.1147
  C  C74  1  0.353200  0.858100  0.640900  1.0  0.6529
  C  C75  1  0.266300  0.837500  0.697100  1.0  0.1152
  C  C76  1  0.214900  0.889200  0.695100  1.0  -0.1146
  C  C77  1  0.141900  0.495100  0.640900  1.0  0.6535
  C  C78  1  0.162500  0.428800  0.697100  1.0  0.1145
  C  C79  1  0.110800  0.325700  0.695100  1.0  -0.1136
  C  C80  1  0.504900  0.646800  0.640900  1.0  0.6561
  C  C81  1  0.571200  0.733700  0.697100  1.0  0.1127
  C  C82  1  0.674300  0.785100  0.695100  1.0  -0.1186
  C  C83  1  0.495100  0.141900  0.140900  1.0  0.6528
  C  C84  1  0.428800  0.162500  0.197100  1.0  0.1153
  C  C85  1  0.325700  0.110800  0.195100  1.0  -0.1145
  C  C86  1  0.646800  0.504900  0.140900  1.0  0.6536
  C  C87  1  0.733700  0.571200  0.197100  1.0  0.114
  C  C88  1  0.785100  0.674300  0.195100  1.0  -0.1171
  C  C89  1  0.858100  0.353200  0.140900  1.0  0.6544
  C  C90  1  0.837500  0.266300  0.197100  1.0  0.1169
  C  C91  1  0.889200  0.214900  0.195100  1.0  -0.1178
  C  C92  1  0.504900  0.858100  0.140900  1.0  0.6564
  C  C93  1  0.571200  0.837500  0.197100  1.0  0.1151
  C  C94  1  0.674300  0.889200  0.195100  1.0  -0.1203
  C  C95  1  0.353200  0.495100  0.140900  1.0  0.6527
  C  C96  1  0.266300  0.428800  0.197100  1.0  0.1139
  C  C97  1  0.214900  0.325700  0.195100  1.0  -0.115
  C  C98  1  0.141900  0.646800  0.140900  1.0  0.6531
  C  C99  1  0.162500  0.733700  0.197100  1.0  0.1135
  C  C100  1  0.110800  0.785100  0.195100  1.0  -0.1137
  C  C101  1  0.353200  0.858100  0.359100  1.0  0.6527
  C  C102  1  0.266300  0.837500  0.302900  1.0  0.1148
  C  C103  1  0.214900  0.889200  0.304900  1.0  -0.1159
  C  C104  1  0.141900  0.495100  0.359100  1.0  0.6518
  C  C105  1  0.162500  0.428800  0.302900  1.0  0.1144
  C  C106  1  0.110800  0.325700  0.304900  1.0  -0.1145
  C  C107  1  0.504900  0.646800  0.359100  1.0  0.6559
  C  C108  1  0.571200  0.733700  0.302900  1.0  0.1111
  C  C109  1  0.674300  0.785100  0.304900  1.0  -0.1182
  C  C110  1  0.646800  0.141900  0.359100  1.0  0.6529
  C  C111  1  0.733700  0.162500  0.302900  1.0  0.1148
  C  C112  1  0.785100  0.110800  0.304900  1.0  -0.119
  C  C113  1  0.858100  0.504900  0.359100  1.0  0.6549
  C  C114  1  0.837500  0.571200  0.302900  1.0  0.1143
  C  C115  1  0.889200  0.674300  0.304900  1.0  -0.1181
  C  C116  1  0.495100  0.353200  0.359100  1.0  0.6519
  C  C117  1  0.428800  0.266300  0.302900  1.0  0.1141
  C  C118  1  0.325700  0.214900  0.304900  1.0  -0.1155
  C  C119  1  0.727300  0.863650  0.750000  1.0  -0.032
  C  C120  1  0.136350  0.272700  0.750000  1.0  -0.0314
  C  C121  1  0.136350  0.863650  0.750000  1.0  -0.0345
  C  C122  1  0.272700  0.136350  0.750000  1.0  -0.0303
  C  C123  1  0.863650  0.727300  0.750000  1.0  -0.0294
  C  C124  1  0.863650  0.136350  0.750000  1.0  -0.0326
  C  C125  1  0.272700  0.136350  0.250000  1.0  -0.0331
  C  C126  1  0.863650  0.727300  0.250000  1.0  -0.0283
  C  C127  1  0.863650  0.136350  0.250000  1.0  -0.0369
  C  C128  1  0.727300  0.863650  0.250000  1.0  -0.034
  C  C129  1  0.136350  0.272700  0.250000  1.0  -0.0299
  C  C130  1  0.136350  0.863650  0.250000  1.0  -0.0315
  N  N131  1  0.519000  0.759500  0.750000  1.0  -0.2744
  N  N132  1  0.240500  0.481000  0.750000  1.0  -0.2784
  N  N133  1  0.240500  0.759500  0.750000  1.0  -0.2744
  N  N134  1  0.481000  0.240500  0.750000  1.0  -0.2746
  N  N135  1  0.759500  0.519000  0.750000  1.0  -0.2775
  N  N136  1  0.759500  0.240500  0.750000  1.0  -0.2745
  N  N137  1  0.481000  0.240500  0.250000  1.0  -0.2746
  N  N138  1  0.759500  0.519000  0.250000  1.0  -0.2775
  N  N139  1  0.759500  0.240500  0.250000  1.0  -0.2745
  N  N140  1  0.519000  0.759500  0.250000  1.0  -0.2744
  N  N141  1  0.240500  0.481000  0.250000  1.0  -0.2784
  N  N142  1  0.240500  0.759500  0.250000  1.0  -0.2744
  O  O143  1  0.549300  0.934100  0.906800  1.0  -0.6258
  O  O144  1  0.410800  0.798700  0.854670  1.0  -0.5741
  O  O145  1  0.384800  0.450700  0.906800  1.0  -0.6275
  O  O146  1  0.387900  0.589200  0.854670  1.0  -0.5728
  O  O147  1  0.065900  0.615200  0.906800  1.0  -0.6284
  O  O148  1  0.201300  0.612100  0.854670  1.0  -0.5732
  O  O149  1  0.450700  0.065900  0.906800  1.0  -0.6261
  O  O150  1  0.589200  0.201300  0.854670  1.0  -0.5777
  O  O151  1  0.615200  0.549300  0.906800  1.0  -0.6269
  O  O152  1  0.612100  0.410800  0.854670  1.0  -0.5727
  O  O153  1  0.934100  0.384800  0.906800  1.0  -0.628
  O  O154  1  0.798700  0.387900  0.854670  1.0  -0.5733
  O  O155  1  0.615200  0.065900  0.593200  1.0  -0.6263
  O  O156  1  0.612100  0.201300  0.645330  1.0  -0.5737
  O  O157  1  0.934100  0.549300  0.593200  1.0  -0.6283
  O  O158  1  0.798700  0.410800  0.645330  1.0  -0.5727
  O  O159  1  0.450700  0.384800  0.593200  1.0  -0.6284
  O  O160  1  0.589200  0.387900  0.645330  1.0  -0.5731
  O  O161  1  0.384800  0.934100  0.593200  1.0  -0.6268
  O  O162  1  0.387900  0.798700  0.645330  1.0  -0.5748
  O  O163  1  0.065900  0.450700  0.593200  1.0  -0.6272
  O  O164  1  0.201300  0.589200  0.645330  1.0  -0.5724
  O  O165  1  0.549300  0.615200  0.593200  1.0  -0.6287
  O  O166  1  0.410800  0.612100  0.645330  1.0  -0.5729
  O  O167  1  0.450700  0.065900  0.093200  1.0  -0.6265
  O  O168  1  0.589200  0.201300  0.145330  1.0  -0.577
  O  O169  1  0.615200  0.549300  0.093200  1.0  -0.6276
  O  O170  1  0.612100  0.410800  0.145330  1.0  -0.5723
  O  O171  1  0.934100  0.384800  0.093200  1.0  -0.629
  O  O172  1  0.798700  0.387900  0.145330  1.0  -0.5727
  O  O173  1  0.549300  0.934100  0.093200  1.0  -0.6269
  O  O174  1  0.410800  0.798700  0.145330  1.0  -0.5738
  O  O175  1  0.384800  0.450700  0.093200  1.0  -0.628
  O  O176  1  0.387900  0.589200  0.145330  1.0  -0.5727
  O  O177  1  0.065900  0.615200  0.093200  1.0  -0.6286
  O  O178  1  0.201300  0.612100  0.145330  1.0  -0.5749
  O  O179  1  0.384800  0.934100  0.406800  1.0  -0.6256
  O  O180  1  0.387900  0.798700  0.354670  1.0  -0.5749
  O  O181  1  0.065900  0.450700  0.406800  1.0  -0.6268
  O  O182  1  0.201300  0.589200  0.354670  1.0  -0.5728
  O  O183  1  0.549300  0.615200  0.406800  1.0  -0.6286
  O  O184  1  0.410800  0.612100  0.354670  1.0  -0.573
  O  O185  1  0.615200  0.065900  0.406800  1.0  -0.6259
  O  O186  1  0.612100  0.201300  0.354670  1.0  -0.5742
  O  O187  1  0.934100  0.549300  0.406800  1.0  -0.6273
  O  O188  1  0.798700  0.410800  0.354670  1.0  -0.5728
  O  O189  1  0.450700  0.384800  0.406800  1.0  -0.6277
  O  O190  1  0.589200  0.387900  0.354670  1.0  -0.5733
