# generated using pymatgen
data_Gd2Mn3H18C42(NO4)6
_symmetry_space_group_name_H-M   'P 1'
_cell_length_a   15.30700000
_cell_length_b   15.30700000
_cell_length_c   15.69500000
_cell_angle_alpha   90.00000000
_cell_angle_beta   90.00000000
_cell_angle_gamma   120.00000000
_symmetry_Int_Tables_number   1
_chemical_formula_structural   Gd2Mn3H18C42(NO4)6
_chemical_formula_sum   'Gd4 Mn6 H36 C84 N12 O48'
_cell_volume   3184.72631286
_cell_formula_units_Z   2
loop_
 _symmetry_equiv_pos_site_id
 _symmetry_equiv_pos_as_xyz
  1  'x, y, z'
loop_
 _atom_site_type_symbol
 _atom_site_label
 _atom_site_symmetry_multiplicity
 _atom_site_fract_x
 _atom_site_fract_y
 _atom_site_fract_z
 _atom_site_occupancy
 _atom_site_charge
  Gd  Gd1  1  0.333333  0.666667  0.750000  1.0  2.0238
  Gd  Gd2  1  0.666667  0.333333  0.750000  1.0  2.0238
  Gd  Gd3  1  0.666667  0.333333  0.250000  1.0  2.0238
  Gd  Gd4  1  0.333333  0.666667  0.250000  1.0  2.0238
  Mn  Mn5  1  0.500000  0.500000  0.000000  1.0  1.2421
  Mn  Mn6  1  0.000000  0.500000  0.000000  1.0  1.2421
  Mn  Mn7  1  0.500000  0.000000  0.000000  1.0  1.2421
  Mn  Mn8  1  0.000000  0.500000  0.500000  1.0  1.2421
  Mn  Mn9  1  0.500000  0.500000  0.500000  1.0  1.2421
  Mn  Mn10  1  0.500000  0.000000  0.500000  1.0  1.2421
  H  H11  1  0.234500  0.289400  0.842800  1.0  0.1118
  H  H12  1  0.054900  0.765500  0.842800  1.0  0.1117
  H  H13  1  0.710600  0.945100  0.842800  1.0  0.111
  H  H14  1  0.765500  0.710600  0.842800  1.0  0.1119
  H  H15  1  0.945100  0.234500  0.842800  1.0  0.1112
  H  H16  1  0.289400  0.054900  0.842800  1.0  0.1112
  H  H17  1  0.945100  0.710600  0.657200  1.0  0.1117
  H  H18  1  0.289400  0.234500  0.657200  1.0  0.1113
  H  H19  1  0.765500  0.054900  0.657200  1.0  0.1106
  H  H20  1  0.054900  0.289400  0.657200  1.0  0.1116
  H  H21  1  0.710600  0.765500  0.657200  1.0  0.1111
  H  H22  1  0.234500  0.945100  0.657200  1.0  0.1109
  H  H23  1  0.765500  0.710600  0.157200  1.0  0.1118
  H  H24  1  0.945100  0.234500  0.157200  1.0  0.111
  H  H25  1  0.289400  0.054900  0.157200  1.0  0.1108
  H  H26  1  0.234500  0.289400  0.157200  1.0  0.1116
  H  H27  1  0.054900  0.765500  0.157200  1.0  0.1115
  H  H28  1  0.710600  0.945100  0.157200  1.0  0.1109
  H  H29  1  0.054900  0.289400  0.342800  1.0  0.1118
  H  H30  1  0.710600  0.765500  0.342800  1.0  0.1114
  H  H31  1  0.234500  0.945100  0.342800  1.0  0.1111
  H  H32  1  0.945100  0.710600  0.342800  1.0  0.1117
  H  H33  1  0.289400  0.234500  0.342800  1.0  0.1115
  H  H34  1  0.765500  0.054900  0.342800  1.0  0.1108
  H  H35  1  0.100500  0.201000  0.750000  1.0  0.0875
  H  H36  1  0.100500  0.899500  0.750000  1.0  0.0907
  H  H37  1  0.799000  0.899500  0.750000  1.0  0.0906
  H  H38  1  0.899500  0.799000  0.750000  1.0  0.0884
  H  H39  1  0.899500  0.100500  0.750000  1.0  0.0908
  H  H40  1  0.201000  0.100500  0.750000  1.0  0.0908
  H  H41  1  0.899500  0.799000  0.250000  1.0  0.0884
  H  H42  1  0.899500  0.100500  0.250000  1.0  0.0908
  H  H43  1  0.201000  0.100500  0.250000  1.0  0.0908
  H  H44  1  0.100500  0.201000  0.250000  1.0  0.0875
  H  H45  1  0.100500  0.899500  0.250000  1.0  0.0907
  H  H46  1  0.799000  0.899500  0.250000  1.0  0.0906
  C  C47  1  0.352500  0.492500  0.859600  1.0  0.6594
  C  C48  1  0.265200  0.426900  0.803400  1.0  0.1294
  C  C49  1  0.215100  0.323500  0.805100  1.0  -0.1135
  C  C50  1  0.140000  0.647500  0.859600  1.0  0.6607
  C  C51  1  0.161700  0.734800  0.803400  1.0  0.1299
  C  C52  1  0.108400  0.784900  0.805100  1.0  -0.1141
  C  C53  1  0.507500  0.860000  0.859600  1.0  0.6591
  C  C54  1  0.573100  0.838300  0.803400  1.0  0.1305
  C  C55  1  0.676500  0.891600  0.805100  1.0  -0.1141
  C  C56  1  0.647500  0.507500  0.859600  1.0  0.6593
  C  C57  1  0.734800  0.573100  0.803400  1.0  0.1299
  C  C58  1  0.784900  0.676500  0.805100  1.0  -0.1139
  C  C59  1  0.860000  0.352500  0.859600  1.0  0.6607
  C  C60  1  0.838300  0.265200  0.803400  1.0  0.1295
  C  C61  1  0.891600  0.215100  0.805100  1.0  -0.1144
  C  C62  1  0.492500  0.140000  0.859600  1.0  0.6599
  C  C63  1  0.426900  0.161700  0.803400  1.0  0.1306
  C  C64  1  0.323500  0.108400  0.805100  1.0  -0.1144
  C  C65  1  0.860000  0.507500  0.640400  1.0  0.6594
  C  C66  1  0.838300  0.573100  0.696600  1.0  0.1286
  C  C67  1  0.891600  0.676500  0.694900  1.0  -0.1142
  C  C68  1  0.492500  0.352500  0.640400  1.0  0.6617
  C  C69  1  0.426900  0.265200  0.696600  1.0  0.1292
  C  C70  1  0.323500  0.215100  0.694900  1.0  -0.1146
  C  C71  1  0.647500  0.140000  0.640400  1.0  0.6602
  C  C72  1  0.734800  0.161700  0.696600  1.0  0.1301
  C  C73  1  0.784900  0.108400  0.694900  1.0  -0.1147
  C  C74  1  0.140000  0.492500  0.640400  1.0  0.6605
  C  C75  1  0.161700  0.426900  0.696600  1.0  0.1295
  C  C76  1  0.108400  0.323500  0.694900  1.0  -0.1138
  C  C77  1  0.507500  0.647500  0.640400  1.0  0.661
  C  C78  1  0.573100  0.734800  0.696600  1.0  0.1288
  C  C79  1  0.676500  0.784900  0.694900  1.0  -0.1147
  C  C80  1  0.352500  0.860000  0.640400  1.0  0.6602
  C  C81  1  0.265200  0.838300  0.696600  1.0  0.1301
  C  C82  1  0.215100  0.891600  0.694900  1.0  -0.1141
  C  C83  1  0.647500  0.507500  0.140400  1.0  0.66
  C  C84  1  0.734800  0.573100  0.196600  1.0  0.1294
  C  C85  1  0.784900  0.676500  0.194900  1.0  -0.1128
  C  C86  1  0.860000  0.352500  0.140400  1.0  0.6619
  C  C87  1  0.838300  0.265200  0.196600  1.0  0.1297
  C  C88  1  0.891600  0.215100  0.194900  1.0  -0.1148
  C  C89  1  0.492500  0.140000  0.140400  1.0  0.6599
  C  C90  1  0.426900  0.161700  0.196600  1.0  0.1305
  C  C91  1  0.323500  0.108400  0.194900  1.0  -0.1132
  C  C92  1  0.352500  0.492500  0.140400  1.0  0.6601
  C  C93  1  0.265200  0.426900  0.196600  1.0  0.1294
  C  C94  1  0.215100  0.323500  0.194900  1.0  -0.1134
  C  C95  1  0.140000  0.647500  0.140400  1.0  0.6609
  C  C96  1  0.161700  0.734800  0.196600  1.0  0.1292
  C  C97  1  0.108400  0.784900  0.194900  1.0  -0.1131
  C  C98  1  0.507500  0.860000  0.140400  1.0  0.6604
  C  C99  1  0.573100  0.838300  0.196600  1.0  0.1305
  C  C100  1  0.676500  0.891600  0.194900  1.0  -0.1139
  C  C101  1  0.140000  0.492500  0.359600  1.0  0.6593
  C  C102  1  0.161700  0.426900  0.303400  1.0  0.1293
  C  C103  1  0.108400  0.323500  0.305100  1.0  -0.1146
  C  C104  1  0.507500  0.647500  0.359600  1.0  0.6607
  C  C105  1  0.573100  0.734800  0.303400  1.0  0.1295
  C  C106  1  0.676500  0.784900  0.305100  1.0  -0.1145
  C  C107  1  0.352500  0.860000  0.359600  1.0  0.6598
  C  C108  1  0.265200  0.838300  0.303400  1.0  0.1302
  C  C109  1  0.215100  0.891600  0.305100  1.0  -0.1153
  C  C110  1  0.860000  0.507500  0.359600  1.0  0.6593
  C  C111  1  0.838300  0.573100  0.303400  1.0  0.1293
  C  C112  1  0.891600  0.676500  0.305100  1.0  -0.1146
  C  C113  1  0.492500  0.352500  0.359600  1.0  0.6605
  C  C114  1  0.426900  0.265200  0.303400  1.0  0.129
  C  C115  1  0.323500  0.215100  0.305100  1.0  -0.1157
  C  C116  1  0.647500  0.140000  0.359600  1.0  0.6592
  C  C117  1  0.734800  0.161700  0.303400  1.0  0.13
  C  C118  1  0.784900  0.108400  0.305100  1.0  -0.1151
  C  C119  1  0.135550  0.271100  0.750000  1.0  -0.0188
  C  C120  1  0.135550  0.864450  0.750000  1.0  -0.021
  C  C121  1  0.728900  0.864450  0.750000  1.0  -0.0216
  C  C122  1  0.864450  0.728900  0.750000  1.0  -0.0187
  C  C123  1  0.864450  0.135550  0.750000  1.0  -0.0217
  C  C124  1  0.271100  0.135550  0.750000  1.0  -0.021
  C  C125  1  0.864450  0.728900  0.250000  1.0  -0.0187
  C  C126  1  0.864450  0.135550  0.250000  1.0  -0.0217
  C  C127  1  0.271100  0.135550  0.250000  1.0  -0.021
  C  C128  1  0.135550  0.271100  0.250000  1.0  -0.0188
  C  C129  1  0.135550  0.864450  0.250000  1.0  -0.021
  C  C130  1  0.728900  0.864450  0.250000  1.0  -0.0216
  N  N131  1  0.239370  0.478740  0.750000  1.0  -0.3643
  N  N132  1  0.239370  0.760630  0.750000  1.0  -0.3617
  N  N133  1  0.521260  0.760630  0.750000  1.0  -0.3612
  N  N134  1  0.760630  0.521260  0.750000  1.0  -0.3621
  N  N135  1  0.760630  0.239370  0.750000  1.0  -0.3617
  N  N136  1  0.478740  0.239370  0.750000  1.0  -0.3626
  N  N137  1  0.760630  0.521260  0.250000  1.0  -0.3621
  N  N138  1  0.760630  0.239370  0.250000  1.0  -0.3617
  N  N139  1  0.478740  0.239370  0.250000  1.0  -0.3626
  N  N140  1  0.239370  0.478740  0.250000  1.0  -0.3643
  N  N141  1  0.239370  0.760630  0.250000  1.0  -0.3617
  N  N142  1  0.521260  0.760630  0.250000  1.0  -0.3612
  O  O143  1  0.386750  0.585930  0.855810  1.0  -0.6716
  O  O144  1  0.384100  0.448660  0.906570  1.0  -0.6156
  O  O145  1  0.199180  0.613250  0.855810  1.0  -0.6731
  O  O146  1  0.064560  0.615900  0.906570  1.0  -0.6161
  O  O147  1  0.414070  0.800820  0.855810  1.0  -0.6719
  O  O148  1  0.551340  0.935440  0.906570  1.0  -0.6149
  O  O149  1  0.613250  0.414070  0.855810  1.0  -0.6711
  O  O150  1  0.615900  0.551340  0.906570  1.0  -0.6154
  O  O151  1  0.800820  0.386750  0.855810  1.0  -0.6728
  O  O152  1  0.935440  0.384100  0.906570  1.0  -0.6167
  O  O153  1  0.585930  0.199180  0.855810  1.0  -0.6728
  O  O154  1  0.448660  0.064560  0.906570  1.0  -0.6157
  O  O155  1  0.800820  0.414070  0.644190  1.0  -0.6711
  O  O156  1  0.935440  0.551340  0.593430  1.0  -0.6164
  O  O157  1  0.585930  0.386750  0.644190  1.0  -0.674
  O  O158  1  0.448660  0.384100  0.593430  1.0  -0.6163
  O  O159  1  0.613250  0.199180  0.644190  1.0  -0.6724
  O  O160  1  0.615900  0.064560  0.593430  1.0  -0.6151
  O  O161  1  0.199180  0.585930  0.644190  1.0  -0.672
  O  O162  1  0.064560  0.448660  0.593430  1.0  -0.6153
  O  O163  1  0.414070  0.613250  0.644190  1.0  -0.6725
  O  O164  1  0.551340  0.615900  0.593430  1.0  -0.6167
  O  O165  1  0.386750  0.800820  0.644190  1.0  -0.6734
  O  O166  1  0.384100  0.935440  0.593430  1.0  -0.6159
  O  O167  1  0.613250  0.414070  0.144190  1.0  -0.6711
  O  O168  1  0.615900  0.551340  0.093430  1.0  -0.6157
  O  O169  1  0.800820  0.386750  0.144190  1.0  -0.6728
  O  O170  1  0.935440  0.384100  0.093430  1.0  -0.6169
  O  O171  1  0.585930  0.199180  0.144190  1.0  -0.6735
  O  O172  1  0.448660  0.064560  0.093430  1.0  -0.6153
  O  O173  1  0.386750  0.585930  0.144190  1.0  -0.6721
  O  O174  1  0.384100  0.448660  0.093430  1.0  -0.616
  O  O175  1  0.199180  0.613250  0.144190  1.0  -0.6737
  O  O176  1  0.064560  0.615900  0.093430  1.0  -0.6164
  O  O177  1  0.414070  0.800820  0.144190  1.0  -0.6724
  O  O178  1  0.551340  0.935440  0.093430  1.0  -0.616
  O  O179  1  0.199180  0.585930  0.355810  1.0  -0.6717
  O  O180  1  0.064560  0.448660  0.406570  1.0  -0.6151
  O  O181  1  0.414070  0.613250  0.355810  1.0  -0.6719
  O  O182  1  0.551340  0.615900  0.406570  1.0  -0.6166
  O  O183  1  0.386750  0.800820  0.355810  1.0  -0.6728
  O  O184  1  0.384100  0.935440  0.406570  1.0  -0.6149
  O  O185  1  0.800820  0.414070  0.355810  1.0  -0.6709
  O  O186  1  0.935440  0.551340  0.406570  1.0  -0.616
  O  O187  1  0.585930  0.386750  0.355810  1.0  -0.6735
  O  O188  1  0.448660  0.384100  0.406570  1.0  -0.6163
  O  O189  1  0.613250  0.199180  0.355810  1.0  -0.6721
  O  O190  1  0.615900  0.064560  0.406570  1.0  -0.6157
