# generated using pymatgen
data_CdH18C26(SO3)2
_symmetry_space_group_name_H-M   'P 1'
_cell_length_a   8.15230000
_cell_length_b   18.05100000
_cell_length_c   21.29120000
_cell_angle_alpha   90.00000000
_cell_angle_beta   90.00000000
_cell_angle_gamma   90.00000000
_symmetry_Int_Tables_number   1
_chemical_formula_structural   CdH18C26(SO3)2
_chemical_formula_sum   'Cd4 H72 C104 S8 O24'
_cell_volume   3133.15268042
_cell_formula_units_Z   4
loop_
 _symmetry_equiv_pos_site_id
 _symmetry_equiv_pos_as_xyz
  1  'x, y, z'
loop_
 _atom_site_type_symbol
 _atom_site_label
 _atom_site_symmetry_multiplicity
 _atom_site_fract_x
 _atom_site_fract_y
 _atom_site_fract_z
 _atom_site_occupancy
 _atom_site_charge
  Cd  Cd1  1  0.484380  0.781930  0.963060  1.0  1.1398
  Cd  Cd2  1  0.015620  0.218070  0.463060  1.0  1.139
  Cd  Cd3  1  0.515620  0.281930  0.536940  1.0  1.1314
  Cd  Cd4  1  0.984380  0.718070  0.036940  1.0  1.1291
  H  H5  1  0.334300  0.595100  0.579600  1.0  0.092
  H  H6  1  0.754900  0.772500  0.552200  1.0  0.1018
  H  H7  1  0.523100  0.496900  0.427100  1.0  0.1085
  H  H8  1  0.500200  0.500900  0.831300  1.0  0.1021
  H  H9  1  0.606900  0.292900  0.781800  1.0  0.087
  H  H10  1  0.074000  0.577800  0.540700  1.0  0.0852
  H  H11  1  0.519300  0.378700  0.855400  1.0  0.094
  H  H12  1  0.260800  0.478900  0.389800  1.0  0.0972
  H  H13  1  0.703600  0.612900  0.822200  1.0  0.1001
  H  H14  1  0.704000  0.682500  0.777900  1.0  0.1026
  H  H15  1  0.664300  0.329100  0.681000  1.0  0.1042
  H  H16  1  0.178100  0.675100  0.670200  1.0  0.0982
  H  H17  1  0.023700  0.803500  0.530100  1.0  0.0865
  H  H18  1  0.910700  0.643200  0.693300  1.0  0.1054
  H  H19  1  0.887300  0.447100  0.548700  1.0  0.0808
  H  H20  1  0.916000  0.406100  0.612800  1.0  0.1121
  H  H21  1  0.235200  0.757100  0.590400  1.0  0.0955
  H  H22  1  0.036000  0.516500  0.446300  1.0  0.1099
  H  H23  1  0.165700  0.404900  0.079600  1.0  0.0924
  H  H24  1  0.745100  0.227500  0.052200  1.0  0.1019
  H  H25  1  0.976900  0.503100  0.927100  1.0  0.108
  H  H26  1  0.999800  0.499100  0.331300  1.0  0.1022
  H  H27  1  0.893100  0.707100  0.281800  1.0  0.0871
  H  H28  1  0.426000  0.422200  0.040700  1.0  0.0859
  H  H29  1  0.980700  0.621300  0.355400  1.0  0.0956
  H  H30  1  0.239200  0.521100  0.889800  1.0  0.0986
  H  H31  1  0.796400  0.387100  0.322200  1.0  0.1014
  H  H32  1  0.796000  0.317500  0.277900  1.0  0.1039
  H  H33  1  0.835700  0.670900  0.181000  1.0  0.1047
  H  H34  1  0.321900  0.324900  0.170200  1.0  0.0978
  H  H35  1  0.476300  0.196500  0.030100  1.0  0.0869
  H  H36  1  0.589300  0.356800  0.193300  1.0  0.1054
  H  H37  1  0.612700  0.552900  0.048700  1.0  0.0818
  H  H38  1  0.584000  0.593900  0.112800  1.0  0.1124
  H  H39  1  0.264800  0.242900  0.090400  1.0  0.0963
  H  H40  1  0.464000  0.483500  0.946300  1.0  0.1095
  H  H41  1  0.665700  0.095100  0.920400  1.0  0.0923
  H  H42  1  0.245100  0.272500  0.947800  1.0  0.1019
  H  H43  1  0.476900  0.996900  0.072900  1.0  0.1078
  H  H44  1  0.499800  0.000900  0.668700  1.0  0.1019
  H  H45  1  0.393100  0.792900  0.718200  1.0  0.0873
  H  H46  1  0.926000  0.077800  0.959300  1.0  0.0853
  H  H47  1  0.480700  0.878700  0.644600  1.0  0.0944
  H  H48  1  0.739200  0.978900  0.110200  1.0  0.0983
  H  H49  1  0.296400  0.112900  0.677800  1.0  0.103
  H  H50  1  0.296000  0.182500  0.722100  1.0  0.1024
  H  H51  1  0.335700  0.829100  0.819000  1.0  0.1047
  H  H52  1  0.821900  0.175100  0.829800  1.0  0.0975
  H  H53  1  0.976300  0.303500  0.969900  1.0  0.0861
  H  H54  1  0.089300  0.143200  0.806700  1.0  0.1051
  H  H55  1  0.112700  0.947100  0.951300  1.0  0.0814
  H  H56  1  0.084000  0.906100  0.887200  1.0  0.1126
  H  H57  1  0.764800  0.257100  0.909600  1.0  0.0979
  H  H58  1  0.964000  0.016500  0.053700  1.0  0.1096
  H  H59  1  0.834300  0.904900  0.420400  1.0  0.0927
  H  H60  1  0.254900  0.727500  0.447800  1.0  0.1021
  H  H61  1  0.023100  0.003100  0.572900  1.0  0.1086
  H  H62  1  0.000200  0.999100  0.168700  1.0  0.1023
  H  H63  1  0.106900  0.207100  0.218200  1.0  0.0868
  H  H64  1  0.574000  0.922200  0.459300  1.0  0.0854
  H  H65  1  0.019300  0.121300  0.144600  1.0  0.0958
  H  H66  1  0.760800  0.021100  0.610200  1.0  0.0982
  H  H67  1  0.203600  0.887100  0.177800  1.0  0.0999
  H  H68  1  0.204000  0.817500  0.222100  1.0  0.1011
  H  H69  1  0.164300  0.170900  0.319000  1.0  0.1042
  H  H70  1  0.678100  0.824900  0.329800  1.0  0.0973
  H  H71  1  0.523700  0.696500  0.469900  1.0  0.0875
  H  H72  1  0.410700  0.856800  0.306700  1.0  0.1049
  H  H73  1  0.387300  0.052900  0.451300  1.0  0.0819
  H  H74  1  0.416000  0.093900  0.387200  1.0  0.1123
  H  H75  1  0.735200  0.742900  0.409600  1.0  0.0961
  H  H76  1  0.536000  0.983500  0.553700  1.0  0.1097
  C  C77  1  0.320100  0.571650  0.541100  1.0  -0.1047
  C  C78  1  0.649800  0.463880  0.631260  1.0  0.1916
  C  C79  1  0.638600  0.537160  0.615170  1.0  -0.0712
  C  C80  1  0.620400  0.439420  0.693550  1.0  -0.0261
  C  C81  1  0.601800  0.591250  0.662490  1.0  -0.0635
  C  C82  1  0.839600  0.752900  0.576300  1.0  -0.1107
  C  C83  1  0.433300  0.512900  0.450320  1.0  -0.1399
  C  C84  1  0.533700  0.467300  0.800810  1.0  -0.1199
  C  C85  1  0.455700  0.548060  0.507810  1.0  0.0462
  C  C86  1  0.805000  0.705000  0.625350  1.0  0.0268
  C  C87  1  0.596900  0.342500  0.770500  1.0  -0.0633
  C  C88  1  0.564700  0.568630  0.722020  1.0  0.1866
  C  C89  1  0.572200  0.492510  0.739270  1.0  -0.0164
  C  C90  1  0.164100  0.560900  0.518070  1.0  -0.0841
  C  C91  1  0.545700  0.394500  0.815090  1.0  -0.0818
  C  C92  1  0.275900  0.502300  0.428300  1.0  -0.0693
  C  C93  1  0.560400  0.697340  0.855900  1.0  0.6757
  C  C94  1  0.635300  0.651400  0.804080  1.0  -0.0478
  C  C95  1  0.632300  0.364090  0.710630  1.0  -0.0851
  C  C96  1  0.092800  0.695100  0.646700  1.0  -0.0595
  C  C97  1  0.000700  0.771600  0.563300  1.0  -0.0595
  C  C98  1  0.932700  0.675780  0.660500  1.0  -0.1106
  C  C99  1  0.854500  0.404770  0.573800  1.0  -0.0574
  C  C100  1  0.127400  0.743500  0.598800  1.0  -0.1076
  C  C101  1  0.141100  0.525100  0.461600  1.0  -0.1052
  C  C102  1  0.894700  0.334640  0.538860  1.0  0.69
  C  C103  1  0.179900  0.428350  0.041100  1.0  -0.1052
  C  C104  1  0.850200  0.536120  0.131260  1.0  0.1921
  C  C105  1  0.861400  0.462840  0.115170  1.0  -0.072
  C  C106  1  0.879600  0.560580  0.193550  1.0  -0.0247
  C  C107  1  0.898200  0.408750  0.162490  1.0  -0.0632
  C  C108  1  0.660400  0.247100  0.076300  1.0  -0.1099
  C  C109  1  0.066700  0.487100  0.950320  1.0  -0.1396
  C  C110  1  0.966300  0.532700  0.300810  1.0  -0.119
  C  C111  1  0.044300  0.451940  0.007810  1.0  0.038
  C  C112  1  0.695000  0.295000  0.125350  1.0  0.0289
  C  C113  1  0.903100  0.657500  0.270500  1.0  -0.0635
  C  C114  1  0.935300  0.431370  0.222020  1.0  0.1871
  C  C115  1  0.927800  0.507490  0.239270  1.0  -0.0164
  C  C116  1  0.335900  0.439100  0.018070  1.0  -0.0838
  C  C117  1  0.954300  0.605500  0.315090  1.0  -0.0806
  C  C118  1  0.224100  0.497700  0.928300  1.0  -0.07
  C  C119  1  0.939600  0.302660  0.355900  1.0  0.6754
  C  C120  1  0.864700  0.348600  0.304080  1.0  -0.045
  C  C121  1  0.867700  0.635910  0.210630  1.0  -0.0854
  C  C122  1  0.407200  0.304900  0.146700  1.0  -0.0602
  C  C123  1  0.499300  0.228400  0.063300  1.0  -0.0596
  C  C124  1  0.567300  0.324220  0.160500  1.0  -0.1117
  C  C125  1  0.645500  0.595230  0.073800  1.0  -0.0568
  C  C126  1  0.372600  0.256500  0.098800  1.0  -0.1076
  C  C127  1  0.358900  0.474900  0.961600  1.0  -0.1055
  C  C128  1  0.605300  0.665360  0.038860  1.0  0.6917
  C  C129  1  0.679900  0.071650  0.958900  1.0  -0.1038
  C  C130  1  0.350200  0.963880  0.868740  1.0  0.1916
  C  C131  1  0.361400  0.037160  0.884830  1.0  -0.0714
  C  C132  1  0.379600  0.939420  0.806450  1.0  -0.0265
  C  C133  1  0.398200  0.091250  0.837510  1.0  -0.0629
  C  C134  1  0.160400  0.252900  0.923700  1.0  -0.1097
  C  C135  1  0.566700  0.012900  0.049680  1.0  -0.1382
  C  C136  1  0.466300  0.967300  0.699190  1.0  -0.1194
  C  C137  1  0.544300  0.048060  0.992190  1.0  0.0389
  C  C138  1  0.195000  0.205000  0.874650  1.0  0.0292
  C  C139  1  0.403100  0.842500  0.729500  1.0  -0.0632
  C  C140  1  0.435300  0.068630  0.777980  1.0  0.187
  C  C141  1  0.427800  0.992510  0.760730  1.0  -0.0168
  C  C142  1  0.835900  0.060900  0.981930  1.0  -0.0835
  C  C143  1  0.454300  0.894500  0.684910  1.0  -0.0811
  C  C144  1  0.724100  0.002300  0.071700  1.0  -0.0684
  C  C145  1  0.439600  0.197340  0.644100  1.0  0.6767
  C  C146  1  0.364700  0.151400  0.695920  1.0  -0.0444
  C  C147  1  0.367700  0.864090  0.789370  1.0  -0.0855
  C  C148  1  0.907200  0.195100  0.853300  1.0  -0.061
  C  C149  1  0.999300  0.271600  0.936700  1.0  -0.0587
  C  C150  1  0.067300  0.175780  0.839500  1.0  -0.1129
  C  C151  1  0.145500  0.904770  0.926200  1.0  -0.0568
  C  C152  1  0.872600  0.243500  0.901200  1.0  -0.108
  C  C153  1  0.858900  0.025100  0.038400  1.0  -0.105
  C  C154  1  0.105300  0.834640  0.961140  1.0  0.691
  C  C155  1  0.820100  0.928350  0.458900  1.0  -0.1038
  C  C156  1  0.149800  0.036120  0.368740  1.0  0.192
  C  C157  1  0.138600  0.962840  0.384830  1.0  -0.0713
  C  C158  1  0.120400  0.060580  0.306450  1.0  -0.025
  C  C159  1  0.101800  0.908750  0.337510  1.0  -0.0631
  C  C160  1  0.339600  0.747100  0.423700  1.0  -0.11
  C  C161  1  0.933300  0.987100  0.549680  1.0  -0.1388
  C  C162  1  0.033700  0.032700  0.199190  1.0  -0.1204
  C  C163  1  0.955700  0.951940  0.492190  1.0  0.0475
  C  C164  1  0.305000  0.795000  0.374650  1.0  0.0262
  C  C165  1  0.096900  0.157500  0.229500  1.0  -0.0624
  C  C166  1  0.064700  0.931370  0.277980  1.0  0.1866
  C  C167  1  0.072200  0.007490  0.260730  1.0  -0.0167
  C  C168  1  0.664100  0.939100  0.481930  1.0  -0.085
  C  C169  1  0.045700  0.105500  0.184910  1.0  -0.0824
  C  C170  1  0.775900  0.997700  0.571700  1.0  -0.0689
  C  C171  1  0.060400  0.802660  0.144100  1.0  0.6772
  C  C172  1  0.135300  0.848600  0.195920  1.0  -0.0472
  C  C173  1  0.132300  0.135910  0.289370  1.0  -0.0853
  C  C174  1  0.592800  0.804900  0.353300  1.0  -0.0613
  C  C175  1  0.500700  0.728400  0.436700  1.0  -0.058
  C  C176  1  0.432700  0.824220  0.339500  1.0  -0.1126
  C  C177  1  0.354500  0.095230  0.426200  1.0  -0.0576
  C  C178  1  0.627400  0.756500  0.401200  1.0  -0.1078
  C  C179  1  0.641100  0.974900  0.538400  1.0  -0.1056
  C  C180  1  0.394700  0.165360  0.461140  1.0  0.6918
  S  S181  1  0.660060  0.563520  0.534830  1.0  -0.0532
  S  S182  1  0.595680  0.687130  0.643720  1.0  -0.0338
  S  S183  1  0.839940  0.436480  0.034830  1.0  -0.0533
  S  S184  1  0.904320  0.312870  0.143720  1.0  -0.0344
  S  S185  1  0.339940  0.063520  0.965170  1.0  -0.0532
  S  S186  1  0.404320  0.187130  0.856280  1.0  -0.0344
  S  S187  1  0.160060  0.936480  0.465170  1.0  -0.0531
  S  S188  1  0.095680  0.812870  0.356280  1.0  -0.0342
  O  O189  1  0.509400  0.618420  0.766700  1.0  -0.2801
  O  O190  1  0.684100  0.409690  0.587250  1.0  -0.339
  O  O191  1  0.412200  0.703750  0.862230  1.0  -0.5892
  O  O192  1  0.661100  0.728820  0.891730  1.0  -0.6424
  O  O193  1  0.037700  0.329910  0.517580  1.0  -0.5767
  O  O194  1  0.791200  0.284180  0.533090  1.0  -0.6274
  O  O195  1  0.990600  0.381580  0.266700  1.0  -0.2797
  O  O196  1  0.815900  0.590310  0.087250  1.0  -0.3348
  O  O197  1  0.087800  0.296250  0.362230  1.0  -0.5896
  O  O198  1  0.838900  0.271180  0.391730  1.0  -0.6404
  O  O199  1  0.462300  0.670090  0.017580  1.0  -0.577
  O  O200  1  0.708800  0.715820  0.033090  1.0  -0.627
  O  O201  1  0.490600  0.118420  0.733300  1.0  -0.2793
  O  O202  1  0.315900  0.909690  0.912750  1.0  -0.334
  O  O203  1  0.587800  0.203750  0.637770  1.0  -0.59
  O  O204  1  0.338900  0.228820  0.608270  1.0  -0.642
  O  O205  1  0.962300  0.829910  0.982420  1.0  -0.5772
  O  O206  1  0.208800  0.784180  0.966910  1.0  -0.6266
  O  O207  1  0.009400  0.881580  0.233300  1.0  -0.2803
  O  O208  1  0.184100  0.090310  0.412750  1.0  -0.3342
  O  O209  1  0.912200  0.796250  0.137770  1.0  -0.5895
  O  O210  1  0.161100  0.771180  0.108270  1.0  -0.6415
  O  O211  1  0.537700  0.170090  0.482420  1.0  -0.5776
  O  O212  1  0.291200  0.215820  0.466910  1.0  -0.6268
