# generated using pymatgen
data_ZnH5C11NO4
_symmetry_space_group_name_H-M   'P 1'
_cell_length_a   9.94930000
_cell_length_b   15.23470000
_cell_length_c   10.88910000
_cell_angle_alpha   90.00000000
_cell_angle_beta   107.25300000
_cell_angle_gamma   90.00000000
_symmetry_Int_Tables_number   1
_chemical_formula_structural   ZnH5C11NO4
_chemical_formula_sum   'Zn4 H20 C44 N4 O16'
_cell_volume   1576.24527938
_cell_formula_units_Z   4
loop_
 _symmetry_equiv_pos_site_id
 _symmetry_equiv_pos_as_xyz
  1  'x, y, z'
loop_
 _atom_site_type_symbol
 _atom_site_label
 _atom_site_symmetry_multiplicity
 _atom_site_fract_x
 _atom_site_fract_y
 _atom_site_fract_z
 _atom_site_occupancy
 _atom_site_charge
  Zn  Zn1  1  0.310910  0.194300  0.059550  1.0  0.9656
  Zn  Zn2  1  0.189090  0.694300  0.440450  1.0  0.9665
  Zn  Zn3  1  0.689090  0.805700  0.940450  1.0  0.9666
  Zn  Zn4  1  0.810910  0.305700  0.559550  1.0  0.9655
  H  H5  1  0.152000  0.436100  0.178700  1.0  0.0951
  H  H6  1  0.023300  0.179100  0.870700  1.0  0.072
  H  H7  1  0.917000  0.110000  0.679500  1.0  0.0777
  H  H8  1  0.270800  0.974500  0.721300  1.0  0.0972
  H  H9  1  0.367400  0.047900  0.905500  1.0  0.0526
  H  H10  1  0.348000  0.936100  0.321300  1.0  0.0946
  H  H11  1  0.476700  0.679100  0.629300  1.0  0.0715
  H  H12  1  0.583000  0.610000  0.820500  1.0  0.0778
  H  H13  1  0.229200  0.474500  0.778700  1.0  0.0964
  H  H14  1  0.132600  0.547900  0.594500  1.0  0.0535
  H  H15  1  0.848000  0.563900  0.821300  1.0  0.0943
  H  H16  1  0.976700  0.820900  0.129300  1.0  0.0718
  H  H17  1  0.083000  0.890000  0.320500  1.0  0.0778
  H  H18  1  0.729200  0.025500  0.278700  1.0  0.097
  H  H19  1  0.632600  0.952100  0.094500  1.0  0.0538
  H  H20  1  0.652000  0.063900  0.678700  1.0  0.0945
  H  H21  1  0.523300  0.320900  0.370700  1.0  0.0717
  H  H22  1  0.417000  0.390000  0.179500  1.0  0.0777
  H  H23  1  0.770800  0.525500  0.221300  1.0  0.0968
  H  H24  1  0.867400  0.452100  0.405500  1.0  0.0528
  C  C25  1  0.152100  0.341400  0.978300  1.0  0.6588
  C  C26  1  0.067600  0.420800  0.989300  1.0  -0.1174
  C  C27  1  0.090800  0.462200  0.106400  1.0  -0.0738
  C  C28  1  0.972800  0.458700  0.878500  1.0  -0.0981
  C  C29  1  0.932900  0.417600  0.749100  1.0  0.6908
  C  C30  1  0.073500  0.137500  0.839800  1.0  0.1267
  C  C31  1  0.009900  0.096700  0.724000  1.0  -0.1204
  C  C32  1  0.082700  0.036300  0.673100  1.0  -0.0065
  C  C33  1  0.218500  0.017000  0.748100  1.0  -0.1999
  C  C34  1  0.274400  0.059900  0.859700  1.0  0.1554
  C  C35  1  0.028800  0.993900  0.546600  1.0  0.3038
  C  C36  1  0.347900  0.841400  0.521700  1.0  0.659
  C  C37  1  0.432400  0.920800  0.510700  1.0  -0.1182
  C  C38  1  0.409200  0.962200  0.393600  1.0  -0.0753
  C  C39  1  0.527200  0.958700  0.621500  1.0  -0.0979
  C  C40  1  0.567100  0.917600  0.750900  1.0  0.6915
  C  C41  1  0.426500  0.637500  0.660200  1.0  0.1264
  C  C42  1  0.490100  0.596700  0.776000  1.0  -0.1196
  C  C43  1  0.417300  0.536300  0.826900  1.0  -0.0095
  C  C44  1  0.281500  0.517000  0.751900  1.0  -0.2002
  C  C45  1  0.225600  0.559900  0.640300  1.0  0.1544
  C  C46  1  0.471200  0.493900  0.953400  1.0  0.3028
  C  C47  1  0.847900  0.658600  0.021700  1.0  0.6588
  C  C48  1  0.932400  0.579200  0.010700  1.0  -0.1135
  C  C49  1  0.909200  0.537800  0.893600  1.0  -0.0762
  C  C50  1  0.027200  0.541300  0.121500  1.0  -0.0982
  C  C51  1  0.067100  0.582400  0.250900  1.0  0.6915
  C  C52  1  0.926500  0.862500  0.160200  1.0  0.1264
  C  C53  1  0.990100  0.903300  0.276000  1.0  -0.1194
  C  C54  1  0.917300  0.963700  0.326900  1.0  -0.0087
  C  C55  1  0.781500  0.983000  0.251900  1.0  -0.2008
  C  C56  1  0.725600  0.940100  0.140300  1.0  0.1542
  C  C57  1  0.971200  0.006100  0.453400  1.0  0.3021
  C  C58  1  0.652100  0.158600  0.478300  1.0  0.6583
  C  C59  1  0.567600  0.079200  0.489300  1.0  -0.1126
  C  C60  1  0.590800  0.037800  0.606400  1.0  -0.0743
  C  C61  1  0.472800  0.041300  0.378500  1.0  -0.0982
  C  C62  1  0.432900  0.082400  0.249100  1.0  0.6914
  C  C63  1  0.573500  0.362500  0.339800  1.0  0.1272
  C  C64  1  0.509900  0.403300  0.224000  1.0  -0.1204
  C  C65  1  0.582700  0.463700  0.173100  1.0  -0.004
  C  C66  1  0.718500  0.483000  0.248100  1.0  -0.2002
  C  C67  1  0.774400  0.440100  0.359700  1.0  0.1547
  C  C68  1  0.528800  0.506100  0.046600  1.0  0.3033
  N  N69  1  0.205100  0.118600  0.908700  1.0  -0.3497
  N  N70  1  0.294900  0.618600  0.591300  1.0  -0.3504
  N  N71  1  0.794900  0.881400  0.091300  1.0  -0.3517
  N  N72  1  0.705100  0.381400  0.408700  1.0  -0.3493
  O  O73  1  0.184300  0.290500  0.074900  1.0  -0.6216
  O  O74  1  0.191900  0.331500  0.882500  1.0  -0.5181
  O  O75  1  0.878600  0.341200  0.740500  1.0  -0.6048
  O  O76  1  0.944000  0.459400  0.656300  1.0  -0.5815
  O  O77  1  0.315700  0.790500  0.425100  1.0  -0.6229
  O  O78  1  0.308100  0.831500  0.617500  1.0  -0.5195
  O  O79  1  0.621400  0.841200  0.759500  1.0  -0.6051
  O  O80  1  0.556000  0.959400  0.843700  1.0  -0.5815
  O  O81  1  0.815700  0.709500  0.925100  1.0  -0.6237
  O  O82  1  0.808100  0.668500  0.117500  1.0  -0.5205
  O  O83  1  0.121400  0.658800  0.259500  1.0  -0.6047
  O  O84  1  0.056000  0.540600  0.343700  1.0  -0.5811
  O  O85  1  0.684300  0.209500  0.574900  1.0  -0.6233
  O  O86  1  0.691900  0.168500  0.382500  1.0  -0.5185
  O  O87  1  0.378600  0.158800  0.240500  1.0  -0.6055
  O  O88  1  0.444000  0.040600  0.156300  1.0  -0.5817
