# generated using pymatgen
data_Ce4SiH12W12C28(NO13)4
_symmetry_space_group_name_H-M   'P 1'
_cell_length_a   11.75540000
_cell_length_b   14.43590000
_cell_length_c   14.69330000
_cell_angle_alpha   111.14600000
_cell_angle_beta   112.69800000
_cell_angle_gamma   93.21500000
_symmetry_Int_Tables_number   1
_chemical_formula_structural   Ce4SiH12W12C28(NO13)4
_chemical_formula_sum   'Ce4 Si1 H12 W12 C28 N4 O52'
_cell_volume   2089.45269605
_cell_formula_units_Z   1
loop_
 _symmetry_equiv_pos_site_id
 _symmetry_equiv_pos_as_xyz
  1  'x, y, z'
loop_
 _atom_site_type_symbol
 _atom_site_label
 _atom_site_symmetry_multiplicity
 _atom_site_fract_x
 _atom_site_fract_y
 _atom_site_fract_z
 _atom_site_occupancy
 _atom_site_charge
  Ce  Ce1  1  0.085600  0.472830  0.651900  1.0  2.249
  Ce  Ce2  1  0.286000  0.523950  0.064600  1.0  2.1489
  Ce  Ce3  1  0.914400  0.527170  0.348100  1.0  2.2481
  Ce  Ce4  1  0.714000  0.476050  0.935400  1.0  2.148
  Si  Si5  1  0.000000  0.000000  0.000000  1.0  1.5166
  H  H6  1  0.385500  0.820700  0.696100  1.0  0.1527
  H  H7  1  0.528400  0.861400  0.873100  1.0  0.1328
  H  H8  1  0.504200  0.781300  0.977300  1.0  0.1557
  H  H9  1  0.355400  0.386900  0.516200  1.0  0.1477
  H  H10  1  0.495200  0.369300  0.435400  1.0  0.1546
  H  H11  1  0.709600  0.440200  0.548200  1.0  0.1178
  H  H12  1  0.614500  0.179300  0.303900  1.0  0.1534
  H  H13  1  0.471600  0.138600  0.126900  1.0  0.1326
  H  H14  1  0.495800  0.218700  0.022700  1.0  0.1551
  H  H15  1  0.644600  0.613100  0.483800  1.0  0.1487
  H  H16  1  0.504800  0.630700  0.564600  1.0  0.1545
  H  H17  1  0.290400  0.559800  0.451800  1.0  0.1178
  W  W18  1  0.073660  0.902590  0.199970  1.0  1.3906
  W  W19  1  0.278590  0.908230  0.075740  1.0  1.6612
  W  W20  1  0.258470  0.137070  0.259790  1.0  1.4074
  W  W21  1  0.018900  0.768090  0.817060  1.0  2.0519
  W  W22  1  0.203090  0.000880  0.872640  1.0  1.3181
  W  W23  1  0.188010  0.232820  0.059620  1.0  2.1484
  W  W24  1  0.926340  0.097410  0.800030  1.0  1.3899
  W  W25  1  0.721410  0.091770  0.924260  1.0  1.6677
  W  W26  1  0.741530  0.862930  0.740210  1.0  1.4083
  W  W27  1  0.981100  0.231910  0.182940  1.0  2.0581
  W  W28  1  0.796910  0.999120  0.127360  1.0  1.3164
  W  W29  1  0.811990  0.767180  0.940380  1.0  2.1456
  C  C30  1  0.178000  0.647000  0.572000  1.0  0.728
  C  C31  1  0.282000  0.695000  0.685000  1.0  0.0791
  C  C32  1  0.377000  0.782000  0.733000  1.0  -0.1125
  C  C33  1  0.460000  0.807000  0.840000  1.0  -0.102
  C  C34  1  0.450000  0.758000  0.904000  1.0  -0.149
  C  C35  1  0.352000  0.671000  0.849000  1.0  0.0991
  C  C36  1  0.316000  0.613000  0.904000  1.0  0.6683
  C  C37  1  0.420000  0.441000  0.733000  1.0  0.6948
  C  C38  1  0.495000  0.440000  0.670000  1.0  0.105
  C  C39  1  0.443000  0.405000  0.558000  1.0  -0.0585
  C  C40  1  0.525000  0.397000  0.510000  1.0  -0.1122
  C  C41  1  0.654000  0.432000  0.578000  1.0  -0.083
  C  C42  1  0.703000  0.456000  0.688000  1.0  0.099
  C  C43  1  0.842000  0.473000  0.755000  1.0  0.6895
  C  C44  1  0.822000  0.353000  0.428000  1.0  0.7268
  C  C45  1  0.718000  0.305000  0.315000  1.0  0.0802
  C  C46  1  0.623000  0.218000  0.267000  1.0  -0.112
  C  C47  1  0.540000  0.193000  0.160000  1.0  -0.1058
  C  C48  1  0.550000  0.242000  0.096000  1.0  -0.1501
  C  C49  1  0.648000  0.329000  0.151000  1.0  0.0996
  C  C50  1  0.684000  0.387000  0.096000  1.0  0.6696
  C  C51  1  0.580000  0.559000  0.267000  1.0  0.6954
  C  C52  1  0.505000  0.560000  0.330000  1.0  0.1065
  C  C53  1  0.557000  0.595000  0.442000  1.0  -0.0592
  C  C54  1  0.475000  0.603000  0.490000  1.0  -0.1112
  C  C55  1  0.346000  0.568000  0.422000  1.0  -0.0854
  C  C56  1  0.297000  0.544000  0.312000  1.0  0.1002
  C  C57  1  0.158000  0.527000  0.245000  1.0  0.6899
  N  N58  1  0.268000  0.638000  0.740000  1.0  -0.4248
  N  N59  1  0.623000  0.459000  0.738000  1.0  -0.3952
  N  N60  1  0.732000  0.362000  0.260000  1.0  -0.4246
  N  N61  1  0.377000  0.541000  0.262000  1.0  -0.3954
  O  O62  1  0.109000  0.991000  0.097000  1.0  -0.5445
  O  O63  1  0.104000  0.939000  0.966000  1.0  -0.7089
  O  O64  1  0.087000  0.121000  0.101000  1.0  -0.6924
  O  O65  1  0.956000  0.948000  0.057000  1.0  -0.4896
  O  O66  1  0.194000  0.861000  0.145000  1.0  -0.7046
  O  O67  1  0.181000  0.038000  0.286000  1.0  -0.6864
  O  O68  1  0.945000  0.968000  0.208000  1.0  -0.8361
  O  O69  1  0.954000  0.786000  0.082000  1.0  -0.6566
  O  O70  1  0.334000  0.037000  0.187000  1.0  -0.6708
  O  O71  1  0.300000  0.966000  0.992000  1.0  -0.8613
  O  O72  1  0.176000  0.786000  0.946000  1.0  -0.6385
  O  O73  1  0.123000  0.198000  0.267000  1.0  -0.8577
  O  O74  1  0.109000  0.867000  0.792000  1.0  -0.6582
  O  O75  1  0.917000  0.711000  0.867000  1.0  -0.6832
  O  O76  1  0.023000  0.662000  0.725000  1.0  -0.7506
  O  O77  1  0.252000  0.140000  0.975000  1.0  -0.6943
  O  O78  1  0.288000  0.219000  0.188000  1.0  -0.6677
  O  O79  1  0.269000  0.346000  0.079000  1.0  -0.791
  O  O80  1  0.115000  0.560000  0.531000  1.0  -0.6649
  O  O81  1  0.166000  0.698000  0.520000  1.0  -0.4503
  O  O82  1  0.225000  0.539000  0.854000  1.0  -0.6359
  O  O83  1  0.392000  0.636000  0.003000  1.0  -0.6486
  O  O84  1  0.301000  0.427000  0.682000  1.0  -0.727
  O  O85  1  0.477000  0.457000  0.833000  1.0  -0.6629
  O  O86  1  0.870000  0.481000  0.849000  1.0  -0.6499
  O  O87  1  0.914000  0.470000  0.716000  1.0  -0.691
  O  O88  1  0.891000  0.009000  0.903000  1.0  -0.5455
  O  O89  1  0.896000  0.061000  0.034000  1.0  -0.704
  O  O90  1  0.913000  0.879000  0.899000  1.0  -0.6904
  O  O91  1  0.044000  0.052000  0.943000  1.0  -0.4847
  O  O92  1  0.806000  0.139000  0.855000  1.0  -0.707
  O  O93  1  0.819000  0.962000  0.714000  1.0  -0.6916
  O  O94  1  0.055000  0.032000  0.792000  1.0  -0.8353
  O  O95  1  0.046000  0.214000  0.918000  1.0  -0.6612
  O  O96  1  0.666000  0.963000  0.813000  1.0  -0.6709
  O  O97  1  0.700000  0.034000  0.008000  1.0  -0.8598
  O  O98  1  0.824000  0.214000  0.054000  1.0  -0.6399
  O  O99  1  0.877000  0.802000  0.733000  1.0  -0.8563
  O  O100  1  0.891000  0.133000  0.208000  1.0  -0.6589
  O  O101  1  0.083000  0.289000  0.133000  1.0  -0.6795
  O  O102  1  0.977000  0.338000  0.275000  1.0  -0.7519
  O  O103  1  0.748000  0.860000  0.025000  1.0  -0.6903
  O  O104  1  0.712000  0.781000  0.812000  1.0  -0.6684
  O  O105  1  0.731000  0.654000  0.921000  1.0  -0.792
  O  O106  1  0.885000  0.440000  0.469000  1.0  -0.6643
  O  O107  1  0.834000  0.302000  0.480000  1.0  -0.4539
  O  O108  1  0.775000  0.461000  0.146000  1.0  -0.6367
  O  O109  1  0.608000  0.364000  0.997000  1.0  -0.6495
  O  O110  1  0.699000  0.573000  0.318000  1.0  -0.7263
  O  O111  1  0.523000  0.543000  0.167000  1.0  -0.6635
  O  O112  1  0.130000  0.519000  0.151000  1.0  -0.6521
  O  O113  1  0.086000  0.530000  0.284000  1.0  -0.6905
