# generated using pymatgen
data_CeH3C7NO4
_symmetry_space_group_name_H-M   'P 1'
_cell_length_a   21.99900000
_cell_length_b   21.99900000
_cell_length_c   16.70230000
_cell_angle_alpha   90.00000000
_cell_angle_beta   90.00000000
_cell_angle_gamma   90.00000000
_symmetry_Int_Tables_number   1
_chemical_formula_structural   CeH3C7NO4
_chemical_formula_sum   'Ce16 H48 C112 N16 O64'
_cell_volume   8083.17831550
_cell_formula_units_Z   16
loop_
 _symmetry_equiv_pos_site_id
 _symmetry_equiv_pos_as_xyz
  1  'x, y, z'
loop_
 _atom_site_type_symbol
 _atom_site_label
 _atom_site_symmetry_multiplicity
 _atom_site_fract_x
 _atom_site_fract_y
 _atom_site_fract_z
 _atom_site_occupancy
 _atom_site_charge
  Ce  Ce1  1  0.824380  0.858590  0.365430  1.0  2.0307
  Ce  Ce2  1  0.324380  0.358590  0.865430  1.0  2.0307
  Ce  Ce3  1  0.675620  0.141410  0.865430  1.0  2.0286
  Ce  Ce4  1  0.175620  0.641410  0.365430  1.0  2.0286
  Ce  Ce5  1  0.891410  0.074380  0.615430  1.0  2.0304
  Ce  Ce6  1  0.391410  0.574380  0.115430  1.0  2.0304
  Ce  Ce7  1  0.608590  0.925620  0.115430  1.0  2.0312
  Ce  Ce8  1  0.108590  0.425620  0.615430  1.0  2.0312
  Ce  Ce9  1  0.175620  0.141410  0.634570  1.0  2.0288
  Ce  Ce10  1  0.675620  0.641410  0.134570  1.0  2.0288
  Ce  Ce11  1  0.324380  0.858590  0.134570  1.0  2.0295
  Ce  Ce12  1  0.824380  0.358590  0.634570  1.0  2.0295
  Ce  Ce13  1  0.108590  0.925620  0.384570  1.0  2.0308
  Ce  Ce14  1  0.608590  0.425620  0.884570  1.0  2.0308
  Ce  Ce15  1  0.391410  0.074380  0.884570  1.0  2.03
  Ce  Ce16  1  0.891410  0.574380  0.384570  1.0  2.03
  H  H17  1  0.816000  0.979200  0.074800  1.0  0.0995
  H  H18  1  0.917700  0.009600  0.065800  1.0  0.0938
  H  H19  1  0.985700  0.975100  0.166700  1.0  0.0955
  H  H20  1  0.316000  0.479200  0.574800  1.0  0.0995
  H  H21  1  0.417700  0.509600  0.565800  1.0  0.0939
  H  H22  1  0.485700  0.475100  0.666667  1.0  0.0955
  H  H23  1  0.684000  0.020800  0.574800  1.0  0.0993
  H  H24  1  0.582300  0.990400  0.565800  1.0  0.0936
  H  H25  1  0.514300  0.024900  0.666667  1.0  0.0965
  H  H26  1  0.184000  0.520800  0.074800  1.0  0.0993
  H  H27  1  0.082300  0.490400  0.065800  1.0  0.0935
  H  H28  1  0.014300  0.524900  0.166700  1.0  0.0965
  H  H29  1  0.770800  0.066000  0.324800  1.0  0.0994
  H  H30  1  0.740400  0.167700  0.315800  1.0  0.0923
  H  H31  1  0.774900  0.235700  0.416700  1.0  0.0963
  H  H32  1  0.270800  0.566000  0.824800  1.0  0.0994
  H  H33  1  0.240400  0.667700  0.815800  1.0  0.0923
  H  H34  1  0.274900  0.735700  0.916700  1.0  0.0963
  H  H35  1  0.729200  0.934000  0.824800  1.0  0.0997
  H  H36  1  0.759600  0.832300  0.815800  1.0  0.0937
  H  H37  1  0.725100  0.764300  0.916700  1.0  0.0965
  H  H38  1  0.229200  0.434000  0.324800  1.0  0.0997
  H  H39  1  0.259600  0.332300  0.315800  1.0  0.0937
  H  H40  1  0.225100  0.264300  0.416700  1.0  0.0965
  H  H41  1  0.184000  0.020800  0.925200  1.0  0.1
  H  H42  1  0.082300  0.990400  0.934200  1.0  0.0948
  H  H43  1  0.014300  0.024900  0.833300  1.0  0.0968
  H  H44  1  0.684000  0.520800  0.425200  1.0  0.1
  H  H45  1  0.582300  0.490400  0.434200  1.0  0.0948
  H  H46  1  0.514300  0.524900  0.333333  1.0  0.0968
  H  H47  1  0.316000  0.979200  0.425200  1.0  0.1002
  H  H48  1  0.417700  0.009600  0.434200  1.0  0.0946
  H  H49  1  0.485700  0.975100  0.333333  1.0  0.0952
  H  H50  1  0.816000  0.479200  0.925200  1.0  0.1002
  H  H51  1  0.917700  0.509600  0.934200  1.0  0.0945
  H  H52  1  0.985700  0.475100  0.833300  1.0  0.0952
  H  H53  1  0.229200  0.934000  0.675200  1.0  0.0997
  H  H54  1  0.259600  0.832300  0.684200  1.0  0.0941
  H  H55  1  0.225100  0.764300  0.583300  1.0  0.0965
  H  H56  1  0.729200  0.434000  0.175200  1.0  0.0997
  H  H57  1  0.759600  0.332300  0.184200  1.0  0.0941
  H  H58  1  0.725100  0.264300  0.083300  1.0  0.0965
  H  H59  1  0.270800  0.066000  0.175200  1.0  0.1004
  H  H60  1  0.240400  0.167700  0.184200  1.0  0.0932
  H  H61  1  0.274900  0.235700  0.083300  1.0  0.0964
  H  H62  1  0.770800  0.566000  0.675200  1.0  0.1004
  H  H63  1  0.740400  0.667700  0.684200  1.0  0.0932
  H  H64  1  0.774900  0.735700  0.583300  1.0  0.0964
  C  C65  1  0.760000  0.917900  0.194200  1.0  0.6652
  C  C66  1  0.825800  0.935400  0.180200  1.0  0.0862
  C  C67  1  0.843800  0.968600  0.114300  1.0  -0.1259
  C  C68  1  0.904100  0.985900  0.108300  1.0  -0.1377
  C  C69  1  0.944500  0.966200  0.169300  1.0  -0.1145
  C  C70  1  0.921200  0.933800  0.231700  1.0  0.1027
  C  C71  1  0.961300  0.913200  0.300500  1.0  0.6648
  C  C72  1  0.260000  0.417900  0.694200  1.0  0.6652
  C  C73  1  0.325800  0.435400  0.680200  1.0  0.0862
  C  C74  1  0.343800  0.468600  0.614300  1.0  -0.1259
  C  C75  1  0.404100  0.485900  0.608300  1.0  -0.1377
  C  C76  1  0.444500  0.466200  0.669300  1.0  -0.1146
  C  C77  1  0.421200  0.433800  0.731700  1.0  0.1027
  C  C78  1  0.461300  0.413200  0.800500  1.0  0.6648
  C  C79  1  0.740000  0.082100  0.694200  1.0  0.6661
  C  C80  1  0.674200  0.064600  0.680200  1.0  0.0853
  C  C81  1  0.656200  0.031400  0.614300  1.0  -0.1268
  C  C82  1  0.595900  0.014100  0.608300  1.0  -0.1362
  C  C83  1  0.555500  0.033800  0.669300  1.0  -0.1144
  C  C84  1  0.578800  0.066200  0.731700  1.0  0.1022
  C  C85  1  0.538700  0.086800  0.800500  1.0  0.6621
  C  C86  1  0.240000  0.582100  0.194200  1.0  0.6661
  C  C87  1  0.174200  0.564600  0.180200  1.0  0.0853
  C  C88  1  0.156200  0.531400  0.114300  1.0  -0.1268
  C  C89  1  0.095900  0.514100  0.108300  1.0  -0.1362
  C  C90  1  0.055500  0.533800  0.169300  1.0  -0.1144
  C  C91  1  0.078800  0.566200  0.231700  1.0  0.1022
  C  C92  1  0.038700  0.586800  0.300500  1.0  0.6621
  C  C93  1  0.832100  0.010000  0.444200  1.0  0.6683
  C  C94  1  0.814600  0.075800  0.430200  1.0  0.0865
  C  C95  1  0.781400  0.093800  0.364300  1.0  -0.1263
  C  C96  1  0.764100  0.154100  0.358300  1.0  -0.1363
  C  C97  1  0.783800  0.194500  0.419300  1.0  -0.1179
  C  C98  1  0.816200  0.171200  0.481700  1.0  0.1023
  C  C99  1  0.836800  0.211300  0.550500  1.0  0.6625
  C  C100  1  0.332100  0.510000  0.944200  1.0  0.6683
  C  C101  1  0.314600  0.575800  0.930200  1.0  0.0865
  C  C102  1  0.281400  0.593800  0.864300  1.0  -0.1263
  C  C103  1  0.264100  0.654100  0.858300  1.0  -0.1363
  C  C104  1  0.283800  0.694500  0.919300  1.0  -0.1179
  C  C105  1  0.316200  0.671200  0.981700  1.0  0.1023
  C  C106  1  0.336800  0.711300  0.050500  1.0  0.6625
  C  C107  1  0.667900  0.990000  0.944200  1.0  0.6653
  C  C108  1  0.685400  0.924200  0.930200  1.0  0.0869
  C  C109  1  0.718600  0.906200  0.864300  1.0  -0.1289
  C  C110  1  0.735900  0.845900  0.858300  1.0  -0.1364
  C  C111  1  0.716200  0.805500  0.919300  1.0  -0.1165
  C  C112  1  0.683800  0.828800  0.981700  1.0  0.1007
  C  C113  1  0.663200  0.788700  0.050500  1.0  0.6639
  C  C114  1  0.167900  0.490000  0.444200  1.0  0.6653
  C  C115  1  0.185400  0.424200  0.430200  1.0  0.0869
  C  C116  1  0.218600  0.406200  0.364300  1.0  -0.1289
  C  C117  1  0.235900  0.345900  0.358300  1.0  -0.1364
  C  C118  1  0.216200  0.305500  0.419300  1.0  -0.1165
  C  C119  1  0.183800  0.328800  0.481700  1.0  0.1007
  C  C120  1  0.163200  0.288700  0.550500  1.0  0.6639
  C  C121  1  0.240000  0.082100  0.805800  1.0  0.6664
  C  C122  1  0.174200  0.064600  0.819800  1.0  0.0855
  C  C123  1  0.156200  0.031400  0.885700  1.0  -0.1258
  C  C124  1  0.095900  0.014100  0.891700  1.0  -0.136
  C  C125  1  0.055500  0.033800  0.830700  1.0  -0.1144
  C  C126  1  0.078800  0.066200  0.768300  1.0  0.1028
  C  C127  1  0.038700  0.086800  0.699500  1.0  0.6634
  C  C128  1  0.740000  0.582100  0.305800  1.0  0.6664
  C  C129  1  0.674200  0.564600  0.319800  1.0  0.0855
  C  C130  1  0.656200  0.531400  0.385700  1.0  -0.1258
  C  C131  1  0.595900  0.514100  0.391700  1.0  -0.136
  C  C132  1  0.555500  0.533800  0.330700  1.0  -0.1143
  C  C133  1  0.578800  0.566200  0.268300  1.0  0.1028
  C  C134  1  0.538700  0.586800  0.199500  1.0  0.6635
  C  C135  1  0.260000  0.917900  0.305800  1.0  0.6657
  C  C136  1  0.325800  0.935400  0.319800  1.0  0.0864
  C  C137  1  0.343800  0.968600  0.385700  1.0  -0.1264
  C  C138  1  0.404100  0.985900  0.391700  1.0  -0.1369
  C  C139  1  0.444500  0.966200  0.330700  1.0  -0.1148
  C  C140  1  0.421200  0.933800  0.268300  1.0  0.1028
  C  C141  1  0.461300  0.913200  0.199500  1.0  0.6633
  C  C142  1  0.760000  0.417900  0.805800  1.0  0.6657
  C  C143  1  0.825800  0.435400  0.819800  1.0  0.0864
  C  C144  1  0.843800  0.468600  0.885700  1.0  -0.1264
  C  C145  1  0.904100  0.485900  0.891700  1.0  -0.1369
  C  C146  1  0.944500  0.466200  0.830700  1.0  -0.1146
  C  C147  1  0.921200  0.433800  0.768300  1.0  0.1029
  C  C148  1  0.961300  0.413200  0.699500  1.0  0.6633
  C  C149  1  0.167900  0.990000  0.555800  1.0  0.6659
  C  C150  1  0.185400  0.924200  0.569800  1.0  0.0874
  C  C151  1  0.218600  0.906200  0.635700  1.0  -0.1275
  C  C152  1  0.235900  0.845900  0.641700  1.0  -0.135
  C  C153  1  0.216200  0.805500  0.580700  1.0  -0.1165
  C  C154  1  0.183800  0.828800  0.518300  1.0  0.101
  C  C155  1  0.163200  0.788700  0.449500  1.0  0.6631
  C  C156  1  0.667900  0.490000  0.055800  1.0  0.6659
  C  C157  1  0.685400  0.424200  0.069800  1.0  0.0874
  C  C158  1  0.718600  0.406200  0.135700  1.0  -0.1274
  C  C159  1  0.735900  0.345900  0.141700  1.0  -0.135
  C  C160  1  0.716200  0.305500  0.080700  1.0  -0.1165
  C  C161  1  0.683800  0.328800  0.018300  1.0  0.101
  C  C162  1  0.663200  0.288700  0.949500  1.0  0.6631
  C  C163  1  0.332100  0.010000  0.055800  1.0  0.6682
  C  C164  1  0.314600  0.075800  0.069800  1.0  0.0866
  C  C165  1  0.281400  0.093800  0.135700  1.0  -0.1273
  C  C166  1  0.264100  0.154100  0.141700  1.0  -0.1366
  C  C167  1  0.283800  0.194500  0.080700  1.0  -0.1175
  C  C168  1  0.316200  0.171200  0.018300  1.0  0.1028
  C  C169  1  0.336800  0.211300  0.949500  1.0  0.6627
  C  C170  1  0.832100  0.510000  0.555800  1.0  0.6682
  C  C171  1  0.814600  0.575800  0.569800  1.0  0.0866
  C  C172  1  0.781400  0.593800  0.635700  1.0  -0.1274
  C  C173  1  0.764100  0.654100  0.641700  1.0  -0.1366
  C  C174  1  0.783800  0.694500  0.580700  1.0  -0.1175
  C  C175  1  0.816200  0.671200  0.518300  1.0  0.1028
  C  C176  1  0.836800  0.711300  0.449500  1.0  0.6627
  N  N177  1  0.864300  0.917700  0.238000  1.0  -0.5139
  N  N178  1  0.364300  0.417700  0.738000  1.0  -0.5139
  N  N179  1  0.635700  0.082300  0.738000  1.0  -0.5143
  N  N180  1  0.135700  0.582300  0.238000  1.0  -0.5143
  N  N181  1  0.832300  0.114300  0.488000  1.0  -0.5099
  N  N182  1  0.332300  0.614300  0.988000  1.0  -0.5099
  N  N183  1  0.667700  0.885700  0.988000  1.0  -0.5108
  N  N184  1  0.167700  0.385700  0.488000  1.0  -0.5108
  N  N185  1  0.135700  0.082300  0.762000  1.0  -0.513
  N  N186  1  0.635700  0.582300  0.262000  1.0  -0.513
  N  N187  1  0.364300  0.917700  0.262000  1.0  -0.5154
  N  N188  1  0.864300  0.417700  0.762000  1.0  -0.5154
  N  N189  1  0.167700  0.885700  0.512000  1.0  -0.5102
  N  N190  1  0.667700  0.385700  0.012000  1.0  -0.5102
  N  N191  1  0.332300  0.114300  0.012000  1.0  -0.5111
  N  N192  1  0.832300  0.614300  0.512000  1.0  -0.5111
  O  O193  1  0.721000  0.931300  0.142800  1.0  -0.7401
  O  O194  1  0.749100  0.888800  0.259300  1.0  -0.7631
  O  O195  1  0.016100  0.922600  0.297100  1.0  -0.7165
  O  O196  1  0.934700  0.884900  0.357000  1.0  -0.7333
  O  O197  1  0.221000  0.431300  0.642800  1.0  -0.7401
  O  O198  1  0.249100  0.388800  0.759300  1.0  -0.7631
  O  O199  1  0.516100  0.422600  0.797100  1.0  -0.7165
  O  O200  1  0.434700  0.384900  0.857000  1.0  -0.7333
  O  O201  1  0.779000  0.068700  0.642800  1.0  -0.7393
  O  O202  1  0.750900  0.111200  0.759300  1.0  -0.7632
  O  O203  1  0.483900  0.077400  0.797100  1.0  -0.7172
  O  O204  1  0.565300  0.115100  0.857000  1.0  -0.7358
  O  O205  1  0.279000  0.568700  0.142800  1.0  -0.7393
  O  O206  1  0.250900  0.611200  0.259300  1.0  -0.7632
  O  O207  1  0.983900  0.577400  0.297100  1.0  -0.7172
  O  O208  1  0.065300  0.615100  0.357000  1.0  -0.7358
  O  O209  1  0.818700  0.971000  0.392800  1.0  -0.7359
  O  O210  1  0.861200  0.999100  0.509300  1.0  -0.7655
  O  O211  1  0.827400  0.266100  0.547100  1.0  -0.7063
  O  O212  1  0.865100  0.184700  0.607000  1.0  -0.7335
  O  O213  1  0.318700  0.471000  0.892800  1.0  -0.7359
  O  O214  1  0.361200  0.499100  0.009300  1.0  -0.7655
  O  O215  1  0.327400  0.766100  0.047100  1.0  -0.7063
  O  O216  1  0.365100  0.684700  0.107000  1.0  -0.7335
  O  O217  1  0.681300  0.029000  0.892800  1.0  -0.7333
  O  O218  1  0.638800  0.000900  0.009300  1.0  -0.7646
  O  O219  1  0.672600  0.733900  0.047100  1.0  -0.7042
  O  O220  1  0.634900  0.815300  0.107000  1.0  -0.7309
  O  O221  1  0.181300  0.529000  0.392800  1.0  -0.7333
  O  O222  1  0.138800  0.500900  0.509300  1.0  -0.7646
  O  O223  1  0.172600  0.233900  0.547100  1.0  -0.7042
  O  O224  1  0.134900  0.315300  0.607000  1.0  -0.7309
  O  O225  1  0.279000  0.068700  0.857200  1.0  -0.7386
  O  O226  1  0.250900  0.111200  0.740700  1.0  -0.7627
  O  O227  1  0.983900  0.077400  0.702900  1.0  -0.7178
  O  O228  1  0.065300  0.115100  0.643000  1.0  -0.7369
  O  O229  1  0.779000  0.568700  0.357200  1.0  -0.7386
  O  O230  1  0.750900  0.611200  0.240700  1.0  -0.7627
  O  O231  1  0.483900  0.577400  0.202900  1.0  -0.7178
  O  O232  1  0.565300  0.615100  0.143000  1.0  -0.7369
  O  O233  1  0.221000  0.931300  0.357200  1.0  -0.7395
  O  O234  1  0.249100  0.888800  0.240700  1.0  -0.7648
  O  O235  1  0.516100  0.922600  0.202900  1.0  -0.7173
  O  O236  1  0.434700  0.884900  0.143000  1.0  -0.7345
  O  O237  1  0.721000  0.431300  0.857200  1.0  -0.7395
  O  O238  1  0.749100  0.388800  0.740700  1.0  -0.7648
  O  O239  1  0.016100  0.422600  0.702900  1.0  -0.7173
  O  O240  1  0.934700  0.384900  0.643000  1.0  -0.7345
  O  O241  1  0.181300  0.029000  0.607200  1.0  -0.7326
  O  O242  1  0.138800  0.000900  0.490700  1.0  -0.7662
  O  O243  1  0.172600  0.733900  0.452900  1.0  -0.7048
  O  O244  1  0.134900  0.815300  0.393000  1.0  -0.7325
  O  O245  1  0.681300  0.529000  0.107200  1.0  -0.7326
  O  O246  1  0.638800  0.500900  0.990700  1.0  -0.7662
  O  O247  1  0.672600  0.233900  0.952900  1.0  -0.7048
  O  O248  1  0.634900  0.315300  0.893000  1.0  -0.7325
  O  O249  1  0.318700  0.971000  0.107200  1.0  -0.7356
  O  O250  1  0.361200  0.999100  0.990700  1.0  -0.7657
  O  O251  1  0.327400  0.266100  0.952900  1.0  -0.707
  O  O252  1  0.365100  0.184700  0.893000  1.0  -0.7331
  O  O253  1  0.818700  0.471000  0.607200  1.0  -0.7356
  O  O254  1  0.861200  0.499100  0.490700  1.0  -0.7657
  O  O255  1  0.827400  0.766100  0.452900  1.0  -0.707
  O  O256  1  0.865100  0.684700  0.393000  1.0  -0.7331
