# generated using pymatgen
data_NdH3C7NO4
_symmetry_space_group_name_H-M   'P 1'
_cell_length_a   21.91700000
_cell_length_b   21.91700000
_cell_length_c   16.58680000
_cell_angle_alpha   90.00000000
_cell_angle_beta   90.00000000
_cell_angle_gamma   90.00000000
_symmetry_Int_Tables_number   1
_chemical_formula_structural   NdH3C7NO4
_chemical_formula_sum   'Nd16 H48 C112 N16 O64'
_cell_volume   7967.55047287
_cell_formula_units_Z   16
loop_
 _symmetry_equiv_pos_site_id
 _symmetry_equiv_pos_as_xyz
  1  'x, y, z'
loop_
 _atom_site_type_symbol
 _atom_site_label
 _atom_site_symmetry_multiplicity
 _atom_site_fract_x
 _atom_site_fract_y
 _atom_site_fract_z
 _atom_site_occupancy
 _atom_site_charge
  Nd  Nd1  1  0.888940  0.424930  0.115040  1.0  2.0641
  Nd  Nd2  1  0.388940  0.924930  0.615040  1.0  2.0641
  Nd  Nd3  1  0.611060  0.575070  0.615040  1.0  2.0642
  Nd  Nd4  1  0.111060  0.075070  0.115040  1.0  2.0642
  Nd  Nd5  1  0.325070  0.138940  0.365040  1.0  2.0649
  Nd  Nd6  1  0.825070  0.638940  0.865040  1.0  2.0649
  Nd  Nd7  1  0.174930  0.861060  0.865040  1.0  2.0647
  Nd  Nd8  1  0.674930  0.361060  0.365040  1.0  2.0647
  Nd  Nd9  1  0.111060  0.575070  0.884960  1.0  2.0637
  Nd  Nd10  1  0.611060  0.075070  0.384960  1.0  2.0637
  Nd  Nd11  1  0.388940  0.424930  0.384960  1.0  2.0642
  Nd  Nd12  1  0.888940  0.924930  0.884960  1.0  2.0642
  Nd  Nd13  1  0.674930  0.861060  0.634960  1.0  2.0642
  Nd  Nd14  1  0.174930  0.361060  0.134960  1.0  2.0642
  Nd  Nd15  1  0.825070  0.138940  0.134960  1.0  2.0647
  Nd  Nd16  1  0.325070  0.638940  0.634960  1.0  2.0647
  H  H17  1  0.768700  0.262600  0.913900  1.0  0.1123
  H  H18  1  0.739700  0.330700  0.816000  1.0  0.0862
  H  H19  1  0.772800  0.432900  0.822100  1.0  0.1062
  H  H20  1  0.268700  0.762600  0.413900  1.0  0.1123
  H  H21  1  0.239700  0.830700  0.316000  1.0  0.0862
  H  H22  1  0.272800  0.932900  0.322100  1.0  0.1062
  H  H23  1  0.731300  0.737400  0.413900  1.0  0.1122
  H  H24  1  0.760300  0.669300  0.316000  1.0  0.0871
  H  H25  1  0.727200  0.567100  0.322100  1.0  0.106
  H  H26  1  0.231300  0.237400  0.913900  1.0  0.1122
  H  H27  1  0.260300  0.169300  0.816000  1.0  0.0871
  H  H28  1  0.227200  0.067100  0.822100  1.0  0.106
  H  H29  1  0.487400  0.018700  0.163900  1.0  0.1106
  H  H30  1  0.419300  0.989700  0.066000  1.0  0.0869
  H  H31  1  0.317100  0.022800  0.072100  1.0  0.1054
  H  H32  1  0.987400  0.518700  0.663900  1.0  0.1106
  H  H33  1  0.919300  0.489700  0.566000  1.0  0.0869
  H  H34  1  0.817100  0.522800  0.572100  1.0  0.1054
  H  H35  1  0.012600  0.981300  0.663900  1.0  0.1115
  H  H36  1  0.080700  0.010300  0.566000  1.0  0.0867
  H  H37  1  0.182900  0.977200  0.572100  1.0  0.106
  H  H38  1  0.512600  0.481300  0.163900  1.0  0.1115
  H  H39  1  0.580700  0.510300  0.066000  1.0  0.0867
  H  H40  1  0.682900  0.477200  0.072100  1.0  0.106
  H  H41  1  0.231300  0.737400  0.086100  1.0  0.1122
  H  H42  1  0.260300  0.669300  0.184000  1.0  0.0869
  H  H43  1  0.227200  0.567100  0.177900  1.0  0.1065
  H  H44  1  0.731300  0.237400  0.586100  1.0  0.1122
  H  H45  1  0.760300  0.169300  0.684000  1.0  0.0869
  H  H46  1  0.727200  0.067100  0.677900  1.0  0.1065
  H  H47  1  0.268700  0.262600  0.586100  1.0  0.1124
  H  H48  1  0.239700  0.330700  0.684000  1.0  0.0867
  H  H49  1  0.272800  0.432900  0.677900  1.0  0.1068
  H  H50  1  0.768700  0.762600  0.086100  1.0  0.1124
  H  H51  1  0.739700  0.830700  0.184000  1.0  0.0867
  H  H52  1  0.772800  0.932900  0.177900  1.0  0.1068
  H  H53  1  0.512600  0.981300  0.836100  1.0  0.1115
  H  H54  1  0.580700  0.010300  0.934000  1.0  0.0873
  H  H55  1  0.682900  0.977200  0.927900  1.0  0.1066
  H  H56  1  0.012600  0.481300  0.336100  1.0  0.1115
  H  H57  1  0.080700  0.510300  0.434000  1.0  0.0873
  H  H58  1  0.182900  0.477200  0.427900  1.0  0.1066
  H  H59  1  0.987400  0.018700  0.336100  1.0  0.1105
  H  H60  1  0.919300  0.989700  0.434000  1.0  0.0871
  H  H61  1  0.817100  0.022800  0.427900  1.0  0.1062
  H  H62  1  0.487400  0.518700  0.836100  1.0  0.1105
  H  H63  1  0.419300  0.489700  0.934000  1.0  0.0871
  H  H64  1  0.317100  0.522800  0.927900  1.0  0.1062
  C  C65  1  0.832000  0.288200  0.053300  1.0  0.6424
  C  C66  1  0.814200  0.326700  0.984600  1.0  0.0857
  C  C67  1  0.779500  0.303600  0.917300  1.0  -0.1496
  C  C68  1  0.763400  0.343900  0.859100  1.0  -0.0958
  C  C69  1  0.782000  0.405500  0.863100  1.0  -0.1336
  C  C70  1  0.814100  0.423000  0.930100  1.0  0.0815
  C  C71  1  0.831200  0.490600  0.944900  1.0  0.6441
  C  C72  1  0.332000  0.788200  0.553300  1.0  0.6424
  C  C73  1  0.314200  0.826700  0.484600  1.0  0.0857
  C  C74  1  0.279500  0.803600  0.417300  1.0  -0.1496
  C  C75  1  0.263400  0.843900  0.359100  1.0  -0.0958
  C  C76  1  0.282000  0.905500  0.363100  1.0  -0.1336
  C  C77  1  0.314100  0.923000  0.430100  1.0  0.0815
  C  C78  1  0.331200  0.990600  0.444900  1.0  0.6441
  C  C79  1  0.668000  0.711800  0.553300  1.0  0.6407
  C  C80  1  0.685800  0.673300  0.484600  1.0  0.0852
  C  C81  1  0.720500  0.696400  0.417300  1.0  -0.1506
  C  C82  1  0.736600  0.656100  0.359100  1.0  -0.0961
  C  C83  1  0.718000  0.594500  0.363100  1.0  -0.1331
  C  C84  1  0.685900  0.577000  0.430100  1.0  0.0821
  C  C85  1  0.668800  0.509400  0.444900  1.0  0.6451
  C  C86  1  0.168000  0.211800  0.053300  1.0  0.6407
  C  C87  1  0.185800  0.173300  0.984600  1.0  0.0852
  C  C88  1  0.220500  0.196400  0.917300  1.0  -0.1506
  C  C89  1  0.236600  0.156100  0.859100  1.0  -0.0961
  C  C90  1  0.218000  0.094500  0.863100  1.0  -0.1331
  C  C91  1  0.185900  0.077000  0.930100  1.0  0.0821
  C  C92  1  0.168800  0.009400  0.944900  1.0  0.6451
  C  C93  1  0.461800  0.082000  0.303300  1.0  0.6421
  C  C94  1  0.423300  0.064200  0.234600  1.0  0.0855
  C  C95  1  0.446400  0.029500  0.167300  1.0  -0.1501
  C  C96  1  0.406100  0.013400  0.109100  1.0  -0.0964
  C  C97  1  0.344500  0.032000  0.113100  1.0  -0.1315
  C  C98  1  0.327000  0.064100  0.180100  1.0  0.0788
  C  C99  1  0.259400  0.081200  0.194900  1.0  0.6447
  C  C100  1  0.961800  0.582000  0.803300  1.0  0.6421
  C  C101  1  0.923300  0.564200  0.734600  1.0  0.0855
  C  C102  1  0.946400  0.529500  0.667300  1.0  -0.1501
  C  C103  1  0.906100  0.513400  0.609100  1.0  -0.0964
  C  C104  1  0.844500  0.532000  0.613100  1.0  -0.1315
  C  C105  1  0.827000  0.564100  0.680100  1.0  0.0788
  C  C106  1  0.759400  0.581200  0.694900  1.0  0.6447
  C  C107  1  0.038200  0.918000  0.803300  1.0  0.6423
  C  C108  1  0.076700  0.935800  0.734600  1.0  0.0855
  C  C109  1  0.053600  0.970500  0.667300  1.0  -0.1487
  C  C110  1  0.093900  0.986600  0.609100  1.0  -0.0961
  C  C111  1  0.155500  0.968000  0.613100  1.0  -0.1332
  C  C112  1  0.173000  0.935900  0.680100  1.0  0.0815
  C  C113  1  0.240600  0.918800  0.694900  1.0  0.6441
  C  C114  1  0.538200  0.418000  0.303300  1.0  0.6423
  C  C115  1  0.576700  0.435800  0.234600  1.0  0.0855
  C  C116  1  0.553600  0.470500  0.167300  1.0  -0.1487
  C  C117  1  0.593900  0.486600  0.109100  1.0  -0.0961
  C  C118  1  0.655500  0.468000  0.113100  1.0  -0.1332
  C  C119  1  0.673000  0.435900  0.180100  1.0  0.0815
  C  C120  1  0.740600  0.418800  0.194900  1.0  0.6441
  C  C121  1  0.168000  0.711800  0.946700  1.0  0.6415
  C  C122  1  0.185800  0.673300  0.015400  1.0  0.0839
  C  C123  1  0.220500  0.696400  0.082700  1.0  -0.1497
  C  C124  1  0.236600  0.656100  0.140900  1.0  -0.0957
  C  C125  1  0.218000  0.594500  0.136900  1.0  -0.1326
  C  C126  1  0.185900  0.577000  0.069900  1.0  0.0823
  C  C127  1  0.168800  0.509400  0.055100  1.0  0.645
  C  C128  1  0.668000  0.211800  0.446700  1.0  0.6415
  C  C129  1  0.685800  0.173300  0.515400  1.0  0.0839
  C  C130  1  0.720500  0.196400  0.582700  1.0  -0.1497
  C  C131  1  0.736600  0.156100  0.640900  1.0  -0.0957
  C  C132  1  0.718000  0.094500  0.636900  1.0  -0.1326
  C  C133  1  0.685900  0.077000  0.569900  1.0  0.0823
  C  C134  1  0.668800  0.009400  0.555100  1.0  0.645
  C  C135  1  0.332000  0.288200  0.446700  1.0  0.6418
  C  C136  1  0.314200  0.326700  0.515400  1.0  0.0836
  C  C137  1  0.279500  0.303600  0.582700  1.0  -0.1497
  C  C138  1  0.263400  0.343900  0.640900  1.0  -0.0968
  C  C139  1  0.282000  0.405500  0.636900  1.0  -0.1347
  C  C140  1  0.314100  0.423000  0.569900  1.0  0.0817
  C  C141  1  0.331200  0.490600  0.555100  1.0  0.6444
  C  C142  1  0.832000  0.788200  0.946700  1.0  0.6418
  C  C143  1  0.814200  0.826700  0.015400  1.0  0.0836
  C  C144  1  0.779500  0.803600  0.082700  1.0  -0.1497
  C  C145  1  0.763400  0.843900  0.140900  1.0  -0.0968
  C  C146  1  0.782000  0.905500  0.136900  1.0  -0.1347
  C  C147  1  0.814100  0.923000  0.069900  1.0  0.0817
  C  C148  1  0.831200  0.990600  0.055100  1.0  0.6444
  C  C149  1  0.538200  0.918000  0.696700  1.0  0.6438
  C  C150  1  0.576700  0.935800  0.765400  1.0  0.084
  C  C151  1  0.553600  0.970500  0.832700  1.0  -0.1484
  C  C152  1  0.593900  0.986600  0.890900  1.0  -0.0976
  C  C153  1  0.655500  0.968000  0.886900  1.0  -0.1333
  C  C154  1  0.673000  0.935900  0.819900  1.0  0.0817
  C  C155  1  0.740600  0.918800  0.805100  1.0  0.6443
  C  C156  1  0.038200  0.418000  0.196700  1.0  0.6438
  C  C157  1  0.076700  0.435800  0.265400  1.0  0.084
  C  C158  1  0.053600  0.470500  0.332700  1.0  -0.1484
  C  C159  1  0.093900  0.486600  0.390900  1.0  -0.0976
  C  C160  1  0.155500  0.468000  0.386900  1.0  -0.1333
  C  C161  1  0.173000  0.435900  0.319900  1.0  0.0817
  C  C162  1  0.240600  0.418800  0.305100  1.0  0.6443
  C  C163  1  0.961800  0.082000  0.196700  1.0  0.6425
  C  C164  1  0.923300  0.064200  0.265400  1.0  0.0841
  C  C165  1  0.946400  0.029500  0.332700  1.0  -0.1495
  C  C166  1  0.906100  0.013400  0.390900  1.0  -0.0957
  C  C167  1  0.844500  0.032000  0.386900  1.0  -0.1324
  C  C168  1  0.827000  0.064100  0.319900  1.0  0.0793
  C  C169  1  0.759400  0.081200  0.305100  1.0  0.6449
  C  C170  1  0.461800  0.582000  0.696700  1.0  0.6425
  C  C171  1  0.423300  0.564200  0.765400  1.0  0.0841
  C  C172  1  0.446400  0.529500  0.832700  1.0  -0.1495
  C  C173  1  0.406100  0.513400  0.890900  1.0  -0.0957
  C  C174  1  0.344500  0.532000  0.886900  1.0  -0.1324
  C  C175  1  0.327000  0.564100  0.819900  1.0  0.0793
  C  C176  1  0.259400  0.581200  0.805100  1.0  0.6449
  N  N177  1  0.831500  0.385400  0.988300  1.0  -0.5098
  N  N178  1  0.331500  0.885400  0.488300  1.0  -0.5098
  N  N179  1  0.668500  0.614600  0.488300  1.0  -0.5099
  N  N180  1  0.168500  0.114600  0.988300  1.0  -0.5099
  N  N181  1  0.364600  0.081500  0.238300  1.0  -0.5138
  N  N182  1  0.864600  0.581500  0.738300  1.0  -0.5138
  N  N183  1  0.135400  0.918500  0.738300  1.0  -0.5131
  N  N184  1  0.635400  0.418500  0.238300  1.0  -0.5131
  N  N185  1  0.168500  0.614600  0.011700  1.0  -0.5108
  N  N186  1  0.668500  0.114600  0.511700  1.0  -0.5108
  N  N187  1  0.331500  0.385400  0.511700  1.0  -0.5105
  N  N188  1  0.831500  0.885400  0.011700  1.0  -0.5105
  N  N189  1  0.635400  0.918500  0.761700  1.0  -0.5145
  N  N190  1  0.135400  0.418500  0.261700  1.0  -0.5145
  N  N191  1  0.864600  0.081500  0.261700  1.0  -0.5148
  N  N192  1  0.364600  0.581500  0.761700  1.0  -0.5148
  O  O193  1  0.862600  0.316900  0.111900  1.0  -0.6763
  O  O194  1  0.824500  0.232600  0.051500  1.0  -0.7648
  O  O195  1  0.859300  0.500900  0.011300  1.0  -0.7688
  O  O196  1  0.817100  0.528600  0.893800  1.0  -0.7139
  O  O197  1  0.362600  0.816900  0.611900  1.0  -0.6763
  O  O198  1  0.324500  0.732600  0.551500  1.0  -0.7648
  O  O199  1  0.359300  0.000900  0.511300  1.0  -0.7688
  O  O200  1  0.317100  0.028600  0.393800  1.0  -0.7139
  O  O201  1  0.637400  0.683100  0.611900  1.0  -0.6753
  O  O202  1  0.675500  0.767400  0.551500  1.0  -0.7662
  O  O203  1  0.640700  0.499100  0.511300  1.0  -0.7677
  O  O204  1  0.682900  0.471400  0.393800  1.0  -0.7137
  O  O205  1  0.137400  0.183100  0.111900  1.0  -0.6753
  O  O206  1  0.175500  0.267400  0.051500  1.0  -0.7662
  O  O207  1  0.140700  0.999100  0.011300  1.0  -0.7677
  O  O208  1  0.182900  0.971400  0.893800  1.0  -0.7137
  O  O209  1  0.433100  0.112600  0.361900  1.0  -0.6791
  O  O210  1  0.517400  0.074500  0.301500  1.0  -0.7745
  O  O211  1  0.249100  0.109300  0.261300  1.0  -0.769
  O  O212  1  0.221400  0.067100  0.143800  1.0  -0.7164
  O  O213  1  0.933100  0.612600  0.861900  1.0  -0.6791
  O  O214  1  0.017400  0.574500  0.801500  1.0  -0.7745
  O  O215  1  0.749100  0.609300  0.761300  1.0  -0.769
  O  O216  1  0.721400  0.567100  0.643800  1.0  -0.7164
  O  O217  1  0.066900  0.887400  0.861900  1.0  -0.678
  O  O218  1  0.982600  0.925500  0.801500  1.0  -0.7742
  O  O219  1  0.250900  0.890700  0.761300  1.0  -0.7658
  O  O220  1  0.278600  0.932900  0.643800  1.0  -0.7172
  O  O221  1  0.566900  0.387400  0.361900  1.0  -0.678
  O  O222  1  0.482600  0.425500  0.301500  1.0  -0.7742
  O  O223  1  0.750900  0.390700  0.261300  1.0  -0.7658
  O  O224  1  0.778600  0.432900  0.143800  1.0  -0.7172
  O  O225  1  0.137400  0.683100  0.888100  1.0  -0.6752
  O  O226  1  0.175500  0.767400  0.948500  1.0  -0.7665
  O  O227  1  0.140700  0.499100  0.988700  1.0  -0.7686
  O  O228  1  0.182900  0.471400  0.106200  1.0  -0.7146
  O  O229  1  0.637400  0.183100  0.388100  1.0  -0.6752
  O  O230  1  0.675500  0.267400  0.448500  1.0  -0.7665
  O  O231  1  0.640700  0.999100  0.488700  1.0  -0.7686
  O  O232  1  0.682900  0.971400  0.606200  1.0  -0.7146
  O  O233  1  0.362600  0.316900  0.388100  1.0  -0.6753
  O  O234  1  0.324500  0.232600  0.448500  1.0  -0.7649
  O  O235  1  0.359300  0.500900  0.488700  1.0  -0.7689
  O  O236  1  0.317100  0.528600  0.606200  1.0  -0.7149
  O  O237  1  0.862600  0.816900  0.888100  1.0  -0.6753
  O  O238  1  0.824500  0.732600  0.948500  1.0  -0.7649
  O  O239  1  0.859300  0.000900  0.988700  1.0  -0.7689
  O  O240  1  0.817100  0.028600  0.106200  1.0  -0.7149
  O  O241  1  0.566900  0.887400  0.638100  1.0  -0.6776
  O  O242  1  0.482600  0.925500  0.698500  1.0  -0.7744
  O  O243  1  0.750900  0.890700  0.738700  1.0  -0.7656
  O  O244  1  0.778600  0.932900  0.856200  1.0  -0.7183
  O  O245  1  0.066900  0.387400  0.138100  1.0  -0.6776
  O  O246  1  0.982600  0.425500  0.198500  1.0  -0.7744
  O  O247  1  0.250900  0.390700  0.238700  1.0  -0.7656
  O  O248  1  0.278600  0.432900  0.356200  1.0  -0.7183
  O  O249  1  0.933100  0.112600  0.138100  1.0  -0.6783
  O  O250  1  0.017400  0.074500  0.198500  1.0  -0.7746
  O  O251  1  0.749100  0.109300  0.238700  1.0  -0.7696
  O  O252  1  0.721400  0.067100  0.356200  1.0  -0.7171
  O  O253  1  0.433100  0.612600  0.638100  1.0  -0.6783
  O  O254  1  0.517400  0.574500  0.698500  1.0  -0.7746
  O  O255  1  0.249100  0.609300  0.738700  1.0  -0.7696
  O  O256  1  0.221400  0.567100  0.856200  1.0  -0.7171
