# generated using pymatgen
data_LaH5C7NO5
_symmetry_space_group_name_H-M   'P 1'
_cell_length_a   21.89370000
_cell_length_b   21.89370000
_cell_length_c   16.76870000
_cell_angle_alpha   90.00000000
_cell_angle_beta   90.00000000
_cell_angle_gamma   90.00000000
_symmetry_Int_Tables_number   1
_chemical_formula_structural   LaH5C7NO5
_chemical_formula_sum   'La16 H80 C112 N16 O80'
_cell_volume   8037.80971747
_cell_formula_units_Z   16
loop_
 _symmetry_equiv_pos_site_id
 _symmetry_equiv_pos_as_xyz
  1  'x, y, z'
loop_
 _atom_site_type_symbol
 _atom_site_label
 _atom_site_symmetry_multiplicity
 _atom_site_fract_x
 _atom_site_fract_y
 _atom_site_fract_z
 _atom_site_occupancy
 _atom_site_charge
  La  La1  1  0.820200  0.357950  0.637520  1.0  2.1435
  La  La2  1  0.320200  0.857950  0.137520  1.0  2.1435
  La  La3  1  0.679800  0.642050  0.137520  1.0  2.1427
  La  La4  1  0.179800  0.142050  0.637520  1.0  2.1427
  La  La5  1  0.392050  0.070200  0.887520  1.0  2.145
  La  La6  1  0.892050  0.570200  0.387520  1.0  2.145
  La  La7  1  0.107950  0.929800  0.387520  1.0  2.1459
  La  La8  1  0.607950  0.429800  0.887520  1.0  2.1459
  La  La9  1  0.179800  0.642050  0.362480  1.0  2.1409
  La  La10  1  0.679800  0.142050  0.862480  1.0  2.1409
  La  La11  1  0.320200  0.357950  0.862480  1.0  2.1422
  La  La12  1  0.820200  0.857950  0.362480  1.0  2.1422
  La  La13  1  0.607950  0.929800  0.112480  1.0  2.1451
  La  La14  1  0.107950  0.429800  0.612480  1.0  2.1451
  La  La15  1  0.892050  0.070200  0.612480  1.0  2.1441
  La  La16  1  0.392050  0.570200  0.112480  1.0  2.1441
  H  H17  1  0.725400  0.420600  0.539600  1.0  0.4774
  H  H18  1  0.732300  0.360700  0.517800  1.0  0.358
  H  H19  1  0.817900  0.479100  0.927000  1.0  0.0846
  H  H20  1  0.920100  0.505900  0.935400  1.0  0.0883
  H  H21  1  0.986200  0.476100  0.832900  1.0  0.0851
  H  H22  1  0.225400  0.920600  0.039600  1.0  0.4774
  H  H23  1  0.232300  0.860700  0.017800  1.0  0.358
  H  H24  1  0.317900  0.979100  0.427000  1.0  0.0846
  H  H25  1  0.420100  0.005900  0.435400  1.0  0.0883
  H  H26  1  0.486200  0.976100  0.332900  1.0  0.0851
  H  H27  1  0.774600  0.579400  0.039600  1.0  0.4758
  H  H28  1  0.767700  0.639300  0.017800  1.0  0.3587
  H  H29  1  0.682100  0.520900  0.427000  1.0  0.0852
  H  H30  1  0.579900  0.494100  0.435400  1.0  0.0881
  H  H31  1  0.513800  0.523900  0.332900  1.0  0.0869
  H  H32  1  0.274600  0.079400  0.539600  1.0  0.4758
  H  H33  1  0.267700  0.139300  0.517800  1.0  0.3587
  H  H34  1  0.182100  0.020900  0.927000  1.0  0.0852
  H  H35  1  0.079900  0.994100  0.935400  1.0  0.0881
  H  H36  1  0.013800  0.023900  0.832900  1.0  0.0869
  H  H37  1  0.329400  0.975400  0.789600  1.0  0.4762
  H  H38  1  0.389300  0.982300  0.767800  1.0  0.3586
  H  H39  1  0.270900  0.067900  0.177000  1.0  0.0855
  H  H40  1  0.244100  0.170100  0.185400  1.0  0.0879
  H  H41  1  0.273900  0.236200  0.082900  1.0  0.087
  H  H42  1  0.829400  0.475400  0.289600  1.0  0.4762
  H  H43  1  0.889300  0.482300  0.267800  1.0  0.3586
  H  H44  1  0.770900  0.567900  0.677000  1.0  0.0855
  H  H45  1  0.744100  0.670100  0.685400  1.0  0.0879
  H  H46  1  0.773900  0.736200  0.582900  1.0  0.087
  H  H47  1  0.170600  0.024600  0.289600  1.0  0.4771
  H  H48  1  0.110700  0.017700  0.267800  1.0  0.3583
  H  H49  1  0.229100  0.932100  0.677000  1.0  0.0847
  H  H50  1  0.255900  0.829900  0.685400  1.0  0.088
  H  H51  1  0.226100  0.763800  0.582900  1.0  0.0869
  H  H52  1  0.670600  0.524600  0.789600  1.0  0.4771
  H  H53  1  0.610700  0.517700  0.767800  1.0  0.3583
  H  H54  1  0.729100  0.432100  0.177000  1.0  0.0847
  H  H55  1  0.755900  0.329900  0.185400  1.0  0.088
  H  H56  1  0.726100  0.263800  0.082900  1.0  0.0869
  H  H57  1  0.274600  0.579400  0.460400  1.0  0.4753
  H  H58  1  0.267700  0.639300  0.482200  1.0  0.3605
  H  H59  1  0.182100  0.520900  0.073000  1.0  0.0847
  H  H60  1  0.079900  0.494100  0.064600  1.0  0.0873
  H  H61  1  0.013800  0.523900  0.167100  1.0  0.0864
  H  H62  1  0.774600  0.079400  0.960400  1.0  0.4753
  H  H63  1  0.767700  0.139300  0.982200  1.0  0.3605
  H  H64  1  0.682100  0.020900  0.573000  1.0  0.0847
  H  H65  1  0.579900  0.994100  0.564600  1.0  0.0873
  H  H66  1  0.513800  0.023900  0.667100  1.0  0.0864
  H  H67  1  0.225400  0.420600  0.960400  1.0  0.4781
  H  H68  1  0.232300  0.360700  0.982200  1.0  0.36
  H  H69  1  0.317900  0.479100  0.573000  1.0  0.0845
  H  H70  1  0.420100  0.505900  0.564600  1.0  0.0879
  H  H71  1  0.486200  0.476100  0.667100  1.0  0.0854
  H  H72  1  0.725400  0.920600  0.460400  1.0  0.4781
  H  H73  1  0.732300  0.860700  0.482200  1.0  0.36
  H  H74  1  0.817900  0.979100  0.073000  1.0  0.0845
  H  H75  1  0.920100  0.005900  0.064600  1.0  0.0879
  H  H76  1  0.986200  0.976100  0.167100  1.0  0.0854
  H  H77  1  0.670600  0.024600  0.210400  1.0  0.4772
  H  H78  1  0.610700  0.017700  0.232200  1.0  0.3595
  H  H79  1  0.729100  0.932100  0.823000  1.0  0.0848
  H  H80  1  0.755900  0.829900  0.814600  1.0  0.0878
  H  H81  1  0.726100  0.763800  0.917100  1.0  0.0868
  H  H82  1  0.170600  0.524600  0.710400  1.0  0.4772
  H  H83  1  0.110700  0.517700  0.732200  1.0  0.3595
  H  H84  1  0.229100  0.432100  0.323000  1.0  0.0848
  H  H85  1  0.255900  0.329900  0.314600  1.0  0.0878
  H  H86  1  0.226100  0.263800  0.417100  1.0  0.0868
  H  H87  1  0.829400  0.975400  0.710400  1.0  0.4757
  H  H88  1  0.889300  0.982300  0.732200  1.0  0.3603
  H  H89  1  0.770900  0.067900  0.323000  1.0  0.085
  H  H90  1  0.744100  0.170100  0.314600  1.0  0.0872
  H  H91  1  0.773900  0.236200  0.417100  1.0  0.0871
  H  H92  1  0.329400  0.475400  0.210400  1.0  0.4757
  H  H93  1  0.389300  0.482300  0.232200  1.0  0.3603
  H  H94  1  0.270900  0.567900  0.823000  1.0  0.085
  H  H95  1  0.244100  0.670100  0.814600  1.0  0.0872
  H  H96  1  0.273900  0.736200  0.917100  1.0  0.0871
  C  C97  1  0.759300  0.417100  0.810600  1.0  0.6653
  C  C98  1  0.824700  0.434700  0.823500  1.0  0.0372
  C  C99  1  0.845000  0.467500  0.887000  1.0  -0.112
  C  C100  1  0.905700  0.483600  0.892100  1.0  -0.1088
  C  C101  1  0.945000  0.465800  0.831300  1.0  -0.1456
  C  C102  1  0.921600  0.432800  0.768600  1.0  0.0742
  C  C103  1  0.959300  0.412100  0.698500  1.0  0.6673
  C  C104  1  0.259300  0.917100  0.310600  1.0  0.6653
  C  C105  1  0.324700  0.934700  0.323500  1.0  0.0372
  C  C106  1  0.345000  0.967500  0.387000  1.0  -0.112
  C  C107  1  0.405700  0.983600  0.392100  1.0  -0.1088
  C  C108  1  0.445000  0.965800  0.331300  1.0  -0.1456
  C  C109  1  0.421600  0.932800  0.268600  1.0  0.0742
  C  C110  1  0.459300  0.912100  0.198500  1.0  0.6673
  C  C111  1  0.740700  0.582900  0.310600  1.0  0.6658
  C  C112  1  0.675300  0.565300  0.323500  1.0  0.0358
  C  C113  1  0.655000  0.532500  0.387000  1.0  -0.1099
  C  C114  1  0.594300  0.516400  0.392100  1.0  -0.1101
  C  C115  1  0.555000  0.534200  0.331300  1.0  -0.1442
  C  C116  1  0.578400  0.567200  0.268600  1.0  0.0742
  C  C117  1  0.540700  0.587900  0.198500  1.0  0.6678
  C  C118  1  0.240700  0.082900  0.810600  1.0  0.6658
  C  C119  1  0.175300  0.065300  0.823500  1.0  0.0358
  C  C120  1  0.155000  0.032500  0.887000  1.0  -0.1099
  C  C121  1  0.094300  0.016400  0.892100  1.0  -0.1101
  C  C122  1  0.055000  0.034200  0.831300  1.0  -0.1442
  C  C123  1  0.078400  0.067200  0.768600  1.0  0.0742
  C  C124  1  0.040700  0.087900  0.698500  1.0  0.6678
  C  C125  1  0.332900  0.009300  0.060600  1.0  0.6694
  C  C126  1  0.315300  0.074700  0.073500  1.0  0.0381
  C  C127  1  0.282500  0.095000  0.137000  1.0  -0.1117
  C  C128  1  0.266400  0.155700  0.142100  1.0  -0.1104
  C  C129  1  0.284200  0.195000  0.081300  1.0  -0.1449
  C  C130  1  0.317200  0.171600  0.018600  1.0  0.0738
  C  C131  1  0.337900  0.209300  0.948500  1.0  0.6684
  C  C132  1  0.832900  0.509300  0.560600  1.0  0.6694
  C  C133  1  0.815300  0.574700  0.573500  1.0  0.0381
  C  C134  1  0.782500  0.595000  0.637000  1.0  -0.1117
  C  C135  1  0.766400  0.655700  0.642100  1.0  -0.1104
  C  C136  1  0.784200  0.695000  0.581300  1.0  -0.1449
  C  C137  1  0.817200  0.671600  0.518600  1.0  0.0738
  C  C138  1  0.837900  0.709300  0.448500  1.0  0.6684
  C  C139  1  0.167100  0.990700  0.560600  1.0  0.6693
  C  C140  1  0.184700  0.925300  0.573500  1.0  0.0362
  C  C141  1  0.217500  0.905000  0.637000  1.0  -0.1106
  C  C142  1  0.233600  0.844300  0.642100  1.0  -0.1091
  C  C143  1  0.215800  0.805000  0.581300  1.0  -0.1458
  C  C144  1  0.182800  0.828400  0.518600  1.0  0.0731
  C  C145  1  0.162100  0.790700  0.448500  1.0  0.6688
  C  C146  1  0.667100  0.490700  0.060600  1.0  0.6693
  C  C147  1  0.684700  0.425300  0.073500  1.0  0.0362
  C  C148  1  0.717500  0.405000  0.137000  1.0  -0.1106
  C  C149  1  0.733600  0.344300  0.142100  1.0  -0.1091
  C  C150  1  0.715800  0.305000  0.081300  1.0  -0.1458
  C  C151  1  0.682800  0.328400  0.018600  1.0  0.0731
  C  C152  1  0.662100  0.290700  0.948500  1.0  0.6688
  C  C153  1  0.240700  0.582900  0.189400  1.0  0.6664
  C  C154  1  0.175300  0.565300  0.176500  1.0  0.036
  C  C155  1  0.155000  0.532500  0.113000  1.0  -0.1108
  C  C156  1  0.094300  0.516400  0.107900  1.0  -0.109
  C  C157  1  0.055000  0.534200  0.168700  1.0  -0.1442
  C  C158  1  0.078400  0.567200  0.231400  1.0  0.0733
  C  C159  1  0.040700  0.587900  0.301500  1.0  0.6673
  C  C160  1  0.740700  0.082900  0.689400  1.0  0.6664
  C  C161  1  0.675300  0.065300  0.676500  1.0  0.036
  C  C162  1  0.655000  0.032500  0.613000  1.0  -0.1108
  C  C163  1  0.594300  0.016400  0.607900  1.0  -0.109
  C  C164  1  0.555000  0.034200  0.668700  1.0  -0.1442
  C  C165  1  0.578400  0.067200  0.731400  1.0  0.0733
  C  C166  1  0.540700  0.087900  0.801500  1.0  0.6673
  C  C167  1  0.259300  0.417100  0.689400  1.0  0.6657
  C  C168  1  0.324700  0.434700  0.676500  1.0  0.0374
  C  C169  1  0.345000  0.467500  0.613000  1.0  -0.1124
  C  C170  1  0.405700  0.483600  0.607900  1.0  -0.108
  C  C171  1  0.445000  0.465800  0.668700  1.0  -0.1462
  C  C172  1  0.421600  0.432800  0.731400  1.0  0.074
  C  C173  1  0.459300  0.412100  0.801500  1.0  0.6687
  C  C174  1  0.759300  0.917100  0.189400  1.0  0.6657
  C  C175  1  0.824700  0.934700  0.176500  1.0  0.0374
  C  C176  1  0.845000  0.967500  0.113000  1.0  -0.1124
  C  C177  1  0.905700  0.983600  0.107900  1.0  -0.108
  C  C178  1  0.945000  0.965800  0.168700  1.0  -0.1462
  C  C179  1  0.921600  0.932800  0.231400  1.0  0.074
  C  C180  1  0.959300  0.912100  0.301500  1.0  0.6687
  C  C181  1  0.667100  0.990700  0.939400  1.0  0.6696
  C  C182  1  0.684700  0.925300  0.926500  1.0  0.0364
  C  C183  1  0.717500  0.905000  0.863000  1.0  -0.1125
  C  C184  1  0.733600  0.844300  0.857900  1.0  -0.109
  C  C185  1  0.715800  0.805000  0.918700  1.0  -0.1464
  C  C186  1  0.682800  0.828400  0.981400  1.0  0.0726
  C  C187  1  0.662100  0.790700  0.051500  1.0  0.6697
  C  C188  1  0.167100  0.490700  0.439400  1.0  0.6696
  C  C189  1  0.184700  0.425300  0.426500  1.0  0.0364
  C  C190  1  0.217500  0.405000  0.363000  1.0  -0.1125
  C  C191  1  0.233600  0.344300  0.357900  1.0  -0.109
  C  C192  1  0.215800  0.305000  0.418700  1.0  -0.1464
  C  C193  1  0.182800  0.328400  0.481400  1.0  0.0726
  C  C194  1  0.162100  0.290700  0.551500  1.0  0.6697
  C  C195  1  0.832900  0.009300  0.439400  1.0  0.67
  C  C196  1  0.815300  0.074700  0.426500  1.0  0.0382
  C  C197  1  0.782500  0.095000  0.363000  1.0  -0.1119
  C  C198  1  0.766400  0.155700  0.357900  1.0  -0.109
  C  C199  1  0.784200  0.195000  0.418700  1.0  -0.1453
  C  C200  1  0.817200  0.171600  0.481400  1.0  0.0728
  C  C201  1  0.837900  0.209300  0.551500  1.0  0.6686
  C  C202  1  0.332900  0.509300  0.939400  1.0  0.67
  C  C203  1  0.315300  0.574700  0.926500  1.0  0.0382
  C  C204  1  0.282500  0.595000  0.863000  1.0  -0.1119
  C  C205  1  0.266400  0.655700  0.857900  1.0  -0.109
  C  C206  1  0.284200  0.695000  0.918700  1.0  -0.1453
  C  C207  1  0.317200  0.671600  0.981400  1.0  0.0728
  C  C208  1  0.337900  0.709300  0.051500  1.0  0.6686
  N  N209  1  0.862900  0.417100  0.765000  1.0  -0.5147
  N  N210  1  0.362900  0.917100  0.265000  1.0  -0.5147
  N  N211  1  0.637100  0.582900  0.265000  1.0  -0.515
  N  N212  1  0.137100  0.082900  0.765000  1.0  -0.515
  N  N213  1  0.332900  0.112900  0.015000  1.0  -0.5079
  N  N214  1  0.832900  0.612900  0.515000  1.0  -0.5079
  N  N215  1  0.167100  0.887100  0.515000  1.0  -0.5092
  N  N216  1  0.667100  0.387100  0.015000  1.0  -0.5092
  N  N217  1  0.137100  0.582900  0.235000  1.0  -0.5155
  N  N218  1  0.637100  0.082900  0.735000  1.0  -0.5155
  N  N219  1  0.362900  0.417100  0.735000  1.0  -0.5133
  N  N220  1  0.862900  0.917100  0.235000  1.0  -0.5133
  N  N221  1  0.667100  0.887100  0.985000  1.0  -0.5099
  N  N222  1  0.167100  0.387100  0.485000  1.0  -0.5099
  N  N223  1  0.832900  0.112900  0.485000  1.0  -0.5077
  N  N224  1  0.332900  0.612900  0.985000  1.0  -0.5077
  O  O225  1  0.721200  0.430700  0.862700  1.0  -0.7352
  O  O226  1  0.747400  0.389000  0.745900  1.0  -0.733
  O  O227  1  0.932200  0.383500  0.644200  1.0  -0.7567
  O  O228  1  0.014700  0.424700  0.700200  1.0  -0.8089
  O  O229  1  0.721500  0.383400  0.556800  1.0  -0.7698
  O  O230  1  0.221200  0.930700  0.362700  1.0  -0.7352
  O  O231  1  0.247400  0.889000  0.245900  1.0  -0.733
  O  O232  1  0.432200  0.883500  0.144200  1.0  -0.7567
  O  O233  1  0.514700  0.924700  0.200200  1.0  -0.8089
  O  O234  1  0.221500  0.883400  0.056800  1.0  -0.7698
  O  O235  1  0.778800  0.569300  0.362700  1.0  -0.7353
  O  O236  1  0.752600  0.611000  0.245900  1.0  -0.7321
  O  O237  1  0.567800  0.616500  0.144200  1.0  -0.7591
  O  O238  1  0.485300  0.575300  0.200200  1.0  -0.8094
  O  O239  1  0.778500  0.616600  0.056800  1.0  -0.7708
  O  O240  1  0.278800  0.069300  0.862700  1.0  -0.7353
  O  O241  1  0.252600  0.111000  0.745900  1.0  -0.7321
  O  O242  1  0.067800  0.116500  0.644200  1.0  -0.7591
  O  O243  1  0.985300  0.075300  0.700200  1.0  -0.8094
  O  O244  1  0.278500  0.116600  0.556800  1.0  -0.7708
  O  O245  1  0.319300  0.971200  0.112700  1.0  -0.7358
  O  O246  1  0.361000  0.997400  0.995900  1.0  -0.7344
  O  O247  1  0.366500  0.182200  0.894200  1.0  -0.7565
  O  O248  1  0.325300  0.264700  0.950200  1.0  -0.8106
  O  O249  1  0.366600  0.971500  0.806800  1.0  -0.7689
  O  O250  1  0.819300  0.471200  0.612700  1.0  -0.7358
  O  O251  1  0.861000  0.497400  0.495900  1.0  -0.7344
  O  O252  1  0.866500  0.682200  0.394200  1.0  -0.7565
  O  O253  1  0.825300  0.764700  0.450200  1.0  -0.8106
  O  O254  1  0.866600  0.471500  0.306800  1.0  -0.7689
  O  O255  1  0.180700  0.028800  0.612700  1.0  -0.7352
  O  O256  1  0.139000  0.002600  0.495900  1.0  -0.7346
  O  O257  1  0.133500  0.817800  0.394200  1.0  -0.7554
  O  O258  1  0.174700  0.735300  0.450200  1.0  -0.8117
  O  O259  1  0.133400  0.028500  0.306800  1.0  -0.7702
  O  O260  1  0.680700  0.528800  0.112700  1.0  -0.7352
  O  O261  1  0.639000  0.502600  0.995900  1.0  -0.7346
  O  O262  1  0.633500  0.317800  0.894200  1.0  -0.7554
  O  O263  1  0.674700  0.235300  0.950200  1.0  -0.8117
  O  O264  1  0.633400  0.528500  0.806800  1.0  -0.7702
  O  O265  1  0.278800  0.569300  0.137300  1.0  -0.7361
  O  O266  1  0.252600  0.611000  0.254100  1.0  -0.7328
  O  O267  1  0.067800  0.616500  0.355800  1.0  -0.7609
  O  O268  1  0.985300  0.575300  0.299800  1.0  -0.8092
  O  O269  1  0.278500  0.616600  0.443200  1.0  -0.7705
  O  O270  1  0.778800  0.069300  0.637300  1.0  -0.7361
  O  O271  1  0.752600  0.111000  0.754100  1.0  -0.7328
  O  O272  1  0.567800  0.116500  0.855800  1.0  -0.7609
  O  O273  1  0.485300  0.075300  0.799800  1.0  -0.8092
  O  O274  1  0.778500  0.116600  0.943200  1.0  -0.7705
  O  O275  1  0.221200  0.430700  0.637300  1.0  -0.7365
  O  O276  1  0.247400  0.389000  0.754100  1.0  -0.7328
  O  O277  1  0.432200  0.383500  0.855800  1.0  -0.7578
  O  O278  1  0.514700  0.424700  0.799800  1.0  -0.8088
  O  O279  1  0.221500  0.383400  0.943200  1.0  -0.7702
  O  O280  1  0.721200  0.930700  0.137300  1.0  -0.7365
  O  O281  1  0.747400  0.889000  0.254100  1.0  -0.7328
  O  O282  1  0.932200  0.883500  0.355800  1.0  -0.7578
  O  O283  1  0.014700  0.924700  0.299800  1.0  -0.8088
  O  O284  1  0.721500  0.883400  0.443200  1.0  -0.7702
  O  O285  1  0.680700  0.028800  0.887300  1.0  -0.736
  O  O286  1  0.639000  0.002600  0.004100  1.0  -0.7337
  O  O287  1  0.633500  0.817800  0.105800  1.0  -0.7561
  O  O288  1  0.674700  0.735300  0.049800  1.0  -0.8116
  O  O289  1  0.633400  0.028500  0.193200  1.0  -0.7702
  O  O290  1  0.180700  0.528800  0.387300  1.0  -0.736
  O  O291  1  0.139000  0.502600  0.504100  1.0  -0.7337
  O  O292  1  0.133500  0.317800  0.605800  1.0  -0.7561
  O  O293  1  0.174700  0.235300  0.549800  1.0  -0.8116
  O  O294  1  0.133400  0.528500  0.693200  1.0  -0.7702
  O  O295  1  0.819300  0.971200  0.387300  1.0  -0.7372
  O  O296  1  0.861000  0.997400  0.504100  1.0  -0.7365
  O  O297  1  0.866500  0.182200  0.605800  1.0  -0.7603
  O  O298  1  0.825300  0.264700  0.549800  1.0  -0.8102
  O  O299  1  0.866600  0.971500  0.693200  1.0  -0.7686
  O  O300  1  0.319300  0.471200  0.887300  1.0  -0.7372
  O  O301  1  0.361000  0.497400  0.004100  1.0  -0.7365
  O  O302  1  0.366500  0.682200  0.105800  1.0  -0.7603
  O  O303  1  0.325300  0.764700  0.049800  1.0  -0.8102
  O  O304  1  0.366600  0.471500  0.193200  1.0  -0.7686
