# generated using pymatgen
data_Al3P3(O6F)2
_symmetry_space_group_name_H-M   'P 1'
_cell_length_a   9.99490000
_cell_length_b   15.82290000
_cell_length_c   18.19630000
_cell_angle_alpha   90.00000000
_cell_angle_beta   90.00000000
_cell_angle_gamma   90.00000000
_symmetry_Int_Tables_number   1
_chemical_formula_structural   Al3P3(O6F)2
_chemical_formula_sum   'Al24 P24 O96 F16'
_cell_volume   2877.71396970
_cell_formula_units_Z   8
loop_
 _symmetry_equiv_pos_site_id
 _symmetry_equiv_pos_as_xyz
  1  'x, y, z'
loop_
 _atom_site_type_symbol
 _atom_site_label
 _atom_site_symmetry_multiplicity
 _atom_site_fract_x
 _atom_site_fract_y
 _atom_site_fract_z
 _atom_site_occupancy
 _atom_site_charge
  Al  Al1  1  0.684700  0.037500  0.282300  1.0  1.8568
  Al  Al2  1  0.831000  0.850100  0.323400  1.0  1.8706
  Al  Al3  1  0.657700  0.009700  0.094000  1.0  1.8723
  Al  Al4  1  0.315300  0.462500  0.782300  1.0  1.8567
  Al  Al5  1  0.169000  0.649900  0.823400  1.0  1.872
  Al  Al6  1  0.342300  0.490300  0.594000  1.0  1.8686
  Al  Al7  1  0.184700  0.962500  0.217700  1.0  1.8564
  Al  Al8  1  0.331000  0.149900  0.176600  1.0  1.873
  Al  Al9  1  0.157700  0.990300  0.406000  1.0  1.8696
  Al  Al10  1  0.815300  0.537500  0.717700  1.0  1.8556
  Al  Al11  1  0.669000  0.350100  0.676600  1.0  1.8705
  Al  Al12  1  0.842300  0.509700  0.906000  1.0  1.8697
  Al  Al13  1  0.315300  0.962500  0.717700  1.0  1.8558
  Al  Al14  1  0.169000  0.149900  0.676600  1.0  1.8726
  Al  Al15  1  0.342300  0.990300  0.906000  1.0  1.8705
  Al  Al16  1  0.684700  0.537500  0.217700  1.0  1.8564
  Al  Al17  1  0.831000  0.350100  0.176600  1.0  1.871
  Al  Al18  1  0.657700  0.509700  0.406000  1.0  1.875
  Al  Al19  1  0.815300  0.037500  0.782300  1.0  1.8563
  Al  Al20  1  0.669000  0.850100  0.823400  1.0  1.8701
  Al  Al21  1  0.842300  0.009700  0.594000  1.0  1.8726
  Al  Al22  1  0.184700  0.462500  0.282300  1.0  1.8574
  Al  Al23  1  0.331000  0.649900  0.323400  1.0  1.8722
  Al  Al24  1  0.157700  0.490300  0.094000  1.0  1.8733
  P  P25  1  0.859300  0.009300  0.422710  1.0  1.8639
  P  P26  1  0.645800  0.183600  0.169930  1.0  1.8199
  P  P27  1  0.884100  0.942700  0.185480  1.0  1.8759
  P  P28  1  0.140700  0.490700  0.922710  1.0  1.8648
  P  P29  1  0.354200  0.316400  0.669930  1.0  1.8184
  P  P30  1  0.115900  0.557300  0.685480  1.0  1.876
  P  P31  1  0.359300  0.990700  0.077290  1.0  1.8634
  P  P32  1  0.145800  0.816400  0.330070  1.0  1.8189
  P  P33  1  0.384100  0.057300  0.314520  1.0  1.8765
  P  P34  1  0.640700  0.509300  0.577290  1.0  1.864
  P  P35  1  0.854200  0.683600  0.830070  1.0  1.8194
  P  P36  1  0.615900  0.442700  0.814520  1.0  1.8778
  P  P37  1  0.140700  0.990700  0.577290  1.0  1.8643
  P  P38  1  0.354200  0.816400  0.830070  1.0  1.8185
  P  P39  1  0.115900  0.057300  0.814520  1.0  1.8771
  P  P40  1  0.859300  0.509300  0.077290  1.0  1.8633
  P  P41  1  0.645800  0.683600  0.330070  1.0  1.8199
  P  P42  1  0.884100  0.442700  0.314520  1.0  1.8774
  P  P43  1  0.640700  0.009300  0.922710  1.0  1.8642
  P  P44  1  0.854200  0.183600  0.669930  1.0  1.8192
  P  P45  1  0.615900  0.942700  0.685480  1.0  1.8768
  P  P46  1  0.359300  0.490700  0.422710  1.0  1.8643
  P  P47  1  0.145800  0.316400  0.169930  1.0  1.819
  P  P48  1  0.384100  0.557300  0.185480  1.0  1.875
  O  O49  1  0.004600  0.041900  0.427400  1.0  -0.8426
  O  O50  1  0.790700  0.019100  0.497500  1.0  -0.8955
  O  O51  1  0.863700  0.916000  0.399800  1.0  -0.9266
  O  O52  1  0.782400  0.063600  0.367000  1.0  -0.8017
  O  O53  1  0.729200  0.262900  0.154900  1.0  -0.9461
  O  O54  1  0.684000  0.148500  0.246100  1.0  -0.7987
  O  O55  1  0.683100  0.120000  0.107800  1.0  -0.8545
  O  O56  1  0.497700  0.207400  0.165000  1.0  -0.7715
  O  O57  1  0.797800  0.943300  0.115200  1.0  -0.8245
  O  O58  1  0.858800  0.857200  0.225400  1.0  -0.8199
  O  O59  1  0.846600  0.016200  0.235100  1.0  -0.8483
  O  O60  1  0.031100  0.948200  0.163500  1.0  -0.8112
  O  O61  1  0.995400  0.458100  0.927400  1.0  -0.8424
  O  O62  1  0.209300  0.480900  0.997500  1.0  -0.8951
  O  O63  1  0.136300  0.584000  0.899800  1.0  -0.9264
  O  O64  1  0.217600  0.436400  0.867000  1.0  -0.8026
  O  O65  1  0.270800  0.237100  0.654900  1.0  -0.9473
  O  O66  1  0.316000  0.351500  0.746100  1.0  -0.8002
  O  O67  1  0.316900  0.380000  0.607800  1.0  -0.8532
  O  O68  1  0.502300  0.292600  0.665000  1.0  -0.769
  O  O69  1  0.202200  0.556700  0.615200  1.0  -0.8263
  O  O70  1  0.141200  0.642800  0.725400  1.0  -0.8245
  O  O71  1  0.153400  0.483800  0.735100  1.0  -0.8511
  O  O72  1  0.968900  0.551800  0.663500  1.0  -0.8108
  O  O73  1  0.504600  0.958100  0.072600  1.0  -0.842
  O  O74  1  0.290700  0.980900  0.002500  1.0  -0.8946
  O  O75  1  0.363700  0.084000  0.100200  1.0  -0.9233
  O  O76  1  0.282400  0.936400  0.133000  1.0  -0.8027
  O  O77  1  0.229200  0.737100  0.345100  1.0  -0.9473
  O  O78  1  0.184000  0.851500  0.253900  1.0  -0.799
  O  O79  1  0.183100  0.880000  0.392200  1.0  -0.8545
  O  O80  1  0.997700  0.792600  0.335000  1.0  -0.7703
  O  O81  1  0.297800  0.056700  0.384800  1.0  -0.8251
  O  O82  1  0.358800  0.142800  0.274600  1.0  -0.8231
  O  O83  1  0.346600  0.983800  0.264900  1.0  -0.8496
  O  O84  1  0.531100  0.051800  0.336500  1.0  -0.8112
  O  O85  1  0.495400  0.541900  0.572600  1.0  -0.8429
  O  O86  1  0.709300  0.519100  0.502500  1.0  -0.8941
  O  O87  1  0.636300  0.416000  0.600200  1.0  -0.9249
  O  O88  1  0.717600  0.563600  0.633000  1.0  -0.8028
  O  O89  1  0.770800  0.762900  0.845100  1.0  -0.9482
  O  O90  1  0.816000  0.648500  0.753900  1.0  -0.801
  O  O91  1  0.816900  0.620000  0.892200  1.0  -0.8553
  O  O92  1  0.002300  0.707400  0.835000  1.0  -0.7711
  O  O93  1  0.702200  0.443300  0.884800  1.0  -0.8285
  O  O94  1  0.641200  0.357200  0.774600  1.0  -0.8218
  O  O95  1  0.653400  0.516200  0.764900  1.0  -0.8487
  O  O96  1  0.468900  0.448200  0.836500  1.0  -0.8114
  O  O97  1  0.995400  0.958100  0.572600  1.0  -0.8424
  O  O98  1  0.209300  0.980900  0.502500  1.0  -0.8944
  O  O99  1  0.136300  0.084000  0.600200  1.0  -0.9242
  O  O100  1  0.217600  0.936400  0.633000  1.0  -0.8029
  O  O101  1  0.270800  0.737100  0.845100  1.0  -0.948
  O  O102  1  0.316000  0.851500  0.753900  1.0  -0.7995
  O  O103  1  0.316900  0.880000  0.892200  1.0  -0.855
  O  O104  1  0.502300  0.792600  0.835000  1.0  -0.7693
  O  O105  1  0.202200  0.056700  0.884800  1.0  -0.8284
  O  O106  1  0.141200  0.142800  0.774600  1.0  -0.8233
  O  O107  1  0.153400  0.983800  0.764900  1.0  -0.8504
  O  O108  1  0.968900  0.051800  0.836500  1.0  -0.8111
  O  O109  1  0.004600  0.541900  0.072600  1.0  -0.8425
  O  O110  1  0.790700  0.519100  0.002500  1.0  -0.8946
  O  O111  1  0.863700  0.416000  0.100200  1.0  -0.9236
  O  O112  1  0.782400  0.563600  0.133000  1.0  -0.8029
  O  O113  1  0.729200  0.762900  0.345100  1.0  -0.9476
  O  O114  1  0.684000  0.648500  0.253900  1.0  -0.8001
  O  O115  1  0.683100  0.620000  0.392200  1.0  -0.8545
  O  O116  1  0.497700  0.707400  0.335000  1.0  -0.771
  O  O117  1  0.797800  0.443300  0.384800  1.0  -0.8258
  O  O118  1  0.858800  0.357200  0.274600  1.0  -0.8216
  O  O119  1  0.846600  0.516200  0.264900  1.0  -0.848
  O  O120  1  0.031100  0.448200  0.336500  1.0  -0.8114
  O  O121  1  0.495400  0.041900  0.927400  1.0  -0.8432
  O  O122  1  0.709300  0.019100  0.997500  1.0  -0.8948
  O  O123  1  0.636300  0.916000  0.899800  1.0  -0.9272
  O  O124  1  0.717600  0.063600  0.867000  1.0  -0.8017
  O  O125  1  0.770800  0.262900  0.654900  1.0  -0.9468
  O  O126  1  0.816000  0.148500  0.746100  1.0  -0.8001
  O  O127  1  0.816900  0.120000  0.607800  1.0  -0.8539
  O  O128  1  0.002300  0.207400  0.665000  1.0  -0.7701
  O  O129  1  0.702200  0.943300  0.615200  1.0  -0.8259
  O  O130  1  0.641200  0.857200  0.725400  1.0  -0.8203
  O  O131  1  0.653400  0.016200  0.735100  1.0  -0.8491
  O  O132  1  0.468900  0.948200  0.663500  1.0  -0.8113
  O  O133  1  0.504600  0.458100  0.427400  1.0  -0.8425
  O  O134  1  0.290700  0.480900  0.497500  1.0  -0.8955
  O  O135  1  0.363700  0.584000  0.399800  1.0  -0.9269
  O  O136  1  0.282400  0.436400  0.367000  1.0  -0.8023
  O  O137  1  0.229200  0.237100  0.154900  1.0  -0.9466
  O  O138  1  0.184000  0.351500  0.246100  1.0  -0.7991
  O  O139  1  0.183100  0.380000  0.107800  1.0  -0.8537
  O  O140  1  0.997700  0.292600  0.165000  1.0  -0.7688
  O  O141  1  0.297800  0.556700  0.115200  1.0  -0.8247
  O  O142  1  0.358800  0.642800  0.225400  1.0  -0.8242
  O  O143  1  0.346600  0.483800  0.235100  1.0  -0.8501
  O  O144  1  0.531100  0.551800  0.163500  1.0  -0.8107
  F  F145  1  0.678700  0.921000  0.307200  1.0  -0.4807
  F  F146  1  0.600500  0.003900  0.195300  1.0  -0.5335
  F  F147  1  0.321300  0.579000  0.807200  1.0  -0.4811
  F  F148  1  0.399500  0.496100  0.695300  1.0  -0.5314
  F  F149  1  0.178700  0.079000  0.192800  1.0  -0.4799
  F  F150  1  0.100500  0.996100  0.304700  1.0  -0.5311
  F  F151  1  0.821300  0.421000  0.692800  1.0  -0.4824
  F  F152  1  0.899500  0.503900  0.804700  1.0  -0.5339
  F  F153  1  0.321300  0.079000  0.692800  1.0  -0.4811
  F  F154  1  0.399500  0.996100  0.804700  1.0  -0.5314
  F  F155  1  0.678700  0.421000  0.192800  1.0  -0.4817
  F  F156  1  0.600500  0.503900  0.304700  1.0  -0.5336
  F  F157  1  0.821300  0.921000  0.807200  1.0  -0.4822
  F  F158  1  0.899500  0.003900  0.695300  1.0  -0.5338
  F  F159  1  0.178700  0.579000  0.307200  1.0  -0.4793
  F  F160  1  0.100500  0.496100  0.195300  1.0  -0.5309
