# generated using pymatgen
data_CuH11C7O6
_symmetry_space_group_name_H-M   'P 1'
_cell_length_a   9.80900000
_cell_length_b   11.59500000
_cell_length_c   12.06500000
_cell_angle_alpha   90.00000000
_cell_angle_beta   90.00000000
_cell_angle_gamma   90.00000000
_symmetry_Int_Tables_number   1
_chemical_formula_structural   CuH11C7O6
_chemical_formula_sum   'Cu4 H44 C28 O24'
_cell_volume   1372.21705807
_cell_formula_units_Z   4
loop_
 _symmetry_equiv_pos_site_id
 _symmetry_equiv_pos_as_xyz
  1  'x, y, z'
loop_
 _atom_site_type_symbol
 _atom_site_label
 _atom_site_symmetry_multiplicity
 _atom_site_fract_x
 _atom_site_fract_y
 _atom_site_fract_z
 _atom_site_occupancy
 _atom_site_charge
  Cu  Cu1  1  0.189990  0.256870  0.927410  1.0  0.8361
  Cu  Cu2  1  0.689990  0.243130  0.072590  1.0  0.8361
  Cu  Cu3  1  0.310010  0.743130  0.427410  1.0  0.8378
  Cu  Cu4  1  0.810010  0.756870  0.572590  1.0  0.8356
  H  H5  1  0.312900  0.183200  0.066900  1.0  0.2948
  H  H6  1  0.389700  0.974600  0.087200  1.0  0.3556
  H  H7  1  0.391700  0.923600  0.308300  1.0  0.3939
  H  H8  1  0.210800  0.088700  0.467700  1.0  0.3398
  H  H9  1  0.994500  0.005300  0.157100  1.0  0.0939
  H  H10  1  0.075700  0.008400  0.045100  1.0  0.0863
  H  H11  1  0.177100  0.876300  0.169800  1.0  0.0836
  H  H12  1  0.126800  0.968600  0.337900  1.0  0.0846
  H  H13  1  0.319300  0.142500  0.283600  1.0  0.0687
  H  H14  1  0.032400  0.175000  0.297700  1.0  0.0937
  H  H15  1  0.138000  0.271100  0.266100  1.0  0.0959
  H  H16  1  0.812900  0.316800  0.933100  1.0  0.2951
  H  H17  1  0.889700  0.525400  0.912800  1.0  0.3553
  H  H18  1  0.891700  0.576400  0.691700  1.0  0.3945
  H  H19  1  0.710800  0.411300  0.532300  1.0  0.3402
  H  H20  1  0.494500  0.494700  0.842900  1.0  0.0945
  H  H21  1  0.575700  0.491600  0.954900  1.0  0.0836
  H  H22  1  0.677100  0.623700  0.830200  1.0  0.0845
  H  H23  1  0.626800  0.531400  0.662100  1.0  0.0851
  H  H24  1  0.819300  0.357500  0.716400  1.0  0.0696
  H  H25  1  0.532400  0.325000  0.702300  1.0  0.0939
  H  H26  1  0.638000  0.228900  0.733900  1.0  0.0964
  H  H27  1  0.187100  0.816800  0.566900  1.0  0.2954
  H  H28  1  0.110300  0.025400  0.587200  1.0  0.3588
  H  H29  1  0.108300  0.076400  0.808300  1.0  0.3935
  H  H30  1  0.289200  0.911300  0.967700  1.0  0.3404
  H  H31  1  0.505500  0.994700  0.657100  1.0  0.094
  H  H32  1  0.424300  0.991600  0.545100  1.0  0.0857
  H  H33  1  0.322900  0.123700  0.669800  1.0  0.0843
  H  H34  1  0.373200  0.031400  0.837900  1.0  0.0835
  H  H35  1  0.180700  0.857500  0.783600  1.0  0.0721
  H  H36  1  0.467600  0.825000  0.797700  1.0  0.0948
  H  H37  1  0.362000  0.728900  0.766100  1.0  0.0958
  H  H38  1  0.687100  0.683200  0.433100  1.0  0.2956
  H  H39  1  0.610300  0.474600  0.412800  1.0  0.3584
  H  H40  1  0.608300  0.423600  0.191700  1.0  0.395
  H  H41  1  0.789200  0.588700  0.032300  1.0  0.3391
  H  H42  1  0.005500  0.505300  0.342900  1.0  0.0937
  H  H43  1  0.924300  0.508400  0.454900  1.0  0.0844
  H  H44  1  0.822900  0.376300  0.330200  1.0  0.0841
  H  H45  1  0.873200  0.468600  0.162100  1.0  0.0834
  H  H46  1  0.680700  0.642500  0.216400  1.0  0.0699
  H  H47  1  0.967600  0.675000  0.202300  1.0  0.0965
  H  H48  1  0.862000  0.771100  0.233900  1.0  0.0982
  C  C49  1  0.985700  0.220300  0.080200  1.0  0.6572
  C  C50  1  0.102000  0.158200  0.137000  1.0  0.2086
  C  C51  1  0.080500  0.027200  0.123300  1.0  -0.2554
  C  C52  1  0.195700  0.959000  0.176800  1.0  0.0929
  C  C53  1  0.211200  0.990500  0.299900  1.0  0.108
  C  C54  1  0.231400  0.120000  0.315600  1.0  0.1455
  C  C55  1  0.117800  0.189500  0.259700  1.0  -0.251
  C  C56  1  0.485700  0.279700  0.919800  1.0  0.6572
  C  C57  1  0.602000  0.341800  0.863000  1.0  0.2088
  C  C58  1  0.580500  0.472800  0.876700  1.0  -0.2546
  C  C59  1  0.695700  0.541000  0.823200  1.0  0.0931
  C  C60  1  0.711200  0.509500  0.700100  1.0  0.1074
  C  C61  1  0.731400  0.380000  0.684400  1.0  0.147
  C  C62  1  0.617800  0.310500  0.740300  1.0  -0.2498
  C  C63  1  0.514300  0.779700  0.580200  1.0  0.6567
  C  C64  1  0.398000  0.841800  0.637000  1.0  0.2086
  C  C65  1  0.419500  0.972800  0.623300  1.0  -0.2561
  C  C66  1  0.304300  0.041000  0.676800  1.0  0.0931
  C  C67  1  0.288800  0.009500  0.799900  1.0  0.1074
  C  C68  1  0.268600  0.880000  0.815600  1.0  0.1474
  C  C69  1  0.382200  0.810500  0.759700  1.0  -0.2506
  C  C70  1  0.014300  0.720300  0.419800  1.0  0.6567
  C  C71  1  0.898000  0.658200  0.363000  1.0  0.2079
  C  C72  1  0.919500  0.527200  0.376700  1.0  -0.2557
  C  C73  1  0.804300  0.459000  0.323200  1.0  0.0931
  C  C74  1  0.788800  0.490500  0.200100  1.0  0.1074
  C  C75  1  0.768600  0.620000  0.184400  1.0  0.146
  C  C76  1  0.882200  0.689500  0.240300  1.0  -0.2512
  O  O77  1  0.004500  0.260700  0.984000  1.0  -0.5753
  O  O78  1  0.873000  0.223300  0.130000  1.0  -0.6076
  O  O79  1  0.226300  0.194500  0.078600  1.0  -0.6245
  O  O80  1  0.322600  0.985500  0.123900  1.0  -0.6052
  O  O81  1  0.321400  0.927000  0.349700  1.0  -0.5655
  O  O82  1  0.231400  0.147200  0.431700  1.0  -0.5583
  O  O83  1  0.504500  0.239300  0.016000  1.0  -0.5714
  O  O84  1  0.373000  0.276700  0.870000  1.0  -0.6081
  O  O85  1  0.726300  0.305500  0.921400  1.0  -0.6221
  O  O86  1  0.822600  0.514500  0.876100  1.0  -0.6037
  O  O87  1  0.821400  0.573000  0.650300  1.0  -0.567
  O  O88  1  0.731400  0.352800  0.568300  1.0  -0.5598
  O  O89  1  0.495500  0.739300  0.484000  1.0  -0.5748
  O  O90  1  0.627000  0.776700  0.630000  1.0  -0.6083
  O  O91  1  0.273700  0.805500  0.578600  1.0  -0.6214
  O  O92  1  0.177400  0.014500  0.623900  1.0  -0.6081
  O  O93  1  0.178600  0.073000  0.849700  1.0  -0.566
  O  O94  1  0.268600  0.852800  0.931700  1.0  -0.562
  O  O95  1  0.995500  0.760700  0.516000  1.0  -0.5715
  O  O96  1  0.127000  0.723300  0.370000  1.0  -0.6084
  O  O97  1  0.773700  0.694500  0.421400  1.0  -0.625
  O  O98  1  0.677400  0.485500  0.376100  1.0  -0.6094
  O  O99  1  0.678600  0.427000  0.150300  1.0  -0.5681
  O  O100  1  0.768600  0.647200  0.068300  1.0  -0.5597
