# generated using pymatgen
data_Zn3H36C26(NO)6
_symmetry_space_group_name_H-M   'P 1'
_cell_length_a   19.99980000
_cell_length_b   19.99980000
_cell_length_c   19.99980000
_cell_angle_alpha   90.00000000
_cell_angle_beta   90.00000000
_cell_angle_gamma   90.00000000
_symmetry_Int_Tables_number   1
_chemical_formula_structural   Zn3H36C26(NO)6
_chemical_formula_sum   'Zn24 H288 C208 N48 O48'
_cell_volume   7999.76000240
_cell_formula_units_Z   8
loop_
 _symmetry_equiv_pos_site_id
 _symmetry_equiv_pos_as_xyz
  1  'x, y, z'
loop_
 _atom_site_type_symbol
 _atom_site_label
 _atom_site_symmetry_multiplicity
 _atom_site_fract_x
 _atom_site_fract_y
 _atom_site_fract_z
 _atom_site_occupancy
 _atom_site_charge
  Zn  Zn1  1  0.000000  0.500000  0.163430  1.0  0.8383
  Zn  Zn2  1  0.000000  0.000000  0.663430  1.0  0.8383
  Zn  Zn3  1  0.500000  0.500000  0.663430  1.0  0.8383
  Zn  Zn4  1  0.500000  0.000000  0.163430  1.0  0.8383
  Zn  Zn5  1  0.000000  0.500000  0.836570  1.0  0.838
  Zn  Zn6  1  0.000000  0.000000  0.336570  1.0  0.838
  Zn  Zn7  1  0.500000  0.500000  0.336570  1.0  0.838
  Zn  Zn8  1  0.500000  0.000000  0.836570  1.0  0.838
  Zn  Zn9  1  0.163430  0.000000  0.500000  1.0  0.8363
  Zn  Zn10  1  0.163430  0.500000  0.000000  1.0  0.8363
  Zn  Zn11  1  0.663430  0.000000  0.000000  1.0  0.8363
  Zn  Zn12  1  0.663430  0.500000  0.500000  1.0  0.8363
  Zn  Zn13  1  0.836570  0.000000  0.500000  1.0  0.8373
  Zn  Zn14  1  0.836570  0.500000  0.000000  1.0  0.8373
  Zn  Zn15  1  0.336570  0.000000  0.000000  1.0  0.8373
  Zn  Zn16  1  0.336570  0.500000  0.500000  1.0  0.8373
  Zn  Zn17  1  0.500000  0.163430  0.000000  1.0  0.837
  Zn  Zn18  1  0.500000  0.663430  0.500000  1.0  0.837
  Zn  Zn19  1  0.000000  0.163430  0.500000  1.0  0.837
  Zn  Zn20  1  0.000000  0.663430  0.000000  1.0  0.837
  Zn  Zn21  1  0.500000  0.836570  0.000000  1.0  0.8377
  Zn  Zn22  1  0.500000  0.336570  0.500000  1.0  0.8377
  Zn  Zn23  1  0.000000  0.836570  0.500000  1.0  0.8377
  Zn  Zn24  1  0.000000  0.336570  0.000000  1.0  0.8377
  H  H25  1  0.105100  0.510900  0.241000  1.0  0.0697
  H  H26  1  0.121900  0.599700  0.189500  1.0  0.0687
  H  H27  1  0.053800  0.633900  0.213300  1.0  0.0735
  H  H28  1  0.062100  0.710200  0.300800  1.0  0.1038
  H  H29  1  0.998700  0.570100  0.309000  1.0  0.058
  H  H30  1  0.055700  0.522200  0.337900  1.0  0.0522
  H  H31  1  0.105100  0.010900  0.741000  1.0  0.0697
  H  H32  1  0.121900  0.099700  0.689500  1.0  0.0687
  H  H33  1  0.053800  0.133900  0.713300  1.0  0.0735
  H  H34  1  0.062100  0.210200  0.800800  1.0  0.1038
  H  H35  1  0.998700  0.070100  0.809000  1.0  0.058
  H  H36  1  0.055700  0.022200  0.837900  1.0  0.0522
  H  H37  1  0.605100  0.510900  0.741000  1.0  0.0697
  H  H38  1  0.621900  0.599700  0.689500  1.0  0.0687
  H  H39  1  0.553800  0.633900  0.713300  1.0  0.0735
  H  H40  1  0.562100  0.710200  0.800800  1.0  0.1038
  H  H41  1  0.498700  0.570100  0.809000  1.0  0.058
  H  H42  1  0.555700  0.522200  0.837900  1.0  0.0522
  H  H43  1  0.605100  0.010900  0.241000  1.0  0.0697
  H  H44  1  0.621900  0.099700  0.189500  1.0  0.0687
  H  H45  1  0.553800  0.133900  0.213300  1.0  0.0735
  H  H46  1  0.562100  0.210200  0.300800  1.0  0.1038
  H  H47  1  0.498700  0.070100  0.309000  1.0  0.058
  H  H48  1  0.555700  0.022200  0.337900  1.0  0.0522
  H  H49  1  0.894900  0.489100  0.241000  1.0  0.0673
  H  H50  1  0.878100  0.400300  0.189500  1.0  0.0703
  H  H51  1  0.946200  0.366100  0.213300  1.0  0.073
  H  H52  1  0.937900  0.289800  0.300800  1.0  0.1044
  H  H53  1  0.001300  0.429900  0.309000  1.0  0.0591
  H  H54  1  0.944300  0.477800  0.337900  1.0  0.0502
  H  H55  1  0.894900  0.989100  0.741000  1.0  0.0673
  H  H56  1  0.878100  0.900300  0.689500  1.0  0.0703
  H  H57  1  0.946200  0.866100  0.713300  1.0  0.073
  H  H58  1  0.937900  0.789800  0.800800  1.0  0.1044
  H  H59  1  0.001300  0.929900  0.809000  1.0  0.0591
  H  H60  1  0.944300  0.977800  0.837900  1.0  0.0502
  H  H61  1  0.394900  0.489100  0.741000  1.0  0.0673
  H  H62  1  0.378100  0.400300  0.689500  1.0  0.0703
  H  H63  1  0.446200  0.366100  0.713300  1.0  0.073
  H  H64  1  0.437900  0.289800  0.800800  1.0  0.1044
  H  H65  1  0.501300  0.429900  0.809000  1.0  0.0591
  H  H66  1  0.444300  0.477800  0.837900  1.0  0.0502
  H  H67  1  0.394900  0.989100  0.241000  1.0  0.0673
  H  H68  1  0.378100  0.900300  0.189500  1.0  0.0703
  H  H69  1  0.446200  0.866100  0.213300  1.0  0.073
  H  H70  1  0.437900  0.789800  0.300800  1.0  0.1044
  H  H71  1  0.501300  0.929900  0.309000  1.0  0.0591
  H  H72  1  0.444300  0.977800  0.337900  1.0  0.0502
  H  H73  1  0.894900  0.510900  0.759000  1.0  0.068
  H  H74  1  0.878100  0.599700  0.810500  1.0  0.0694
  H  H75  1  0.946200  0.633900  0.786700  1.0  0.0727
  H  H76  1  0.937900  0.710200  0.699200  1.0  0.1035
  H  H77  1  0.001300  0.570100  0.691000  1.0  0.0581
  H  H78  1  0.944300  0.522200  0.662100  1.0  0.0511
  H  H79  1  0.894900  0.010900  0.259000  1.0  0.068
  H  H80  1  0.878100  0.099700  0.310500  1.0  0.0694
  H  H81  1  0.946200  0.133900  0.286700  1.0  0.0727
  H  H82  1  0.937900  0.210200  0.199200  1.0  0.1035
  H  H83  1  0.001300  0.070100  0.191000  1.0  0.0581
  H  H84  1  0.944300  0.022200  0.162100  1.0  0.0511
  H  H85  1  0.394900  0.510900  0.259000  1.0  0.068
  H  H86  1  0.378100  0.599700  0.310500  1.0  0.0694
  H  H87  1  0.446200  0.633900  0.286700  1.0  0.0727
  H  H88  1  0.437900  0.710200  0.199200  1.0  0.1035
  H  H89  1  0.501300  0.570100  0.191000  1.0  0.0581
  H  H90  1  0.444300  0.522200  0.162100  1.0  0.0511
  H  H91  1  0.394900  0.010900  0.759000  1.0  0.068
  H  H92  1  0.378100  0.099700  0.810500  1.0  0.0694
  H  H93  1  0.446200  0.133900  0.786700  1.0  0.0727
  H  H94  1  0.437900  0.210200  0.699200  1.0  0.1035
  H  H95  1  0.501300  0.070100  0.691000  1.0  0.0581
  H  H96  1  0.444300  0.022200  0.662100  1.0  0.0511
  H  H97  1  0.105100  0.489100  0.759000  1.0  0.0702
  H  H98  1  0.121900  0.400300  0.810500  1.0  0.0685
  H  H99  1  0.053800  0.366100  0.786700  1.0  0.0744
  H  H100  1  0.062100  0.289800  0.699200  1.0  0.1043
  H  H101  1  0.998700  0.429900  0.691000  1.0  0.0581
  H  H102  1  0.055700  0.477800  0.662100  1.0  0.0519
  H  H103  1  0.105100  0.989100  0.259000  1.0  0.0702
  H  H104  1  0.121900  0.900300  0.310500  1.0  0.0685
  H  H105  1  0.053800  0.866100  0.286700  1.0  0.0744
  H  H106  1  0.062100  0.789800  0.199200  1.0  0.1043
  H  H107  1  0.998700  0.929900  0.191000  1.0  0.0581
  H  H108  1  0.055700  0.977800  0.162100  1.0  0.0519
  H  H109  1  0.605100  0.489100  0.259000  1.0  0.0702
  H  H110  1  0.621900  0.400300  0.310500  1.0  0.0685
  H  H111  1  0.553800  0.366100  0.286700  1.0  0.0744
  H  H112  1  0.562100  0.289800  0.199200  1.0  0.1043
  H  H113  1  0.498700  0.429900  0.191000  1.0  0.0581
  H  H114  1  0.555700  0.477800  0.162100  1.0  0.0519
  H  H115  1  0.605100  0.989100  0.759000  1.0  0.0702
  H  H116  1  0.621900  0.900300  0.810500  1.0  0.0685
  H  H117  1  0.553800  0.866100  0.786700  1.0  0.0744
  H  H118  1  0.562100  0.789800  0.699200  1.0  0.1043
  H  H119  1  0.498700  0.929900  0.691000  1.0  0.0581
  H  H120  1  0.555700  0.977800  0.662100  1.0  0.0519
  H  H121  1  0.241000  0.105100  0.510900  1.0  0.0695
  H  H122  1  0.189500  0.121900  0.599700  1.0  0.0704
  H  H123  1  0.213300  0.053800  0.633900  1.0  0.075
  H  H124  1  0.300800  0.062100  0.710200  1.0  0.1037
  H  H125  1  0.309000  0.998700  0.570100  1.0  0.059
  H  H126  1  0.337900  0.055700  0.522200  1.0  0.0526
  H  H127  1  0.241000  0.605100  0.010900  1.0  0.0695
  H  H128  1  0.189500  0.621900  0.099700  1.0  0.0704
  H  H129  1  0.213300  0.553800  0.133900  1.0  0.075
  H  H130  1  0.300800  0.562100  0.210200  1.0  0.1037
  H  H131  1  0.309000  0.498700  0.070100  1.0  0.059
  H  H132  1  0.337900  0.555700  0.022200  1.0  0.0526
  H  H133  1  0.741000  0.105100  0.010900  1.0  0.0695
  H  H134  1  0.689500  0.121900  0.099700  1.0  0.0704
  H  H135  1  0.713300  0.053800  0.133900  1.0  0.075
  H  H136  1  0.800800  0.062100  0.210200  1.0  0.1037
  H  H137  1  0.809000  0.998700  0.070100  1.0  0.059
  H  H138  1  0.837900  0.055700  0.022200  1.0  0.0526
  H  H139  1  0.741000  0.605100  0.510900  1.0  0.0695
  H  H140  1  0.689500  0.621900  0.599700  1.0  0.0704
  H  H141  1  0.713300  0.553800  0.633900  1.0  0.075
  H  H142  1  0.800800  0.562100  0.710200  1.0  0.1037
  H  H143  1  0.809000  0.498700  0.570100  1.0  0.059
  H  H144  1  0.837900  0.555700  0.522200  1.0  0.0526
  H  H145  1  0.241000  0.894900  0.489100  1.0  0.0696
  H  H146  1  0.189500  0.878100  0.400300  1.0  0.0709
  H  H147  1  0.213300  0.946200  0.366100  1.0  0.0732
  H  H148  1  0.300800  0.937900  0.289800  1.0  0.104
  H  H149  1  0.309000  0.001300  0.429900  1.0  0.0607
  H  H150  1  0.337900  0.944300  0.477800  1.0  0.051
  H  H151  1  0.241000  0.394900  0.989100  1.0  0.0696
  H  H152  1  0.189500  0.378100  0.900300  1.0  0.0709
  H  H153  1  0.213300  0.446200  0.866100  1.0  0.0732
  H  H154  1  0.300800  0.437900  0.789800  1.0  0.104
  H  H155  1  0.309000  0.501300  0.929900  1.0  0.0607
  H  H156  1  0.337900  0.444300  0.977800  1.0  0.051
  H  H157  1  0.741000  0.894900  0.989100  1.0  0.0696
  H  H158  1  0.689500  0.878100  0.900300  1.0  0.0709
  H  H159  1  0.713300  0.946200  0.866100  1.0  0.0732
  H  H160  1  0.800800  0.937900  0.789800  1.0  0.104
  H  H161  1  0.809000  0.001300  0.929900  1.0  0.0607
  H  H162  1  0.837900  0.944300  0.977800  1.0  0.051
  H  H163  1  0.741000  0.394900  0.489100  1.0  0.0696
  H  H164  1  0.689500  0.378100  0.400300  1.0  0.0709
  H  H165  1  0.713300  0.446200  0.366100  1.0  0.0732
  H  H166  1  0.800800  0.437900  0.289800  1.0  0.104
  H  H167  1  0.809000  0.501300  0.429900  1.0  0.0607
  H  H168  1  0.837900  0.444300  0.477800  1.0  0.051
  H  H169  1  0.759000  0.894900  0.510900  1.0  0.0694
  H  H170  1  0.810500  0.878100  0.599700  1.0  0.0699
  H  H171  1  0.786700  0.946200  0.633900  1.0  0.0719
  H  H172  1  0.699200  0.937900  0.710200  1.0  0.1036
  H  H173  1  0.691000  0.001300  0.570100  1.0  0.058
  H  H174  1  0.662100  0.944300  0.522200  1.0  0.0514
  H  H175  1  0.759000  0.394900  0.010900  1.0  0.0694
  H  H176  1  0.810500  0.378100  0.099700  1.0  0.0699
  H  H177  1  0.786700  0.446200  0.133900  1.0  0.0719
  H  H178  1  0.699200  0.437900  0.210200  1.0  0.1036
  H  H179  1  0.691000  0.501300  0.070100  1.0  0.058
  H  H180  1  0.662100  0.444300  0.022200  1.0  0.0514
  H  H181  1  0.259000  0.894900  0.010900  1.0  0.0694
  H  H182  1  0.310500  0.878100  0.099700  1.0  0.0699
  H  H183  1  0.286700  0.946200  0.133900  1.0  0.0719
  H  H184  1  0.199200  0.937900  0.210200  1.0  0.1036
  H  H185  1  0.191000  0.001300  0.070100  1.0  0.058
  H  H186  1  0.162100  0.944300  0.022200  1.0  0.0514
  H  H187  1  0.259000  0.394900  0.510900  1.0  0.0694
  H  H188  1  0.310500  0.378100  0.599700  1.0  0.0699
  H  H189  1  0.286700  0.446200  0.633900  1.0  0.0719
  H  H190  1  0.199200  0.437900  0.710200  1.0  0.1036
  H  H191  1  0.191000  0.501300  0.570100  1.0  0.058
  H  H192  1  0.162100  0.444300  0.522200  1.0  0.0514
  H  H193  1  0.759000  0.105100  0.489100  1.0  0.0671
  H  H194  1  0.810500  0.121900  0.400300  1.0  0.0701
  H  H195  1  0.786700  0.053800  0.366100  1.0  0.0742
  H  H196  1  0.699200  0.062100  0.289800  1.0  0.1034
  H  H197  1  0.691000  0.998700  0.429900  1.0  0.0601
  H  H198  1  0.662100  0.055700  0.477800  1.0  0.0513
  H  H199  1  0.759000  0.605100  0.989100  1.0  0.0671
  H  H200  1  0.810500  0.621900  0.900300  1.0  0.0701
  H  H201  1  0.786700  0.553800  0.866100  1.0  0.0742
  H  H202  1  0.699200  0.562100  0.789800  1.0  0.1034
  H  H203  1  0.691000  0.498700  0.929900  1.0  0.0601
  H  H204  1  0.662100  0.555700  0.977800  1.0  0.0513
  H  H205  1  0.259000  0.105100  0.989100  1.0  0.0671
  H  H206  1  0.310500  0.121900  0.900300  1.0  0.0701
  H  H207  1  0.286700  0.053800  0.866100  1.0  0.0742
  H  H208  1  0.199200  0.062100  0.789800  1.0  0.1034
  H  H209  1  0.191000  0.998700  0.929900  1.0  0.0601
  H  H210  1  0.162100  0.055700  0.977800  1.0  0.0513
  H  H211  1  0.259000  0.605100  0.489100  1.0  0.0671
  H  H212  1  0.310500  0.621900  0.400300  1.0  0.0701
  H  H213  1  0.286700  0.553800  0.366100  1.0  0.0742
  H  H214  1  0.199200  0.562100  0.289800  1.0  0.1034
  H  H215  1  0.191000  0.498700  0.429900  1.0  0.0601
  H  H216  1  0.162100  0.555700  0.477800  1.0  0.0513
  H  H217  1  0.510900  0.241000  0.105100  1.0  0.0688
  H  H218  1  0.599700  0.189500  0.121900  1.0  0.0709
  H  H219  1  0.633900  0.213300  0.053800  1.0  0.0729
  H  H220  1  0.710200  0.300800  0.062100  1.0  0.1042
  H  H221  1  0.570100  0.309000  0.998700  1.0  0.0541
  H  H222  1  0.522200  0.337900  0.055700  1.0  0.0508
  H  H223  1  0.510900  0.741000  0.605100  1.0  0.0688
  H  H224  1  0.599700  0.689500  0.621900  1.0  0.0709
  H  H225  1  0.633900  0.713300  0.553800  1.0  0.0729
  H  H226  1  0.710200  0.800800  0.562100  1.0  0.1042
  H  H227  1  0.570100  0.809000  0.498700  1.0  0.0541
  H  H228  1  0.522200  0.837900  0.555700  1.0  0.0508
  H  H229  1  0.010900  0.241000  0.605100  1.0  0.0688
  H  H230  1  0.099700  0.189500  0.621900  1.0  0.0709
  H  H231  1  0.133900  0.213300  0.553800  1.0  0.0729
  H  H232  1  0.210200  0.300800  0.562100  1.0  0.1042
  H  H233  1  0.070100  0.309000  0.498700  1.0  0.0541
  H  H234  1  0.022200  0.337900  0.555700  1.0  0.0508
  H  H235  1  0.010900  0.741000  0.105100  1.0  0.0688
  H  H236  1  0.099700  0.689500  0.121900  1.0  0.0709
  H  H237  1  0.133900  0.713300  0.053800  1.0  0.0729
  H  H238  1  0.210200  0.800800  0.062100  1.0  0.1042
  H  H239  1  0.070100  0.809000  0.998700  1.0  0.0541
  H  H240  1  0.022200  0.837900  0.055700  1.0  0.0508
  H  H241  1  0.489100  0.241000  0.894900  1.0  0.0709
  H  H242  1  0.400300  0.189500  0.878100  1.0  0.0717
  H  H243  1  0.366100  0.213300  0.946200  1.0  0.0714
  H  H244  1  0.289800  0.300800  0.937900  1.0  0.104
  H  H245  1  0.429900  0.309000  0.001300  1.0  0.0528
  H  H246  1  0.477800  0.337900  0.944300  1.0  0.0514
  H  H247  1  0.489100  0.741000  0.394900  1.0  0.0709
  H  H248  1  0.400300  0.689500  0.378100  1.0  0.0717
  H  H249  1  0.366100  0.713300  0.446200  1.0  0.0714
  H  H250  1  0.289800  0.800800  0.437900  1.0  0.104
  H  H251  1  0.429900  0.809000  0.501300  1.0  0.0528
  H  H252  1  0.477800  0.837900  0.444300  1.0  0.0514
  H  H253  1  0.989100  0.241000  0.394900  1.0  0.0709
  H  H254  1  0.900300  0.189500  0.378100  1.0  0.0717
  H  H255  1  0.866100  0.213300  0.446200  1.0  0.0714
  H  H256  1  0.789800  0.300800  0.437900  1.0  0.104
  H  H257  1  0.929900  0.309000  0.501300  1.0  0.0528
  H  H258  1  0.977800  0.337900  0.444300  1.0  0.0514
  H  H259  1  0.989100  0.741000  0.894900  1.0  0.0709
  H  H260  1  0.900300  0.689500  0.878100  1.0  0.0717
  H  H261  1  0.866100  0.713300  0.946200  1.0  0.0714
  H  H262  1  0.789800  0.800800  0.937900  1.0  0.104
  H  H263  1  0.929900  0.809000  0.001300  1.0  0.0528
  H  H264  1  0.977800  0.837900  0.944300  1.0  0.0514
  H  H265  1  0.510900  0.759000  0.894900  1.0  0.0691
  H  H266  1  0.599700  0.810500  0.878100  1.0  0.0711
  H  H267  1  0.633900  0.786700  0.946200  1.0  0.0712
  H  H268  1  0.710200  0.699200  0.937900  1.0  0.1033
  H  H269  1  0.570100  0.691000  0.001300  1.0  0.0537
  H  H270  1  0.522200  0.662100  0.944300  1.0  0.05
  H  H271  1  0.510900  0.259000  0.394900  1.0  0.0691
  H  H272  1  0.599700  0.310500  0.378100  1.0  0.0711
  H  H273  1  0.633900  0.286700  0.446200  1.0  0.0712
  H  H274  1  0.710200  0.199200  0.437900  1.0  0.1033
  H  H275  1  0.570100  0.191000  0.501300  1.0  0.0537
  H  H276  1  0.522200  0.162100  0.444300  1.0  0.05
  H  H277  1  0.010900  0.759000  0.394900  1.0  0.0691
  H  H278  1  0.099700  0.810500  0.378100  1.0  0.0711
  H  H279  1  0.133900  0.786700  0.446200  1.0  0.0712
  H  H280  1  0.210200  0.699200  0.437900  1.0  0.1033
  H  H281  1  0.070100  0.691000  0.501300  1.0  0.0537
  H  H282  1  0.022200  0.662100  0.444300  1.0  0.05
  H  H283  1  0.010900  0.259000  0.894900  1.0  0.0691
  H  H284  1  0.099700  0.310500  0.878100  1.0  0.0711
  H  H285  1  0.133900  0.286700  0.946200  1.0  0.0712
  H  H286  1  0.210200  0.199200  0.937900  1.0  0.1033
  H  H287  1  0.070100  0.191000  0.001300  1.0  0.0537
  H  H288  1  0.022200  0.162100  0.944300  1.0  0.05
  H  H289  1  0.489100  0.759000  0.105100  1.0  0.0709
  H  H290  1  0.400300  0.810500  0.121900  1.0  0.0704
  H  H291  1  0.366100  0.786700  0.053800  1.0  0.072
  H  H292  1  0.289800  0.699200  0.062100  1.0  0.1041
  H  H293  1  0.429900  0.691000  0.998700  1.0  0.0526
  H  H294  1  0.477800  0.662100  0.055700  1.0  0.0518
  H  H295  1  0.489100  0.259000  0.605100  1.0  0.0709
  H  H296  1  0.400300  0.310500  0.621900  1.0  0.0704
  H  H297  1  0.366100  0.286700  0.553800  1.0  0.072
  H  H298  1  0.289800  0.199200  0.562100  1.0  0.1041
  H  H299  1  0.429900  0.191000  0.498700  1.0  0.0526
  H  H300  1  0.477800  0.162100  0.555700  1.0  0.0518
  H  H301  1  0.989100  0.759000  0.605100  1.0  0.0709
  H  H302  1  0.900300  0.810500  0.621900  1.0  0.0704
  H  H303  1  0.866100  0.786700  0.553800  1.0  0.072
  H  H304  1  0.789800  0.699200  0.562100  1.0  0.1041
  H  H305  1  0.929900  0.691000  0.498700  1.0  0.0526
  H  H306  1  0.977800  0.662100  0.555700  1.0  0.0518
  H  H307  1  0.989100  0.259000  0.105100  1.0  0.0709
  H  H308  1  0.900300  0.310500  0.121900  1.0  0.0704
  H  H309  1  0.866100  0.286700  0.053800  1.0  0.072
  H  H310  1  0.789800  0.199200  0.062100  1.0  0.1041
  H  H311  1  0.929900  0.191000  0.998700  1.0  0.0526
  H  H312  1  0.977800  0.162100  0.055700  1.0  0.0518
  C  C313  1  0.089970  0.603000  0.227110  1.0  -0.0418
  C  C314  1  0.125130  0.632000  0.286110  1.0  0.0737
  C  C315  1  0.100700  0.688540  0.317990  1.0  -0.2323
  C  C316  1  0.023670  0.528290  0.300730  1.0  0.0061
  C  C317  1  0.089970  0.103000  0.727110  1.0  -0.0418
  C  C318  1  0.125130  0.132000  0.786110  1.0  0.0737
  C  C319  1  0.100700  0.188540  0.817990  1.0  -0.2323
  C  C320  1  0.023670  0.028290  0.800730  1.0  0.0061
  C  C321  1  0.589970  0.603000  0.727110  1.0  -0.0418
  C  C322  1  0.625130  0.632000  0.786110  1.0  0.0737
  C  C323  1  0.600700  0.688540  0.817990  1.0  -0.2323
  C  C324  1  0.523670  0.528290  0.800730  1.0  0.0061
  C  C325  1  0.589970  0.103000  0.227110  1.0  -0.0418
  C  C326  1  0.625130  0.132000  0.286110  1.0  0.0737
  C  C327  1  0.600700  0.188540  0.317990  1.0  -0.2323
  C  C328  1  0.523670  0.028290  0.300730  1.0  0.0061
  C  C329  1  0.910030  0.397000  0.227110  1.0  -0.0415
  C  C330  1  0.874870  0.368000  0.286110  1.0  0.0725
  C  C331  1  0.899300  0.311460  0.317990  1.0  -0.2306
  C  C332  1  0.976330  0.471710  0.300730  1.0  0.0058
  C  C333  1  0.910030  0.897000  0.727110  1.0  -0.0415
  C  C334  1  0.874870  0.868000  0.786110  1.0  0.0725
  C  C335  1  0.899300  0.811460  0.817990  1.0  -0.2306
  C  C336  1  0.976330  0.971710  0.800730  1.0  0.0058
  C  C337  1  0.410030  0.397000  0.727110  1.0  -0.0415
  C  C338  1  0.374870  0.368000  0.786110  1.0  0.0725
  C  C339  1  0.399300  0.311460  0.817990  1.0  -0.2306
  C  C340  1  0.476330  0.471710  0.800730  1.0  0.0058
  C  C341  1  0.410030  0.897000  0.227110  1.0  -0.0415
  C  C342  1  0.374870  0.868000  0.286110  1.0  0.0725
  C  C343  1  0.399300  0.811460  0.317990  1.0  -0.2306
  C  C344  1  0.476330  0.971710  0.300730  1.0  0.0058
  C  C345  1  0.910030  0.603000  0.772890  1.0  -0.044
  C  C346  1  0.874870  0.632000  0.713890  1.0  0.072
  C  C347  1  0.899300  0.688540  0.682010  1.0  -0.2316
  C  C348  1  0.976330  0.528290  0.699270  1.0  0.0054
  C  C349  1  0.910030  0.103000  0.272890  1.0  -0.044
  C  C350  1  0.874870  0.132000  0.213890  1.0  0.072
  C  C351  1  0.899300  0.188540  0.182010  1.0  -0.2316
  C  C352  1  0.976330  0.028290  0.199270  1.0  0.0054
  C  C353  1  0.410030  0.603000  0.272890  1.0  -0.044
  C  C354  1  0.374870  0.632000  0.213890  1.0  0.072
  C  C355  1  0.399300  0.688540  0.182010  1.0  -0.2316
  C  C356  1  0.476330  0.528290  0.199270  1.0  0.0054
  C  C357  1  0.410030  0.103000  0.772890  1.0  -0.044
  C  C358  1  0.374870  0.132000  0.713890  1.0  0.072
  C  C359  1  0.399300  0.188540  0.682010  1.0  -0.2316
  C  C360  1  0.476330  0.028290  0.699270  1.0  0.0054
  C  C361  1  0.089970  0.397000  0.772890  1.0  -0.0449
  C  C362  1  0.125130  0.368000  0.713890  1.0  0.0734
  C  C363  1  0.100700  0.311460  0.682010  1.0  -0.2318
  C  C364  1  0.023670  0.471710  0.699270  1.0  0.0058
  C  C365  1  0.089970  0.897000  0.272890  1.0  -0.0449
  C  C366  1  0.125130  0.868000  0.213890  1.0  0.0734
  C  C367  1  0.100700  0.811460  0.182010  1.0  -0.2318
  C  C368  1  0.023670  0.971710  0.199270  1.0  0.0058
  C  C369  1  0.589970  0.397000  0.272890  1.0  -0.0449
  C  C370  1  0.625130  0.368000  0.213890  1.0  0.0734
  C  C371  1  0.600700  0.311460  0.182010  1.0  -0.2318
  C  C372  1  0.523670  0.471710  0.199270  1.0  0.0058
  C  C373  1  0.589970  0.897000  0.772890  1.0  -0.0449
  C  C374  1  0.625130  0.868000  0.713890  1.0  0.0734
  C  C375  1  0.600700  0.811460  0.682010  1.0  -0.2318
  C  C376  1  0.523670  0.971710  0.699270  1.0  0.0058
  C  C377  1  0.227110  0.089970  0.603000  1.0  -0.0363
  C  C378  1  0.286110  0.125130  0.632000  1.0  0.0731
  C  C379  1  0.317990  0.100700  0.688540  1.0  -0.2303
  C  C380  1  0.300730  0.023670  0.528290  1.0  0.0079
  C  C381  1  0.227110  0.589970  0.103000  1.0  -0.0363
  C  C382  1  0.286110  0.625130  0.132000  1.0  0.0731
  C  C383  1  0.317990  0.600700  0.188540  1.0  -0.2303
  C  C384  1  0.300730  0.523670  0.028290  1.0  0.0079
  C  C385  1  0.727110  0.089970  0.103000  1.0  -0.0363
  C  C386  1  0.786110  0.125130  0.132000  1.0  0.0731
  C  C387  1  0.817990  0.100700  0.188540  1.0  -0.2303
  C  C388  1  0.800730  0.023670  0.028290  1.0  0.0079
  C  C389  1  0.727110  0.589970  0.603000  1.0  -0.0363
  C  C390  1  0.786110  0.625130  0.632000  1.0  0.0731
  C  C391  1  0.817990  0.600700  0.688540  1.0  -0.2303
  C  C392  1  0.800730  0.523670  0.528290  1.0  0.0079
  C  C393  1  0.227110  0.910030  0.397000  1.0  -0.0364
  C  C394  1  0.286110  0.874870  0.368000  1.0  0.073
  C  C395  1  0.317990  0.899300  0.311460  1.0  -0.2303
  C  C396  1  0.300730  0.976330  0.471710  1.0  0.0085
  C  C397  1  0.227110  0.410030  0.897000  1.0  -0.0364
  C  C398  1  0.286110  0.374870  0.868000  1.0  0.073
  C  C399  1  0.317990  0.399300  0.811460  1.0  -0.2303
  C  C400  1  0.300730  0.476330  0.971710  1.0  0.0085
  C  C401  1  0.727110  0.910030  0.897000  1.0  -0.0364
  C  C402  1  0.786110  0.874870  0.868000  1.0  0.073
  C  C403  1  0.817990  0.899300  0.811460  1.0  -0.2303
  C  C404  1  0.800730  0.976330  0.971710  1.0  0.0085
  C  C405  1  0.727110  0.410030  0.397000  1.0  -0.0364
  C  C406  1  0.786110  0.374870  0.368000  1.0  0.073
  C  C407  1  0.817990  0.399300  0.311460  1.0  -0.2303
  C  C408  1  0.800730  0.476330  0.471710  1.0  0.0085
  C  C409  1  0.772890  0.910030  0.603000  1.0  -0.0341
  C  C410  1  0.713890  0.874870  0.632000  1.0  0.0736
  C  C411  1  0.682010  0.899300  0.688540  1.0  -0.2309
  C  C412  1  0.699270  0.976330  0.528290  1.0  0.008
  C  C413  1  0.772890  0.410030  0.103000  1.0  -0.0341
  C  C414  1  0.713890  0.374870  0.132000  1.0  0.0736
  C  C415  1  0.682010  0.399300  0.188540  1.0  -0.2309
  C  C416  1  0.699270  0.476330  0.028290  1.0  0.008
  C  C417  1  0.272890  0.910030  0.103000  1.0  -0.0341
  C  C418  1  0.213890  0.874870  0.132000  1.0  0.0736
  C  C419  1  0.182010  0.899300  0.188540  1.0  -0.2309
  C  C420  1  0.199270  0.976330  0.028290  1.0  0.008
  C  C421  1  0.272890  0.410030  0.603000  1.0  -0.0341
  C  C422  1  0.213890  0.374870  0.632000  1.0  0.0736
  C  C423  1  0.182010  0.399300  0.688540  1.0  -0.2309
  C  C424  1  0.199270  0.476330  0.528290  1.0  0.008
  C  C425  1  0.772890  0.089970  0.397000  1.0  -0.0353
  C  C426  1  0.713890  0.125130  0.368000  1.0  0.0739
  C  C427  1  0.682010  0.100700  0.311460  1.0  -0.2302
  C  C428  1  0.699270  0.023670  0.471710  1.0  0.0086
  C  C429  1  0.772890  0.589970  0.897000  1.0  -0.0353
  C  C430  1  0.713890  0.625130  0.868000  1.0  0.0739
  C  C431  1  0.682010  0.600700  0.811460  1.0  -0.2302
  C  C432  1  0.699270  0.523670  0.971710  1.0  0.0086
  C  C433  1  0.272890  0.089970  0.897000  1.0  -0.0353
  C  C434  1  0.213890  0.125130  0.868000  1.0  0.0739
  C  C435  1  0.182010  0.100700  0.811460  1.0  -0.2302
  C  C436  1  0.199270  0.023670  0.971710  1.0  0.0086
  C  C437  1  0.272890  0.589970  0.397000  1.0  -0.0353
  C  C438  1  0.213890  0.625130  0.368000  1.0  0.0739
  C  C439  1  0.182010  0.600700  0.311460  1.0  -0.2302
  C  C440  1  0.199270  0.523670  0.471710  1.0  0.0086
  C  C441  1  0.603000  0.227110  0.089970  1.0  -0.0408
  C  C442  1  0.632000  0.286110  0.125130  1.0  0.0756
  C  C443  1  0.688540  0.317990  0.100700  1.0  -0.2319
  C  C444  1  0.528290  0.300730  0.023670  1.0  0.0057
  C  C445  1  0.603000  0.727110  0.589970  1.0  -0.0408
  C  C446  1  0.632000  0.786110  0.625130  1.0  0.0756
  C  C447  1  0.688540  0.817990  0.600700  1.0  -0.2319
  C  C448  1  0.528290  0.800730  0.523670  1.0  0.0057
  C  C449  1  0.103000  0.227110  0.589970  1.0  -0.0408
  C  C450  1  0.132000  0.286110  0.625130  1.0  0.0756
  C  C451  1  0.188540  0.317990  0.600700  1.0  -0.2319
  C  C452  1  0.028290  0.300730  0.523670  1.0  0.0057
  C  C453  1  0.103000  0.727110  0.089970  1.0  -0.0408
  C  C454  1  0.132000  0.786110  0.125130  1.0  0.0756
  C  C455  1  0.188540  0.817990  0.100700  1.0  -0.2319
  C  C456  1  0.028290  0.800730  0.023670  1.0  0.0057
  C  C457  1  0.397000  0.227110  0.910030  1.0  -0.0403
  C  C458  1  0.368000  0.286110  0.874870  1.0  0.0747
  C  C459  1  0.311460  0.317990  0.899300  1.0  -0.2319
  C  C460  1  0.471710  0.300730  0.976330  1.0  0.0059
  C  C461  1  0.397000  0.727110  0.410030  1.0  -0.0403
  C  C462  1  0.368000  0.786110  0.374870  1.0  0.0747
  C  C463  1  0.311460  0.817990  0.399300  1.0  -0.2319
  C  C464  1  0.471710  0.800730  0.476330  1.0  0.0059
  C  C465  1  0.897000  0.227110  0.410030  1.0  -0.0403
  C  C466  1  0.868000  0.286110  0.374870  1.0  0.0747
  C  C467  1  0.811460  0.317990  0.399300  1.0  -0.2319
  C  C468  1  0.971710  0.300730  0.476330  1.0  0.0059
  C  C469  1  0.897000  0.727110  0.910030  1.0  -0.0403
  C  C470  1  0.868000  0.786110  0.874870  1.0  0.0747
  C  C471  1  0.811460  0.817990  0.899300  1.0  -0.2319
  C  C472  1  0.971710  0.800730  0.976330  1.0  0.0059
  C  C473  1  0.603000  0.772890  0.910030  1.0  -0.0414
  C  C474  1  0.632000  0.713890  0.874870  1.0  0.0754
  C  C475  1  0.688540  0.682010  0.899300  1.0  -0.2323
  C  C476  1  0.528290  0.699270  0.976330  1.0  0.0047
  C  C477  1  0.603000  0.272890  0.410030  1.0  -0.0414
  C  C478  1  0.632000  0.213890  0.374870  1.0  0.0754
  C  C479  1  0.688540  0.182010  0.399300  1.0  -0.2323
  C  C480  1  0.528290  0.199270  0.476330  1.0  0.0047
  C  C481  1  0.103000  0.772890  0.410030  1.0  -0.0414
  C  C482  1  0.132000  0.713890  0.374870  1.0  0.0754
  C  C483  1  0.188540  0.682010  0.399300  1.0  -0.2323
  C  C484  1  0.028290  0.699270  0.476330  1.0  0.0047
  C  C485  1  0.103000  0.272890  0.910030  1.0  -0.0414
  C  C486  1  0.132000  0.213890  0.874870  1.0  0.0754
  C  C487  1  0.188540  0.182010  0.899300  1.0  -0.2323
  C  C488  1  0.028290  0.199270  0.976330  1.0  0.0047
  C  C489  1  0.397000  0.772890  0.089970  1.0  -0.0411
  C  C490  1  0.368000  0.713890  0.125130  1.0  0.074
  C  C491  1  0.311460  0.682010  0.100700  1.0  -0.2321
  C  C492  1  0.471710  0.699270  0.023670  1.0  0.0056
  C  C493  1  0.397000  0.272890  0.589970  1.0  -0.0411
  C  C494  1  0.368000  0.213890  0.625130  1.0  0.074
  C  C495  1  0.311460  0.182010  0.600700  1.0  -0.2321
  C  C496  1  0.471710  0.199270  0.523670  1.0  0.0056
  C  C497  1  0.897000  0.772890  0.589970  1.0  -0.0411
  C  C498  1  0.868000  0.713890  0.625130  1.0  0.074
  C  C499  1  0.811460  0.682010  0.600700  1.0  -0.2321
  C  C500  1  0.971710  0.699270  0.523670  1.0  0.0056
  C  C501  1  0.897000  0.272890  0.089970  1.0  -0.0411
  C  C502  1  0.868000  0.213890  0.125130  1.0  0.074
  C  C503  1  0.811460  0.182010  0.100700  1.0  -0.2321
  C  C504  1  0.971710  0.199270  0.023670  1.0  0.0056
  C  C505  1  0.929980  0.570020  0.070020  1.0  0.7766
  C  C506  1  0.070020  0.429980  0.070020  1.0  0.7764
  C  C507  1  0.070020  0.570020  0.929980  1.0  0.775
  C  C508  1  0.929980  0.429980  0.929980  1.0  0.776
  C  C509  1  0.070020  0.929980  0.570020  1.0  0.7764
  C  C510  1  0.070020  0.070020  0.429980  1.0  0.775
  C  C511  1  0.929980  0.070020  0.570020  1.0  0.7766
  C  C512  1  0.929980  0.929980  0.429980  1.0  0.776
  C  C513  1  0.570020  0.070020  0.929980  1.0  0.775
  C  C514  1  0.570020  0.570020  0.429980  1.0  0.775
  C  C515  1  0.429980  0.070020  0.070020  1.0  0.7766
  C  C516  1  0.429980  0.570020  0.570020  1.0  0.7766
  C  C517  1  0.570020  0.929980  0.070020  1.0  0.7764
  C  C518  1  0.570020  0.429980  0.570020  1.0  0.7764
  C  C519  1  0.429980  0.929980  0.929980  1.0  0.776
  C  C520  1  0.429980  0.429980  0.429980  1.0  0.776
  N  N521  1  0.060000  0.534730  0.239900  1.0  -0.3032
  N  N522  1  0.060000  0.034730  0.739900  1.0  -0.3032
  N  N523  1  0.560000  0.534730  0.739900  1.0  -0.3032
  N  N524  1  0.560000  0.034730  0.239900  1.0  -0.3032
  N  N525  1  0.940000  0.465270  0.239900  1.0  -0.3049
  N  N526  1  0.940000  0.965270  0.739900  1.0  -0.3049
  N  N527  1  0.440000  0.465270  0.739900  1.0  -0.3049
  N  N528  1  0.440000  0.965270  0.239900  1.0  -0.3049
  N  N529  1  0.940000  0.534730  0.760100  1.0  -0.3038
  N  N530  1  0.940000  0.034730  0.260100  1.0  -0.3038
  N  N531  1  0.440000  0.534730  0.260100  1.0  -0.3038
  N  N532  1  0.440000  0.034730  0.760100  1.0  -0.3038
  N  N533  1  0.060000  0.465270  0.760100  1.0  -0.3036
  N  N534  1  0.060000  0.965270  0.260100  1.0  -0.3036
  N  N535  1  0.560000  0.465270  0.260100  1.0  -0.3036
  N  N536  1  0.560000  0.965270  0.760100  1.0  -0.3036
  N  N537  1  0.239900  0.060000  0.534730  1.0  -0.2991
  N  N538  1  0.239900  0.560000  0.034730  1.0  -0.2991
  N  N539  1  0.739900  0.060000  0.034730  1.0  -0.2991
  N  N540  1  0.739900  0.560000  0.534730  1.0  -0.2991
  N  N541  1  0.239900  0.940000  0.465270  1.0  -0.302
  N  N542  1  0.239900  0.440000  0.965270  1.0  -0.302
  N  N543  1  0.739900  0.940000  0.965270  1.0  -0.302
  N  N544  1  0.739900  0.440000  0.465270  1.0  -0.302
  N  N545  1  0.760100  0.940000  0.534730  1.0  -0.2992
  N  N546  1  0.760100  0.440000  0.034730  1.0  -0.2992
  N  N547  1  0.260100  0.940000  0.034730  1.0  -0.2992
  N  N548  1  0.260100  0.440000  0.534730  1.0  -0.2992
  N  N549  1  0.760100  0.060000  0.465270  1.0  -0.3015
  N  N550  1  0.760100  0.560000  0.965270  1.0  -0.3015
  N  N551  1  0.260100  0.060000  0.965270  1.0  -0.3015
  N  N552  1  0.260100  0.560000  0.465270  1.0  -0.3015
  N  N553  1  0.534730  0.239900  0.060000  1.0  -0.307
  N  N554  1  0.534730  0.739900  0.560000  1.0  -0.307
  N  N555  1  0.034730  0.239900  0.560000  1.0  -0.307
  N  N556  1  0.034730  0.739900  0.060000  1.0  -0.307
  N  N557  1  0.465270  0.239900  0.940000  1.0  -0.3105
  N  N558  1  0.465270  0.739900  0.440000  1.0  -0.3105
  N  N559  1  0.965270  0.239900  0.440000  1.0  -0.3105
  N  N560  1  0.965270  0.739900  0.940000  1.0  -0.3105
  N  N561  1  0.534730  0.760100  0.940000  1.0  -0.3092
  N  N562  1  0.534730  0.260100  0.440000  1.0  -0.3092
  N  N563  1  0.034730  0.760100  0.440000  1.0  -0.3092
  N  N564  1  0.034730  0.260100  0.940000  1.0  -0.3092
  N  N565  1  0.465270  0.760100  0.060000  1.0  -0.3081
  N  N566  1  0.465270  0.260100  0.560000  1.0  -0.3081
  N  N567  1  0.965270  0.760100  0.560000  1.0  -0.3081
  N  N568  1  0.965270  0.260100  0.060000  1.0  -0.3081
  O  O569  1  0.979420  0.579360  0.110050  1.0  -0.6053
  O  O570  1  0.979420  0.079360  0.610050  1.0  -0.6053
  O  O571  1  0.479420  0.579360  0.610050  1.0  -0.6053
  O  O572  1  0.479420  0.079360  0.110050  1.0  -0.6053
  O  O573  1  0.020580  0.420640  0.110050  1.0  -0.6047
  O  O574  1  0.020580  0.920640  0.610050  1.0  -0.6047
  O  O575  1  0.520580  0.420640  0.610050  1.0  -0.6047
  O  O576  1  0.520580  0.920640  0.110050  1.0  -0.6047
  O  O577  1  0.020580  0.579360  0.889950  1.0  -0.6055
  O  O578  1  0.020580  0.079360  0.389950  1.0  -0.6055
  O  O579  1  0.520580  0.579360  0.389950  1.0  -0.6055
  O  O580  1  0.520580  0.079360  0.889950  1.0  -0.6055
  O  O581  1  0.979420  0.420640  0.889950  1.0  -0.6058
  O  O582  1  0.979420  0.920640  0.389950  1.0  -0.6058
  O  O583  1  0.479420  0.420640  0.389950  1.0  -0.6058
  O  O584  1  0.479420  0.920640  0.889950  1.0  -0.6058
  O  O585  1  0.110050  0.979420  0.579360  1.0  -0.6071
  O  O586  1  0.110050  0.479420  0.079360  1.0  -0.6071
  O  O587  1  0.610050  0.979420  0.079360  1.0  -0.6071
  O  O588  1  0.610050  0.479420  0.579360  1.0  -0.6071
  O  O589  1  0.110050  0.020580  0.420640  1.0  -0.6065
  O  O590  1  0.110050  0.520580  0.920640  1.0  -0.6065
  O  O591  1  0.610050  0.020580  0.920640  1.0  -0.6065
  O  O592  1  0.610050  0.520580  0.420640  1.0  -0.6065
  O  O593  1  0.889950  0.020580  0.579360  1.0  -0.6069
  O  O594  1  0.889950  0.520580  0.079360  1.0  -0.6069
  O  O595  1  0.389950  0.020580  0.079360  1.0  -0.6069
  O  O596  1  0.389950  0.520580  0.579360  1.0  -0.6069
  O  O597  1  0.889950  0.979420  0.420640  1.0  -0.6077
  O  O598  1  0.889950  0.479420  0.920640  1.0  -0.6077
  O  O599  1  0.389950  0.979420  0.920640  1.0  -0.6077
  O  O600  1  0.389950  0.479420  0.420640  1.0  -0.6077
  O  O601  1  0.579360  0.110050  0.979420  1.0  -0.6074
  O  O602  1  0.579360  0.610050  0.479420  1.0  -0.6074
  O  O603  1  0.079360  0.110050  0.479420  1.0  -0.6074
  O  O604  1  0.079360  0.610050  0.979420  1.0  -0.6074
  O  O605  1  0.420640  0.110050  0.020580  1.0  -0.6071
  O  O606  1  0.420640  0.610050  0.520580  1.0  -0.6071
  O  O607  1  0.920640  0.110050  0.520580  1.0  -0.6071
  O  O608  1  0.920640  0.610050  0.020580  1.0  -0.6071
  O  O609  1  0.579360  0.889950  0.020580  1.0  -0.608
  O  O610  1  0.579360  0.389950  0.520580  1.0  -0.608
  O  O611  1  0.079360  0.889950  0.520580  1.0  -0.608
  O  O612  1  0.079360  0.389950  0.020580  1.0  -0.608
  O  O613  1  0.420640  0.889950  0.979420  1.0  -0.6078
  O  O614  1  0.420640  0.389950  0.479420  1.0  -0.6078
  O  O615  1  0.920640  0.889950  0.479420  1.0  -0.6078
  O  O616  1  0.920640  0.389950  0.979420  1.0  -0.6078
