# generated using pymatgen
data_EuCuH24C33S3IO6
_symmetry_space_group_name_H-M   'P 1'
_cell_length_a   9.11600000
_cell_length_b   15.12800000
_cell_length_c   18.51700000
_cell_angle_alpha   102.48000000
_cell_angle_beta   99.37100000
_cell_angle_gamma   106.81900000
_symmetry_Int_Tables_number   1
_chemical_formula_structural   EuCuH24C33S3IO6
_chemical_formula_sum   'Eu2 Cu2 H48 C66 S6 I2 O12'
_cell_volume   2316.21088127
_cell_formula_units_Z   2
loop_
 _symmetry_equiv_pos_site_id
 _symmetry_equiv_pos_as_xyz
  1  'x, y, z'
loop_
 _atom_site_type_symbol
 _atom_site_label
 _atom_site_symmetry_multiplicity
 _atom_site_fract_x
 _atom_site_fract_y
 _atom_site_fract_z
 _atom_site_occupancy
 _atom_site_charge
  Eu  Eu1  1  0.198980  0.466330  0.498470  1.0  2.1781
  Eu  Eu2  1  0.801020  0.533670  0.501530  1.0  2.1777
  Cu  Cu3  1  0.978850  0.902290  0.991240  1.0  0.2146
  Cu  Cu4  1  0.021150  0.097710  0.008760  1.0  0.2143
  H  H5  1  0.459300  0.716400  0.719200  1.0  0.0967
  H  H6  1  0.567100  0.828800  0.839200  1.0  0.1282
  H  H7  1  0.141200  0.866700  0.836800  1.0  0.139
  H  H8  1  0.042400  0.761300  0.714400  1.0  0.1011
  H  H9  1  0.628300  0.001700  0.900800  1.0  0.106
  H  H10  1  0.327200  0.809800  0.089000  1.0  0.1515
  H  H11  1  0.144900  0.748200  0.075700  1.0  0.1596
  H  H12  1  0.206800  0.861700  0.115100  1.0  0.1789
  H  H13  1  0.421600  0.453700  0.708400  1.0  0.1007
  H  H14  1  0.489800  0.469800  0.841100  1.0  0.1386
  H  H15  1  0.865100  0.705600  0.861200  1.0  0.1129
  H  H16  1  0.802300  0.684700  0.729500  1.0  0.1268
  H  H17  1  0.722500  0.459500  0.930100  1.0  0.1137
  H  H18  1  0.851900  0.744400  0.122900  1.0  0.1065
  H  H19  1  0.774600  0.441600  0.173600  1.0  0.1286
  H  H20  1  0.756200  0.330600  0.143600  1.0  0.1231
  H  H21  1  0.624100  0.369900  0.108000  1.0  0.1479
  H  H22  1  0.572200  0.785000  0.070300  1.0  0.1476
  H  H23  1  0.636700  0.890700  0.060100  1.0  0.1419
  H  H24  1  0.748700  0.853900  0.113300  1.0  0.1661
  H  H25  1  0.125300  0.579300  0.157400  1.0  0.1069
  H  H26  1  0.234700  0.575700  0.280100  1.0  0.1103
  H  H27  1  0.879900  0.649200  0.354300  1.0  0.1201
  H  H28  1  0.780600  0.661800  0.233400  1.0  0.1258
  H  H29  1  0.540700  0.283600  0.280800  1.0  0.0973
  H  H30  1  0.432900  0.171200  0.160800  1.0  0.1283
  H  H31  1  0.858800  0.133300  0.163200  1.0  0.1398
  H  H32  1  0.957600  0.238700  0.285600  1.0  0.1018
  H  H33  1  0.371700  0.998300  0.099200  1.0  0.1059
  H  H34  1  0.672800  0.190200  0.911000  1.0  0.152
  H  H35  1  0.855100  0.251800  0.924300  1.0  0.1586
  H  H36  1  0.793200  0.138300  0.884900  1.0  0.1792
  H  H37  1  0.578400  0.546300  0.291600  1.0  0.1005
  H  H38  1  0.510200  0.530200  0.158900  1.0  0.1387
  H  H39  1  0.134900  0.294400  0.138800  1.0  0.113
  H  H40  1  0.197700  0.315300  0.270500  1.0  0.1276
  H  H41  1  0.277500  0.540500  0.069900  1.0  0.1136
  H  H42  1  0.148100  0.255600  0.877100  1.0  0.1078
  H  H43  1  0.225400  0.558400  0.826400  1.0  0.1283
  H  H44  1  0.243800  0.669400  0.856400  1.0  0.1246
  H  H45  1  0.375900  0.630100  0.892000  1.0  0.1497
  H  H46  1  0.427800  0.215000  0.929700  1.0  0.1468
  H  H47  1  0.363300  0.109300  0.939900  1.0  0.1402
  H  H48  1  0.251300  0.146100  0.886700  1.0  0.1629
  H  H49  1  0.874700  0.420700  0.842600  1.0  0.107
  H  H50  1  0.765300  0.424300  0.719900  1.0  0.1097
  H  H51  1  0.120100  0.350800  0.645700  1.0  0.1188
  H  H52  1  0.219400  0.338200  0.766600  1.0  0.1255
  C  C53  1  0.162400  0.652600  0.628500  1.0  0.7596
  C  C54  1  0.237000  0.726600  0.704800  1.0  -0.1203
  C  C55  1  0.395500  0.747500  0.742900  1.0  -0.0183
  C  C56  1  0.459200  0.813100  0.814600  1.0  -0.1066
  C  C57  1  0.363700  0.855500  0.850000  1.0  0.0792
  C  C58  1  0.206000  0.836700  0.812900  1.0  -0.1331
  C  C59  1  0.148000  0.773200  0.740500  1.0  -0.0091
  C  C60  1  0.574900  0.001000  0.940700  1.0  -0.0833
  C  C61  1  0.429300  0.927000  0.927800  1.0  -0.0318
  C  C62  1  0.355600  0.926700  0.990200  1.0  -0.0945
  C  C63  1  0.218800  0.810300  0.076600  1.0  -0.4324
  C  C64  1  0.562500  0.548100  0.621300  1.0  0.7572
  C  C65  1  0.604400  0.566000  0.706600  1.0  -0.1367
  C  C66  1  0.513400  0.504400  0.739800  1.0  -0.0596
  C  C67  1  0.551700  0.513900  0.819200  1.0  -0.1683
  C  C68  1  0.685500  0.591500  0.863700  1.0  0.037
  C  C69  1  0.775200  0.653500  0.830000  1.0  -0.0925
  C  C70  1  0.738200  0.642000  0.751600  1.0  -0.0978
  C  C71  1  0.737700  0.598200  0.947900  1.0  -0.0158
  C  C72  1  0.754700  0.518700  0.968700  1.0  -0.0701
  C  C73  1  0.817100  0.520600  0.044100  1.0  -0.0257
  C  C74  1  0.860700  0.608900  0.103000  1.0  -0.0332
  C  C75  1  0.831400  0.687300  0.083600  1.0  -0.0387
  C  C76  1  0.771900  0.684700  0.007100  1.0  -0.0314
  C  C77  1  0.737400  0.385500  0.128800  1.0  -0.3961
  C  C78  1  0.665200  0.834700  0.066600  1.0  -0.4146
  C  C79  1  0.938400  0.615400  0.182100  1.0  -0.0258
  C  C80  1  0.074400  0.592700  0.197300  1.0  -0.095
  C  C81  1  0.139000  0.589100  0.270100  1.0  -0.0453
  C  C82  1  0.060400  0.605300  0.327800  1.0  -0.1239
  C  C83  1  0.929000  0.633900  0.314100  1.0  -0.064
  C  C84  1  0.868600  0.640500  0.241900  1.0  -0.0961
  C  C85  1  0.113400  0.583200  0.400700  1.0  0.6681
  C  C86  1  0.837600  0.347400  0.371500  1.0  0.7599
  C  C87  1  0.763000  0.273400  0.295200  1.0  -0.1157
  C  C88  1  0.604500  0.252500  0.257100  1.0  -0.0211
  C  C89  1  0.540800  0.186900  0.185400  1.0  -0.1101
  C  C90  1  0.636300  0.144500  0.150000  1.0  0.08
  C  C91  1  0.794000  0.163300  0.187100  1.0  -0.1338
  C  C92  1  0.852000  0.226800  0.259500  1.0  -0.0076
  C  C93  1  0.425100  0.999000  0.059300  1.0  -0.0823
  C  C94  1  0.570700  0.073000  0.072200  1.0  -0.03
  C  C95  1  0.644400  0.073300  0.009800  1.0  -0.0936
  C  C96  1  0.781200  0.189700  0.923400  1.0  -0.4363
  C  C97  1  0.437500  0.451900  0.378700  1.0  0.7547
  C  C98  1  0.395600  0.434000  0.293400  1.0  -0.1373
  C  C99  1  0.486600  0.495600  0.260200  1.0  -0.0594
  C  C100  1  0.448300  0.486100  0.180800  1.0  -0.1676
  C  C101  1  0.314500  0.408500  0.136300  1.0  0.0355
  C  C102  1  0.224800  0.346500  0.170000  1.0  -0.0897
  C  C103  1  0.261800  0.358000  0.248400  1.0  -0.0977
  C  C104  1  0.262300  0.401800  0.052100  1.0  -0.0161
  C  C105  1  0.245300  0.481300  0.031300  1.0  -0.0705
  C  C106  1  0.182900  0.479400  0.955900  1.0  -0.0256
  C  C107  1  0.139300  0.391100  0.897000  1.0  -0.0334
  C  C108  1  0.168600  0.312700  0.916400  1.0  -0.0397
  C  C109  1  0.228100  0.315300  0.992900  1.0  -0.0311
  C  C110  1  0.262600  0.614500  0.871200  1.0  -0.3988
  C  C111  1  0.334800  0.165300  0.933400  1.0  -0.4168
  C  C112  1  0.061600  0.384600  0.817900  1.0  -0.0257
  C  C113  1  0.925600  0.407300  0.802700  1.0  -0.0948
  C  C114  1  0.861000  0.410900  0.729900  1.0  -0.0474
  C  C115  1  0.939600  0.394700  0.672200  1.0  -0.1218
  C  C116  1  0.071000  0.366100  0.685900  1.0  -0.0638
  C  C117  1  0.131400  0.359500  0.758100  1.0  -0.0976
  C  C118  1  0.886600  0.416800  0.599300  1.0  0.6674
  S  S119  1  0.177000  0.831200  0.983550  1.0  -0.026
  S  S120  1  0.844500  0.412700  0.056160  1.0  0.0117
  S  S121  1  0.736000  0.787000  0.984730  1.0  -0.0227
  S  S122  1  0.823000  0.168800  0.016450  1.0  -0.025
  S  S123  1  0.155500  0.587300  0.943840  1.0  0.0109
  S  S124  1  0.264000  0.213000  0.015270  1.0  -0.0237
  I  I125  1  0.931090  0.971450  0.872790  1.0  -0.377
  I  I126  1  0.068910  0.028550  0.127210  1.0  -0.3788
  O  O127  1  0.250900  0.613100  0.593700  1.0  -0.64
  O  O128  1  0.016600  0.634900  0.601700  1.0  -0.6934
  O  O129  1  0.430800  0.488800  0.584000  1.0  -0.7468
  O  O130  1  0.665100  0.594900  0.591600  1.0  -0.7148
  O  O131  1  0.249900  0.574400  0.418400  1.0  -0.6527
  O  O132  1  0.017300  0.565600  0.443400  1.0  -0.8446
  O  O133  1  0.749100  0.386900  0.406300  1.0  -0.64
  O  O134  1  0.983400  0.365100  0.398300  1.0  -0.6942
  O  O135  1  0.569200  0.511200  0.416000  1.0  -0.7446
  O  O136  1  0.334900  0.405100  0.408400  1.0  -0.7148
  O  O137  1  0.750100  0.425600  0.581600  1.0  -0.6518
  O  O138  1  0.982700  0.434400  0.556600  1.0  -0.8456
