# generated using pymatgen
data_ZnH7C13NO4
_symmetry_space_group_name_H-M   'P 1'
_cell_length_a   13.99600000
_cell_length_b   14.62190000
_cell_length_c   18.58510000
_cell_angle_alpha   69.12450000
_cell_angle_beta   67.88050000
_cell_angle_gamma   61.40610000
_symmetry_Int_Tables_number   1
_chemical_formula_structural   ZnH7C13NO4
_chemical_formula_sum   'Zn8 H56 C104 N8 O32'
_cell_volume   3020.33710505
_cell_formula_units_Z   8
loop_
 _symmetry_equiv_pos_site_id
 _symmetry_equiv_pos_as_xyz
  1  'x, y, z'
loop_
 _atom_site_type_symbol
 _atom_site_label
 _atom_site_symmetry_multiplicity
 _atom_site_fract_x
 _atom_site_fract_y
 _atom_site_fract_z
 _atom_site_occupancy
 _atom_site_charge
  Zn  Zn1  1  0.380870  0.436280  0.101580  1.0  0.9493
  Zn  Zn2  1  0.567180  0.236080  0.315680  1.0  0.9624
  Zn  Zn3  1  0.918730  0.063720  0.398420  1.0  0.9529
  Zn  Zn4  1  0.118940  0.263920  0.184320  1.0  0.9673
  Zn  Zn5  1  0.619130  0.563720  0.898420  1.0  0.9503
  Zn  Zn6  1  0.432820  0.763920  0.684320  1.0  0.9656
  Zn  Zn7  1  0.081270  0.936280  0.601580  1.0  0.9532
  Zn  Zn8  1  0.881060  0.736080  0.815680  1.0  0.9653
  H  H9  1  0.490900  0.589200  0.209000  1.0  0.1117
  H  H10  1  0.594400  0.643000  0.245400  1.0  0.1038
  H  H11  1  0.783200  0.536500  0.238700  1.0  0.1043
  H  H12  1  0.897700  0.031000  0.177000  1.0  0.1062
  H  H13  1  0.906500  0.056400  0.045000  1.0  0.1012
  H  H14  1  0.834900  0.227700  0.971500  1.0  0.1073
  H  H15  1  0.389600  0.363100  0.968500  1.0  0.077
  H  H16  1  0.480300  0.216500  0.912500  1.0  0.1339
  H  H17  1  0.667600  0.073900  0.070700  1.0  0.129
  H  H18  1  0.566800  0.224500  0.123300  1.0  0.0791
  H  H19  1  0.909500  0.866800  0.891200  1.0  0.0831
  H  H20  1  0.807900  0.008700  0.951300  1.0  0.1143
  H  H21  1  0.529800  0.032500  0.918700  1.0  0.1158
  H  H22  1  0.637300  0.880200  0.869000  1.0  0.0764
  H  H23  1  0.289100  0.910800  0.291000  1.0  0.1099
  H  H24  1  0.482800  0.857000  0.254600  1.0  0.1045
  H  H25  1  0.558400  0.963500  0.261300  1.0  0.1043
  H  H26  1  0.105700  0.469000  0.323000  1.0  0.1075
  H  H27  1  0.007900  0.443600  0.455000  1.0  0.1012
  H  H28  1  0.034100  0.272300  0.528500  1.0  0.1075
  H  H29  1  0.721200  0.136900  0.531500  1.0  0.0766
  H  H30  1  0.609300  0.283500  0.587500  1.0  0.1344
  H  H31  1  0.812200  0.426100  0.429300  1.0  0.1299
  H  H32  1  0.914600  0.275500  0.376700  1.0  0.0777
  H  H33  1  0.667500  0.633200  0.608800  1.0  0.0822
  H  H34  1  0.767900  0.491300  0.548700  1.0  0.1166
  H  H35  1  0.481000  0.467500  0.581300  1.0  0.1152
  H  H36  1  0.386500  0.619800  0.631000  1.0  0.0772
  H  H37  1  0.509100  0.410800  0.791000  1.0  0.1099
  H  H38  1  0.405600  0.357000  0.754600  1.0  0.1031
  H  H39  1  0.216800  0.463500  0.761300  1.0  0.1036
  H  H40  1  0.102300  0.969000  0.823000  1.0  0.1067
  H  H41  1  0.093500  0.943600  0.955000  1.0  0.0998
  H  H42  1  0.165100  0.772300  0.028500  1.0  0.1068
  H  H43  1  0.610400  0.636900  0.031500  1.0  0.0769
  H  H44  1  0.519700  0.783500  0.087500  1.0  0.1338
  H  H45  1  0.332400  0.926100  0.929300  1.0  0.1298
  H  H46  1  0.433200  0.775500  0.876700  1.0  0.0779
  H  H47  1  0.090500  0.133200  0.108800  1.0  0.0832
  H  H48  1  0.192100  0.991300  0.048700  1.0  0.1144
  H  H49  1  0.470200  0.967500  0.081300  1.0  0.116
  H  H50  1  0.362700  0.119800  0.131000  1.0  0.0767
  H  H51  1  0.710900  0.089200  0.709000  1.0  0.1111
  H  H52  1  0.517200  0.143000  0.745400  1.0  0.1049
  H  H53  1  0.441600  0.036500  0.738700  1.0  0.1033
  H  H54  1  0.894300  0.531000  0.677000  1.0  0.1063
  H  H55  1  0.992100  0.556400  0.545000  1.0  0.1004
  H  H56  1  0.965900  0.727700  0.471500  1.0  0.1082
  H  H57  1  0.278800  0.863100  0.468500  1.0  0.0767
  H  H58  1  0.390700  0.716500  0.412500  1.0  0.1345
  H  H59  1  0.187800  0.573900  0.570700  1.0  0.129
  H  H60  1  0.085400  0.724500  0.623300  1.0  0.0774
  H  H61  1  0.332500  0.366800  0.391200  1.0  0.0824
  H  H62  1  0.232100  0.508700  0.451300  1.0  0.1176
  H  H63  1  0.519000  0.532500  0.418700  1.0  0.1153
  H  H64  1  0.613500  0.380200  0.369000  1.0  0.0774
  C  C65  1  0.543200  0.415200  0.167800  1.0  0.6866
  C  C66  1  0.617700  0.451000  0.181800  1.0  -0.1717
  C  C67  1  0.566700  0.547000  0.206600  1.0  -0.051
  C  C68  1  0.628400  0.579800  0.227800  1.0  -0.1161
  C  C69  1  0.741900  0.516800  0.222400  1.0  -0.0296
  C  C70  1  0.794900  0.424400  0.192800  1.0  -0.1354
  C  C71  1  0.732500  0.388700  0.172500  1.0  0.0849
  C  C72  1  0.920000  0.366200  0.184800  1.0  0.6566
  C  C73  1  0.813700  0.163100  0.269100  1.0  0.712
  C  C74  1  0.822000  0.187300  0.181900  1.0  -0.167
  C  C75  1  0.869600  0.099700  0.146900  1.0  -0.0336
  C  C76  1  0.875300  0.114600  0.068200  1.0  -0.1326
  C  C77  1  0.833800  0.217500  0.024100  1.0  -0.0501
  C  C78  1  0.790400  0.306300  0.056900  1.0  -0.1163
  C  C79  1  0.783700  0.292100  0.137100  1.0  0.0771
  C  C80  1  0.751900  0.416100  0.002900  1.0  0.6602
  C  C81  1  0.446800  0.304000  0.989200  1.0  0.2019
  C  C82  1  0.502400  0.216900  0.953700  1.0  -0.217
  C  C83  1  0.590700  0.131200  0.980800  1.0  0.1079
  C  C84  1  0.612600  0.132600  0.047800  1.0  -0.2042
  C  C85  1  0.550800  0.223300  0.079500  1.0  0.1968
  C  C86  1  0.832000  0.899100  0.898100  1.0  0.1953
  C  C87  1  0.771300  0.985200  0.933600  1.0  -0.2017
  C  C88  1  0.655100  0.037600  0.943400  1.0  0.1112
  C  C89  1  0.606400  0.998500  0.915900  1.0  -0.2148
  C  C90  1  0.672400  0.908400  0.883800  1.0  0.1802
  C  C91  1  0.126200  0.084800  0.332200  1.0  0.6864
  C  C92  1  0.250500  0.049000  0.318200  1.0  -0.1728
  C  C93  1  0.320300  0.953000  0.293400  1.0  -0.0502
  C  C94  1  0.436000  0.920200  0.272200  1.0  -0.1214
  C  C95  1  0.481100  0.983200  0.277600  1.0  -0.026
  C  C96  1  0.412100  0.075600  0.307200  1.0  -0.1347
  C  C97  1  0.293700  0.111300  0.327500  1.0  0.0861
  C  C98  1  0.471000  0.133800  0.315200  1.0  0.6582
  C  C99  1  0.245900  0.336900  0.230900  1.0  0.7119
  C  C100  1  0.191200  0.312700  0.318100  1.0  -0.1665
  C  C101  1  0.116200  0.400300  0.353100  1.0  -0.0337
  C  C102  1  0.058100  0.385400  0.431800  1.0  -0.1311
  C  C103  1  0.075400  0.282500  0.475900  1.0  -0.0547
  C  C104  1  0.153600  0.193700  0.443100  1.0  -0.1148
  C  C105  1  0.212900  0.207900  0.362900  1.0  0.078
  C  C106  1  0.170900  0.083900  0.497100  1.0  0.6591
  C  C107  1  0.740000  0.196000  0.510800  1.0  0.2017
  C  C108  1  0.673000  0.283100  0.546300  1.0  -0.2182
  C  C109  1  0.702700  0.368800  0.519200  1.0  0.1077
  C  C110  1  0.793000  0.367400  0.452200  1.0  -0.2045
  C  C111  1  0.853600  0.276700  0.420500  1.0  0.1954
  C  C112  1  0.629200  0.600900  0.601900  1.0  0.1968
  C  C113  1  0.690100  0.514800  0.566400  1.0  -0.201
  C  C114  1  0.636100  0.462400  0.556600  1.0  0.1115
  C  C115  1  0.520800  0.501500  0.584100  1.0  -0.215
  C  C116  1  0.464600  0.591600  0.616200  1.0  0.1779
  C  C117  1  0.456800  0.584800  0.832200  1.0  0.6882
  C  C118  1  0.382300  0.549000  0.818200  1.0  -0.172
  C  C119  1  0.433300  0.453000  0.793400  1.0  -0.054
  C  C120  1  0.371600  0.420200  0.772200  1.0  -0.1204
  C  C121  1  0.258100  0.483200  0.777600  1.0  -0.0297
  C  C122  1  0.205100  0.575600  0.807200  1.0  -0.137
  C  C123  1  0.267500  0.611300  0.827500  1.0  0.0844
  C  C124  1  0.080000  0.633800  0.815200  1.0  0.6545
  C  C125  1  0.186300  0.836900  0.730900  1.0  0.7134
  C  C126  1  0.178000  0.812700  0.818100  1.0  -0.1664
  C  C127  1  0.130400  0.900300  0.853100  1.0  -0.0326
  C  C128  1  0.124700  0.885400  0.931800  1.0  -0.1315
  C  C129  1  0.166200  0.782500  0.975900  1.0  -0.0534
  C  C130  1  0.209600  0.693700  0.943100  1.0  -0.1183
  C  C131  1  0.216300  0.707900  0.862900  1.0  0.0768
  C  C132  1  0.248100  0.583900  0.997100  1.0  0.6594
  C  C133  1  0.553200  0.696000  0.010800  1.0  0.2008
  C  C134  1  0.497600  0.783100  0.046300  1.0  -0.2149
  C  C135  1  0.409300  0.868800  0.019200  1.0  0.1071
  C  C136  1  0.387400  0.867400  0.952200  1.0  -0.205
  C  C137  1  0.449200  0.776700  0.920500  1.0  0.1955
  C  C138  1  0.168000  0.100900  0.101900  1.0  0.1948
  C  C139  1  0.228700  0.014800  0.066400  1.0  -0.2015
  C  C140  1  0.344900  0.962400  0.056600  1.0  0.1116
  C  C141  1  0.393600  0.001500  0.084100  1.0  -0.2166
  C  C142  1  0.327600  0.091600  0.116200  1.0  0.1784
  C  C143  1  0.873800  0.915200  0.667800  1.0  0.6883
  C  C144  1  0.749500  0.951000  0.681800  1.0  -0.173
  C  C145  1  0.679700  0.047000  0.706600  1.0  -0.0528
  C  C146  1  0.564000  0.079800  0.727800  1.0  -0.1197
  C  C147  1  0.518900  0.016800  0.722400  1.0  -0.0307
  C  C148  1  0.587900  0.924400  0.692800  1.0  -0.1344
  C  C149  1  0.706300  0.888700  0.672500  1.0  0.086
  C  C150  1  0.529000  0.866200  0.684800  1.0  0.658
  C  C151  1  0.754100  0.663100  0.769100  1.0  0.7114
  C  C152  1  0.808800  0.687300  0.681900  1.0  -0.1667
  C  C153  1  0.883800  0.599700  0.646900  1.0  -0.0353
  C  C154  1  0.941900  0.614600  0.568200  1.0  -0.1325
  C  C155  1  0.924600  0.717500  0.524100  1.0  -0.0523
  C  C156  1  0.846400  0.806300  0.556900  1.0  -0.1157
  C  C157  1  0.787100  0.792100  0.637100  1.0  0.0781
  C  C158  1  0.829100  0.916100  0.502900  1.0  0.6597
  C  C159  1  0.260000  0.804000  0.489200  1.0  0.2017
  C  C160  1  0.327000  0.716900  0.453700  1.0  -0.2189
  C  C161  1  0.297300  0.631200  0.480800  1.0  0.1068
  C  C162  1  0.207000  0.632600  0.547800  1.0  -0.2039
  C  C163  1  0.146400  0.723300  0.579500  1.0  0.1957
  C  C164  1  0.370800  0.399100  0.398100  1.0  0.1962
  C  C165  1  0.309900  0.485200  0.433600  1.0  -0.2029
  C  C166  1  0.363900  0.537600  0.443400  1.0  0.1116
  C  C167  1  0.479200  0.498500  0.415900  1.0  -0.2157
  C  C168  1  0.535400  0.408400  0.383800  1.0  0.1769
  N  N169  1  0.469100  0.309100  0.049900  1.0  -0.3401
  N  N170  1  0.784000  0.860400  0.873000  1.0  -0.342
  N  N171  1  0.828100  0.190900  0.450100  1.0  -0.3404
  N  N172  1  0.517400  0.639600  0.627000  1.0  -0.3424
  N  N173  1  0.530900  0.690900  0.950100  1.0  -0.3401
  N  N174  1  0.216000  0.139600  0.127000  1.0  -0.3427
  N  N175  1  0.171900  0.809100  0.549900  1.0  -0.3403
  N  N176  1  0.482600  0.360400  0.373000  1.0  -0.3419
  O  O177  1  0.484900  0.478800  0.118800  1.0  -0.5652
  O  O178  1  0.541190  0.325920  0.204300  1.0  -0.5942
  O  O179  1  0.722270  0.207260  0.316200  1.0  -0.6158
  O  O180  1  0.902040  0.094620  0.290900  1.0  -0.5729
  O  O181  1  0.965000  0.390700  0.217300  1.0  -0.585
  O  O182  1  0.975200  0.296500  0.145100  1.0  -0.58
  O  O183  1  0.770600  0.487900  0.006100  1.0  -0.5666
  O  O184  1  0.698000  0.423200  0.957000  1.0  -0.6223
  O  O185  1  0.082500  0.021200  0.381200  1.0  -0.566
  O  O186  1  0.071410  0.174080  0.295700  1.0  -0.5939
  O  O187  1  0.245730  0.292740  0.183800  1.0  -0.6157
  O  O188  1  0.287560  0.405380  0.209100  1.0  -0.5745
  O  O189  1  0.573000  0.109300  0.282700  1.0  -0.5825
  O  O190  1  0.416800  0.203500  0.354900  1.0  -0.5772
  O  O191  1  0.264600  0.012100  0.493900  1.0  -0.5667
  O  O192  1  0.078200  0.076800  0.543000  1.0  -0.6198
  O  O193  1  0.515100  0.521200  0.881200  1.0  -0.5663
  O  O194  1  0.458810  0.674080  0.795700  1.0  -0.5942
  O  O195  1  0.277730  0.792740  0.683800  1.0  -0.6146
  O  O196  1  0.097960  0.905380  0.709100  1.0  -0.5727
  O  O197  1  0.035000  0.609300  0.782700  1.0  -0.5853
  O  O198  1  0.024800  0.703500  0.854900  1.0  -0.5796
  O  O199  1  0.229400  0.512100  0.993900  1.0  -0.5657
  O  O200  1  0.302000  0.576800  0.043000  1.0  -0.6243
  O  O201  1  0.917500  0.978800  0.618800  1.0  -0.5641
  O  O202  1  0.928590  0.825920  0.704300  1.0  -0.5945
  O  O203  1  0.754270  0.707260  0.816200  1.0  -0.6151
  O  O204  1  0.712440  0.594620  0.790900  1.0  -0.5726
  O  O205  1  0.427000  0.890700  0.717300  1.0  -0.5816
  O  O206  1  0.583200  0.796500  0.645100  1.0  -0.5779
  O  O207  1  0.735400  0.987900  0.506100  1.0  -0.5672
  O  O208  1  0.921800  0.923200  0.457000  1.0  -0.6162
