# generated using pymatgen
data_UH2C3O4
_symmetry_space_group_name_H-M   'P 1'
_cell_length_a   7.73890000
_cell_length_b   7.73890000
_cell_length_c   27.15450000
_cell_angle_alpha   90.00000000
_cell_angle_beta   90.00000000
_cell_angle_gamma   120.00000000
_symmetry_Int_Tables_number   1
_chemical_formula_structural   UH2C3O4
_chemical_formula_sum   'U6 H12 C18 O24'
_cell_volume   1408.41587596
_cell_formula_units_Z   6
loop_
 _symmetry_equiv_pos_site_id
 _symmetry_equiv_pos_as_xyz
  1  'x, y, z'
loop_
 _atom_site_type_symbol
 _atom_site_label
 _atom_site_symmetry_multiplicity
 _atom_site_fract_x
 _atom_site_fract_y
 _atom_site_fract_z
 _atom_site_occupancy
 _atom_site_charge
  U  U1  1  0.452370  0.547620  0.416670  1.0  1.8777
  U  U2  1  0.452370  0.904750  0.750000  1.0  1.8751
  U  U3  1  0.095250  0.547620  0.083330  1.0  1.877
  U  U4  1  0.547620  0.452370  0.916670  1.0  1.8754
  U  U5  1  0.547620  0.095250  0.250000  1.0  1.8762
  U  U6  1  0.904750  0.452370  0.583330  1.0  1.8757
  H  H7  1  0.886000  0.314000  0.409000  1.0  0.1322
  H  H8  1  0.686000  0.572000  0.742330  1.0  0.1315
  H  H9  1  0.428000  0.114000  0.075670  1.0  0.1305
  H  H10  1  0.114000  0.686000  0.909000  1.0  0.1299
  H  H11  1  0.314000  0.428000  0.242330  1.0  0.133
  H  H12  1  0.572000  0.886000  0.575670  1.0  0.1323
  H  H13  1  0.314000  0.886000  0.924330  1.0  0.1317
  H  H14  1  0.572000  0.686000  0.591000  1.0  0.1328
  H  H15  1  0.114000  0.428000  0.257670  1.0  0.1318
  H  H16  1  0.686000  0.114000  0.424330  1.0  0.1306
  H  H17  1  0.428000  0.314000  0.091000  1.0  0.1297
  H  H18  1  0.886000  0.572000  0.757670  1.0  0.1337
  C  C19  1  0.658400  0.274000  0.369370  1.0  0.6394
  C  C20  1  0.726000  0.384400  0.702700  1.0  0.6388
  C  C21  1  0.615600  0.341600  0.036040  1.0  0.6406
  C  C22  1  0.341600  0.726000  0.869370  1.0  0.6398
  C  C23  1  0.274000  0.615600  0.202700  1.0  0.6391
  C  C24  1  0.384400  0.658400  0.536040  1.0  0.6393
  C  C25  1  0.274000  0.658400  0.963960  1.0  0.6406
  C  C26  1  0.384400  0.726000  0.630630  1.0  0.639
  C  C27  1  0.341600  0.615600  0.297300  1.0  0.6391
  C  C28  1  0.726000  0.341600  0.463960  1.0  0.6393
  C  C29  1  0.615600  0.274000  0.130630  1.0  0.6407
  C  C30  1  0.658400  0.384400  0.797300  1.0  0.6391
  C  C31  1  0.747600  0.252400  0.416670  1.0  -0.4506
  C  C32  1  0.747600  0.495200  0.750000  1.0  -0.4486
  C  C33  1  0.504800  0.252400  0.083330  1.0  -0.4499
  C  C34  1  0.252400  0.747600  0.916670  1.0  -0.4496
  C  C35  1  0.252400  0.504800  0.250000  1.0  -0.4494
  C  C36  1  0.495200  0.747600  0.583330  1.0  -0.4498
  O  O37  1  0.573100  0.375000  0.367020  1.0  -0.7495
  O  O38  1  0.680000  0.186300  0.332890  1.0  -0.7364
  O  O39  1  0.625000  0.198100  0.700350  1.0  -0.7459
  O  O40  1  0.813700  0.493700  0.666220  1.0  -0.7348
  O  O41  1  0.801900  0.426900  0.033690  1.0  -0.7501
  O  O42  1  0.506300  0.320000  0.999560  1.0  -0.7357
  O  O43  1  0.426900  0.625000  0.867020  1.0  -0.7484
  O  O44  1  0.320000  0.813700  0.832890  1.0  -0.7345
  O  O45  1  0.375000  0.801900  0.200350  1.0  -0.7456
  O  O46  1  0.186300  0.506300  0.166220  1.0  -0.7356
  O  O47  1  0.198100  0.573100  0.533690  1.0  -0.7492
  O  O48  1  0.493700  0.680000  0.499560  1.0  -0.736
  O  O49  1  0.375000  0.573100  0.966310  1.0  -0.7503
  O  O50  1  0.186300  0.680000  0.000440  1.0  -0.7362
  O  O51  1  0.198100  0.625000  0.632980  1.0  -0.7511
  O  O52  1  0.493700  0.813700  0.667110  1.0  -0.7354
  O  O53  1  0.426900  0.801900  0.299650  1.0  -0.7475
  O  O54  1  0.320000  0.506300  0.333780  1.0  -0.7351
  O  O55  1  0.625000  0.426900  0.466310  1.0  -0.752
  O  O56  1  0.813700  0.320000  0.500440  1.0  -0.736
  O  O57  1  0.801900  0.375000  0.132980  1.0  -0.7505
  O  O58  1  0.506300  0.186300  0.167110  1.0  -0.7357
  O  O59  1  0.573100  0.198100  0.799650  1.0  -0.747
  O  O60  1  0.680000  0.493700  0.833780  1.0  -0.7354
