# generated using pymatgen
data_ZnH3C8NO4
_symmetry_space_group_name_H-M   'P 1'
_cell_length_a   23.06870000
_cell_length_b   23.06870000
_cell_length_c   20.75870000
_cell_angle_alpha   90.00000000
_cell_angle_beta   90.00000000
_cell_angle_gamma   120.00000000
_symmetry_Int_Tables_number   1
_chemical_formula_structural   ZnH3C8NO4
_chemical_formula_sum   'Zn18 H54 C144 N18 O72'
_cell_volume   9567.02759823
_cell_formula_units_Z   18
loop_
 _symmetry_equiv_pos_site_id
 _symmetry_equiv_pos_as_xyz
  1  'x, y, z'
loop_
 _atom_site_type_symbol
 _atom_site_label
 _atom_site_symmetry_multiplicity
 _atom_site_fract_x
 _atom_site_fract_y
 _atom_site_fract_z
 _atom_site_occupancy
 _atom_site_charge
  Zn  Zn1  1  0.184440  0.407450  0.180720  1.0  1.1628
  Zn  Zn2  1  0.111370  0.259280  0.152790  1.0  1.0891
  Zn  Zn3  1  0.074130  0.530330  0.485600  1.0  1.1274
  Zn  Zn4  1  0.592550  0.776990  0.180720  1.0  1.1598
  Zn  Zn5  1  0.740720  0.852090  0.152790  1.0  1.0815
  Zn  Zn6  1  0.469670  0.543800  0.485600  1.0  1.125
  Zn  Zn7  1  0.223010  0.815560  0.180720  1.0  1.1574
  Zn  Zn8  1  0.147910  0.888630  0.152790  1.0  1.079
  Zn  Zn9  1  0.456200  0.925870  0.485600  1.0  1.1255
  Zn  Zn10  1  0.815560  0.592550  0.819280  1.0  1.1617
  Zn  Zn11  1  0.888630  0.740720  0.847210  1.0  1.0816
  Zn  Zn12  1  0.925870  0.469670  0.514400  1.0  1.1222
  Zn  Zn13  1  0.407450  0.223010  0.819280  1.0  1.1581
  Zn  Zn14  1  0.259280  0.147910  0.847210  1.0  1.0853
  Zn  Zn15  1  0.530330  0.456200  0.514400  1.0  1.1268
  Zn  Zn16  1  0.776990  0.184440  0.819280  1.0  1.1556
  Zn  Zn17  1  0.852090  0.111370  0.847210  1.0  1.0861
  Zn  Zn18  1  0.543800  0.074130  0.514400  1.0  1.1254
  H  H19  1  0.054700  0.395500  0.331400  1.0  0.1223
  H  H20  1  0.864800  0.281900  0.405300  1.0  0.1238
  H  H21  1  0.930400  0.204400  0.264400  1.0  0.1466
  H  H22  1  0.773300  0.023600  0.259400  1.0  0.1346
  H  H23  1  0.709000  0.101800  0.391400  1.0  0.1008
  H  H24  1  0.579700  0.913400  0.325100  1.0  0.121
  H  H25  1  0.365700  0.457500  0.078000  1.0  0.12
  H  H26  1  0.450000  0.385400  0.951800  1.0  0.1286
  H  H27  1  0.252800  0.273700  0.003600  1.0  0.1307
  H  H28  1  0.604500  0.659200  0.331400  1.0  0.1212
  H  H29  1  0.718100  0.582900  0.405300  1.0  0.1232
  H  H30  1  0.795600  0.726000  0.264400  1.0  0.1457
  H  H31  1  0.976400  0.749700  0.259400  1.0  0.1346
  H  H32  1  0.898200  0.607200  0.391400  1.0  0.1
  H  H33  1  0.086600  0.666300  0.325100  1.0  0.1219
  H  H34  1  0.542500  0.908200  0.078000  1.0  0.1191
  H  H35  1  0.614600  0.064600  0.951800  1.0  0.1297
  H  H36  1  0.726300  0.979100  0.003600  1.0  0.1319
  H  H37  1  0.340800  0.945300  0.331400  1.0  0.1223
  H  H38  1  0.417100  0.135200  0.405300  1.0  0.1244
  H  H39  1  0.274000  0.069600  0.264400  1.0  0.1456
  H  H40  1  0.250300  0.226700  0.259400  1.0  0.1352
  H  H41  1  0.392800  0.291000  0.391400  1.0  0.0997
  H  H42  1  0.333700  0.420300  0.325100  1.0  0.1218
  H  H43  1  0.091800  0.634300  0.078000  1.0  0.1197
  H  H44  1  0.935400  0.550000  0.951800  1.0  0.1286
  H  H45  1  0.020900  0.747200  0.003600  1.0  0.1318
  H  H46  1  0.945300  0.604500  0.668600  1.0  0.1218
  H  H47  1  0.135200  0.718100  0.594700  1.0  0.1236
  H  H48  1  0.069600  0.795600  0.735600  1.0  0.1475
  H  H49  1  0.226700  0.976400  0.740600  1.0  0.1349
  H  H50  1  0.291000  0.898200  0.608600  1.0  0.1001
  H  H51  1  0.420300  0.086600  0.674900  1.0  0.121
  H  H52  1  0.634300  0.542500  0.922000  1.0  0.1197
  H  H53  1  0.550000  0.614600  0.048200  1.0  0.1287
  H  H54  1  0.747200  0.726300  0.996400  1.0  0.1307
  H  H55  1  0.395500  0.340800  0.668600  1.0  0.1213
  H  H56  1  0.281900  0.417100  0.594700  1.0  0.1229
  H  H57  1  0.204400  0.274000  0.735600  1.0  0.147
  H  H58  1  0.023600  0.250300  0.740600  1.0  0.1343
  H  H59  1  0.101800  0.392800  0.608600  1.0  0.1002
  H  H60  1  0.913400  0.333700  0.674900  1.0  0.1204
  H  H61  1  0.457500  0.091800  0.922000  1.0  0.1194
  H  H62  1  0.385400  0.935400  0.048200  1.0  0.129
  H  H63  1  0.273700  0.020900  0.996400  1.0  0.1313
  H  H64  1  0.659200  0.054700  0.668600  1.0  0.1226
  H  H65  1  0.582900  0.864800  0.594700  1.0  0.1235
  H  H66  1  0.726000  0.930400  0.735600  1.0  0.1459
  H  H67  1  0.749700  0.773300  0.740600  1.0  0.136
  H  H68  1  0.607200  0.709000  0.608600  1.0  0.1003
  H  H69  1  0.666300  0.579700  0.674900  1.0  0.1219
  H  H70  1  0.908200  0.365700  0.922000  1.0  0.1196
  H  H71  1  0.064600  0.450000  0.048200  1.0  0.1291
  H  H72  1  0.979100  0.252800  0.996400  1.0  0.1311
  C  C73  1  0.001400  0.303600  0.296900  1.0  -0.1138
  C  C74  1  0.012800  0.355100  0.332400  1.0  0.0053
  C  C75  1  0.961800  0.350700  0.375800  1.0  -0.0843
  C  C76  1  0.899200  0.287700  0.376400  1.0  -0.0767
  C  C77  1  0.889200  0.239000  0.338000  1.0  0.0662
  C  C78  1  0.938300  0.240000  0.292700  1.0  -1e-04
  C  C79  1  0.056200  0.308800  0.244600  1.0  0.6719
  C  C80  1  0.675700  0.953500  0.291900  1.0  -0.1111
  C  C81  1  0.738400  0.017500  0.287800  1.0  -0.0858
  C  C82  1  0.744700  0.069400  0.327900  1.0  0.1089
  C  C83  1  0.700000  0.064800  0.364700  1.0  -0.0122
  C  C84  1  0.634100  0.004300  0.368500  1.0  -0.1071
  C  C85  1  0.623300  0.951400  0.328100  1.0  -0.0378
  C  C86  1  0.671700  0.899900  0.251400  1.0  0.7268
  C  C87  1  0.579600  0.001500  0.404900  1.0  0.5579
  C  C88  1  0.301400  0.366700  0.044900  1.0  -0.1411
  C  C89  1  0.360600  0.423800  0.048600  1.0  -0.0256
  C  C90  1  0.415800  0.434800  0.009500  1.0  0.1127
  C  C91  1  0.411500  0.381800  0.972300  1.0  -0.0403
  C  C92  1  0.350700  0.325000  0.966500  1.0  -0.1283
  C  C93  1  0.294000  0.314800  0.005300  1.0  1e-04
  C  C94  1  0.332200  0.262300  0.917900  1.0  0.5952
  C  C95  1  0.238200  0.349400  0.089800  1.0  0.6934
  C  C96  1  0.967300  0.403200  0.416700  1.0  0.7242
  C  C97  1  0.696400  0.697800  0.296900  1.0  -0.1131
  C  C98  1  0.644900  0.657700  0.332400  1.0  0.0053
  C  C99  1  0.649300  0.611100  0.375800  1.0  -0.0851
  C  C100  1  0.712300  0.611500  0.376400  1.0  -0.0754
  C  C101  1  0.761000  0.650200  0.338000  1.0  0.066
  C  C102  1  0.760000  0.698300  0.292700  1.0  0.0
  C  C103  1  0.691200  0.747400  0.244600  1.0  0.6731
  C  C104  1  0.046500  0.722200  0.291900  1.0  -0.1106
  C  C105  1  0.982500  0.720900  0.287800  1.0  -0.0851
  C  C106  1  0.930600  0.675300  0.327900  1.0  0.1109
  C  C107  1  0.935200  0.635200  0.364700  1.0  -0.0113
  C  C108  1  0.995700  0.629800  0.368500  1.0  -0.1066
  C  C109  1  0.048600  0.671900  0.328100  1.0  -0.0368
  C  C110  1  0.100100  0.771800  0.251400  1.0  0.7276
  C  C111  1  0.998500  0.578100  0.404900  1.0  0.5588
  C  C112  1  0.633300  0.934700  0.044900  1.0  -0.1381
  C  C113  1  0.576200  0.936800  0.048600  1.0  -0.0242
  C  C114  1  0.565200  0.981000  0.009500  1.0  0.1125
  C  C115  1  0.618200  0.029700  0.972300  1.0  -0.0411
  C  C116  1  0.675000  0.025700  0.966500  1.0  -0.1275
  C  C117  1  0.685200  0.979200  0.005300  1.0  -0.0038
  C  C118  1  0.737700  0.069900  0.917900  1.0  0.5973
  C  C119  1  0.650600  0.888800  0.089800  1.0  0.6918
  C  C120  1  0.596800  0.564100  0.416700  1.0  0.7255
  C  C121  1  0.302200  0.998600  0.296900  1.0  -0.1195
  C  C122  1  0.342300  0.987200  0.332400  1.0  0.0065
  C  C123  1  0.388900  0.038200  0.375800  1.0  -0.0859
  C  C124  1  0.388500  0.100800  0.376400  1.0  -0.0763
  C  C125  1  0.349800  0.110800  0.338000  1.0  0.0646
  C  C126  1  0.301700  0.061700  0.292700  1.0  -0.0015
  C  C127  1  0.252600  0.943800  0.244600  1.0  0.6723
  C  C128  1  0.277800  0.324300  0.291900  1.0  -0.111
  C  C129  1  0.279100  0.261600  0.287800  1.0  -0.0852
  C  C130  1  0.324700  0.255300  0.327900  1.0  0.1161
  C  C131  1  0.364800  0.300000  0.364700  1.0  -0.0127
  C  C132  1  0.370200  0.365900  0.368500  1.0  -0.1067
  C  C133  1  0.328100  0.376700  0.328100  1.0  -0.0396
  C  C134  1  0.228200  0.328300  0.251400  1.0  0.7274
  C  C135  1  0.421900  0.420400  0.404900  1.0  0.5586
  C  C136  1  0.065300  0.698600  0.044900  1.0  -0.1398
  C  C137  1  0.063200  0.639400  0.048600  1.0  -0.0218
  C  C138  1  0.019000  0.584200  0.009500  1.0  0.1127
  C  C139  1  0.970300  0.588500  0.972300  1.0  -0.0397
  C  C140  1  0.974300  0.649300  0.966500  1.0  -0.1287
  C  C141  1  0.020800  0.706000  0.005300  1.0  -0.0011
  C  C142  1  0.930100  0.667800  0.917900  1.0  0.5974
  C  C143  1  0.111200  0.761800  0.089800  1.0  0.694
  C  C144  1  0.435900  0.032700  0.416700  1.0  0.7255
  C  C145  1  0.998600  0.696400  0.703100  1.0  -0.1153
  C  C146  1  0.987200  0.644900  0.667600  1.0  0.0053
  C  C147  1  0.038200  0.649300  0.624200  1.0  -0.0854
  C  C148  1  0.100800  0.712300  0.623600  1.0  -0.0745
  C  C149  1  0.110800  0.761000  0.662000  1.0  0.0668
  C  C150  1  0.061700  0.760000  0.707300  1.0  -0.0028
  C  C151  1  0.943800  0.691200  0.755400  1.0  0.6723
  C  C152  1  0.324300  0.046500  0.708100  1.0  -0.1118
  C  C153  1  0.261600  0.982500  0.712200  1.0  -0.0859
  C  C154  1  0.255300  0.930600  0.672100  1.0  0.1104
  C  C155  1  0.300000  0.935200  0.635300  1.0  -0.0099
  C  C156  1  0.365900  0.995700  0.631500  1.0  -0.107
  C  C157  1  0.376700  0.048600  0.671900  1.0  -0.0383
  C  C158  1  0.328300  0.100100  0.748600  1.0  0.7267
  C  C159  1  0.420400  0.998500  0.595100  1.0  0.558
  C  C160  1  0.698600  0.633300  0.955100  1.0  -0.1381
  C  C161  1  0.639400  0.576200  0.951400  1.0  -0.0234
  C  C162  1  0.584200  0.565200  0.990500  1.0  0.1118
  C  C163  1  0.588500  0.618200  0.027700  1.0  -0.0413
  C  C164  1  0.649300  0.675000  0.033500  1.0  -0.129
  C  C165  1  0.706000  0.685200  0.994700  1.0  -0.0009
  C  C166  1  0.667800  0.737700  0.082100  1.0  0.5976
  C  C167  1  0.761800  0.650600  0.910200  1.0  0.6913
  C  C168  1  0.032700  0.596800  0.583300  1.0  0.7236
  C  C169  1  0.303600  0.302200  0.703100  1.0  -0.1137
  C  C170  1  0.355100  0.342300  0.667600  1.0  0.0077
  C  C171  1  0.350700  0.388900  0.624200  1.0  -0.0848
  C  C172  1  0.287700  0.388500  0.623600  1.0  -0.0755
  C  C173  1  0.239000  0.349800  0.662000  1.0  0.0677
  C  C174  1  0.240000  0.301700  0.707300  1.0  -0.0
  C  C175  1  0.308800  0.252600  0.755400  1.0  0.6715
  C  C176  1  0.953500  0.277800  0.708100  1.0  -0.1111
  C  C177  1  0.017500  0.279100  0.712200  1.0  -0.0859
  C  C178  1  0.069400  0.324700  0.672100  1.0  0.1078
  C  C179  1  0.064800  0.364800  0.635300  1.0  -0.0115
  C  C180  1  0.004300  0.370200  0.631500  1.0  -0.1069
  C  C181  1  0.951400  0.328100  0.671900  1.0  -0.0391
  C  C182  1  0.899900  0.228200  0.748600  1.0  0.7269
  C  C183  1  0.001500  0.421900  0.595100  1.0  0.5581
  C  C184  1  0.366700  0.065300  0.955100  1.0  -0.1388
  C  C185  1  0.423800  0.063200  0.951400  1.0  -0.0238
  C  C186  1  0.434800  0.019000  0.990500  1.0  0.1118
  C  C187  1  0.381800  0.970300  0.027700  1.0  -0.0415
  C  C188  1  0.325000  0.974300  0.033500  1.0  -0.1287
  C  C189  1  0.314800  0.020800  0.994700  1.0  -0.0031
  C  C190  1  0.262300  0.930100  0.082100  1.0  0.5964
  C  C191  1  0.349400  0.111200  0.910200  1.0  0.6922
  C  C192  1  0.403200  0.435900  0.583300  1.0  0.7245
  C  C193  1  0.697800  0.001400  0.703100  1.0  -0.1165
  C  C194  1  0.657700  0.012800  0.667600  1.0  0.0058
  C  C195  1  0.611100  0.961800  0.624200  1.0  -0.0839
  C  C196  1  0.611500  0.899200  0.623600  1.0  -0.0757
  C  C197  1  0.650200  0.889200  0.662000  1.0  0.0662
  C  C198  1  0.698300  0.938300  0.707300  1.0  0.0009
  C  C199  1  0.747400  0.056200  0.755400  1.0  0.6718
  C  C200  1  0.722200  0.675700  0.708100  1.0  -0.111
  C  C201  1  0.720900  0.738400  0.712200  1.0  -0.0854
  C  C202  1  0.675300  0.744700  0.672100  1.0  0.1144
  C  C203  1  0.635200  0.700000  0.635300  1.0  -0.0117
  C  C204  1  0.629800  0.634100  0.631500  1.0  -0.1077
  C  C205  1  0.671900  0.623300  0.671900  1.0  -0.0391
  C  C206  1  0.771800  0.671700  0.748600  1.0  0.7269
  C  C207  1  0.578100  0.579600  0.595100  1.0  0.5567
  C  C208  1  0.934700  0.301400  0.955100  1.0  -0.139
  C  C209  1  0.936800  0.360600  0.951400  1.0  -0.0231
  C  C210  1  0.981000  0.415800  0.990500  1.0  0.1113
  C  C211  1  0.029700  0.411500  0.027700  1.0  -0.0416
  C  C212  1  0.025700  0.350700  0.033500  1.0  -0.1292
  C  C213  1  0.979200  0.294000  0.994700  1.0  -0.0006
  C  C214  1  0.069900  0.332200  0.082100  1.0  0.5973
  C  C215  1  0.888800  0.238200  0.910200  1.0  0.6921
  C  C216  1  0.564100  0.967300  0.583300  1.0  0.7251
  N  N217  1  0.819800  0.176400  0.347100  1.0  -0.1923
  N  N218  1  0.820200  0.135600  0.317400  1.0  -0.2614
  N  N219  1  0.476100  0.494600  0.021100  1.0  -0.311
  N  N220  1  0.823600  0.643400  0.347100  1.0  -0.1915
  N  N221  1  0.864400  0.684600  0.317400  1.0  -0.2641
  N  N222  1  0.505400  0.981500  0.021100  1.0  -0.31
  N  N223  1  0.356600  0.180200  0.347100  1.0  -0.1935
  N  N224  1  0.315400  0.179800  0.317400  1.0  -0.2594
  N  N225  1  0.018500  0.523900  0.021100  1.0  -0.3087
  N  N226  1  0.180200  0.823600  0.652900  1.0  -0.1955
  N  N227  1  0.179800  0.864400  0.682600  1.0  -0.2598
  N  N228  1  0.523900  0.505400  0.978900  1.0  -0.3096
  N  N229  1  0.176400  0.356600  0.652900  1.0  -0.1933
  N  N230  1  0.135600  0.315400  0.682600  1.0  -0.2576
  N  N231  1  0.494600  0.018500  0.978900  1.0  -0.3085
  N  N232  1  0.643400  0.819800  0.652900  1.0  -0.1926
  N  N233  1  0.684600  0.820200  0.682600  1.0  -0.2583
  N  N234  1  0.981500  0.476100  0.978900  1.0  -0.3084
  O  O235  1  0.106200  0.371300  0.242600  1.0  -0.5968
  O  O236  1  0.052600  0.259800  0.224800  1.0  -0.5184
  O  O237  1  0.028700  0.450900  0.424500  1.0  -0.6483
  O  O238  1  0.919400  0.399700  0.450100  1.0  -0.5851
  O  O239  1  0.585500  0.047800  0.444500  1.0  -0.6749
  O  O240  1  0.525200  0.940000  0.415700  1.0  -0.5744
  O  O241  1  0.610700  0.848000  0.246500  1.0  -0.5707
  O  O242  1  0.719000  0.906100  0.223400  1.0  -0.6123
  O  O243  1  0.191900  0.294100  0.091600  1.0  -0.5528
  O  O244  1  0.247100  0.405200  0.116000  1.0  -0.5819
  O  O245  1  0.392700  0.277000  0.893000  1.0  -0.6031
  O  O246  1  0.279200  0.215800  0.913100  1.0  -0.5199
  O  O247  1  0.628700  0.734900  0.242600  1.0  -0.5964
  O  O248  1  0.740200  0.792800  0.224800  1.0  -0.5212
  O  O249  1  0.549100  0.577800  0.424500  1.0  -0.6485
  O  O250  1  0.600300  0.519700  0.450100  1.0  -0.5878
  O  O251  1  0.952200  0.537700  0.444500  1.0  -0.6721
  O  O252  1  0.060000  0.585200  0.415700  1.0  -0.5738
  O  O253  1  0.152000  0.762700  0.246500  1.0  -0.5682
  O  O254  1  0.093900  0.812900  0.223400  1.0  -0.613
  O  O255  1  0.705900  0.897800  0.091600  1.0  -0.555
  O  O256  1  0.594800  0.841900  0.116000  1.0  -0.5848
  O  O257  1  0.723000  0.115700  0.893000  1.0  -0.603
  O  O258  1  0.784200  0.063400  0.913100  1.0  -0.5191
  O  O259  1  0.265100  0.893800  0.242600  1.0  -0.5969
  O  O260  1  0.207200  0.947400  0.224800  1.0  -0.5204
  O  O261  1  0.422200  0.971300  0.424500  1.0  -0.6477
  O  O262  1  0.480300  0.080600  0.450100  1.0  -0.5887
  O  O263  1  0.462300  0.414500  0.444500  1.0  -0.6695
  O  O264  1  0.414800  0.474800  0.415700  1.0  -0.576
  O  O265  1  0.237300  0.389300  0.246500  1.0  -0.5671
  O  O266  1  0.187100  0.281000  0.223400  1.0  -0.6077
  O  O267  1  0.102200  0.808100  0.091600  1.0  -0.5558
  O  O268  1  0.158100  0.752900  0.116000  1.0  -0.5802
  O  O269  1  0.884300  0.607300  0.893000  1.0  -0.6003
  O  O270  1  0.936600  0.720800  0.913100  1.0  -0.5189
  O  O271  1  0.893800  0.628700  0.757400  1.0  -0.5967
  O  O272  1  0.947400  0.740200  0.775200  1.0  -0.5174
  O  O273  1  0.971300  0.549100  0.575500  1.0  -0.6484
  O  O274  1  0.080600  0.600300  0.549900  1.0  -0.5835
  O  O275  1  0.414500  0.952200  0.555500  1.0  -0.6686
  O  O276  1  0.474800  0.060000  0.584300  1.0  -0.5765
  O  O277  1  0.389300  0.152000  0.753500  1.0  -0.5683
  O  O278  1  0.281000  0.093900  0.776600  1.0  -0.6148
  O  O279  1  0.808100  0.705900  0.908400  1.0  -0.5528
  O  O280  1  0.752900  0.594800  0.884000  1.0  -0.5808
  O  O281  1  0.607300  0.723000  0.107000  1.0  -0.6023
  O  O282  1  0.720800  0.784200  0.086900  1.0  -0.5193
  O  O283  1  0.371300  0.265100  0.757400  1.0  -0.5967
  O  O284  1  0.259800  0.207200  0.775200  1.0  -0.5208
  O  O285  1  0.450900  0.422200  0.575500  1.0  -0.6468
  O  O286  1  0.399700  0.480300  0.549900  1.0  -0.5882
  O  O287  1  0.047800  0.462300  0.555500  1.0  -0.6703
  O  O288  1  0.940000  0.414800  0.584300  1.0  -0.5743
  O  O289  1  0.848000  0.237300  0.753500  1.0  -0.5699
  O  O290  1  0.906100  0.187100  0.776600  1.0  -0.6137
  O  O291  1  0.294100  0.102200  0.908400  1.0  -0.5552
  O  O292  1  0.405200  0.158100  0.884000  1.0  -0.5814
  O  O293  1  0.277000  0.884300  0.107000  1.0  -0.6024
  O  O294  1  0.215800  0.936600  0.086900  1.0  -0.5212
  O  O295  1  0.734900  0.106200  0.757400  1.0  -0.5987
  O  O296  1  0.792800  0.052600  0.775200  1.0  -0.5205
  O  O297  1  0.577800  0.028700  0.575500  1.0  -0.6477
  O  O298  1  0.519700  0.919400  0.549900  1.0  -0.5886
  O  O299  1  0.537700  0.585500  0.555500  1.0  -0.6717
  O  O300  1  0.585200  0.525200  0.584300  1.0  -0.5763
  O  O301  1  0.762700  0.610700  0.753500  1.0  -0.5695
  O  O302  1  0.812900  0.719000  0.776600  1.0  -0.6103
  O  O303  1  0.897800  0.191900  0.908400  1.0  -0.5571
  O  O304  1  0.841900  0.247100  0.884000  1.0  -0.5824
  O  O305  1  0.115700  0.392700  0.107000  1.0  -0.6006
  O  O306  1  0.063400  0.279200  0.086900  1.0  -0.5185
