# generated using pymatgen
data_MnH9C15NO4
_symmetry_space_group_name_H-M   'P 1'
_cell_length_a   7.84940000
_cell_length_b   9.98760000
_cell_length_c   12.60670000
_cell_angle_alpha   104.13100000
_cell_angle_beta   91.09400000
_cell_angle_gamma   111.88200000
_symmetry_Int_Tables_number   1
_chemical_formula_structural   MnH9C15NO4
_chemical_formula_sum   'Mn2 H18 C30 N2 O8'
_cell_volume   882.68625065
_cell_formula_units_Z   2
loop_
 _symmetry_equiv_pos_site_id
 _symmetry_equiv_pos_as_xyz
  1  'x, y, z'
loop_
 _atom_site_type_symbol
 _atom_site_label
 _atom_site_symmetry_multiplicity
 _atom_site_fract_x
 _atom_site_fract_y
 _atom_site_fract_z
 _atom_site_occupancy
 _atom_site_charge
  Mn  Mn1  1  0.981930  0.278920  0.464370  1.0  1.0563
  Mn  Mn2  1  0.018070  0.721080  0.535630  1.0  1.0566
  H  H3  1  0.465300  0.806400  0.458200  1.0  0.1023
  H  H4  1  0.628200  0.870600  0.167900  1.0  0.1159
  H  H5  1  0.250900  0.476600  0.182200  1.0  0.1095
  H  H6  1  0.479900  0.670900  0.993600  1.0  0.0896
  H  H7  1  0.268200  0.386600  0.018900  1.0  0.0982
  H  H8  1  0.906700  0.169400  0.682400  1.0  0.077
  H  H9  1  0.029700  0.226400  0.863600  1.0  0.1405
  H  H10  1  0.414200  0.598300  0.822100  1.0  0.1315
  H  H11  1  0.279800  0.529400  0.644300  1.0  0.0801
  H  H12  1  0.534700  0.193600  0.541800  1.0  0.1027
  H  H13  1  0.371800  0.129400  0.832100  1.0  0.1152
  H  H14  1  0.749100  0.523400  0.817800  1.0  0.1119
  H  H15  1  0.520100  0.329100  0.006400  1.0  0.0901
  H  H16  1  0.731800  0.613400  0.981100  1.0  0.0963
  H  H17  1  0.093300  0.830600  0.317600  1.0  0.077
  H  H18  1  0.970300  0.773600  0.136400  1.0  0.1397
  H  H19  1  0.585800  0.401700  0.177900  1.0  0.1309
  H  H20  1  0.720200  0.470600  0.355700  1.0  0.0804
  C  C21  1  0.211400  0.538400  0.395400  1.0  0.6888
  C  C22  1  0.332800  0.631600  0.329900  1.0  -0.143
  C  C23  1  0.455800  0.771800  0.381900  1.0  -0.0334
  C  C24  1  0.569500  0.866000  0.322000  1.0  -0.1036
  C  C25  1  0.712000  0.017100  0.379700  1.0  0.6546
  C  C26  1  0.557800  0.809200  0.209000  1.0  -0.0748
  C  C27  1  0.442800  0.662400  0.156200  1.0  0.012
  C  C28  1  0.329900  0.574800  0.217100  1.0  -0.0798
  C  C29  1  0.474600  0.600700  0.037100  1.0  -0.0423
  C  C30  1  0.350500  0.439100  0.971800  1.0  -0.0919
  C  C31  1  0.011700  0.256500  0.710300  1.0  0.1908
  C  C32  1  0.086000  0.289300  0.819900  1.0  -0.2267
  C  C33  1  0.243900  0.416300  0.862000  1.0  0.1217
  C  C34  1  0.312500  0.508300  0.795700  1.0  -0.2331
  C  C35  1  0.229200  0.466100  0.688700  1.0  0.1951
  C  C36  1  0.788600  0.461600  0.604600  1.0  0.6884
  C  C37  1  0.667200  0.368400  0.670100  1.0  -0.1445
  C  C38  1  0.544200  0.228200  0.618100  1.0  -0.0338
  C  C39  1  0.430500  0.134000  0.678000  1.0  -0.1048
  C  C40  1  0.288000  0.982900  0.620300  1.0  0.6544
  C  C41  1  0.442200  0.190800  0.791000  1.0  -0.0756
  C  C42  1  0.557200  0.337600  0.843800  1.0  0.0035
  C  C43  1  0.670100  0.425200  0.782900  1.0  -0.0794
  C  C44  1  0.525400  0.399300  0.962900  1.0  -0.0423
  C  C45  1  0.649500  0.560900  0.028200  1.0  -0.0924
  C  C46  1  0.988300  0.743500  0.289700  1.0  0.1924
  C  C47  1  0.914000  0.710700  0.180100  1.0  -0.2287
  C  C48  1  0.756100  0.583700  0.138000  1.0  0.1225
  C  C49  1  0.687500  0.491700  0.204300  1.0  -0.2315
  C  C50  1  0.770800  0.533900  0.311300  1.0  0.1957
  N  N51  1  0.081700  0.341300  0.645000  1.0  -0.391
  N  N52  1  0.918300  0.658700  0.355000  1.0  -0.3875
  O  O53  1  0.128700  0.400300  0.352200  1.0  -0.5941
  O  O54  1  0.196700  0.600100  0.492900  1.0  -0.6485
  O  O55  1  0.778100  0.043100  0.475300  1.0  -0.5931
  O  O56  1  0.763000  0.114400  0.326700  1.0  -0.6042
  O  O57  1  0.871300  0.599700  0.647800  1.0  -0.594
  O  O58  1  0.803300  0.399900  0.507100  1.0  -0.65
  O  O59  1  0.221900  0.956900  0.524700  1.0  -0.5923
  O  O60  1  0.237000  0.885600  0.673300  1.0  -0.6052
