# generated using pymatgen
data_U3Cu2P4H16(C7O5)4
_symmetry_space_group_name_H-M   'P 1'
_cell_length_a   9.59500000
_cell_length_b   10.33000000
_cell_length_c   13.67000000
_cell_angle_alpha   75.70200000
_cell_angle_beta   88.85400000
_cell_angle_gamma   65.34500000
_symmetry_Int_Tables_number   1
_chemical_formula_structural   U3Cu2P4H16(C7O5)4
_chemical_formula_sum   'U3 Cu2 P4 H16 C28 O20'
_cell_volume   1187.94323378
_cell_formula_units_Z   1
loop_
 _symmetry_equiv_pos_site_id
 _symmetry_equiv_pos_as_xyz
  1  'x, y, z'
loop_
 _atom_site_type_symbol
 _atom_site_label
 _atom_site_symmetry_multiplicity
 _atom_site_fract_x
 _atom_site_fract_y
 _atom_site_fract_z
 _atom_site_occupancy
 _atom_site_charge
  U  U1  1  0.765810  0.550210  0.999480  1.0  1.934
  U  U2  1  0.234190  0.449790  0.000520  1.0  1.9366
  U  U3  1  0.000000  0.000000  0.000000  1.0  1.8003
  Cu  Cu4  1  0.902080  0.034810  0.420430  1.0  0.9658
  Cu  Cu5  1  0.097920  0.965190  0.579570  1.0  0.9647
  P  P6  1  0.625600  0.317100  0.913400  1.0  1.6165
  P  P7  1  0.910200  0.688600  0.124750  1.0  1.5245
  P  P8  1  0.374400  0.682900  0.086600  1.0  1.6132
  P  P9  1  0.089800  0.311400  0.875250  1.0  1.5319
  H  H10  1  0.768300  0.148300  0.772600  1.0  0.0825
  H  H11  1  0.479800  0.345700  0.514800  1.0  0.1149
  H  H12  1  0.303500  0.516300  0.596600  1.0  0.1172
  H  H13  1  0.368600  0.506200  0.761800  1.0  0.089
  H  H14  1  0.939400  0.416000  0.255600  1.0  0.0918
  H  H15  1  0.199700  0.354200  0.505600  1.0  0.119
  H  H16  1  0.201600  0.583800  0.437800  1.0  0.1007
  H  H17  1  0.074500  0.730900  0.280800  1.0  0.1175
  H  H18  1  0.231700  0.851700  0.227400  1.0  0.0913
  H  H19  1  0.520200  0.654300  0.485200  1.0  0.1147
  H  H20  1  0.696500  0.483700  0.403400  1.0  0.1169
  H  H21  1  0.631400  0.493800  0.238200  1.0  0.0889
  H  H22  1  0.060600  0.584000  0.744400  1.0  0.0932
  H  H23  1  0.800300  0.645800  0.494400  1.0  0.1196
  H  H24  1  0.798400  0.416200  0.562200  1.0  0.1004
  H  H25  1  0.925500  0.269100  0.719200  1.0  0.1174
  C  C26  1  0.572600  0.322900  0.786000  1.0  -0.3569
  C  C27  1  0.674700  0.224200  0.736800  1.0  -0.0178
  C  C28  1  0.641100  0.235400  0.634500  1.0  -0.1159
  C  C29  1  0.504200  0.340900  0.583000  1.0  -0.0236
  C  C30  1  0.399000  0.442800  0.631700  1.0  -0.1156
  C  C31  1  0.436800  0.434300  0.730500  1.0  0.0406
  C  C32  1  0.764700  0.143700  0.581800  1.0  0.6852
  C  C33  1  0.991600  0.587100  0.252800  1.0  -0.3867
  C  C34  1  0.990300  0.451700  0.293800  1.0  0.0167
  C  C35  1  0.061100  0.366900  0.389200  1.0  -0.1535
  C  C36  1  0.144500  0.414400  0.441800  1.0  -0.1082
  C  C37  1  0.146800  0.550500  0.400600  1.0  -0.0969
  C  C38  1  0.072200  0.637900  0.307800  1.0  0.0184
  C  C39  1  0.041300  0.228200  0.434700  1.0  0.6728
  C  C40  1  0.427400  0.677100  0.214000  1.0  -0.3599
  C  C41  1  0.325300  0.775800  0.263200  1.0  -0.003
  C  C42  1  0.358900  0.764600  0.365500  1.0  -0.1162
  C  C43  1  0.495800  0.659100  0.417000  1.0  -0.0232
  C  C44  1  0.601000  0.557200  0.368300  1.0  -0.1178
  C  C45  1  0.563200  0.565700  0.269500  1.0  0.0413
  C  C46  1  0.235300  0.856300  0.418200  1.0  0.6852
  C  C47  1  0.008400  0.412900  0.747200  1.0  -0.3856
  C  C48  1  0.009700  0.548300  0.706200  1.0  0.0176
  C  C49  1  0.938900  0.633100  0.610800  1.0  -0.1536
  C  C50  1  0.855500  0.585600  0.558200  1.0  -0.1073
  C  C51  1  0.853200  0.449500  0.599400  1.0  -0.0975
  C  C52  1  0.927800  0.362100  0.692200  1.0  -0.0009
  C  C53  1  0.958700  0.771800  0.565300  1.0  0.6743
  O  O54  1  0.687200  0.433900  0.903400  1.0  -0.9008
  O  O55  1  0.747300  0.160700  0.958600  1.0  -0.8846
  O  O56  1  0.488400  0.345900  0.974900  1.0  -0.9122
  O  O57  1  0.743900  0.711300  0.111000  1.0  -0.822
  O  O58  1  0.993900  0.587900  0.054200  1.0  -1.0518
  O  O59  1  0.928700  0.832600  0.102700  1.0  -0.8568
  O  O60  1  0.729700  0.136800  0.493800  1.0  -0.593
  O  O61  1  0.901200  0.079000  0.626500  1.0  -0.6238
  O  O62  1  0.122500  0.146000  0.517300  1.0  -0.5857
  O  O63  1  0.946300  0.206500  0.388300  1.0  -0.5956
  O  O64  1  0.312800  0.566100  0.096600  1.0  -0.8996
  O  O65  1  0.252700  0.839300  0.041400  1.0  -0.8899
  O  O66  1  0.511600  0.654100  0.025100  1.0  -0.9136
  O  O67  1  0.256100  0.288700  0.889000  1.0  -0.8285
  O  O68  1  0.006100  0.412100  0.945800  1.0  -1.0528
  O  O69  1  0.071300  0.167400  0.897300  1.0  -0.8689
  O  O70  1  0.270300  0.863200  0.506200  1.0  -0.5912
  O  O71  1  0.098800  0.921000  0.373500  1.0  -0.6238
  O  O72  1  0.877500  0.854000  0.482700  1.0  -0.5853
  O  O73  1  0.053700  0.793500  0.611700  1.0  -0.5949
