# generated using pymatgen
data_ZnH8C12(IN2)2
_symmetry_space_group_name_H-M   'P 1'
_cell_length_a   13.89420000
_cell_length_b   27.57400000
_cell_length_c   44.87400000
_cell_angle_alpha   90.00000000
_cell_angle_beta   90.00000000
_cell_angle_gamma   90.00000000
_symmetry_Int_Tables_number   1
_chemical_formula_structural   ZnH8C12(IN2)2
_chemical_formula_sum   'Zn24 H192 C288 I48 N96'
_cell_volume   17192.06723348
_cell_formula_units_Z   24
loop_
 _symmetry_equiv_pos_site_id
 _symmetry_equiv_pos_as_xyz
  1  'x, y, z'
loop_
 _atom_site_type_symbol
 _atom_site_label
 _atom_site_symmetry_multiplicity
 _atom_site_fract_x
 _atom_site_fract_y
 _atom_site_fract_z
 _atom_site_occupancy
 _atom_site_charge
  Zn  Zn1  1  0.151830  0.454130  0.084120  1.0  0.8494
  Zn  Zn2  1  0.382980  0.477550  0.914040  1.0  0.8326
  Zn  Zn3  1  0.175760  0.258540  0.819990  1.0  0.8922
  Zn  Zn4  1  0.848170  0.045870  0.584120  1.0  0.8504
  Zn  Zn5  1  0.617020  0.022450  0.414040  1.0  0.8333
  Zn  Zn6  1  0.824240  0.241460  0.319990  1.0  0.8899
  Zn  Zn7  1  0.651830  0.545870  0.415880  1.0  0.851
  Zn  Zn8  1  0.882980  0.522450  0.585960  1.0  0.832
  Zn  Zn9  1  0.675760  0.741460  0.680010  1.0  0.8917
  Zn  Zn10  1  0.348170  0.954130  0.915880  1.0  0.8495
  Zn  Zn11  1  0.117020  0.977550  0.085960  1.0  0.8328
  Zn  Zn12  1  0.324240  0.758540  0.180010  1.0  0.8907
  Zn  Zn13  1  0.848170  0.545870  0.915880  1.0  0.851
  Zn  Zn14  1  0.617020  0.522450  0.085960  1.0  0.8331
  Zn  Zn15  1  0.824240  0.741460  0.180010  1.0  0.8902
  Zn  Zn16  1  0.151830  0.954130  0.415880  1.0  0.8501
  Zn  Zn17  1  0.382980  0.977550  0.585960  1.0  0.8323
  Zn  Zn18  1  0.175760  0.758540  0.680010  1.0  0.8919
  Zn  Zn19  1  0.348170  0.454130  0.584120  1.0  0.848
  Zn  Zn20  1  0.117020  0.477550  0.414040  1.0  0.833
  Zn  Zn21  1  0.324240  0.258540  0.319990  1.0  0.8905
  Zn  Zn22  1  0.651830  0.045870  0.084120  1.0  0.851
  Zn  Zn23  1  0.882980  0.022450  0.914040  1.0  0.8323
  Zn  Zn24  1  0.675760  0.241460  0.819990  1.0  0.8919
  H  H25  1  0.038400  0.086700  0.172600  1.0  0.121
  H  H26  1  0.061300  0.014900  0.147000  1.0  0.0911
  H  H27  1  0.097400  0.082700  0.071500  1.0  0.0777
  H  H28  1  0.074100  0.156700  0.094300  1.0  0.1187
  H  H29  1  0.019500  0.351300  0.166100  1.0  0.1245
  H  H30  1  0.055800  0.421900  0.139900  1.0  0.0886
  H  H31  1  0.132800  0.347700  0.069600  1.0  0.0823
  H  H32  1  0.100700  0.273900  0.093000  1.0  0.1235
  H  H33  1  0.948300  0.154200  0.230900  1.0  0.1056
  H  H34  1  0.889800  0.161700  0.278200  1.0  0.1044
  H  H35  1  0.935300  0.302300  0.277200  1.0  0.0825
  H  H36  1  0.987600  0.298900  0.228100  1.0  0.1182
  H  H37  1  0.690900  0.395500  0.889600  1.0  0.1061
  H  H38  1  0.535300  0.419700  0.883100  1.0  0.0833
  H  H39  1  0.523600  0.468000  0.964600  1.0  0.0843
  H  H40  1  0.675200  0.440900  0.973900  1.0  0.1171
  H  H41  1  0.875200  0.448800  0.013300  1.0  0.1081
  H  H42  1  0.957800  0.468600  0.056900  1.0  0.0884
  H  H43  1  0.203500  0.428100  0.020200  1.0  0.0861
  H  H44  1  0.125400  0.403200  0.976900  1.0  0.1207
  H  H45  1  0.126400  0.356900  0.911500  1.0  0.1181
  H  H46  1  0.208800  0.318800  0.873500  1.0  0.0857
  H  H47  1  0.968800  0.281100  0.834600  1.0  0.0757
  H  H48  1  0.875900  0.313200  0.873700  1.0  0.1203
  H  H49  1  0.961600  0.413300  0.672600  1.0  0.1208
  H  H50  1  0.938700  0.485100  0.647000  1.0  0.0908
  H  H51  1  0.902600  0.417300  0.571500  1.0  0.0777
  H  H52  1  0.925900  0.343300  0.594300  1.0  0.1183
  H  H53  1  0.980500  0.148700  0.666100  1.0  0.1247
  H  H54  1  0.944200  0.078100  0.639900  1.0  0.0894
  H  H55  1  0.867200  0.152300  0.569600  1.0  0.0825
  H  H56  1  0.899300  0.226100  0.593000  1.0  0.1234
  H  H57  1  0.051700  0.345800  0.730900  1.0  0.1055
  H  H58  1  0.110200  0.338300  0.778200  1.0  0.1041
  H  H59  1  0.064700  0.197700  0.777200  1.0  0.0828
  H  H60  1  0.012400  0.201100  0.728100  1.0  0.1181
  H  H61  1  0.309100  0.104500  0.389600  1.0  0.1059
  H  H62  1  0.464700  0.080300  0.383100  1.0  0.0834
  H  H63  1  0.476400  0.032000  0.464600  1.0  0.084
  H  H64  1  0.324800  0.059100  0.473900  1.0  0.1168
  H  H65  1  0.124800  0.051200  0.513300  1.0  0.109
  H  H66  1  0.042200  0.031400  0.556900  1.0  0.088
  H  H67  1  0.796500  0.071900  0.520200  1.0  0.0871
  H  H68  1  0.874600  0.096800  0.476900  1.0  0.1211
  H  H69  1  0.873600  0.143100  0.411500  1.0  0.1185
  H  H70  1  0.791200  0.181200  0.373500  1.0  0.0857
  H  H71  1  0.031200  0.218900  0.334600  1.0  0.0762
  H  H72  1  0.124100  0.186800  0.373700  1.0  0.1192
  H  H73  1  0.538400  0.913300  0.327400  1.0  0.121
  H  H74  1  0.561300  0.985100  0.353000  1.0  0.0902
  H  H75  1  0.597400  0.917300  0.428500  1.0  0.0792
  H  H76  1  0.574100  0.843300  0.405700  1.0  0.1188
  H  H77  1  0.519500  0.648700  0.333900  1.0  0.1244
  H  H78  1  0.555800  0.578100  0.360100  1.0  0.0885
  H  H79  1  0.632800  0.652300  0.430400  1.0  0.0822
  H  H80  1  0.600700  0.726100  0.407000  1.0  0.1233
  H  H81  1  0.448300  0.845800  0.269100  1.0  0.1054
  H  H82  1  0.389800  0.838300  0.221800  1.0  0.1044
  H  H83  1  0.435300  0.697700  0.222800  1.0  0.0827
  H  H84  1  0.487600  0.701100  0.271900  1.0  0.1182
  H  H85  1  0.190900  0.604500  0.610400  1.0  0.1069
  H  H86  1  0.035300  0.580300  0.616900  1.0  0.0833
  H  H87  1  0.023600  0.532000  0.535400  1.0  0.0839
  H  H88  1  0.175200  0.559100  0.526100  1.0  0.1175
  H  H89  1  0.375200  0.551200  0.486700  1.0  0.1086
  H  H90  1  0.457800  0.531400  0.443100  1.0  0.0881
  H  H91  1  0.703500  0.571900  0.479800  1.0  0.0866
  H  H92  1  0.625400  0.596800  0.523100  1.0  0.1212
  H  H93  1  0.626400  0.643100  0.588500  1.0  0.1181
  H  H94  1  0.708800  0.681200  0.626500  1.0  0.0851
  H  H95  1  0.468800  0.718900  0.665400  1.0  0.0759
  H  H96  1  0.375900  0.686800  0.626300  1.0  0.1202
  H  H97  1  0.461600  0.586700  0.827400  1.0  0.121
  H  H98  1  0.438700  0.514900  0.853000  1.0  0.0904
  H  H99  1  0.402600  0.582700  0.928500  1.0  0.079
  H  H100  1  0.425900  0.656700  0.905700  1.0  0.1183
  H  H101  1  0.480500  0.851300  0.833900  1.0  0.1246
  H  H102  1  0.444200  0.921900  0.860100  1.0  0.0884
  H  H103  1  0.367200  0.847700  0.930400  1.0  0.0822
  H  H104  1  0.399300  0.773900  0.907000  1.0  0.1236
  H  H105  1  0.551700  0.654200  0.769100  1.0  0.1055
  H  H106  1  0.610200  0.661700  0.721800  1.0  0.1042
  H  H107  1  0.564700  0.802300  0.722800  1.0  0.0826
  H  H108  1  0.512400  0.798900  0.771900  1.0  0.1184
  H  H109  1  0.809100  0.895500  0.110400  1.0  0.1071
  H  H110  1  0.964700  0.919700  0.116900  1.0  0.0835
  H  H111  1  0.976400  0.968000  0.035400  1.0  0.084
  H  H112  1  0.824800  0.940900  0.026100  1.0  0.1173
  H  H113  1  0.624800  0.948800  0.986700  1.0  0.1094
  H  H114  1  0.542200  0.968600  0.943100  1.0  0.0875
  H  H115  1  0.296500  0.928100  0.979800  1.0  0.0867
  H  H116  1  0.374600  0.903200  0.023100  1.0  0.1212
  H  H117  1  0.373600  0.856900  0.088500  1.0  0.1182
  H  H118  1  0.291200  0.818800  0.126500  1.0  0.0859
  H  H119  1  0.531200  0.781100  0.165400  1.0  0.0765
  H  H120  1  0.624100  0.813200  0.126300  1.0  0.1193
  H  H121  1  0.961600  0.913300  0.827400  1.0  0.1209
  H  H122  1  0.938700  0.985100  0.853000  1.0  0.09
  H  H123  1  0.902600  0.917300  0.928500  1.0  0.0791
  H  H124  1  0.925900  0.843300  0.905700  1.0  0.1185
  H  H125  1  0.980500  0.648700  0.833900  1.0  0.1247
  H  H126  1  0.944200  0.578100  0.860100  1.0  0.0887
  H  H127  1  0.867200  0.652300  0.930400  1.0  0.0822
  H  H128  1  0.899300  0.726100  0.907000  1.0  0.1232
  H  H129  1  0.051700  0.845800  0.769100  1.0  0.1053
  H  H130  1  0.110200  0.838300  0.721800  1.0  0.1044
  H  H131  1  0.064700  0.697700  0.722800  1.0  0.0827
  H  H132  1  0.012400  0.701100  0.771900  1.0  0.1181
  H  H133  1  0.309100  0.604500  0.110400  1.0  0.107
  H  H134  1  0.464700  0.580300  0.116900  1.0  0.0833
  H  H135  1  0.476400  0.532000  0.035400  1.0  0.0841
  H  H136  1  0.324800  0.559100  0.026100  1.0  0.1174
  H  H137  1  0.124800  0.551200  0.986700  1.0  0.1093
  H  H138  1  0.042200  0.531400  0.943100  1.0  0.088
  H  H139  1  0.796500  0.571900  0.979800  1.0  0.0871
  H  H140  1  0.874600  0.596800  0.023100  1.0  0.1211
  H  H141  1  0.873600  0.643100  0.088500  1.0  0.1179
  H  H142  1  0.791200  0.681200  0.126500  1.0  0.0856
  H  H143  1  0.031200  0.718900  0.165400  1.0  0.076
  H  H144  1  0.124100  0.686800  0.126300  1.0  0.1191
  H  H145  1  0.038400  0.586700  0.327400  1.0  0.1211
  H  H146  1  0.061300  0.514900  0.353000  1.0  0.0905
  H  H147  1  0.097400  0.582700  0.428500  1.0  0.079
  H  H148  1  0.074100  0.656700  0.405700  1.0  0.1186
  H  H149  1  0.019500  0.851300  0.333900  1.0  0.1245
  H  H150  1  0.055800  0.921900  0.360100  1.0  0.088
  H  H151  1  0.132800  0.847700  0.430400  1.0  0.0818
  H  H152  1  0.100700  0.773900  0.407000  1.0  0.1234
  H  H153  1  0.948300  0.654200  0.269100  1.0  0.1055
  H  H154  1  0.889800  0.661700  0.221800  1.0  0.1041
  H  H155  1  0.935300  0.802300  0.222800  1.0  0.0825
  H  H156  1  0.987600  0.798900  0.271900  1.0  0.1182
  H  H157  1  0.690900  0.895500  0.610400  1.0  0.1073
  H  H158  1  0.535300  0.919700  0.616900  1.0  0.0838
  H  H159  1  0.523600  0.968000  0.535400  1.0  0.0838
  H  H160  1  0.675200  0.940900  0.526100  1.0  0.1174
  H  H161  1  0.875200  0.948800  0.486700  1.0  0.1088
  H  H162  1  0.957800  0.968600  0.443100  1.0  0.0879
  H  H163  1  0.203500  0.928100  0.479800  1.0  0.0864
  H  H164  1  0.125400  0.903200  0.523100  1.0  0.121
  H  H165  1  0.126400  0.856900  0.588500  1.0  0.1181
  H  H166  1  0.208800  0.818800  0.626500  1.0  0.0854
  H  H167  1  0.968800  0.781100  0.665400  1.0  0.0764
  H  H168  1  0.875900  0.813200  0.626300  1.0  0.1205
  H  H169  1  0.461600  0.086700  0.672600  1.0  0.1209
  H  H170  1  0.438700  0.014900  0.647000  1.0  0.0911
  H  H171  1  0.402600  0.082700  0.571500  1.0  0.0774
  H  H172  1  0.425900  0.156700  0.594300  1.0  0.1185
  H  H173  1  0.480500  0.351300  0.666100  1.0  0.1245
  H  H174  1  0.444200  0.421900  0.639900  1.0  0.0889
  H  H175  1  0.367200  0.347700  0.569600  1.0  0.0823
  H  H176  1  0.399300  0.273900  0.593000  1.0  0.1237
  H  H177  1  0.551700  0.154200  0.730900  1.0  0.1056
  H  H178  1  0.610200  0.161700  0.778200  1.0  0.1044
  H  H179  1  0.564700  0.302300  0.777200  1.0  0.0825
  H  H180  1  0.512400  0.298900  0.728100  1.0  0.1184
  H  H181  1  0.809100  0.395500  0.389600  1.0  0.106
  H  H182  1  0.964700  0.419700  0.383100  1.0  0.0833
  H  H183  1  0.976400  0.468000  0.464600  1.0  0.084
  H  H184  1  0.824800  0.440900  0.473900  1.0  0.1169
  H  H185  1  0.624800  0.448800  0.513300  1.0  0.1091
  H  H186  1  0.542200  0.468600  0.556900  1.0  0.0874
  H  H187  1  0.296500  0.428100  0.520200  1.0  0.0868
  H  H188  1  0.374600  0.403200  0.476900  1.0  0.1208
  H  H189  1  0.373600  0.356900  0.411500  1.0  0.1184
  H  H190  1  0.291200  0.318800  0.373500  1.0  0.0859
  H  H191  1  0.531200  0.281100  0.334600  1.0  0.0763
  H  H192  1  0.624100  0.313200  0.373700  1.0  0.1193
  H  H193  1  0.538400  0.413300  0.172600  1.0  0.1209
  H  H194  1  0.561300  0.485100  0.147000  1.0  0.0906
  H  H195  1  0.597400  0.417300  0.071500  1.0  0.078
  H  H196  1  0.574100  0.343300  0.094300  1.0  0.1184
  H  H197  1  0.519500  0.148700  0.166100  1.0  0.1248
  H  H198  1  0.555800  0.078100  0.139900  1.0  0.0894
  H  H199  1  0.632800  0.152300  0.069600  1.0  0.0827
  H  H200  1  0.600700  0.226100  0.093000  1.0  0.1234
  H  H201  1  0.448300  0.345800  0.230900  1.0  0.1056
  H  H202  1  0.389800  0.338300  0.278200  1.0  0.1042
  H  H203  1  0.435300  0.197700  0.277200  1.0  0.0829
  H  H204  1  0.487600  0.201100  0.228100  1.0  0.1181
  H  H205  1  0.190900  0.104500  0.889600  1.0  0.1057
  H  H206  1  0.035300  0.080300  0.883100  1.0  0.0833
  H  H207  1  0.023600  0.032000  0.964600  1.0  0.0843
  H  H208  1  0.175200  0.059100  0.973900  1.0  0.117
  H  H209  1  0.375200  0.051200  0.013300  1.0  0.1083
  H  H210  1  0.457800  0.031400  0.056900  1.0  0.089
  H  H211  1  0.703500  0.071900  0.020200  1.0  0.0863
  H  H212  1  0.625400  0.096800  0.976900  1.0  0.1213
  H  H213  1  0.626400  0.143100  0.911500  1.0  0.1182
  H  H214  1  0.708800  0.181200  0.873500  1.0  0.0855
  H  H215  1  0.468800  0.218900  0.834600  1.0  0.0757
  H  H216  1  0.375900  0.186800  0.873700  1.0  0.1202
  C  C217  1  0.037700  0.177800  0.150550  1.0  0.3479
  C  C218  1  0.051300  0.129800  0.135340  1.0  -0.1014
  C  C219  1  0.049600  0.086700  0.151800  1.0  -0.1506
  C  C220  1  0.065000  0.044600  0.136300  1.0  0.1321
  C  C221  1  0.085900  0.083300  0.092300  1.0  0.1198
  C  C222  1  0.070800  0.127700  0.105700  1.0  -0.1502
  C  C223  1  0.038900  0.259300  0.148540  1.0  0.3762
  C  C224  1  0.058000  0.305200  0.132300  1.0  -0.1144
  C  C225  1  0.043500  0.349600  0.146300  1.0  -0.1497
  C  C226  1  0.065500  0.391500  0.130400  1.0  0.1381
  C  C227  1  0.110300  0.348100  0.089550  1.0  0.1392
  C  C228  1  0.091300  0.303800  0.103210  1.0  -0.1621
  C  C229  1  0.000500  0.222000  0.191670  1.0  0.3825
  C  C230  1  0.971900  0.224700  0.223470  1.0  -0.1081
  C  C231  1  0.943800  0.185500  0.239600  1.0  -0.0668
  C  C232  1  0.909400  0.189900  0.267800  1.0  0.1173
  C  C233  1  0.934500  0.272000  0.267200  1.0  0.1371
  C  C234  1  0.967900  0.270200  0.238030  1.0  -0.1446
  C  C235  1  0.801600  0.398600  0.938100  1.0  0.3976
  C  C236  1  0.699800  0.412300  0.932350  1.0  -0.0457
  C  C237  1  0.656800  0.409000  0.906000  1.0  -0.1166
  C  C238  1  0.564800  0.424800  0.902000  1.0  0.1524
  C  C239  1  0.558000  0.452100  0.949160  1.0  0.1529
  C  C240  1  0.647400  0.436100  0.954800  1.0  -0.1292
  C  C241  1  0.939100  0.405300  0.964200  1.0  0.3974
  C  C242  1  0.991100  0.421600  0.991210  1.0  -0.1248
  C  C243  1  0.942300  0.442700  0.014700  1.0  -0.0686
  C  C244  1  0.992100  0.455000  0.040600  1.0  0.1205
  C  C245  1  0.135400  0.430600  0.019100  1.0  0.1174
  C  C246  1  0.089700  0.416300  0.993100  1.0  -0.1647
  C  C247  1  0.937800  0.364300  0.920300  1.0  0.3666
  C  C248  1  0.992300  0.339800  0.896740  1.0  -0.0948
  C  C249  1  0.091800  0.340600  0.896200  1.0  -0.1358
  C  C250  1  0.140500  0.317800  0.873500  1.0  0.1408
  C  C251  1  0.001100  0.295200  0.851200  1.0  0.1333
  C  C252  1  0.944100  0.315700  0.874000  1.0  -0.1647
  C  C253  1  0.962300  0.322200  0.650550  1.0  0.3474
  C  C254  1  0.948700  0.370200  0.635340  1.0  -0.0997
  C  C255  1  0.950400  0.413300  0.651800  1.0  -0.1499
  C  C256  1  0.935000  0.455400  0.636300  1.0  0.132
  C  C257  1  0.914100  0.416700  0.592300  1.0  0.1205
  C  C258  1  0.929200  0.372300  0.605700  1.0  -0.1481
  C  C259  1  0.961100  0.240700  0.648540  1.0  0.3768
  C  C260  1  0.942000  0.194800  0.632300  1.0  -0.1151
  C  C261  1  0.956500  0.150400  0.646300  1.0  -0.1491
  C  C262  1  0.934500  0.108500  0.630400  1.0  0.1387
  C  C263  1  0.889700  0.151900  0.589550  1.0  0.1393
  C  C264  1  0.908700  0.196200  0.603210  1.0  -0.162
  C  C265  1  0.999500  0.278000  0.691670  1.0  0.3828
  C  C266  1  0.028100  0.275300  0.723470  1.0  -0.1084
  C  C267  1  0.056200  0.314500  0.739600  1.0  -0.0664
  C  C268  1  0.090600  0.310100  0.767800  1.0  0.115
  C  C269  1  0.065500  0.228000  0.767200  1.0  0.1382
  C  C270  1  0.032100  0.229800  0.738030  1.0  -0.1454
  C  C271  1  0.198400  0.101400  0.438100  1.0  0.3991
  C  C272  1  0.300200  0.087700  0.432350  1.0  -0.0475
  C  C273  1  0.343200  0.091000  0.406000  1.0  -0.1175
  C  C274  1  0.435200  0.075200  0.402000  1.0  0.1517
  C  C275  1  0.442000  0.047900  0.449160  1.0  0.1537
  C  C276  1  0.352600  0.063900  0.454800  1.0  -0.1296
  C  C277  1  0.060900  0.094700  0.464200  1.0  0.3979
  C  C278  1  0.008900  0.078400  0.491210  1.0  -0.1244
  C  C279  1  0.057700  0.057300  0.514700  1.0  -0.0666
  C  C280  1  0.007900  0.045000  0.540600  1.0  0.121
  C  C281  1  0.864600  0.069400  0.519100  1.0  0.1178
  C  C282  1  0.910300  0.083700  0.493100  1.0  -0.1638
  C  C283  1  0.062200  0.135700  0.420300  1.0  0.3665
  C  C284  1  0.007700  0.160200  0.396740  1.0  -0.095
  C  C285  1  0.908200  0.159400  0.396200  1.0  -0.1368
  C  C286  1  0.859500  0.182200  0.373500  1.0  0.1409
  C  C287  1  0.998900  0.204800  0.351200  1.0  0.1337
  C  C288  1  0.055900  0.184300  0.374000  1.0  -0.1631
  C  C289  1  0.537700  0.822200  0.349450  1.0  0.3477
  C  C290  1  0.551300  0.870200  0.364660  1.0  -0.1006
  C  C291  1  0.549600  0.913300  0.348200  1.0  -0.1486
  C  C292  1  0.565000  0.955400  0.363700  1.0  0.133
  C  C293  1  0.585900  0.916700  0.407700  1.0  0.1214
  C  C294  1  0.570800  0.872300  0.394300  1.0  -0.1486
  C  C295  1  0.538900  0.740700  0.351460  1.0  0.3767
  C  C296  1  0.558000  0.694800  0.367700  1.0  -0.1146
  C  C297  1  0.543500  0.650400  0.353700  1.0  -0.1497
  C  C298  1  0.565500  0.608500  0.369600  1.0  0.1372
  C  C299  1  0.610300  0.651900  0.410450  1.0  0.1408
  C  C300  1  0.591300  0.696200  0.396790  1.0  -0.1606
  C  C301  1  0.500500  0.778000  0.308330  1.0  0.3823
  C  C302  1  0.471900  0.775300  0.276530  1.0  -0.1086
  C  C303  1  0.443800  0.814500  0.260400  1.0  -0.0672
  C  C304  1  0.409400  0.810100  0.232200  1.0  0.1155
  C  C305  1  0.434500  0.728000  0.232800  1.0  0.1376
  C  C306  1  0.467900  0.729800  0.261970  1.0  -0.1462
  C  C307  1  0.301600  0.601400  0.561900  1.0  0.3991
  C  C308  1  0.199800  0.587700  0.567650  1.0  -0.045
  C  C309  1  0.156800  0.591000  0.594000  1.0  -0.117
  C  C310  1  0.064800  0.575200  0.598000  1.0  0.1525
  C  C311  1  0.058000  0.547900  0.550840  1.0  0.1523
  C  C312  1  0.147400  0.563900  0.545200  1.0  -0.1299
  C  C313  1  0.439100  0.594700  0.535800  1.0  0.3974
  C  C314  1  0.491100  0.578400  0.508790  1.0  -0.1244
  C  C315  1  0.442300  0.557300  0.485300  1.0  -0.0697
  C  C316  1  0.492100  0.545000  0.459400  1.0  0.1213
  C  C317  1  0.635400  0.569400  0.480900  1.0  0.1178
  C  C318  1  0.589700  0.583700  0.506900  1.0  -0.1638
  C  C319  1  0.437800  0.635700  0.579700  1.0  0.3668
  C  C320  1  0.492300  0.660200  0.603260  1.0  -0.0951
  C  C321  1  0.591800  0.659400  0.603800  1.0  -0.1343
  C  C322  1  0.640500  0.682200  0.626500  1.0  0.1403
  C  C323  1  0.501100  0.704800  0.648800  1.0  0.1338
  C  C324  1  0.444100  0.684300  0.626000  1.0  -0.1647
  C  C325  1  0.462300  0.677800  0.849450  1.0  0.348
  C  C326  1  0.448700  0.629800  0.864660  1.0  -0.1008
  C  C327  1  0.450400  0.586700  0.848200  1.0  -0.1474
  C  C328  1  0.435000  0.544600  0.863700  1.0  0.1316
  C  C329  1  0.414100  0.583300  0.907700  1.0  0.1214
  C  C330  1  0.429200  0.627700  0.894300  1.0  -0.1495
  C  C331  1  0.461100  0.759300  0.851460  1.0  0.3762
  C  C332  1  0.442000  0.805200  0.867700  1.0  -0.1149
  C  C333  1  0.456500  0.849600  0.853700  1.0  -0.1503
  C  C334  1  0.434500  0.891500  0.869600  1.0  0.1369
  C  C335  1  0.389700  0.848100  0.910450  1.0  0.1406
  C  C336  1  0.408700  0.803800  0.896790  1.0  -0.1606
  C  C337  1  0.499500  0.722000  0.808330  1.0  0.3825
  C  C338  1  0.528100  0.724700  0.776530  1.0  -0.1088
  C  C339  1  0.556200  0.685500  0.760400  1.0  -0.0674
  C  C340  1  0.590600  0.689900  0.732200  1.0  0.1155
  C  C341  1  0.565500  0.772000  0.732800  1.0  0.1377
  C  C342  1  0.532100  0.770200  0.761970  1.0  -0.1449
  C  C343  1  0.698400  0.898600  0.061900  1.0  0.3986
  C  C344  1  0.800200  0.912300  0.067650  1.0  -0.0479
  C  C345  1  0.843200  0.909000  0.094000  1.0  -0.1174
  C  C346  1  0.935200  0.924800  0.098000  1.0  0.1527
  C  C347  1  0.942000  0.952100  0.050840  1.0  0.1519
  C  C348  1  0.852600  0.936100  0.045200  1.0  -0.1305
  C  C349  1  0.560900  0.905300  0.035800  1.0  0.3978
  C  C350  1  0.508900  0.921600  0.008790  1.0  -0.1251
  C  C351  1  0.557700  0.942700  0.985300  1.0  -0.065
  C  C352  1  0.507900  0.955000  0.959400  1.0  0.122
  C  C353  1  0.364600  0.930600  0.980900  1.0  0.1178
  C  C354  1  0.410300  0.916300  0.006900  1.0  -0.1645
  C  C355  1  0.562200  0.864300  0.079700  1.0  0.367
  C  C356  1  0.507700  0.839800  0.103260  1.0  -0.0948
  C  C357  1  0.408200  0.840600  0.103800  1.0  -0.1359
  C  C358  1  0.359500  0.817800  0.126500  1.0  0.1409
  C  C359  1  0.498900  0.795200  0.148800  1.0  0.134
  C  C360  1  0.555900  0.815700  0.126000  1.0  -0.1628
  C  C361  1  0.962300  0.822200  0.849450  1.0  0.3476
  C  C362  1  0.948700  0.870200  0.864660  1.0  -0.0999
  C  C363  1  0.950400  0.913300  0.848200  1.0  -0.1484
  C  C364  1  0.935000  0.955400  0.863700  1.0  0.1329
  C  C365  1  0.914100  0.916700  0.907700  1.0  0.1212
  C  C366  1  0.929200  0.872300  0.894300  1.0  -0.1479
  C  C367  1  0.961100  0.740700  0.851460  1.0  0.3768
  C  C368  1  0.942000  0.694800  0.867700  1.0  -0.1148
  C  C369  1  0.956500  0.650400  0.853700  1.0  -0.1508
  C  C370  1  0.934500  0.608500  0.869600  1.0  0.1372
  C  C371  1  0.889700  0.651900  0.910450  1.0  0.1405
  C  C372  1  0.908700  0.696200  0.896790  1.0  -0.1614
  C  C373  1  0.999500  0.778000  0.808330  1.0  0.3825
  C  C374  1  0.028100  0.775300  0.776530  1.0  -0.1087
  C  C375  1  0.056200  0.814500  0.760400  1.0  -0.0666
  C  C376  1  0.090600  0.810100  0.732200  1.0  0.1156
  C  C377  1  0.065500  0.728000  0.732800  1.0  0.1376
  C  C378  1  0.032100  0.729800  0.761970  1.0  -0.1459
  C  C379  1  0.198400  0.601400  0.061900  1.0  0.3996
  C  C380  1  0.300200  0.587700  0.067650  1.0  -0.0471
  C  C381  1  0.343200  0.591000  0.094000  1.0  -0.1174
  C  C382  1  0.435200  0.575200  0.098000  1.0  0.1526
  C  C383  1  0.442000  0.547900  0.050840  1.0  0.1521
  C  C384  1  0.352600  0.563900  0.045200  1.0  -0.1307
  C  C385  1  0.060900  0.594700  0.035800  1.0  0.3978
  C  C386  1  0.008900  0.578400  0.008790  1.0  -0.1244
  C  C387  1  0.057700  0.557300  0.985300  1.0  -0.0657
  C  C388  1  0.007900  0.545000  0.959400  1.0  0.1213
  C  C389  1  0.864600  0.569400  0.980900  1.0  0.1177
  C  C390  1  0.910300  0.583700  0.006900  1.0  -0.1647
  C  C391  1  0.062200  0.635700  0.079700  1.0  0.367
  C  C392  1  0.007700  0.660200  0.103260  1.0  -0.0952
  C  C393  1  0.908200  0.659400  0.103800  1.0  -0.1357
  C  C394  1  0.859500  0.682200  0.126500  1.0  0.1407
  C  C395  1  0.998900  0.704800  0.148800  1.0  0.1341
  C  C396  1  0.055900  0.684300  0.126000  1.0  -0.1628
  C  C397  1  0.037700  0.677800  0.349450  1.0  0.3481
  C  C398  1  0.051300  0.629800  0.364660  1.0  -0.1012
  C  C399  1  0.049600  0.586700  0.348200  1.0  -0.1478
  C  C400  1  0.065000  0.544600  0.363700  1.0  0.1313
  C  C401  1  0.085900  0.583300  0.407700  1.0  0.1213
  C  C402  1  0.070800  0.627700  0.394300  1.0  -0.1498
  C  C403  1  0.038900  0.759300  0.351460  1.0  0.3761
  C  C404  1  0.058000  0.805200  0.367700  1.0  -0.1146
  C  C405  1  0.043500  0.849600  0.353700  1.0  -0.1493
  C  C406  1  0.065500  0.891500  0.369600  1.0  0.1368
  C  C407  1  0.110300  0.848100  0.410450  1.0  0.141
  C  C408  1  0.091300  0.803800  0.396790  1.0  -0.1606
  C  C409  1  0.000500  0.722000  0.308330  1.0  0.3823
  C  C410  1  0.971900  0.724700  0.276530  1.0  -0.1086
  C  C411  1  0.943800  0.685500  0.260400  1.0  -0.0673
  C  C412  1  0.909400  0.689900  0.232200  1.0  0.1164
  C  C413  1  0.934500  0.772000  0.232800  1.0  0.1373
  C  C414  1  0.967900  0.770200  0.261970  1.0  -0.1447
  C  C415  1  0.801600  0.898600  0.561900  1.0  0.3979
  C  C416  1  0.699800  0.912300  0.567650  1.0  -0.0452
  C  C417  1  0.656800  0.909000  0.594000  1.0  -0.1168
  C  C418  1  0.564800  0.924800  0.598000  1.0  0.1528
  C  C419  1  0.558000  0.952100  0.550840  1.0  0.1521
  C  C420  1  0.647400  0.936100  0.545200  1.0  -0.1297
  C  C421  1  0.939100  0.905300  0.535800  1.0  0.3976
  C  C422  1  0.991100  0.921600  0.508790  1.0  -0.1249
  C  C423  1  0.942300  0.942700  0.485300  1.0  -0.0685
  C  C424  1  0.992100  0.955000  0.459400  1.0  0.1224
  C  C425  1  0.135400  0.930600  0.480900  1.0  0.1176
  C  C426  1  0.089700  0.916300  0.506900  1.0  -0.1634
  C  C427  1  0.937800  0.864300  0.579700  1.0  0.3669
  C  C428  1  0.992300  0.839800  0.603260  1.0  -0.095
  C  C429  1  0.091800  0.840600  0.603800  1.0  -0.1348
  C  C430  1  0.140500  0.817800  0.626500  1.0  0.1406
  C  C431  1  0.001100  0.795200  0.648800  1.0  0.1341
  C  C432  1  0.944100  0.815700  0.626000  1.0  -0.1642
  C  C433  1  0.462300  0.177800  0.650550  1.0  0.3478
  C  C434  1  0.448700  0.129800  0.635340  1.0  -0.101
  C  C435  1  0.450400  0.086700  0.651800  1.0  -0.1499
  C  C436  1  0.435000  0.044600  0.636300  1.0  0.1319
  C  C437  1  0.414100  0.083300  0.592300  1.0  0.1205
  C  C438  1  0.429200  0.127700  0.605700  1.0  -0.1489
  C  C439  1  0.461100  0.259300  0.648540  1.0  0.3763
  C  C440  1  0.442000  0.305200  0.632300  1.0  -0.1148
  C  C441  1  0.456500  0.349600  0.646300  1.0  -0.1493
  C  C442  1  0.434500  0.391500  0.630400  1.0  0.1385
  C  C443  1  0.389700  0.348100  0.589550  1.0  0.1394
  C  C444  1  0.408700  0.303800  0.603210  1.0  -0.1609
  C  C445  1  0.499500  0.222000  0.691670  1.0  0.3827
  C  C446  1  0.528100  0.224700  0.723470  1.0  -0.1083
  C  C447  1  0.556200  0.185500  0.739600  1.0  -0.067
  C  C448  1  0.590600  0.189900  0.767800  1.0  0.1163
  C  C449  1  0.565500  0.272000  0.767200  1.0  0.1376
  C  C450  1  0.532100  0.270200  0.738030  1.0  -0.1449
  C  C451  1  0.698400  0.398600  0.438100  1.0  0.3982
  C  C452  1  0.800200  0.412300  0.432350  1.0  -0.0482
  C  C453  1  0.843200  0.409000  0.406000  1.0  -0.1168
  C  C454  1  0.935200  0.424800  0.402000  1.0  0.1518
  C  C455  1  0.942000  0.452100  0.449160  1.0  0.1532
  C  C456  1  0.852600  0.436100  0.454800  1.0  -0.1296
  C  C457  1  0.560900  0.405300  0.464200  1.0  0.3976
  C  C458  1  0.508900  0.421600  0.491210  1.0  -0.1248
  C  C459  1  0.557700  0.442700  0.514700  1.0  -0.0654
  C  C460  1  0.507900  0.455000  0.540600  1.0  0.1207
  C  C461  1  0.364600  0.430600  0.519100  1.0  0.1178
  C  C462  1  0.410300  0.416300  0.493100  1.0  -0.1648
  C  C463  1  0.562200  0.364300  0.420300  1.0  0.3667
  C  C464  1  0.507700  0.339800  0.396740  1.0  -0.0948
  C  C465  1  0.408200  0.340600  0.396200  1.0  -0.1372
  C  C466  1  0.359500  0.317800  0.373500  1.0  0.1411
  C  C467  1  0.498900  0.295200  0.351200  1.0  0.1329
  C  C468  1  0.555900  0.315700  0.374000  1.0  -0.1634
  C  C469  1  0.537700  0.322200  0.150550  1.0  0.3476
  C  C470  1  0.551300  0.370200  0.135340  1.0  -0.1004
  C  C471  1  0.549600  0.413300  0.151800  1.0  -0.1505
  C  C472  1  0.565000  0.455400  0.136300  1.0  0.1331
  C  C473  1  0.585900  0.416700  0.092300  1.0  0.12
  C  C474  1  0.570800  0.372300  0.105700  1.0  -0.1495
  C  C475  1  0.538900  0.240700  0.148540  1.0  0.3767
  C  C476  1  0.558000  0.194800  0.132300  1.0  -0.1149
  C  C477  1  0.543500  0.150400  0.146300  1.0  -0.1493
  C  C478  1  0.565500  0.108500  0.130400  1.0  0.1386
  C  C479  1  0.610300  0.151900  0.089550  1.0  0.139
  C  C480  1  0.591300  0.196200  0.103210  1.0  -0.1625
  C  C481  1  0.500500  0.278000  0.191670  1.0  0.3825
  C  C482  1  0.471900  0.275300  0.223470  1.0  -0.1082
  C  C483  1  0.443800  0.314500  0.239600  1.0  -0.0669
  C  C484  1  0.409400  0.310100  0.267800  1.0  0.1148
  C  C485  1  0.434500  0.228000  0.267200  1.0  0.1381
  C  C486  1  0.467900  0.229800  0.238030  1.0  -0.1455
  C  C487  1  0.301600  0.101400  0.938100  1.0  0.3987
  C  C488  1  0.199800  0.087700  0.932350  1.0  -0.0456
  C  C489  1  0.156800  0.091000  0.906000  1.0  -0.1174
  C  C490  1  0.064800  0.075200  0.902000  1.0  0.1523
  C  C491  1  0.058000  0.047900  0.949160  1.0  0.1534
  C  C492  1  0.147400  0.063900  0.954800  1.0  -0.1291
  C  C493  1  0.439100  0.094700  0.964200  1.0  0.3976
  C  C494  1  0.491100  0.078400  0.991210  1.0  -0.1245
  C  C495  1  0.442300  0.057300  0.014700  1.0  -0.0703
  C  C496  1  0.492100  0.045000  0.040600  1.0  0.1202
  C  C497  1  0.635400  0.069400  0.019100  1.0  0.1176
  C  C498  1  0.589700  0.083700  0.993100  1.0  -0.1638
  C  C499  1  0.437800  0.135700  0.920300  1.0  0.3663
  C  C500  1  0.492300  0.160200  0.896740  1.0  -0.0948
  C  C501  1  0.591800  0.159400  0.896200  1.0  -0.1353
  C  C502  1  0.640500  0.182200  0.873500  1.0  0.1405
  C  C503  1  0.501100  0.204800  0.851200  1.0  0.1338
  C  C504  1  0.444100  0.184300  0.874000  1.0  -0.1649
  I  I505  1  0.330020  0.438130  0.077090  1.0  -0.4009
  I  I506  1  0.078650  0.521770  0.114870  1.0  -0.3595
  I  I507  1  0.300590  0.424850  0.876010  1.0  -0.3232
  I  I508  1  0.306290  0.495830  0.964780  1.0  -0.3818
  I  I509  1  0.332470  0.305880  0.812220  1.0  -0.3373
  I  I510  1  0.185980  0.168960  0.833320  1.0  -0.3045
  I  I511  1  0.669980  0.061870  0.577090  1.0  -0.4
  I  I512  1  0.921350  0.978230  0.614870  1.0  -0.3598
  I  I513  1  0.699410  0.075150  0.376010  1.0  -0.3229
  I  I514  1  0.693710  0.004170  0.464780  1.0  -0.3808
  I  I515  1  0.667530  0.194120  0.312220  1.0  -0.3374
  I  I516  1  0.814020  0.331040  0.333333  1.0  -0.3034
  I  I517  1  0.830020  0.561870  0.422910  1.0  -0.4008
  I  I518  1  0.578650  0.478230  0.385130  1.0  -0.3601
  I  I519  1  0.800590  0.575150  0.623990  1.0  -0.3228
  I  I520  1  0.806290  0.504170  0.535220  1.0  -0.3818
  I  I521  1  0.832470  0.694120  0.687780  1.0  -0.3375
  I  I522  1  0.685980  0.831040  0.666667  1.0  -0.3037
  I  I523  1  0.169980  0.938130  0.922910  1.0  -0.4001
  I  I524  1  0.421350  0.021770  0.885130  1.0  -0.3606
  I  I525  1  0.199410  0.924850  0.123990  1.0  -0.323
  I  I526  1  0.193710  0.995830  0.035220  1.0  -0.3808
  I  I527  1  0.167530  0.805880  0.187780  1.0  -0.3373
  I  I528  1  0.314020  0.668960  0.166680  1.0  -0.3042
  I  I529  1  0.669980  0.561870  0.922910  1.0  -0.3999
  I  I530  1  0.921350  0.478230  0.885130  1.0  -0.3607
  I  I531  1  0.699410  0.575150  0.123990  1.0  -0.3223
  I  I532  1  0.693710  0.504170  0.035220  1.0  -0.3809
  I  I533  1  0.667530  0.694120  0.187780  1.0  -0.3375
  I  I534  1  0.814020  0.831040  0.166680  1.0  -0.3031
  I  I535  1  0.330020  0.938130  0.422910  1.0  -0.401
  I  I536  1  0.078650  0.021770  0.385130  1.0  -0.3602
  I  I537  1  0.300590  0.924850  0.623990  1.0  -0.3225
  I  I538  1  0.306290  0.995830  0.535220  1.0  -0.3818
  I  I539  1  0.332470  0.805880  0.687780  1.0  -0.3375
  I  I540  1  0.185980  0.668960  0.666667  1.0  -0.3049
  I  I541  1  0.169980  0.438130  0.577090  1.0  -0.4005
  I  I542  1  0.421350  0.521770  0.614870  1.0  -0.3601
  I  I543  1  0.199410  0.424850  0.376010  1.0  -0.3238
  I  I544  1  0.193710  0.495830  0.464780  1.0  -0.3809
  I  I545  1  0.167530  0.305880  0.312220  1.0  -0.3372
  I  I546  1  0.314020  0.168960  0.333333  1.0  -0.3046
  I  I547  1  0.830020  0.061870  0.077090  1.0  -0.4013
  I  I548  1  0.578650  0.978230  0.114870  1.0  -0.3592
  I  I549  1  0.800590  0.075150  0.876010  1.0  -0.3232
  I  I550  1  0.806290  0.004170  0.964780  1.0  -0.3817
  I  I551  1  0.832470  0.194120  0.812220  1.0  -0.3374
  I  I552  1  0.685980  0.331040  0.833320  1.0  -0.3034
  N  N553  1  0.095900  0.294200  0.851120  1.0  -0.2982
  N  N554  1  0.087700  0.447900  0.043100  1.0  -0.3203
  N  N555  1  0.515400  0.446600  0.922700  1.0  -0.3159
  N  N556  1  0.989800  0.380900  0.943720  1.0  -0.3658
  N  N557  1  0.843700  0.370200  0.917010  1.0  -0.4671
  N  N558  1  0.846400  0.415800  0.961870  1.0  -0.4574
  N  N559  1  0.085200  0.042400  0.106500  1.0  -0.3449
  N  N560  1  0.099000  0.391400  0.102760  1.0  -0.3117
  N  N561  1  0.902200  0.234300  0.281450  1.0  -0.3167
  N  N562  1  0.050400  0.217100  0.134320  1.0  -0.4601
  N  N563  1  0.013800  0.177500  0.180370  1.0  -0.4467
  N  N564  1  0.014600  0.263400  0.177870  1.0  -0.4779
  N  N565  1  0.904100  0.205800  0.351120  1.0  -0.2977
  N  N566  1  0.912300  0.052100  0.543100  1.0  -0.3214
  N  N567  1  0.484600  0.053400  0.422700  1.0  -0.3159
  N  N568  1  0.010200  0.119100  0.443720  1.0  -0.3639
  N  N569  1  0.156300  0.129800  0.417010  1.0  -0.4662
  N  N570  1  0.153600  0.084200  0.461870  1.0  -0.4564
  N  N571  1  0.914800  0.457600  0.606500  1.0  -0.3466
  N  N572  1  0.901000  0.108600  0.602760  1.0  -0.3125
  N  N573  1  0.097800  0.265700  0.781450  1.0  -0.3167
  N  N574  1  0.949600  0.282900  0.634320  1.0  -0.4603
  N  N575  1  0.986200  0.322500  0.680370  1.0  -0.4479
  N  N576  1  0.985400  0.236600  0.677870  1.0  -0.4761
  N  N577  1  0.595900  0.705800  0.648880  1.0  -0.2993
  N  N578  1  0.587700  0.552100  0.456900  1.0  -0.3238
  N  N579  1  0.015400  0.553400  0.577300  1.0  -0.3166
  N  N580  1  0.489800  0.619100  0.556280  1.0  -0.3653
  N  N581  1  0.343700  0.629800  0.582990  1.0  -0.4681
  N  N582  1  0.346400  0.584200  0.538130  1.0  -0.4565
  N  N583  1  0.585200  0.957600  0.393500  1.0  -0.3474
  N  N584  1  0.599000  0.608600  0.397240  1.0  -0.3109
  N  N585  1  0.402200  0.765700  0.218550  1.0  -0.3185
  N  N586  1  0.550400  0.782900  0.365680  1.0  -0.4605
  N  N587  1  0.513800  0.822500  0.319630  1.0  -0.4461
  N  N588  1  0.514600  0.736600  0.322130  1.0  -0.4768
  N  N589  1  0.404100  0.794200  0.148880  1.0  -0.2981
  N  N590  1  0.412300  0.947900  0.956900  1.0  -0.3229
  N  N591  1  0.984600  0.946600  0.077300  1.0  -0.3154
  N  N592  1  0.510200  0.880900  0.056280  1.0  -0.3646
  N  N593  1  0.656300  0.870200  0.082990  1.0  -0.4665
  N  N594  1  0.653600  0.915800  0.038130  1.0  -0.4555
  N  N595  1  0.414800  0.542400  0.893500  1.0  -0.3458
  N  N596  1  0.401000  0.891400  0.897240  1.0  -0.3112
  N  N597  1  0.597800  0.734300  0.718550  1.0  -0.3188
  N  N598  1  0.449600  0.717100  0.865680  1.0  -0.4601
  N  N599  1  0.486200  0.677500  0.819630  1.0  -0.4453
  N  N600  1  0.485400  0.763400  0.822130  1.0  -0.4765
  N  N601  1  0.904100  0.705800  0.148880  1.0  -0.2987
  N  N602  1  0.912300  0.552100  0.956900  1.0  -0.3247
  N  N603  1  0.484600  0.553400  0.077300  1.0  -0.3156
  N  N604  1  0.010200  0.619100  0.056280  1.0  -0.3636
  N  N605  1  0.156300  0.629800  0.082990  1.0  -0.4676
  N  N606  1  0.153600  0.584200  0.038130  1.0  -0.4555
  N  N607  1  0.914800  0.957600  0.893500  1.0  -0.3468
  N  N608  1  0.901000  0.608600  0.897240  1.0  -0.3115
  N  N609  1  0.097800  0.765700  0.718550  1.0  -0.3186
  N  N610  1  0.949600  0.782900  0.865680  1.0  -0.4601
  N  N611  1  0.986200  0.822500  0.819630  1.0  -0.446
  N  N612  1  0.985400  0.736600  0.822130  1.0  -0.476
  N  N613  1  0.095900  0.794200  0.648880  1.0  -0.2978
  N  N614  1  0.087700  0.947900  0.456900  1.0  -0.3222
  N  N615  1  0.515400  0.946600  0.577300  1.0  -0.3158
  N  N616  1  0.989800  0.880900  0.556280  1.0  -0.3659
  N  N617  1  0.843700  0.870200  0.582990  1.0  -0.4675
  N  N618  1  0.846400  0.915800  0.538130  1.0  -0.4567
  N  N619  1  0.085200  0.542400  0.393500  1.0  -0.3448
  N  N620  1  0.099000  0.891400  0.397240  1.0  -0.3112
  N  N621  1  0.902200  0.734300  0.218550  1.0  -0.3184
  N  N622  1  0.050400  0.717100  0.365680  1.0  -0.4605
  N  N623  1  0.013800  0.677500  0.319630  1.0  -0.4455
  N  N624  1  0.014600  0.763400  0.322130  1.0  -0.4769
  N  N625  1  0.404100  0.294200  0.351120  1.0  -0.2983
  N  N626  1  0.412300  0.447900  0.543100  1.0  -0.3213
  N  N627  1  0.984600  0.446600  0.422700  1.0  -0.3156
  N  N628  1  0.510200  0.380900  0.443720  1.0  -0.3646
  N  N629  1  0.656300  0.370200  0.417010  1.0  -0.4666
  N  N630  1  0.653600  0.415800  0.461870  1.0  -0.4562
  N  N631  1  0.414800  0.042400  0.606500  1.0  -0.3462
  N  N632  1  0.401000  0.391400  0.602760  1.0  -0.312
  N  N633  1  0.597800  0.234300  0.781450  1.0  -0.3169
  N  N634  1  0.449600  0.217100  0.634320  1.0  -0.4603
  N  N635  1  0.486200  0.177500  0.680370  1.0  -0.4465
  N  N636  1  0.485400  0.263400  0.677870  1.0  -0.4775
  N  N637  1  0.595900  0.205800  0.851120  1.0  -0.2988
  N  N638  1  0.587700  0.052100  0.043100  1.0  -0.3201
  N  N639  1  0.015400  0.053400  0.922700  1.0  -0.3167
  N  N640  1  0.489800  0.119100  0.943720  1.0  -0.3655
  N  N641  1  0.343700  0.129800  0.917010  1.0  -0.4666
  N  N642  1  0.346400  0.084200  0.961870  1.0  -0.4573
  N  N643  1  0.585200  0.457600  0.106500  1.0  -0.3468
  N  N644  1  0.599000  0.108600  0.102760  1.0  -0.3116
  N  N645  1  0.402200  0.265700  0.281450  1.0  -0.3168
  N  N646  1  0.550400  0.282900  0.134320  1.0  -0.4601
  N  N647  1  0.513800  0.322500  0.180370  1.0  -0.448
  N  N648  1  0.514600  0.236600  0.177870  1.0  -0.4768
