# generated using pymatgen
data_Zn4H33C50NO15
_symmetry_space_group_name_H-M   'P 1'
_cell_length_a   41.45900000
_cell_length_b   41.45900000
_cell_length_c   17.56100000
_cell_angle_alpha   90.00000000
_cell_angle_beta   90.00000000
_cell_angle_gamma   120.00000000
_symmetry_Int_Tables_number   1
_chemical_formula_structural   Zn4H33C50NO15
_chemical_formula_sum   'Zn24 H198 C300 N6 O90'
_cell_volume   26140.71846663
_cell_formula_units_Z   6
loop_
 _symmetry_equiv_pos_site_id
 _symmetry_equiv_pos_as_xyz
  1  'x, y, z'
loop_
 _atom_site_type_symbol
 _atom_site_label
 _atom_site_symmetry_multiplicity
 _atom_site_fract_x
 _atom_site_fract_y
 _atom_site_fract_z
 _atom_site_occupancy
 _atom_site_charge
  Zn  Zn1  1  0.028820  0.628330  0.597640  1.0  1.0907
  Zn  Zn2  1  0.068870  0.591440  0.505920  1.0  1.072
  Zn  Zn3  1  0.028970  0.627930  0.418150  1.0  1.0852
  Zn  Zn4  1  0.104210  0.678880  0.509040  1.0  1.0775
  Zn  Zn5  1  0.371670  0.400490  0.597640  1.0  1.0914
  Zn  Zn6  1  0.408560  0.477430  0.505920  1.0  1.0733
  Zn  Zn7  1  0.372070  0.401040  0.418150  1.0  1.083
  Zn  Zn8  1  0.321120  0.425330  0.509040  1.0  1.0792
  Zn  Zn9  1  0.599510  0.971180  0.597640  1.0  1.0917
  Zn  Zn10  1  0.522570  0.931130  0.505920  1.0  1.0718
  Zn  Zn11  1  0.598960  0.971030  0.418150  1.0  1.0844
  Zn  Zn12  1  0.574670  0.895790  0.509040  1.0  1.0774
  Zn  Zn13  1  0.971180  0.371670  0.097640  1.0  1.0915
  Zn  Zn14  1  0.931130  0.408560  0.005920  1.0  1.0722
  Zn  Zn15  1  0.971030  0.372070  0.918150  1.0  1.085
  Zn  Zn16  1  0.895790  0.321120  0.009040  1.0  1.0785
  Zn  Zn17  1  0.628330  0.599510  0.097640  1.0  1.0921
  Zn  Zn18  1  0.591440  0.522570  0.005920  1.0  1.0725
  Zn  Zn19  1  0.627930  0.598960  0.918150  1.0  1.084
  Zn  Zn20  1  0.678880  0.574670  0.009040  1.0  1.0782
  Zn  Zn21  1  0.400490  0.028820  0.097640  1.0  1.0906
  Zn  Zn22  1  0.477430  0.068870  0.005920  1.0  1.0722
  Zn  Zn23  1  0.401040  0.028970  0.918150  1.0  1.0841
  Zn  Zn24  1  0.425330  0.104210  0.009040  1.0  1.0782
  H  H25  1  0.982800  0.543300  0.757500  1.0  0.1223
  H  H26  1  0.960900  0.495800  0.847000  1.0  0.1179
  H  H27  1  0.173500  0.596800  0.459500  1.0  0.114
  H  H28  1  0.232600  0.603800  0.465000  1.0  0.1228
  H  H29  1  0.271900  0.704700  0.560500  1.0  0.1212
  H  H30  1  0.212800  0.697700  0.555100  1.0  0.116
  H  H31  1  0.282300  0.607500  0.506700  1.0  0.1109
  H  H32  1  0.156700  0.749500  0.694300  1.0  0.1176
  H  H33  1  0.182000  0.785000  0.803200  1.0  0.1214
  H  H34  1  0.082300  0.729700  0.906500  1.0  0.1175
  H  H35  1  0.057000  0.694200  0.797600  1.0  0.1187
  H  H36  1  0.190500  0.827200  0.896400  1.0  0.1236
  H  H37  1  0.206400  0.820700  0.120300  1.0  0.1265
  H  H38  1  0.118500  0.736600  0.015000  1.0  0.1195
  H  H39  1  0.062700  0.698000  0.228900  1.0  0.1119
  H  H40  1  0.088600  0.728200  0.114900  1.0  0.1218
  H  H41  1  0.190400  0.777600  0.210100  1.0  0.1177
  H  H42  1  0.164500  0.747400  0.324200  1.0  0.116
  H  H43  1  0.313200  0.918800  0.111500  1.0  0.1183
  H  H44  1  0.258300  0.861800  0.113200  1.0  0.1219
  H  H45  1  0.231200  0.883900  0.907700  1.0  0.1176
  H  H46  1  0.286100  0.940900  0.906000  1.0  0.114
  H  H47  1  0.065900  0.454500  0.675500  1.0  0.0951
  H  H48  1  0.047900  0.395700  0.643500  1.0  0.095
  H  H49  1  0.033300  0.380900  0.726200  1.0  0.0819
  H  H50  1  0.049200  0.427400  0.829800  1.0  0.0847
  H  H51  1  0.097200  0.488400  0.866100  1.0  0.1039
  H  H52  1  0.062800  0.488900  0.830400  1.0  0.1078
  H  H53  1  0.098900  0.501500  0.781700  1.0  0.1055
  H  H54  1  0.112800  0.442600  0.839000  1.0  0.112
  H  H55  1  0.117200  0.450400  0.751100  1.0  0.0985
  H  H56  1  0.090500  0.410000  0.781300  1.0  0.1063
  H  H57  1  0.500890  0.457610  0.145340  1.0  0.1115
  H  H58  1  0.456700  0.439500  0.757500  1.0  0.124
  H  H59  1  0.504200  0.465100  0.847000  1.0  0.1177
  H  H60  1  0.403200  0.576700  0.459500  1.0  0.1141
  H  H61  1  0.396200  0.628800  0.465000  1.0  0.1216
  H  H62  1  0.295300  0.567200  0.560500  1.0  0.1213
  H  H63  1  0.302300  0.515100  0.555100  1.0  0.1154
  H  H64  1  0.392500  0.674800  0.506700  1.0  0.1123
  H  H65  1  0.250500  0.407200  0.694300  1.0  0.1176
  H  H66  1  0.215000  0.397000  0.803200  1.0  0.1208
  H  H67  1  0.270300  0.352600  0.906500  1.0  0.1172
  H  H68  1  0.305800  0.362800  0.797600  1.0  0.1184
  H  H69  1  0.172800  0.363300  0.896400  1.0  0.1241
  H  H70  1  0.179300  0.385700  0.120300  1.0  0.1269
  H  H71  1  0.263400  0.381900  0.015000  1.0  0.1181
  H  H72  1  0.302000  0.364700  0.228900  1.0  0.1127
  H  H73  1  0.271800  0.360400  0.114900  1.0  0.12
  H  H74  1  0.222400  0.412800  0.210100  1.0  0.118
  H  H75  1  0.252600  0.417100  0.324200  1.0  0.1157
  H  H76  1  0.081200  0.394400  0.111500  1.0  0.1181
  H  H77  1  0.138200  0.396500  0.113200  1.0  0.1231
  H  H78  1  0.116100  0.347300  0.907700  1.0  0.1198
  H  H79  1  0.059100  0.345200  0.906000  1.0  0.1144
  H  H80  1  0.545500  0.611400  0.675500  1.0  0.0942
  H  H81  1  0.604300  0.652200  0.643500  1.0  0.0963
  H  H82  1  0.619100  0.652400  0.726200  1.0  0.081
  H  H83  1  0.572600  0.621800  0.829800  1.0  0.0866
  H  H84  1  0.511600  0.608800  0.866100  1.0  0.1072
  H  H85  1  0.511100  0.573900  0.830400  1.0  0.1051
  H  H86  1  0.498500  0.597400  0.781700  1.0  0.1043
  H  H87  1  0.557400  0.670200  0.839000  1.0  0.1126
  H  H88  1  0.549600  0.666800  0.751100  1.0  0.0964
  H  H89  1  0.590000  0.680500  0.781300  1.0  0.1047
  H  H90  1  0.542390  0.043290  0.145340  1.0  0.1123
  H  H91  1  0.560500  0.017200  0.757500  1.0  0.123
  H  H92  1  0.534900  0.039100  0.847000  1.0  0.1171
  H  H93  1  0.423300  0.826500  0.459500  1.0  0.1136
  H  H94  1  0.371200  0.767400  0.465000  1.0  0.1209
  H  H95  1  0.432800  0.728100  0.560500  1.0  0.1199
  H  H96  1  0.484900  0.787200  0.555100  1.0  0.1157
  H  H97  1  0.325200  0.717700  0.506700  1.0  0.1112
  H  H98  1  0.592800  0.843300  0.694300  1.0  0.1171
  H  H99  1  0.603000  0.818000  0.803200  1.0  0.122
  H  H100  1  0.647400  0.917700  0.906500  1.0  0.118
  H  H101  1  0.637200  0.943000  0.797600  1.0  0.1193
  H  H102  1  0.636700  0.809500  0.896400  1.0  0.1243
  H  H103  1  0.614300  0.793600  0.120300  1.0  0.1259
  H  H104  1  0.618100  0.881500  0.015000  1.0  0.1178
  H  H105  1  0.635300  0.937300  0.228900  1.0  0.1125
  H  H106  1  0.639600  0.911400  0.114900  1.0  0.1201
  H  H107  1  0.587200  0.809600  0.210100  1.0  0.1182
  H  H108  1  0.582900  0.835500  0.324200  1.0  0.1157
  H  H109  1  0.605600  0.686800  0.111500  1.0  0.1181
  H  H110  1  0.603500  0.741700  0.113200  1.0  0.1223
  H  H111  1  0.652700  0.768800  0.907700  1.0  0.1177
  H  H112  1  0.654800  0.713900  0.906000  1.0  0.1126
  H  H113  1  0.388600  0.934100  0.675500  1.0  0.0948
  H  H114  1  0.347800  0.952100  0.643500  1.0  0.0941
  H  H115  1  0.347600  0.966700  0.726200  1.0  0.0805
  H  H116  1  0.378200  0.950800  0.829800  1.0  0.0842
  H  H117  1  0.391200  0.902800  0.866100  1.0  0.1031
  H  H118  1  0.426100  0.937200  0.830400  1.0  0.1071
  H  H119  1  0.402600  0.901100  0.781700  1.0  0.1046
  H  H120  1  0.329800  0.887200  0.839000  1.0  0.113
  H  H121  1  0.333200  0.882800  0.751100  1.0  0.0967
  H  H122  1  0.319500  0.909500  0.781300  1.0  0.1063
  H  H123  1  0.956710  0.499110  0.145340  1.0  0.1127
  H  H124  1  0.017200  0.456700  0.257500  1.0  0.1235
  H  H125  1  0.039100  0.504200  0.347000  1.0  0.1175
  H  H126  1  0.826500  0.403200  0.959500  1.0  0.1146
  H  H127  1  0.767400  0.396200  0.965000  1.0  0.1239
  H  H128  1  0.728100  0.295300  0.060500  1.0  0.1202
  H  H129  1  0.787200  0.302300  0.055100  1.0  0.1159
  H  H130  1  0.717700  0.392500  0.006700  1.0  0.1115
  H  H131  1  0.843300  0.250500  0.194300  1.0  0.1179
  H  H132  1  0.818000  0.215000  0.303200  1.0  0.1212
  H  H133  1  0.917700  0.270300  0.406500  1.0  0.1173
  H  H134  1  0.943000  0.305800  0.297600  1.0  0.1198
  H  H135  1  0.809500  0.172800  0.396400  1.0  0.124
  H  H136  1  0.793600  0.179300  0.620300  1.0  0.1267
  H  H137  1  0.881500  0.263400  0.515000  1.0  0.1189
  H  H138  1  0.937300  0.302000  0.728900  1.0  0.1124
  H  H139  1  0.911400  0.271800  0.614900  1.0  0.1225
  H  H140  1  0.809600  0.222400  0.710100  1.0  0.1178
  H  H141  1  0.835500  0.252600  0.824200  1.0  0.1165
  H  H142  1  0.686800  0.081200  0.611500  1.0  0.1182
  H  H143  1  0.741700  0.138200  0.613200  1.0  0.1225
  H  H144  1  0.768800  0.116100  0.407700  1.0  0.1179
  H  H145  1  0.713900  0.059100  0.406000  1.0  0.1136
  H  H146  1  0.934100  0.545500  0.175500  1.0  0.0939
  H  H147  1  0.952100  0.604300  0.143500  1.0  0.095
  H  H148  1  0.966700  0.619100  0.226200  1.0  0.0809
  H  H149  1  0.950800  0.572600  0.329800  1.0  0.0842
  H  H150  1  0.902800  0.511600  0.366100  1.0  0.1062
  H  H151  1  0.937200  0.511100  0.330400  1.0  0.1033
  H  H152  1  0.901100  0.498500  0.281700  1.0  0.1042
  H  H153  1  0.887200  0.557400  0.339000  1.0  0.1131
  H  H154  1  0.882800  0.549600  0.251100  1.0  0.0979
  H  H155  1  0.909500  0.590000  0.281300  1.0  0.1074
  H  H156  1  0.499110  0.542390  0.645340  1.0  0.1124
  H  H157  1  0.543300  0.560500  0.257500  1.0  0.1237
  H  H158  1  0.495800  0.534900  0.347000  1.0  0.1182
  H  H159  1  0.596800  0.423300  0.959500  1.0  0.114
  H  H160  1  0.603800  0.371200  0.965000  1.0  0.1214
  H  H161  1  0.704700  0.432800  0.060500  1.0  0.1198
  H  H162  1  0.697700  0.484900  0.055100  1.0  0.1154
  H  H163  1  0.607500  0.325200  0.006700  1.0  0.1137
  H  H164  1  0.749500  0.592800  0.194300  1.0  0.1181
  H  H165  1  0.785000  0.603000  0.303200  1.0  0.1205
  H  H166  1  0.729700  0.647400  0.406500  1.0  0.1175
  H  H167  1  0.694200  0.637200  0.297600  1.0  0.1186
  H  H168  1  0.827200  0.636700  0.396400  1.0  0.1236
  H  H169  1  0.820700  0.614300  0.620300  1.0  0.127
  H  H170  1  0.736600  0.618100  0.515000  1.0  0.1187
  H  H171  1  0.698000  0.635300  0.728900  1.0  0.1125
  H  H172  1  0.728200  0.639600  0.614900  1.0  0.1204
  H  H173  1  0.777600  0.587200  0.710100  1.0  0.1188
  H  H174  1  0.747400  0.582900  0.824200  1.0  0.1158
  H  H175  1  0.918800  0.605600  0.611500  1.0  0.1184
  H  H176  1  0.861800  0.603500  0.613200  1.0  0.1224
  H  H177  1  0.883900  0.652700  0.407700  1.0  0.12
  H  H178  1  0.940900  0.654800  0.406000  1.0  0.1151
  H  H179  1  0.454500  0.388600  0.175500  1.0  0.0941
  H  H180  1  0.395700  0.347800  0.143500  1.0  0.0958
  H  H181  1  0.380900  0.347600  0.226200  1.0  0.0807
  H  H182  1  0.427400  0.378200  0.329800  1.0  0.0857
  H  H183  1  0.488400  0.391200  0.366100  1.0  0.1053
  H  H184  1  0.488900  0.426100  0.330400  1.0  0.1034
  H  H185  1  0.501500  0.402600  0.281700  1.0  0.1037
  H  H186  1  0.442600  0.329800  0.339000  1.0  0.1116
  H  H187  1  0.450400  0.333200  0.251100  1.0  0.0976
  H  H188  1  0.410000  0.319500  0.281300  1.0  0.1066
  H  H189  1  0.457610  0.956710  0.645340  1.0  0.1116
  H  H190  1  0.439500  0.982800  0.257500  1.0  0.123
  H  H191  1  0.465100  0.960900  0.347000  1.0  0.1172
  H  H192  1  0.576700  0.173500  0.959500  1.0  0.1134
  H  H193  1  0.628800  0.232600  0.965000  1.0  0.1216
  H  H194  1  0.567200  0.271900  0.060500  1.0  0.1187
  H  H195  1  0.515100  0.212800  0.055100  1.0  0.1162
  H  H196  1  0.674800  0.282300  0.006700  1.0  0.1108
  H  H197  1  0.407200  0.156700  0.194300  1.0  0.1176
  H  H198  1  0.397000  0.182000  0.303200  1.0  0.1223
  H  H199  1  0.352600  0.082300  0.406500  1.0  0.1179
  H  H200  1  0.362800  0.057000  0.297600  1.0  0.1188
  H  H201  1  0.363300  0.190500  0.396400  1.0  0.1238
  H  H202  1  0.385700  0.206400  0.620300  1.0  0.1255
  H  H203  1  0.381900  0.118500  0.515000  1.0  0.1181
  H  H204  1  0.364700  0.062700  0.728900  1.0  0.1116
  H  H205  1  0.360400  0.088600  0.614900  1.0  0.1203
  H  H206  1  0.412800  0.190400  0.710100  1.0  0.1186
  H  H207  1  0.417100  0.164500  0.824200  1.0  0.1158
  H  H208  1  0.394400  0.313200  0.611500  1.0  0.1178
  H  H209  1  0.396500  0.258300  0.613200  1.0  0.1224
  H  H210  1  0.347300  0.231200  0.407700  1.0  0.1171
  H  H211  1  0.345200  0.286100  0.406000  1.0  0.1127
  H  H212  1  0.611400  0.065900  0.175500  1.0  0.095
  H  H213  1  0.652200  0.047900  0.143500  1.0  0.0958
  H  H214  1  0.652400  0.033300  0.226200  1.0  0.0812
  H  H215  1  0.621800  0.049200  0.329800  1.0  0.0847
  H  H216  1  0.608800  0.097200  0.366100  1.0  0.1052
  H  H217  1  0.573900  0.062800  0.330400  1.0  0.1079
  H  H218  1  0.597400  0.098900  0.281700  1.0  0.1055
  H  H219  1  0.670200  0.112800  0.339000  1.0  0.1123
  H  H220  1  0.666800  0.117200  0.251100  1.0  0.0979
  H  H221  1  0.680500  0.090500  0.281300  1.0  0.1065
  H  H222  1  0.043290  0.500890  0.645340  1.0  0.1127
  C  C223  1  0.971700  0.439830  0.865010  1.0  0.6796
  C  C224  1  0.987200  0.469780  0.804150  1.0  -0.1511
  C  C225  1  0.010810  0.471250  0.746400  1.0  0.08
  C  C226  1  0.023930  0.499700  0.692740  1.0  -0.0807
  C  C227  1  0.013440  0.526680  0.696910  1.0  -0.0889
  C  C228  1  0.989830  0.525210  0.754700  1.0  -0.0414
  C  C229  1  0.976710  0.496760  0.808320  1.0  -0.0239
  C  C230  1  0.025780  0.559100  0.641400  1.0  0.6931
  C  C231  1  0.147880  0.640810  0.518400  1.0  0.51
  C  C232  1  0.187300  0.646560  0.506800  1.0  -0.1412
  C  C233  1  0.193230  0.618430  0.479790  1.0  -0.0658
  C  C234  1  0.228620  0.622600  0.483000  1.0  -0.1379
  C  C235  1  0.258080  0.654910  0.513300  1.0  -0.0266
  C  C236  1  0.252150  0.683040  0.540300  1.0  -0.1447
  C  C237  1  0.216760  0.678870  0.537000  1.0  -0.0707
  C  C238  1  0.297600  0.662250  0.504800  1.0  0.0225
  C  C239  1  0.302980  0.631330  0.505600  1.0  -0.1029
  C  C240  1  0.092070  0.696690  0.657550  1.0  0.679
  C  C241  1  0.104330  0.718310  0.735140  1.0  -0.0763
  C  C242  1  0.141770  0.745530  0.736830  1.0  -0.0464
  C  C243  1  0.156930  0.766810  0.802090  1.0  -0.1056
  C  C244  1  0.134660  0.760860  0.865660  1.0  0.0184
  C  C245  1  0.097220  0.733650  0.863960  1.0  -0.1032
  C  C246  1  0.082050  0.712370  0.798710  1.0  -0.0484
  C  C247  1  0.151070  0.779310  0.944820  1.0  0.0148
  C  C248  1  0.182990  0.814210  0.942150  1.0  -0.0874
  C  C249  1  0.203710  0.829710  0.007890  1.0  -0.018
  C  C250  1  0.192520  0.810310  0.076300  1.0  -0.1775
  C  C251  1  0.160600  0.775420  0.078970  1.0  -1e-04
  C  C252  1  0.139870  0.759920  0.013230  1.0  -0.1227
  C  C253  1  0.090840  0.695910  0.353700  1.0  0.7463
  C  C254  1  0.111050  0.719730  0.287840  1.0  -0.111
  C  C255  1  0.088320  0.713970  0.225150  1.0  -0.0645
  C  C256  1  0.103820  0.732040  0.156830  1.0  -0.1125
  C  C257  1  0.142050  0.755860  0.151200  1.0  0.0047
  C  C258  1  0.164780  0.761620  0.213890  1.0  -0.1457
  C  C259  1  0.149280  0.743560  0.282220  1.0  -0.0685
  C  C260  1  0.343140  0.972240  0.010800  1.0  0.663
  C  C261  1  0.305060  0.935500  0.008570  1.0  -0.1519
  C  C262  1  0.296740  0.911810  0.070630  1.0  -0.0397
  C  C263  1  0.263880  0.877670  0.071640  1.0  -0.1404
  C  C264  1  0.239320  0.867200  0.010590  1.0  0.0485
  C  C265  1  0.247630  0.890880  0.948530  1.0  -0.0905
  C  C266  1  0.280500  0.925030  0.947520  1.0  -0.0581
  C  C267  1  0.048500  0.437000  0.713000  1.0  0.0478
  C  C268  1  0.032900  0.396400  0.685100  1.0  0.0127
  C  C269  1  0.987200  0.410400  0.678800  1.0  0.4822
  C  C270  1  0.067700  0.444200  0.792800  1.0  0.1059
  C  C271  1  0.083100  0.484500  0.820300  1.0  -0.3157
  C  C272  1  0.100100  0.436000  0.790900  1.0  -0.3218
  C  C273  1  0.560170  0.531870  0.865010  1.0  0.6753
  C  C274  1  0.530220  0.517420  0.804150  1.0  -0.154
  C  C275  1  0.528750  0.539560  0.746400  1.0  0.0802
  C  C276  1  0.500300  0.524230  0.692740  1.0  -0.077
  C  C277  1  0.473320  0.486760  0.696910  1.0  -0.0883
  C  C278  1  0.474790  0.464620  0.754700  1.0  -0.0428
  C  C279  1  0.503240  0.479950  0.808320  1.0  -0.0244
  C  C280  1  0.440900  0.466680  0.641400  1.0  0.6941
  C  C281  1  0.359190  0.507070  0.518400  1.0  0.5092
  C  C282  1  0.353440  0.540740  0.506800  1.0  -0.1419
  C  C283  1  0.381570  0.574800  0.479790  1.0  -0.0652
  C  C284  1  0.377400  0.606020  0.483000  1.0  -0.1363
  C  C285  1  0.345090  0.603170  0.513300  1.0  -0.0255
  C  C286  1  0.316960  0.569110  0.540300  1.0  -0.1436
  C  C287  1  0.321130  0.537890  0.537000  1.0  -0.0685
  C  C288  1  0.337750  0.635350  0.504800  1.0  0.0245
  C  C289  1  0.368670  0.671650  0.505600  1.0  -0.1038
  C  C290  1  0.303310  0.395380  0.657550  1.0  0.6773
  C  C291  1  0.281690  0.386020  0.735140  1.0  -0.0747
  C  C292  1  0.254470  0.396240  0.736830  1.0  -0.0458
  C  C293  1  0.233190  0.390120  0.802090  1.0  -0.1076
  C  C294  1  0.239140  0.373800  0.865660  1.0  0.0186
  C  C295  1  0.266350  0.363570  0.863960  1.0  -0.1022
  C  C296  1  0.287630  0.369680  0.798710  1.0  -0.0508
  C  C297  1  0.220690  0.371760  0.944820  1.0  0.0159
  C  C298  1  0.185790  0.368780  0.942150  1.0  -0.0868
  C  C299  1  0.170290  0.374000  0.007890  1.0  -0.0205
  C  C300  1  0.189690  0.382210  0.076300  1.0  -0.1797
  C  C301  1  0.224580  0.385180  0.078970  1.0  0.0015
  C  C302  1  0.240080  0.379950  0.013230  1.0  -0.1239
  C  C303  1  0.304090  0.394930  0.353700  1.0  0.7463
  C  C304  1  0.280270  0.391320  0.287840  1.0  -0.1136
  C  C305  1  0.286030  0.374350  0.225150  1.0  -0.0633
  C  C306  1  0.267960  0.371780  0.156830  1.0  -0.1128
  C  C307  1  0.244140  0.386190  0.151200  1.0  0.0039
  C  C308  1  0.238380  0.403160  0.213890  1.0  -0.1487
  C  C309  1  0.256440  0.405720  0.282220  1.0  -0.0665
  C  C310  1  0.027760  0.370900  0.010800  1.0  0.6644
  C  C311  1  0.064500  0.369560  0.008570  1.0  -0.1511
  C  C312  1  0.088190  0.384930  0.070630  1.0  -0.0412
  C  C313  1  0.122330  0.386210  0.071640  1.0  -0.1415
  C  C314  1  0.132800  0.372120  0.010590  1.0  0.0482
  C  C315  1  0.109120  0.356750  0.948530  1.0  -0.0933
  C  C316  1  0.074970  0.355470  0.947520  1.0  -0.0616
  C  C317  1  0.563000  0.611500  0.713000  1.0  0.0482
  C  C318  1  0.603600  0.636500  0.685100  1.0  0.0133
  C  C319  1  0.589600  0.576800  0.678800  1.0  0.4825
  C  C320  1  0.555800  0.623500  0.792800  1.0  0.105
  C  C321  1  0.515500  0.598600  0.820300  1.0  -0.3163
  C  C322  1  0.564000  0.664100  0.790900  1.0  -0.3249
  C  C323  1  0.468130  0.028300  0.865010  1.0  0.6788
  C  C324  1  0.482580  0.012800  0.804150  1.0  -0.1506
  C  C325  1  0.460440  0.989190  0.746400  1.0  0.0813
  C  C326  1  0.475770  0.976070  0.692740  1.0  -0.0773
  C  C327  1  0.513240  0.986560  0.696910  1.0  -0.0892
  C  C328  1  0.535380  0.010170  0.754700  1.0  -0.0394
  C  C329  1  0.520050  0.023290  0.808320  1.0  -0.0205
  C  C330  1  0.533320  0.974220  0.641400  1.0  0.6926
  C  C331  1  0.492930  0.852120  0.518400  1.0  0.5104
  C  C332  1  0.459260  0.812700  0.506800  1.0  -0.1415
  C  C333  1  0.425200  0.806770  0.479790  1.0  -0.0648
  C  C334  1  0.393980  0.771380  0.483000  1.0  -0.1374
  C  C335  1  0.396830  0.741920  0.513300  1.0  -0.0254
  C  C336  1  0.430890  0.747850  0.540300  1.0  -0.1418
  C  C337  1  0.462110  0.783240  0.537000  1.0  -0.0667
  C  C338  1  0.364650  0.702400  0.504800  1.0  0.0244
  C  C339  1  0.328350  0.697020  0.505600  1.0  -0.101
  C  C340  1  0.604620  0.907930  0.657550  1.0  0.6781
  C  C341  1  0.613980  0.895670  0.735140  1.0  -0.0745
  C  C342  1  0.603760  0.858230  0.736830  1.0  -0.0464
  C  C343  1  0.609880  0.843070  0.802090  1.0  -0.1045
  C  C344  1  0.626200  0.865340  0.865660  1.0  0.0195
  C  C345  1  0.636430  0.902780  0.863960  1.0  -0.1031
  C  C346  1  0.630320  0.917950  0.798710  1.0  -0.0503
  C  C347  1  0.628240  0.848930  0.944820  1.0  0.0173
  C  C348  1  0.631220  0.817010  0.942150  1.0  -0.0884
  C  C349  1  0.626000  0.796290  0.007890  1.0  -0.02
  C  C350  1  0.617790  0.807480  0.076300  1.0  -0.175
  C  C351  1  0.614820  0.839400  0.078970  1.0  -0.0013
  C  C352  1  0.620050  0.860130  0.013230  1.0  -0.1238
  C  C353  1  0.605070  0.909160  0.353700  1.0  0.7481
  C  C354  1  0.608680  0.888950  0.287840  1.0  -0.112
  C  C355  1  0.625650  0.911680  0.225150  1.0  -0.0654
  C  C356  1  0.628220  0.896180  0.156830  1.0  -0.114
  C  C357  1  0.613810  0.857950  0.151200  1.0  0.0045
  C  C358  1  0.596840  0.835220  0.213890  1.0  -0.1461
  C  C359  1  0.594280  0.850720  0.282220  1.0  -0.0691
  C  C360  1  0.629100  0.656860  0.010800  1.0  0.6639
  C  C361  1  0.630440  0.694940  0.008570  1.0  -0.151
  C  C362  1  0.615070  0.703260  0.070630  1.0  -0.0394
  C  C363  1  0.613790  0.736120  0.071640  1.0  -0.14
  C  C364  1  0.627880  0.760680  0.010590  1.0  0.0477
  C  C365  1  0.643250  0.752370  0.948530  1.0  -0.0914
  C  C366  1  0.644530  0.719500  0.947520  1.0  -0.0589
  C  C367  1  0.388500  0.951500  0.713000  1.0  0.0486
  C  C368  1  0.363500  0.967100  0.685100  1.0  0.0137
  C  C369  1  0.423200  0.012800  0.678800  1.0  0.4906
  C  C370  1  0.376500  0.932300  0.792800  1.0  0.1049
  C  C371  1  0.401400  0.916900  0.820300  1.0  -0.3162
  C  C372  1  0.335900  0.899900  0.790900  1.0  -0.3223
  C  C373  1  0.028300  0.560170  0.365010  1.0  0.6798
  C  C374  1  0.012800  0.530220  0.304150  1.0  -0.1534
  C  C375  1  0.989190  0.528750  0.246400  1.0  0.0808
  C  C376  1  0.976070  0.500300  0.192740  1.0  -0.0836
  C  C377  1  0.986560  0.473320  0.196910  1.0  -0.0892
  C  C378  1  0.010170  0.474790  0.254700  1.0  -0.041
  C  C379  1  0.023290  0.503240  0.308320  1.0  -0.0228
  C  C380  1  0.974220  0.440900  0.141400  1.0  0.6933
  C  C381  1  0.852120  0.359190  0.018400  1.0  0.5099
  C  C382  1  0.812700  0.353440  0.006800  1.0  -0.1412
  C  C383  1  0.806770  0.381570  0.979790  1.0  -0.0677
  C  C384  1  0.771380  0.377400  0.983000  1.0  -0.1395
  C  C385  1  0.741920  0.345090  0.013300  1.0  -0.0264
  C  C386  1  0.747850  0.316960  0.040300  1.0  -0.1465
  C  C387  1  0.783240  0.321130  0.037000  1.0  -0.0699
  C  C388  1  0.702400  0.337750  0.004800  1.0  0.0233
  C  C389  1  0.697020  0.368670  0.005600  1.0  -0.0997
  C  C390  1  0.907930  0.303310  0.157550  1.0  0.6786
  C  C391  1  0.895670  0.281690  0.235140  1.0  -0.0743
  C  C392  1  0.858230  0.254470  0.236830  1.0  -0.0453
  C  C393  1  0.843070  0.233190  0.302090  1.0  -0.1062
  C  C394  1  0.865340  0.239140  0.365660  1.0  0.0187
  C  C395  1  0.902780  0.266350  0.363960  1.0  -0.103
  C  C396  1  0.917950  0.287630  0.298710  1.0  -0.0482
  C  C397  1  0.848930  0.220690  0.444820  1.0  0.0139
  C  C398  1  0.817010  0.185790  0.442150  1.0  -0.087
  C  C399  1  0.796290  0.170290  0.507890  1.0  -0.0184
  C  C400  1  0.807480  0.189690  0.576300  1.0  -0.1789
  C  C401  1  0.839400  0.224580  0.578970  1.0  -0.0002
  C  C402  1  0.860130  0.240080  0.513230  1.0  -0.1247
  C  C403  1  0.909160  0.304090  0.853700  1.0  0.7476
  C  C404  1  0.888950  0.280270  0.787840  1.0  -0.1116
  C  C405  1  0.911680  0.286030  0.725150  1.0  -0.0638
  C  C406  1  0.896180  0.267960  0.656830  1.0  -0.1113
  C  C407  1  0.857950  0.244140  0.651200  1.0  0.0048
  C  C408  1  0.835220  0.238380  0.713890  1.0  -0.1473
  C  C409  1  0.850720  0.256440  0.782220  1.0  -0.0672
  C  C410  1  0.656860  0.027760  0.510800  1.0  0.6651
  C  C411  1  0.694940  0.064500  0.508570  1.0  -0.1505
  C  C412  1  0.703260  0.088190  0.570630  1.0  -0.0398
  C  C413  1  0.736120  0.122330  0.571640  1.0  -0.1411
  C  C414  1  0.760680  0.132800  0.510590  1.0  0.0478
  C  C415  1  0.752370  0.109120  0.448530  1.0  -0.0918
  C  C416  1  0.719500  0.074970  0.447520  1.0  -0.0594
  C  C417  1  0.951500  0.563000  0.213000  1.0  0.0481
  C  C418  1  0.967100  0.603600  0.185100  1.0  0.0148
  C  C419  1  0.012800  0.589600  0.178800  1.0  0.4839
  C  C420  1  0.932300  0.555800  0.292800  1.0  0.1056
  C  C421  1  0.916900  0.515500  0.320300  1.0  -0.3146
  C  C422  1  0.899900  0.564000  0.290900  1.0  -0.323
  C  C423  1  0.439830  0.468130  0.365010  1.0  0.6741
  C  C424  1  0.469780  0.482580  0.304150  1.0  -0.151
  C  C425  1  0.471250  0.460440  0.246400  1.0  0.0817
  C  C426  1  0.499700  0.475770  0.192740  1.0  -0.0774
  C  C427  1  0.526680  0.513240  0.196910  1.0  -0.0894
  C  C428  1  0.525210  0.535380  0.254700  1.0  -0.0399
  C  C429  1  0.496760  0.520050  0.308320  1.0  -0.0248
  C  C430  1  0.559100  0.533320  0.141400  1.0  0.6933
  C  C431  1  0.640810  0.492930  0.018400  1.0  0.5105
  C  C432  1  0.646560  0.459260  0.006800  1.0  -0.1416
  C  C433  1  0.618430  0.425200  0.979790  1.0  -0.066
  C  C434  1  0.622600  0.393980  0.983000  1.0  -0.1372
  C  C435  1  0.654910  0.396830  0.013300  1.0  -0.026
  C  C436  1  0.683040  0.430890  0.040300  1.0  -0.1426
  C  C437  1  0.678870  0.462110  0.037000  1.0  -0.0678
  C  C438  1  0.662250  0.364650  0.004800  1.0  0.0234
  C  C439  1  0.631330  0.328350  0.005600  1.0  -0.1037
  C  C440  1  0.696690  0.604620  0.157550  1.0  0.6774
  C  C441  1  0.718310  0.613980  0.235140  1.0  -0.0758
  C  C442  1  0.745530  0.603760  0.236830  1.0  -0.0469
  C  C443  1  0.766810  0.609880  0.302090  1.0  -0.1048
  C  C444  1  0.760860  0.626200  0.365660  1.0  0.0205
  C  C445  1  0.733650  0.636430  0.363960  1.0  -0.1034
  C  C446  1  0.712370  0.630320  0.298710  1.0  -0.0509
  C  C447  1  0.779310  0.628240  0.444820  1.0  0.0165
  C  C448  1  0.814210  0.631220  0.442150  1.0  -0.0867
  C  C449  1  0.829710  0.626000  0.507890  1.0  -0.0196
  C  C450  1  0.810310  0.617790  0.576300  1.0  -0.1778
  C  C451  1  0.775420  0.614820  0.578970  1.0  -0.0002
  C  C452  1  0.759920  0.620050  0.513230  1.0  -0.1289
  C  C453  1  0.695910  0.605070  0.853700  1.0  0.7466
  C  C454  1  0.719730  0.608680  0.787840  1.0  -0.1119
  C  C455  1  0.713970  0.625650  0.725150  1.0  -0.0661
  C  C456  1  0.732040  0.628220  0.656830  1.0  -0.1135
  C  C457  1  0.755860  0.613810  0.651200  1.0  0.0038
  C  C458  1  0.761620  0.596840  0.713890  1.0  -0.1464
  C  C459  1  0.743560  0.594280  0.782220  1.0  -0.0674
  C  C460  1  0.972240  0.629100  0.510800  1.0  0.663
  C  C461  1  0.935500  0.630440  0.508570  1.0  -0.1516
  C  C462  1  0.911810  0.615070  0.570630  1.0  -0.04
  C  C463  1  0.877670  0.613790  0.571640  1.0  -0.1419
  C  C464  1  0.867200  0.627880  0.510590  1.0  0.0488
  C  C465  1  0.890880  0.643250  0.448530  1.0  -0.0938
  C  C466  1  0.925030  0.644530  0.447520  1.0  -0.0615
  C  C467  1  0.437000  0.388500  0.213000  1.0  0.048
  C  C468  1  0.396400  0.363500  0.185100  1.0  0.0122
  C  C469  1  0.410400  0.423200  0.178800  1.0  0.4849
  C  C470  1  0.444200  0.376500  0.292800  1.0  0.1068
  C  C471  1  0.484500  0.401400  0.320300  1.0  -0.3164
  C  C472  1  0.436000  0.335900  0.290900  1.0  -0.3237
  C  C473  1  0.531870  0.971700  0.365010  1.0  0.6774
  C  C474  1  0.517420  0.987200  0.304150  1.0  -0.1535
  C  C475  1  0.539560  0.010810  0.246400  1.0  0.0804
  C  C476  1  0.524230  0.023930  0.192740  1.0  -0.0768
  C  C477  1  0.486760  0.013440  0.196910  1.0  -0.0868
  C  C478  1  0.464620  0.989830  0.254700  1.0  -0.0395
  C  C479  1  0.479950  0.976710  0.308320  1.0  -0.0191
  C  C480  1  0.466680  0.025780  0.141400  1.0  0.6926
  C  C481  1  0.507070  0.147880  0.018400  1.0  0.5115
  C  C482  1  0.540740  0.187300  0.006800  1.0  -0.1419
  C  C483  1  0.574800  0.193230  0.979790  1.0  -0.0638
  C  C484  1  0.606020  0.228620  0.983000  1.0  -0.1359
  C  C485  1  0.603170  0.258080  0.013300  1.0  -0.0254
  C  C486  1  0.569110  0.252150  0.040300  1.0  -0.1418
  C  C487  1  0.537890  0.216760  0.037000  1.0  -0.0671
  C  C488  1  0.635350  0.297600  0.004800  1.0  0.0236
  C  C489  1  0.671650  0.302980  0.005600  1.0  -0.1021
  C  C490  1  0.395380  0.092070  0.157550  1.0  0.6786
  C  C491  1  0.386020  0.104330  0.235140  1.0  -0.0751
  C  C492  1  0.396240  0.141770  0.236830  1.0  -0.047
  C  C493  1  0.390120  0.156930  0.302090  1.0  -0.1062
  C  C494  1  0.373800  0.134660  0.365660  1.0  0.0205
  C  C495  1  0.363570  0.097220  0.363960  1.0  -0.103
  C  C496  1  0.369680  0.082050  0.298710  1.0  -0.0501
  C  C497  1  0.371760  0.151070  0.444820  1.0  0.0164
  C  C498  1  0.368780  0.182990  0.442150  1.0  -0.0883
  C  C499  1  0.374000  0.203710  0.507890  1.0  -0.0207
  C  C500  1  0.382210  0.192520  0.576300  1.0  -0.1764
  C  C501  1  0.385180  0.160600  0.578970  1.0  -0.0007
  C  C502  1  0.379950  0.139870  0.513230  1.0  -0.1258
  C  C503  1  0.394930  0.090840  0.853700  1.0  0.7454
  C  C504  1  0.391320  0.111050  0.787840  1.0  -0.1132
  C  C505  1  0.374350  0.088320  0.725150  1.0  -0.0638
  C  C506  1  0.371780  0.103820  0.656830  1.0  -0.114
  C  C507  1  0.386190  0.142050  0.651200  1.0  0.0045
  C  C508  1  0.403160  0.164780  0.713890  1.0  -0.1466
  C  C509  1  0.405720  0.149280  0.782220  1.0  -0.0681
  C  C510  1  0.370900  0.343140  0.510800  1.0  0.6643
  C  C511  1  0.369560  0.305060  0.508570  1.0  -0.1506
  C  C512  1  0.384930  0.296740  0.570630  1.0  -0.0397
  C  C513  1  0.386210  0.263880  0.571640  1.0  -0.14
  C  C514  1  0.372120  0.239320  0.510590  1.0  0.0465
  C  C515  1  0.356750  0.247630  0.448530  1.0  -0.0896
  C  C516  1  0.355470  0.280500  0.447520  1.0  -0.0589
  C  C517  1  0.611500  0.048500  0.213000  1.0  0.0481
  C  C518  1  0.636500  0.032900  0.185100  1.0  0.0138
  C  C519  1  0.576800  0.987200  0.178800  1.0  0.4911
  C  C520  1  0.623500  0.067700  0.292800  1.0  0.1038
  C  C521  1  0.598600  0.083100  0.320300  1.0  -0.3169
  C  C522  1  0.664100  0.100100  0.290900  1.0  -0.3229
  N  N523  1  0.015300  0.440800  0.717500  1.0  -0.125
  N  N524  1  0.559200  0.574500  0.717500  1.0  -0.1264
  N  N525  1  0.425500  0.984700  0.717500  1.0  -0.1239
  N  N526  1  0.984700  0.559200  0.217500  1.0  -0.1247
  N  N527  1  0.440800  0.425500  0.217500  1.0  -0.1241
  N  N528  1  0.574500  0.015300  0.217500  1.0  -0.1252
  O  O529  1  0.057760  0.631620  0.509520  1.0  -1.2668
  O  O530  1  0.952830  0.440810  0.919930  1.0  -0.61
  O  O531  1  0.975350  0.412060  0.855590  1.0  -0.6024
  O  O532  1  0.014260  0.581700  0.650800  1.0  -0.5791
  O  O533  1  0.048980  0.559040  0.595490  1.0  -0.5948
  O  O534  1  0.145990  0.669590  0.495300  1.0  -0.607
  O  O535  1  0.122460  0.609050  0.497800  1.0  -0.5967
  O  O536  1  0.110460  0.707230  0.596610  1.0  -0.6162
  O  O537  1  0.061040  0.668390  0.667500  1.0  -0.6059
  O  O538  1  0.056830  0.671560  0.355800  1.0  -0.6173
  O  O539  1  0.114140  0.703940  0.406450  1.0  -0.5987
  O  O540  1  0.352910  0.987810  0.947120  1.0  -0.5933
  O  O541  1  0.355750  0.982920  0.076700  1.0  -0.5792
  O  O542  1  0.995500  0.383000  0.660200  1.0  -0.3217
  O  O543  1  0.956400  0.406400  0.667900  1.0  -0.4523
  O  O544  1  0.368380  0.426140  0.509520  1.0  -1.2672
  O  O545  1  0.559190  0.512020  0.919930  1.0  -0.6106
  O  O546  1  0.587940  0.563290  0.855590  1.0  -0.6007
  O  O547  1  0.418300  0.432560  0.650800  1.0  -0.5803
  O  O548  1  0.440960  0.489940  0.595490  1.0  -0.5947
  O  O549  1  0.330410  0.476400  0.495300  1.0  -0.6082
  O  O550  1  0.390950  0.513410  0.497800  1.0  -0.5952
  O  O551  1  0.292770  0.403230  0.596610  1.0  -0.6153
  O  O552  1  0.331610  0.392650  0.667500  1.0  -0.6049
  O  O553  1  0.328440  0.385270  0.355800  1.0  -0.6171
  O  O554  1  0.296060  0.410200  0.406450  1.0  -0.5992
  O  O555  1  0.012190  0.365100  0.947120  1.0  -0.5899
  O  O556  1  0.017080  0.372830  0.076700  1.0  -0.5777
  O  O557  1  0.617000  0.612500  0.660200  1.0  -0.3225
  O  O558  1  0.593600  0.550000  0.667900  1.0  -0.4546
  O  O559  1  0.573860  0.942240  0.509520  1.0  -1.2666
  O  O560  1  0.487980  0.047170  0.919930  1.0  -0.6107
  O  O561  1  0.436710  0.024650  0.855590  1.0  -0.6032
  O  O562  1  0.567440  0.985740  0.650800  1.0  -0.5765
  O  O563  1  0.510060  0.951020  0.595490  1.0  -0.5958
  O  O564  1  0.523600  0.854010  0.495300  1.0  -0.607
  O  O565  1  0.486590  0.877540  0.497800  1.0  -0.5973
  O  O566  1  0.596770  0.889540  0.596610  1.0  -0.6155
  O  O567  1  0.607350  0.938960  0.667500  1.0  -0.6048
  O  O568  1  0.614730  0.943170  0.355800  1.0  -0.6195
  O  O569  1  0.589800  0.885860  0.406450  1.0  -0.5978
  O  O570  1  0.634900  0.647090  0.947120  1.0  -0.5903
  O  O571  1  0.627170  0.644250  0.076700  1.0  -0.5761
  O  O572  1  0.387500  0.004500  0.660200  1.0  -0.3201
  O  O573  1  0.450000  0.043600  0.667900  1.0  -0.4566
  O  O574  1  0.942240  0.368380  0.009520  1.0  -1.2675
  O  O575  1  0.047170  0.559190  0.419930  1.0  -0.6088
  O  O576  1  0.024650  0.587940  0.355590  1.0  -0.6015
  O  O577  1  0.985740  0.418300  0.150800  1.0  -0.5774
  O  O578  1  0.951020  0.440960  0.095490  1.0  -0.5952
  O  O579  1  0.854010  0.330410  0.995300  1.0  -0.6081
  O  O580  1  0.877540  0.390950  0.997800  1.0  -0.5986
  O  O581  1  0.889540  0.292770  0.096610  1.0  -0.6157
  O  O582  1  0.938960  0.331610  0.167500  1.0  -0.6061
  O  O583  1  0.943170  0.328440  0.855800  1.0  -0.616
  O  O584  1  0.885860  0.296060  0.906450  1.0  -0.5979
  O  O585  1  0.647090  0.012190  0.447120  1.0  -0.5911
  O  O586  1  0.644250  0.017080  0.576700  1.0  -0.5783
  O  O587  1  0.004500  0.617000  0.160200  1.0  -0.3213
  O  O588  1  0.043600  0.593600  0.167900  1.0  -0.4539
  O  O589  1  0.631620  0.573860  0.009520  1.0  -1.2674
  O  O590  1  0.440810  0.487980  0.419930  1.0  -0.6087
  O  O591  1  0.412060  0.436710  0.355590  1.0  -0.6024
  O  O592  1  0.581700  0.567440  0.150800  1.0  -0.5801
  O  O593  1  0.559040  0.510060  0.095490  1.0  -0.5943
  O  O594  1  0.669590  0.523600  0.995300  1.0  -0.607
  O  O595  1  0.609050  0.486590  0.997800  1.0  -0.5957
  O  O596  1  0.707230  0.596770  0.096610  1.0  -0.6145
  O  O597  1  0.668390  0.607350  0.167500  1.0  -0.6053
  O  O598  1  0.671560  0.614730  0.855800  1.0  -0.6162
  O  O599  1  0.703940  0.589800  0.906450  1.0  -0.6004
  O  O600  1  0.987810  0.634900  0.447120  1.0  -0.5898
  O  O601  1  0.982920  0.627170  0.576700  1.0  -0.579
  O  O602  1  0.383000  0.387500  0.160200  1.0  -0.3217
  O  O603  1  0.406400  0.450000  0.167900  1.0  -0.455
  O  O604  1  0.426140  0.057760  0.009520  1.0  -1.2671
  O  O605  1  0.512020  0.952830  0.419930  1.0  -0.6103
  O  O606  1  0.563290  0.975350  0.355590  1.0  -0.6036
  O  O607  1  0.432560  0.014260  0.150800  1.0  -0.5791
  O  O608  1  0.489940  0.048980  0.095490  1.0  -0.5964
  O  O609  1  0.476400  0.145990  0.995300  1.0  -0.6078
  O  O610  1  0.513410  0.122460  0.997800  1.0  -0.5963
  O  O611  1  0.403230  0.110460  0.096610  1.0  -0.6169
  O  O612  1  0.392650  0.061040  0.167500  1.0  -0.6058
  O  O613  1  0.385270  0.056830  0.855800  1.0  -0.6204
  O  O614  1  0.410200  0.114140  0.906450  1.0  -0.5982
  O  O615  1  0.365100  0.352910  0.447120  1.0  -0.5904
  O  O616  1  0.372830  0.355750  0.576700  1.0  -0.5759
  O  O617  1  0.612500  0.995500  0.160200  1.0  -0.3216
  O  O618  1  0.550000  0.956400  0.167900  1.0  -0.4609
