# generated using pymatgen
data_Zn4H14C34O13
_symmetry_space_group_name_H-M   'P 1'
_cell_length_a   11.29490000
_cell_length_b   21.31200000
_cell_length_c   29.09700000
_cell_angle_alpha   90.00000000
_cell_angle_beta   90.00000000
_cell_angle_gamma   90.00000000
_symmetry_Int_Tables_number   1
_chemical_formula_structural   Zn4H14C34O13
_chemical_formula_sum   'Zn16 H56 C136 O52'
_cell_volume   7004.13989535
_cell_formula_units_Z   4
loop_
 _symmetry_equiv_pos_site_id
 _symmetry_equiv_pos_as_xyz
  1  'x, y, z'
loop_
 _atom_site_type_symbol
 _atom_site_label
 _atom_site_symmetry_multiplicity
 _atom_site_fract_x
 _atom_site_fract_y
 _atom_site_fract_z
 _atom_site_occupancy
 _atom_site_charge
  Zn  Zn1  1  0.616240  0.835500  0.674380  1.0  1.1989
  Zn  Zn2  1  0.758180  0.900750  0.759380  1.0  1.0656
  Zn  Zn3  1  0.485270  0.895140  0.760890  1.0  1.1229
  Zn  Zn4  1  0.654030  0.984150  0.685610  1.0  1.0834
  Zn  Zn5  1  0.383760  0.164500  0.174380  1.0  1.2109
  Zn  Zn6  1  0.241820  0.099250  0.259380  1.0  1.0674
  Zn  Zn7  1  0.514730  0.104860  0.260890  1.0  1.123
  Zn  Zn8  1  0.345970  0.015850  0.185610  1.0  1.0837
  Zn  Zn9  1  0.883760  0.335500  0.674380  1.0  1.2012
  Zn  Zn10  1  0.741820  0.400750  0.759380  1.0  1.0667
  Zn  Zn11  1  0.014730  0.395140  0.760890  1.0  1.1225
  Zn  Zn12  1  0.845970  0.484150  0.685610  1.0  1.083
  Zn  Zn13  1  0.116240  0.664500  0.174380  1.0  1.2086
  Zn  Zn14  1  0.258180  0.599250  0.259380  1.0  1.0665
  Zn  Zn15  1  0.985270  0.604860  0.260890  1.0  1.1237
  Zn  Zn16  1  0.154030  0.515850  0.185610  1.0  1.0835
  H  H17  1  0.879400  0.997500  0.559800  1.0  0.1213
  H  H18  1  0.974700  0.977700  0.489400  1.0  0.1149
  H  H19  1  0.816600  0.811700  0.482800  1.0  0.0994
  H  H20  1  0.704600  0.833800  0.549300  1.0  0.1139
  H  H21  1  0.089500  0.953700  0.342600  1.0  0.1166
  H  H22  1  0.171800  0.846000  0.231700  1.0  0.1253
  H  H23  1  0.979500  0.777700  0.340900  1.0  0.1141
  H  H24  1  0.296800  0.688100  0.391000  1.0  0.097
  H  H25  1  0.291300  0.722700  0.464200  1.0  0.1087
  H  H26  1  0.949300  0.688000  0.469100  1.0  0.1178
  H  H27  1  0.956700  0.652500  0.393700  1.0  0.1077
  H  H28  1  0.292700  0.803000  0.605900  1.0  0.1135
  H  H29  1  0.118900  0.865100  0.715900  1.0  0.1077
  H  H30  1  0.940100  0.800200  0.607600  1.0  0.1014
  H  H31  1  0.120600  0.002500  0.059800  1.0  0.1211
  H  H32  1  0.025300  0.022300  0.989400  1.0  0.114
  H  H33  1  0.183400  0.188300  0.982800  1.0  0.0998
  H  H34  1  0.295400  0.166200  0.049300  1.0  0.1148
  H  H35  1  0.910500  0.046300  0.842600  1.0  0.116
  H  H36  1  0.828200  0.154000  0.731700  1.0  0.1255
  H  H37  1  0.020500  0.222300  0.840900  1.0  0.1139
  H  H38  1  0.703200  0.311900  0.891000  1.0  0.0972
  H  H39  1  0.708700  0.277300  0.964200  1.0  0.1106
  H  H40  1  0.050700  0.312000  0.969100  1.0  0.1174
  H  H41  1  0.043300  0.347500  0.893700  1.0  0.1075
  H  H42  1  0.707300  0.197000  0.105900  1.0  0.1139
  H  H43  1  0.881100  0.134900  0.215900  1.0  0.1074
  H  H44  1  0.059900  0.199800  0.107600  1.0  0.1013
  H  H45  1  0.620600  0.497500  0.559800  1.0  0.1213
  H  H46  1  0.525300  0.477700  0.489400  1.0  0.1146
  H  H47  1  0.683400  0.311700  0.482800  1.0  0.0993
  H  H48  1  0.795400  0.333800  0.549300  1.0  0.1143
  H  H49  1  0.410500  0.453700  0.342600  1.0  0.1166
  H  H50  1  0.328200  0.346000  0.231700  1.0  0.1254
  H  H51  1  0.520500  0.277700  0.340900  1.0  0.114
  H  H52  1  0.203200  0.188100  0.391000  1.0  0.097
  H  H53  1  0.208700  0.222700  0.464200  1.0  0.11
  H  H54  1  0.550700  0.188000  0.469100  1.0  0.1174
  H  H55  1  0.543300  0.152500  0.393700  1.0  0.107
  H  H56  1  0.207300  0.303000  0.605900  1.0  0.1137
  H  H57  1  0.381100  0.365100  0.715900  1.0  0.1073
  H  H58  1  0.559900  0.300200  0.607600  1.0  0.1014
  H  H59  1  0.379400  0.502500  0.059800  1.0  0.1208
  H  H60  1  0.474700  0.522300  0.989400  1.0  0.1151
  H  H61  1  0.316600  0.688300  0.982800  1.0  0.0995
  H  H62  1  0.204600  0.666200  0.049300  1.0  0.1148
  H  H63  1  0.589500  0.546300  0.842600  1.0  0.116
  H  H64  1  0.671800  0.654000  0.731700  1.0  0.1254
  H  H65  1  0.479500  0.722300  0.840900  1.0  0.1144
  H  H66  1  0.796800  0.811900  0.891000  1.0  0.097
  H  H67  1  0.791300  0.777300  0.964200  1.0  0.109
  H  H68  1  0.449300  0.812000  0.969100  1.0  0.1178
  H  H69  1  0.456700  0.847500  0.893700  1.0  0.1077
  H  H70  1  0.792700  0.697000  0.105900  1.0  0.1137
  H  H71  1  0.618900  0.634900  0.215900  1.0  0.1077
  H  H72  1  0.440100  0.699800  0.107600  1.0  0.1014
  C  C73  1  0.717700  0.929300  0.605300  1.0  0.692
  C  C74  1  0.781700  0.915000  0.560600  1.0  -0.1296
  C  C75  1  0.864600  0.960700  0.543600  1.0  -0.0695
  C  C76  1  0.923000  0.948000  0.501500  1.0  -0.1281
  C  C77  1  0.904300  0.891100  0.477500  1.0  0.1209
  C  C78  1  0.827300  0.850300  0.497100  1.0  -0.12
  C  C79  1  0.760500  0.862300  0.538600  1.0  -0.0339
  C  C80  1  0.950200  0.884800  0.431800  1.0  -0.0578
  C  C81  1  0.989100  0.875100  0.396500  1.0  -0.0808
  C  C82  1  0.044900  0.866000  0.350600  1.0  0.0786
  C  C83  1  0.091100  0.914500  0.328600  1.0  -0.0335
  C  C84  1  0.142800  0.908800  0.284500  1.0  -0.1704
  C  C85  1  0.136400  0.851200  0.260300  1.0  -0.0143
  C  C86  1  0.073300  0.801700  0.282000  1.0  -0.1621
  C  C87  1  0.024000  0.809400  0.327400  1.0  -0.041
  C  C88  1  0.195300  0.965900  0.262100  1.0  0.7205
  C  C89  1  0.065600  0.740310  0.258200  1.0  0.7083
  C  C90  1  0.137600  0.632600  0.340700  1.0  0.683
  C  C91  1  0.132800  0.658900  0.386900  1.0  -0.1351
  C  C92  1  0.225600  0.686400  0.407000  1.0  -0.0209
  C  C93  1  0.220900  0.712000  0.449600  1.0  -0.1335
  C  C94  1  0.121100  0.722100  0.470800  1.0  0.1247
  C  C95  1  0.018900  0.690900  0.452100  1.0  -0.1466
  C  C96  1  0.025500  0.665400  0.408500  1.0  -0.04
  C  C97  1  0.112200  0.751100  0.514800  1.0  -0.0941
  C  C98  1  0.113500  0.768900  0.553700  1.0  -0.0917
  C  C99  1  0.118000  0.795700  0.599900  1.0  0.0608
  C  C100  1  0.221600  0.810100  0.621100  1.0  -0.0213
  C  C101  1  0.223400  0.834600  0.664100  1.0  -0.1697
  C  C102  1  0.116600  0.847300  0.686800  1.0  0.0256
  C  C103  1  0.007600  0.834100  0.667100  1.0  -0.1636
  C  C104  1  0.011100  0.808700  0.622600  1.0  -0.0303
  C  C105  1  0.342200  0.852100  0.686600  1.0  0.7275
  C  C106  1  0.901600  0.843500  0.689500  1.0  0.7274
  C  C107  1  0.282300  0.070700  0.105300  1.0  0.6922
  C  C108  1  0.218300  0.085000  0.060600  1.0  -0.1324
  C  C109  1  0.135400  0.039300  0.043600  1.0  -0.0705
  C  C110  1  0.077000  0.052000  0.001500  1.0  -0.1292
  C  C111  1  0.095700  0.108900  0.977500  1.0  0.12
  C  C112  1  0.172700  0.149700  0.997100  1.0  -0.1211
  C  C113  1  0.239500  0.137700  0.038600  1.0  -0.0354
  C  C114  1  0.049800  0.115200  0.931800  1.0  -0.0615
  C  C115  1  0.010900  0.124900  0.896500  1.0  -0.0781
  C  C116  1  0.955100  0.134000  0.850600  1.0  0.0789
  C  C117  1  0.908900  0.085500  0.828600  1.0  -0.0327
  C  C118  1  0.857200  0.091200  0.784500  1.0  -0.1696
  C  C119  1  0.863600  0.148800  0.760300  1.0  -0.0103
  C  C120  1  0.926700  0.198300  0.782000  1.0  -0.1634
  C  C121  1  0.976000  0.190600  0.827400  1.0  -0.0414
  C  C122  1  0.804700  0.034100  0.762100  1.0  0.72
  C  C123  1  0.934400  0.259690  0.758200  1.0  0.7091
  C  C124  1  0.862400  0.367400  0.840700  1.0  0.6848
  C  C125  1  0.867200  0.341100  0.886900  1.0  -0.1316
  C  C126  1  0.774400  0.313600  0.907000  1.0  -0.018
  C  C127  1  0.779100  0.288000  0.949600  1.0  -0.1346
  C  C128  1  0.878900  0.277900  0.970800  1.0  0.1272
  C  C129  1  0.981100  0.309100  0.952100  1.0  -0.1466
  C  C130  1  0.974500  0.334600  0.908500  1.0  -0.0414
  C  C131  1  0.887800  0.248900  0.014800  1.0  -0.0932
  C  C132  1  0.886500  0.231100  0.053700  1.0  -0.0916
  C  C133  1  0.882000  0.204300  0.099900  1.0  0.0627
  C  C134  1  0.778400  0.189900  0.121100  1.0  -0.023
  C  C135  1  0.776600  0.165400  0.164100  1.0  -0.1688
  C  C136  1  0.883400  0.152700  0.186800  1.0  0.026
  C  C137  1  0.992400  0.165900  0.167100  1.0  -0.1633
  C  C138  1  0.988900  0.191300  0.122600  1.0  -0.0289
  C  C139  1  0.657800  0.147900  0.186600  1.0  0.7271
  C  C140  1  0.098400  0.156500  0.189500  1.0  0.7277
  C  C141  1  0.782300  0.429300  0.605300  1.0  0.6921
  C  C142  1  0.718300  0.415000  0.560600  1.0  -0.1325
  C  C143  1  0.635400  0.460700  0.543600  1.0  -0.0699
  C  C144  1  0.577000  0.448000  0.501500  1.0  -0.1305
  C  C145  1  0.595700  0.391100  0.477500  1.0  0.1202
  C  C146  1  0.672700  0.350300  0.497100  1.0  -0.1192
  C  C147  1  0.739500  0.362300  0.538600  1.0  -0.035
  C  C148  1  0.549800  0.384800  0.431800  1.0  -0.0632
  C  C149  1  0.510900  0.375100  0.396500  1.0  -0.0795
  C  C150  1  0.455100  0.366000  0.350600  1.0  0.0786
  C  C151  1  0.408900  0.414500  0.328600  1.0  -0.0334
  C  C152  1  0.357200  0.408800  0.284500  1.0  -0.1691
  C  C153  1  0.363600  0.351200  0.260300  1.0  -0.0103
  C  C154  1  0.426700  0.301700  0.282000  1.0  -0.1632
  C  C155  1  0.476000  0.309400  0.327400  1.0  -0.0418
  C  C156  1  0.304700  0.465900  0.262100  1.0  0.7203
  C  C157  1  0.434400  0.240310  0.258200  1.0  0.7089
  C  C158  1  0.362400  0.132600  0.340700  1.0  0.6828
  C  C159  1  0.367200  0.158900  0.386900  1.0  -0.1355
  C  C160  1  0.274400  0.186400  0.407000  1.0  -0.018
  C  C161  1  0.279100  0.212000  0.449600  1.0  -0.1351
  C  C162  1  0.378900  0.222100  0.470800  1.0  0.1271
  C  C163  1  0.481100  0.190900  0.452100  1.0  -0.1467
  C  C164  1  0.474500  0.165400  0.408500  1.0  -0.0377
  C  C165  1  0.387800  0.251100  0.514800  1.0  -0.0938
  C  C166  1  0.386500  0.268900  0.553700  1.0  -0.0919
  C  C167  1  0.382000  0.295700  0.599900  1.0  0.0618
  C  C168  1  0.278400  0.310100  0.621100  1.0  -0.0228
  C  C169  1  0.276600  0.334600  0.664100  1.0  -0.1687
  C  C170  1  0.383400  0.347300  0.686800  1.0  0.0255
  C  C171  1  0.492400  0.334100  0.667100  1.0  -0.1631
  C  C172  1  0.488900  0.308700  0.622600  1.0  -0.0297
  C  C173  1  0.157800  0.352100  0.686600  1.0  0.7266
  C  C174  1  0.598400  0.343500  0.689500  1.0  0.7279
  C  C175  1  0.217700  0.570700  0.105300  1.0  0.6924
  C  C176  1  0.281700  0.585000  0.060600  1.0  -0.1301
  C  C177  1  0.364600  0.539300  0.043600  1.0  -0.0707
  C  C178  1  0.423000  0.552000  0.001500  1.0  -0.1289
  C  C179  1  0.404300  0.608900  0.977500  1.0  0.121
  C  C180  1  0.327300  0.649700  0.997100  1.0  -0.1212
  C  C181  1  0.260500  0.637700  0.038600  1.0  -0.0351
  C  C182  1  0.450200  0.615200  0.931800  1.0  -0.0566
  C  C183  1  0.489100  0.624900  0.896500  1.0  -0.0795
  C  C184  1  0.544900  0.634000  0.850600  1.0  0.079
  C  C185  1  0.591100  0.585500  0.828600  1.0  -0.0324
  C  C186  1  0.642800  0.591200  0.784500  1.0  -0.1704
  C  C187  1  0.636400  0.648800  0.760300  1.0  -0.0142
  C  C188  1  0.573300  0.698300  0.782000  1.0  -0.1623
  C  C189  1  0.524000  0.690600  0.827400  1.0  -0.0401
  C  C190  1  0.695300  0.534100  0.762100  1.0  0.7201
  C  C191  1  0.565600  0.759690  0.758200  1.0  0.7086
  C  C192  1  0.637600  0.867400  0.840700  1.0  0.6849
  C  C193  1  0.632800  0.841100  0.886900  1.0  -0.1314
  C  C194  1  0.725600  0.813600  0.907000  1.0  -0.0201
  C  C195  1  0.720900  0.788000  0.949600  1.0  -0.1338
  C  C196  1  0.621100  0.777900  0.970800  1.0  0.1256
  C  C197  1  0.518900  0.809100  0.952100  1.0  -0.147
  C  C198  1  0.525500  0.834600  0.908500  1.0  -0.0455
  C  C199  1  0.612200  0.748900  0.014800  1.0  -0.0935
  C  C200  1  0.613500  0.731100  0.053700  1.0  -0.0913
  C  C201  1  0.618000  0.704300  0.099900  1.0  0.0619
  C  C202  1  0.721600  0.689900  0.121100  1.0  -0.0214
  C  C203  1  0.723400  0.665400  0.164100  1.0  -0.1697
  C  C204  1  0.616600  0.652700  0.186800  1.0  0.026
  C  C205  1  0.507600  0.665900  0.167100  1.0  -0.1637
  C  C206  1  0.511100  0.691300  0.122600  1.0  -0.0298
  C  C207  1  0.842200  0.647900  0.186600  1.0  0.7278
  C  C208  1  0.401600  0.656500  0.189500  1.0  0.7274
  O  O209  1  0.622100  0.908530  0.719360  1.0  -1.2312
  O  O210  1  0.633200  0.896400  0.614500  1.0  -0.6307
  O  O211  1  0.752400  0.974600  0.630600  1.0  -0.6018
  O  O212  1  0.189800  0.016320  0.281440  1.0  -0.5607
  O  O213  1  0.246600  0.956730  0.222330  1.0  -0.6606
  O  O214  1  0.125100  0.732600  0.222300  1.0  -0.6211
  O  O215  1  0.996300  0.699750  0.276610  1.0  -0.6145
  O  O216  1  0.235700  0.643490  0.318440  1.0  -0.5877
  O  O217  1  0.053500  0.596760  0.327440  1.0  -0.6016
  O  O218  1  0.436300  0.836790  0.665180  1.0  -0.6445
  O  O219  1  0.337900  0.879380  0.724510  1.0  -0.603
  O  O220  1  0.805000  0.832100  0.668200  1.0  -0.6491
  O  O221  1  0.903300  0.869930  0.730020  1.0  -0.617
  O  O222  1  0.377900  0.091470  0.219360  1.0  -1.2315
  O  O223  1  0.366800  0.103600  0.114500  1.0  -0.6301
  O  O224  1  0.247600  0.025400  0.130600  1.0  -0.601
  O  O225  1  0.810200  0.983680  0.781440  1.0  -0.5606
  O  O226  1  0.753400  0.043270  0.722330  1.0  -0.6597
  O  O227  1  0.874900  0.267400  0.722300  1.0  -0.6199
  O  O228  1  0.003700  0.300250  0.776610  1.0  -0.6154
  O  O229  1  0.764300  0.356510  0.818440  1.0  -0.588
  O  O230  1  0.946500  0.403240  0.827440  1.0  -0.6025
  O  O231  1  0.563700  0.163210  0.165180  1.0  -0.6447
  O  O232  1  0.662100  0.120620  0.224510  1.0  -0.6022
  O  O233  1  0.195000  0.167900  0.168200  1.0  -0.6489
  O  O234  1  0.096700  0.130070  0.230020  1.0  -0.6173
  O  O235  1  0.877900  0.408530  0.719360  1.0  -1.2315
  O  O236  1  0.866800  0.396400  0.614500  1.0  -0.6303
  O  O237  1  0.747600  0.474600  0.630600  1.0  -0.6011
  O  O238  1  0.310200  0.516320  0.281440  1.0  -0.561
  O  O239  1  0.253400  0.456730  0.222330  1.0  -0.6599
  O  O240  1  0.374900  0.232600  0.222300  1.0  -0.6198
  O  O241  1  0.503700  0.199750  0.276610  1.0  -0.6156
  O  O242  1  0.264300  0.143490  0.318440  1.0  -0.5878
  O  O243  1  0.446500  0.096760  0.327440  1.0  -0.6011
  O  O244  1  0.063700  0.336790  0.665180  1.0  -0.6439
  O  O245  1  0.162100  0.379380  0.724510  1.0  -0.6016
  O  O246  1  0.695000  0.332100  0.668200  1.0  -0.6492
  O  O247  1  0.596700  0.369930  0.730020  1.0  -0.6172
  O  O248  1  0.122100  0.591470  0.219360  1.0  -1.2313
  O  O249  1  0.133200  0.603600  0.114500  1.0  -0.6302
  O  O250  1  0.252400  0.525400  0.130600  1.0  -0.6
  O  O251  1  0.689800  0.483680  0.781440  1.0  -0.5606
  O  O252  1  0.746600  0.543270  0.722330  1.0  -0.6596
  O  O253  1  0.625100  0.767400  0.722300  1.0  -0.6211
  O  O254  1  0.496300  0.800250  0.776610  1.0  -0.6141
  O  O255  1  0.735700  0.856510  0.818440  1.0  -0.5879
  O  O256  1  0.553500  0.903240  0.827440  1.0  -0.6034
  O  O257  1  0.936300  0.663210  0.165180  1.0  -0.6454
  O  O258  1  0.837900  0.620620  0.224510  1.0  -0.603
  O  O259  1  0.305000  0.667900  0.168200  1.0  -0.6491
  O  O260  1  0.403300  0.630070  0.230020  1.0  -0.6171
