# generated using pymatgen
data_ZnCu4(CN)6
_symmetry_space_group_name_H-M   'P 1'
_cell_length_a   9.47900000
_cell_length_b   9.47900000
_cell_length_c   16.38690000
_cell_angle_alpha   88.64220000
_cell_angle_beta   88.64220000
_cell_angle_gamma   83.20920000
_symmetry_Int_Tables_number   1
_chemical_formula_structural   ZnCu4(CN)6
_chemical_formula_sum   'Zn2 Cu8 C12 N12'
_cell_volume   1461.32274772
_cell_formula_units_Z   2
loop_
 _symmetry_equiv_pos_site_id
 _symmetry_equiv_pos_as_xyz
  1  'x, y, z'
loop_
 _atom_site_type_symbol
 _atom_site_label
 _atom_site_symmetry_multiplicity
 _atom_site_fract_x
 _atom_site_fract_y
 _atom_site_fract_z
 _atom_site_occupancy
 _atom_site_charge
  Zn  Zn1  1  0.000000  0.000000  0.500000  1.0  0.9991
  Zn  Zn2  1  0.000000  0.000000  0.000000  1.0  0.9991
  Cu  Cu3  1  0.136310  0.492270  0.502060  1.0  0.3253
  Cu  Cu4  1  0.507730  0.863690  0.997940  1.0  0.3279
  Cu  Cu5  1  0.863690  0.507730  0.497940  1.0  0.3249
  Cu  Cu6  1  0.492270  0.136310  0.002060  1.0  0.3255
  Cu  Cu7  1  0.363960  0.636040  0.750000  1.0  0.2238
  Cu  Cu8  1  0.636040  0.363960  0.250000  1.0  0.2226
  Cu  Cu9  1  0.397850  0.602150  0.250000  1.0  0.2474
  Cu  Cu10  1  0.602150  0.397850  0.750000  1.0  0.2468
  C  C11  1  0.282500  0.570500  0.660300  1.0  -0.0674
  C  C12  1  0.042100  0.317300  0.511100  1.0  0.0933
  C  C13  1  0.306000  0.536600  0.339900  1.0  -0.0663
  C  C14  1  0.429500  0.717500  0.839700  1.0  -0.0675
  C  C15  1  0.682700  0.957900  0.988900  1.0  0.0922
  C  C16  1  0.463400  0.694000  0.160100  1.0  -0.0658
  C  C17  1  0.717500  0.429500  0.339700  1.0  -0.067
  C  C18  1  0.957900  0.682700  0.488900  1.0  0.0934
  C  C19  1  0.694000  0.463400  0.660100  1.0  -0.0653
  C  C20  1  0.570500  0.282500  0.160300  1.0  -0.0675
  C  C21  1  0.317300  0.042100  0.011100  1.0  0.0919
  C  C22  1  0.536600  0.306000  0.839900  1.0  -0.0669
  N  N23  1  0.229400  0.542400  0.602200  1.0  -0.2842
  N  N24  1  0.026600  0.202200  0.514500  1.0  -0.4502
  N  N25  1  0.244000  0.515600  0.398800  1.0  -0.2855
  N  N26  1  0.457600  0.770600  0.897800  1.0  -0.2846
  N  N27  1  0.797800  0.973400  0.985500  1.0  -0.4501
  N  N28  1  0.484400  0.756000  0.101200  1.0  -0.2847
  N  N29  1  0.770600  0.457600  0.397800  1.0  -0.2839
  N  N30  1  0.973400  0.797800  0.485500  1.0  -0.4524
  N  N31  1  0.756000  0.484400  0.601200  1.0  -0.2855
  N  N32  1  0.542400  0.229400  0.102200  1.0  -0.2833
  N  N33  1  0.202200  0.026600  0.014500  1.0  -0.4501
  N  N34  1  0.515600  0.244000  0.898800  1.0  -0.2852
