# generated using pymatgen
data_CdH25C35(N6O)2
_symmetry_space_group_name_H-M   'P 1'
_cell_length_a   12.15380000
_cell_length_b   12.15740000
_cell_length_c   16.15360000
_cell_angle_alpha   77.04500000
_cell_angle_beta   82.55000000
_cell_angle_gamma   83.52700000
_symmetry_Int_Tables_number   1
_chemical_formula_structural   CdH25C35(N6O)2
_chemical_formula_sum   'Cd2 H50 C70 N24 O4'
_cell_volume   2297.78265578
_cell_formula_units_Z   2
loop_
 _symmetry_equiv_pos_site_id
 _symmetry_equiv_pos_as_xyz
  1  'x, y, z'
loop_
 _atom_site_type_symbol
 _atom_site_label
 _atom_site_symmetry_multiplicity
 _atom_site_fract_x
 _atom_site_fract_y
 _atom_site_fract_z
 _atom_site_occupancy
 _atom_site_charge
  Cd  Cd1  1  0.000000  0.500000  0.500000  1.0  0.9402
  Cd  Cd2  1  0.000000  0.000000  0.500000  1.0  0.862
  H  H3  1  0.866500  0.129200  0.655900  1.0  0.0861
  H  H4  1  0.108300  0.395300  0.317000  1.0  0.0892
  H  H5  1  0.900900  0.053900  0.294400  1.0  0.0913
  H  H6  1  0.162000  0.478000  0.660000  1.0  0.2821
  H  H7  1  0.832200  0.157000  0.167900  1.0  0.1147
  H  H8  1  0.239000  0.473900  0.788200  1.0  0.1215
  H  H9  1  0.457500  0.129700  0.157400  1.0  0.0881
  H  H10  1  0.532400  0.409400  0.080600  1.0  0.0816
  H  H11  1  0.332600  0.455700  0.905500  1.0  0.0862
  H  H12  1  0.160800  0.368600  0.178700  1.0  0.1125
  H  H13  1  0.531500  0.072900  0.285900  1.0  0.1054
  H  H14  1  0.315500  0.142700  0.791400  1.0  0.0975
  H  H15  1  0.657800  0.015800  0.001000  1.0  0.0852
  H  H16  1  0.241000  0.295600  0.062300  1.0  0.094
  H  H17  1  0.134300  0.762400  0.561500  1.0  -0.0055
  H  H18  1  0.453700  0.479400  0.198200  1.0  0.1097
  H  H19  1  0.413100  0.127100  0.907700  1.0  0.0806
  H  H20  1  0.604700  0.310800  0.836800  1.0  0.0906
  H  H21  1  0.683000  0.234000  0.718000  1.0  0.0979
  H  H22  1  0.756600  0.212900  0.039900  1.0  0.0986
  H  H23  1  0.738400  0.932400  0.889700  1.0  0.1148
  H  H24  1  0.253000  0.599800  0.411900  1.0  0.0637
  H  H25  1  0.714800  0.021600  0.509800  1.0  0.0508
  H  H26  1  0.817000  0.831000  0.643000  1.0  0.2941
  H  H27  1  0.112000  0.221000  0.581000  1.0  0.0827
  H  H28  1  0.133500  0.870800  0.344100  1.0  0.0853
  H  H29  1  0.891700  0.604700  0.683000  1.0  0.0892
  H  H30  1  0.099100  0.946100  0.705600  1.0  0.0913
  H  H31  1  0.838000  0.522000  0.340000  1.0  0.2798
  H  H32  1  0.167800  0.843000  0.832100  1.0  0.1141
  H  H33  1  0.761000  0.526100  0.211800  1.0  0.1212
  H  H34  1  0.542500  0.870300  0.842600  1.0  0.0884
  H  H35  1  0.467600  0.590600  0.919400  1.0  0.081
  H  H36  1  0.667400  0.544300  0.094500  1.0  0.0862
  H  H37  1  0.839200  0.631400  0.821300  1.0  0.113
  H  H38  1  0.468500  0.927100  0.714100  1.0  0.1043
  H  H39  1  0.684500  0.857300  0.208600  1.0  0.098
  H  H40  1  0.342200  0.984200  0.999000  1.0  0.0861
  H  H41  1  0.759000  0.704400  0.937700  1.0  0.0942
  H  H42  1  0.865700  0.237600  0.438500  1.0  -0.0047
  H  H43  1  0.546300  0.520600  0.801800  1.0  0.1097
  H  H44  1  0.586900  0.872900  0.092300  1.0  0.0809
  H  H45  1  0.395300  0.689200  0.163200  1.0  0.091
  H  H46  1  0.317000  0.766000  0.282000  1.0  0.0985
  H  H47  1  0.243400  0.787100  0.960100  1.0  0.0981
  H  H48  1  0.261600  0.067600  0.110300  1.0  0.1145
  H  H49  1  0.747000  0.400200  0.588100  1.0  0.0637
  H  H50  1  0.285200  0.978400  0.490200  1.0  0.0526
  H  H51  1  0.183000  0.169000  0.357000  1.0  0.294
  H  H52  1  0.888000  0.779000  0.419000  1.0  0.0837
  C  C53  1  0.135300  0.265300  0.613400  1.0  0.2723
  C  C54  1  0.161500  0.409800  0.656700  1.0  0.124
  C  C55  1  0.810100  0.893500  0.657500  1.0  0.3434
  C  C56  1  0.839500  0.058300  0.665700  1.0  0.1437
  C  C57  1  0.712700  0.070400  0.797100  1.0  0.1757
  C  C58  1  0.676800  0.185300  0.779500  1.0  -0.1362
  C  C59  1  0.549800  0.216000  0.001600  1.0  0.0095
  C  C60  1  0.452100  0.280800  0.992200  1.0  -0.0058
  C  C61  1  0.612000  0.167600  0.930400  1.0  -0.0405
  C  C62  1  0.158000  0.443300  0.325800  1.0  0.1135
  C  C63  1  0.300500  0.427700  0.201200  1.0  0.0928
  C  C64  1  0.389900  0.293500  0.916600  1.0  0.0556
  C  C65  1  0.598100  0.180800  0.084500  1.0  0.0309
  C  C66  1  0.839800  0.050600  0.335800  1.0  0.1251
  C  C67  1  0.756900  0.151800  0.165800  1.0  -0.1971
  C  C68  1  0.274900  0.404400  0.811700  1.0  -0.2091
  C  C69  1  0.532500  0.136200  0.159500  1.0  -0.1057
  C  C70  1  0.688700  0.109500  0.239600  1.0  0.1213
  C  C71  1  0.458600  0.398400  0.101500  1.0  -0.1192
  C  C72  1  0.332500  0.393100  0.881300  1.0  -0.1433
  C  C73  1  0.235900  0.374700  0.159900  1.0  -0.1899
  C  C74  1  0.576600  0.101500  0.236400  1.0  -0.1548
  C  C75  1  0.321100  0.206200  0.813300  1.0  -0.0977
  C  C76  1  0.659100  0.057600  0.945100  1.0  -0.094
  C  C77  1  0.284500  0.330700  0.090400  1.0  -0.1081
  C  C78  1  0.079200  0.736200  0.537800  1.0  0.672
  C  C79  1  0.411500  0.441500  0.171400  1.0  -0.1738
  C  C80  1  0.379700  0.197300  0.882700  1.0  -0.1526
  C  C81  1  0.271100  0.310200  0.776900  1.0  0.062
  C  C82  1  0.627600  0.233800  0.846900  1.0  -0.1849
  C  C83  1  0.710900  0.185800  0.089400  1.0  -0.134
  C  C84  1  0.708600  0.007500  0.878800  1.0  -0.1701
  C  C85  1  0.238500  0.554100  0.376200  1.0  0.2668
  C  C86  1  0.737000  0.034300  0.451400  1.0  0.2635
  C  C87  1  0.397400  0.338200  0.061600  1.0  0.0557
  C  C88  1  0.864700  0.734700  0.386600  1.0  0.2732
  C  C89  1  0.838500  0.590200  0.343300  1.0  0.1235
  C  C90  1  0.189900  0.106500  0.342500  1.0  0.3452
  C  C91  1  0.160500  0.941700  0.334300  1.0  0.1425
  C  C92  1  0.287300  0.929600  0.202900  1.0  0.1747
  C  C93  1  0.323200  0.814700  0.220500  1.0  -0.1346
  C  C94  1  0.450200  0.784000  0.998400  1.0  0.0091
  C  C95  1  0.547900  0.719200  0.007800  1.0  -0.0047
  C  C96  1  0.388000  0.832400  0.069600  1.0  -0.039
  C  C97  1  0.842000  0.556700  0.674200  1.0  0.1131
  C  C98  1  0.699500  0.572300  0.798800  1.0  0.095
  C  C99  1  0.610100  0.706500  0.083400  1.0  0.0564
  C  C100  1  0.401900  0.819200  0.915500  1.0  0.0314
  C  C101  1  0.160200  0.949400  0.664200  1.0  0.1257
  C  C102  1  0.243100  0.848200  0.834200  1.0  -0.1958
  C  C103  1  0.725100  0.595600  0.188300  1.0  -0.2114
  C  C104  1  0.467500  0.863800  0.840500  1.0  -0.1071
  C  C105  1  0.311300  0.890500  0.760400  1.0  0.121
  C  C106  1  0.541400  0.601600  0.898500  1.0  -0.1177
  C  C107  1  0.667500  0.606900  0.118700  1.0  -0.1446
  C  C108  1  0.764100  0.625300  0.840100  1.0  -0.1893
  C  C109  1  0.423400  0.898500  0.763600  1.0  -0.1533
  C  C110  1  0.678900  0.793800  0.186700  1.0  -0.099
  C  C111  1  0.340900  0.942400  0.054900  1.0  -0.0935
  C  C112  1  0.715500  0.669300  0.909600  1.0  -0.1092
  C  C113  1  0.920800  0.263800  0.462200  1.0  0.6719
  C  C114  1  0.588500  0.558500  0.828600  1.0  -0.1749
  C  C115  1  0.620300  0.802700  0.117300  1.0  -0.1527
  C  C116  1  0.728900  0.689800  0.223100  1.0  0.0622
  C  C117  1  0.372400  0.766200  0.153100  1.0  -0.1835
  C  C118  1  0.289100  0.814200  0.910600  1.0  -0.1339
  C  C119  1  0.291400  0.992500  0.121200  1.0  -0.1716
  C  C120  1  0.761500  0.445900  0.623800  1.0  0.2694
  C  C121  1  0.263000  0.965700  0.548600  1.0  0.2684
  C  C122  1  0.602600  0.661800  0.938400  1.0  0.0563
  N  N123  1  0.112100  0.379100  0.597770  1.0  -0.421
  N  N124  1  0.194400  0.223600  0.677300  1.0  -0.3993
  N  N125  1  0.210800  0.319200  0.705100  1.0  0.1142
  N  N126  1  0.872100  0.980900  0.619300  1.0  -0.4123
  N  N127  1  0.742000  0.912400  0.724200  1.0  -0.3578
  N  N128  1  0.762400  0.019200  0.728340  1.0  0.1024
  N  N129  1  0.252700  0.467900  0.276150  1.0  0.1212
  N  N130  1  0.145500  0.497400  0.389380  1.0  -0.4178
  N  N131  1  0.845500  0.021800  0.418970  1.0  -0.4115
  N  N132  1  0.734200  0.074400  0.319420  1.0  0.1277
  N  N133  1  0.666200  0.065500  0.394400  1.0  -0.3927
  N  N134  1  0.306600  0.538900  0.308600  1.0  -0.4109
  N  N135  1  0.887900  0.620900  0.402230  1.0  -0.4208
  N  N136  1  0.805600  0.776400  0.322700  1.0  -0.3988
  N  N137  1  0.789200  0.680800  0.294900  1.0  0.1139
  N  N138  1  0.127900  0.019100  0.380700  1.0  -0.4136
  N  N139  1  0.258000  0.087600  0.275800  1.0  -0.359
  N  N140  1  0.237600  0.980800  0.271660  1.0  0.1036
  N  N141  1  0.747300  0.532100  0.723850  1.0  0.1219
  N  N142  1  0.854500  0.502600  0.610620  1.0  -0.416
  N  N143  1  0.154500  0.978200  0.581030  1.0  -0.4121
  N  N144  1  0.265800  0.925600  0.680580  1.0  0.1288
  N  N145  1  0.333800  0.934500  0.605600  1.0  -0.3951
  N  N146  1  0.693400  0.461100  0.691400  1.0  -0.4098
  O  O147  1  0.084000  0.631500  0.544220  1.0  -0.6655
  O  O148  1  0.010500  0.808800  0.503960  1.0  -0.6082
  O  O149  1  0.916000  0.368500  0.455780  1.0  -0.6666
  O  O150  1  0.989500  0.191200  0.496040  1.0  -0.6084
