# generated using pymatgen
data_CdH22C24(N2O)2
_symmetry_space_group_name_H-M   'P 1'
_cell_length_a   16.74600000
_cell_length_b   14.22300000
_cell_length_c   12.32100000
_cell_angle_alpha   90.00000000
_cell_angle_beta   113.65300000
_cell_angle_gamma   90.00000000
_symmetry_Int_Tables_number   1
_chemical_formula_structural   CdH22C24(N2O)2
_chemical_formula_sum   'Cd4 H88 C96 N16 O8'
_cell_volume   2688.06606042
_cell_formula_units_Z   4
loop_
 _symmetry_equiv_pos_site_id
 _symmetry_equiv_pos_as_xyz
  1  'x, y, z'
loop_
 _atom_site_type_symbol
 _atom_site_label
 _atom_site_symmetry_multiplicity
 _atom_site_fract_x
 _atom_site_fract_y
 _atom_site_fract_z
 _atom_site_occupancy
 _atom_site_charge
  Cd  Cd1  1  0.000000  0.451140  0.750000  1.0  0.7741
  Cd  Cd2  1  0.500000  0.951140  0.750000  1.0  0.7741
  Cd  Cd3  1  0.000000  0.548860  0.250000  1.0  0.7706
  Cd  Cd4  1  0.500000  0.048860  0.250000  1.0  0.7706
  H  H5  1  0.907300  0.255200  0.642700  1.0  0.0498
  H  H6  1  0.911900  0.379100  0.927300  1.0  0.0675
  H  H7  1  0.827200  0.134600  0.668900  1.0  0.0874
  H  H8  1  0.782800  0.138100  0.824900  1.0  0.0967
  H  H9  1  0.845000  0.323900  0.045700  1.0  0.0901
  H  H10  1  0.799100  0.133100  0.021100  1.0  0.0641
  H  H11  1  0.797700  0.075900  0.206400  1.0  0.1959
  H  H12  1  0.803700  0.103100  0.392400  1.0  0.0868
  H  H13  1  0.867900  0.186400  0.404500  1.0  0.1014
  H  H14  1  0.884100  0.007600  0.555300  1.0  0.0725
  H  H15  1  0.000700  0.089600  0.345100  1.0  0.0734
  H  H16  1  0.407300  0.755200  0.642700  1.0  0.0498
  H  H17  1  0.411900  0.879100  0.927300  1.0  0.0675
  H  H18  1  0.327200  0.634600  0.668900  1.0  0.0874
  H  H19  1  0.282800  0.638100  0.824900  1.0  0.0967
  H  H20  1  0.345000  0.823900  0.045700  1.0  0.0901
  H  H21  1  0.299100  0.633100  0.021100  1.0  0.0641
  H  H22  1  0.297700  0.575900  0.206400  1.0  0.1959
  H  H23  1  0.303700  0.603100  0.392400  1.0  0.0868
  H  H24  1  0.367900  0.686400  0.404500  1.0  0.1014
  H  H25  1  0.384100  0.507600  0.555300  1.0  0.0725
  H  H26  1  0.500700  0.589600  0.345100  1.0  0.0734
  H  H27  1  0.092700  0.255200  0.857300  1.0  0.0494
  H  H28  1  0.088100  0.379100  0.572700  1.0  0.069
  H  H29  1  0.172800  0.134600  0.831100  1.0  0.0879
  H  H30  1  0.217200  0.138100  0.675100  1.0  0.0981
  H  H31  1  0.155000  0.323900  0.454300  1.0  0.0914
  H  H32  1  0.200900  0.133100  0.478900  1.0  0.0637
  H  H33  1  0.202300  0.075900  0.293600  1.0  0.1977
  H  H34  1  0.196300  0.103100  0.107600  1.0  0.0871
  H  H35  1  0.132100  0.186400  0.095500  1.0  0.1033
  H  H36  1  0.115900  0.007600  0.944700  1.0  0.0724
  H  H37  1  0.999300  0.089600  0.154900  1.0  0.0731
  H  H38  1  0.592700  0.755200  0.857300  1.0  0.0494
  H  H39  1  0.588100  0.879100  0.572700  1.0  0.069
  H  H40  1  0.672800  0.634600  0.831100  1.0  0.0879
  H  H41  1  0.717200  0.638100  0.675100  1.0  0.0981
  H  H42  1  0.655000  0.823900  0.454300  1.0  0.0914
  H  H43  1  0.700900  0.633100  0.478900  1.0  0.0637
  H  H44  1  0.702300  0.575900  0.293600  1.0  0.1977
  H  H45  1  0.696300  0.603100  0.107600  1.0  0.0871
  H  H46  1  0.632100  0.686400  0.095500  1.0  0.1033
  H  H47  1  0.615900  0.507600  0.944700  1.0  0.0724
  H  H48  1  0.499300  0.589600  0.154900  1.0  0.0731
  H  H49  1  0.092700  0.744800  0.357300  1.0  0.0493
  H  H50  1  0.088100  0.620900  0.072700  1.0  0.068
  H  H51  1  0.172800  0.865400  0.331100  1.0  0.0877
  H  H52  1  0.217200  0.861900  0.175100  1.0  0.0981
  H  H53  1  0.155000  0.676100  0.954300  1.0  0.0892
  H  H54  1  0.200900  0.866900  0.978900  1.0  0.0638
  H  H55  1  0.202300  0.924100  0.793600  1.0  0.1968
  H  H56  1  0.196300  0.896900  0.607600  1.0  0.0874
  H  H57  1  0.132100  0.813600  0.595500  1.0  0.1021
  H  H58  1  0.115900  0.992400  0.444700  1.0  0.0721
  H  H59  1  0.999300  0.910400  0.654900  1.0  0.0733
  H  H60  1  0.592700  0.244800  0.357300  1.0  0.0493
  H  H61  1  0.588100  0.120900  0.072700  1.0  0.068
  H  H62  1  0.672800  0.365400  0.331100  1.0  0.0877
  H  H63  1  0.717200  0.361900  0.175100  1.0  0.0981
  H  H64  1  0.655000  0.176100  0.954300  1.0  0.0892
  H  H65  1  0.700900  0.366900  0.978900  1.0  0.0638
  H  H66  1  0.702300  0.424100  0.793600  1.0  0.1968
  H  H67  1  0.696300  0.396900  0.607600  1.0  0.0874
  H  H68  1  0.632100  0.313600  0.595500  1.0  0.1021
  H  H69  1  0.615900  0.492400  0.444700  1.0  0.0721
  H  H70  1  0.499300  0.410400  0.654900  1.0  0.0733
  H  H71  1  0.907300  0.744800  0.142700  1.0  0.0501
  H  H72  1  0.911900  0.620900  0.427300  1.0  0.0679
  H  H73  1  0.827200  0.865400  0.168900  1.0  0.0878
  H  H74  1  0.782800  0.861900  0.324900  1.0  0.0976
  H  H75  1  0.845000  0.676100  0.545700  1.0  0.089
  H  H76  1  0.799100  0.866900  0.521100  1.0  0.0638
  H  H77  1  0.797700  0.924100  0.706400  1.0  0.197
  H  H78  1  0.803700  0.896900  0.892400  1.0  0.0869
  H  H79  1  0.867900  0.813600  0.904500  1.0  0.1033
  H  H80  1  0.884100  0.992400  0.055300  1.0  0.0725
  H  H81  1  0.000700  0.910400  0.845100  1.0  0.073
  H  H82  1  0.407300  0.244800  0.142700  1.0  0.0501
  H  H83  1  0.411900  0.120900  0.427300  1.0  0.0679
  H  H84  1  0.327200  0.365400  0.168900  1.0  0.0878
  H  H85  1  0.282800  0.361900  0.324900  1.0  0.0976
  H  H86  1  0.345000  0.176100  0.545700  1.0  0.089
  H  H87  1  0.299100  0.366900  0.521100  1.0  0.0638
  H  H88  1  0.297700  0.424100  0.706400  1.0  0.197
  H  H89  1  0.303700  0.396900  0.892400  1.0  0.0869
  H  H90  1  0.367900  0.313600  0.904500  1.0  0.1033
  H  H91  1  0.384100  0.492400  0.055300  1.0  0.0725
  H  H92  1  0.500700  0.410400  0.845100  1.0  0.073
  C  C93  1  0.891900  0.256900  0.707300  1.0  0.1392
  C  C94  1  0.893100  0.329700  0.873600  1.0  0.1144
  C  C95  1  0.842800  0.184800  0.721700  1.0  -0.164
  C  C96  1  0.841300  0.262400  0.893100  1.0  0.0786
  C  C97  1  0.816500  0.186600  0.814800  1.0  -0.1205
  C  C98  1  0.808400  0.277500  0.988700  1.0  -0.1414
  C  C99  1  0.792000  0.193100  0.055200  1.0  -0.1283
  C  C100  1  0.841500  0.195100  0.187800  1.0  0.5557
  C  C101  1  0.852600  0.122900  0.374700  1.0  -0.1192
  C  C102  1  0.929000  0.059300  0.439100  1.0  0.0766
  C  C103  1  0.930600  0.004800  0.532400  1.0  -0.1391
  C  C104  1  0.000100  0.053500  0.407700  1.0  -0.1304
  C  C105  1  0.391900  0.756900  0.707300  1.0  0.1392
  C  C106  1  0.393100  0.829700  0.873600  1.0  0.1144
  C  C107  1  0.342800  0.684800  0.721700  1.0  -0.164
  C  C108  1  0.341300  0.762400  0.893100  1.0  0.0786
  C  C109  1  0.316500  0.686600  0.814800  1.0  -0.1205
  C  C110  1  0.308400  0.777500  0.988700  1.0  -0.1414
  C  C111  1  0.292000  0.693100  0.055200  1.0  -0.1283
  C  C112  1  0.341500  0.695100  0.187800  1.0  0.5557
  C  C113  1  0.352600  0.622900  0.374700  1.0  -0.1192
  C  C114  1  0.429000  0.559300  0.439100  1.0  0.0766
  C  C115  1  0.430600  0.504800  0.532400  1.0  -0.1391
  C  C116  1  0.500100  0.553500  0.407700  1.0  -0.1304
  C  C117  1  0.108100  0.256900  0.792700  1.0  0.138
  C  C118  1  0.106900  0.329700  0.626400  1.0  0.1153
  C  C119  1  0.157200  0.184800  0.778300  1.0  -0.1644
  C  C120  1  0.158700  0.262400  0.606900  1.0  0.0799
  C  C121  1  0.183500  0.186600  0.685200  1.0  -0.1206
  C  C122  1  0.191600  0.277500  0.511300  1.0  -0.1416
  C  C123  1  0.208000  0.193100  0.444800  1.0  -0.1286
  C  C124  1  0.158500  0.195100  0.312200  1.0  0.557
  C  C125  1  0.147400  0.122900  0.125300  1.0  -0.1184
  C  C126  1  0.071000  0.059300  0.060900  1.0  0.0763
  C  C127  1  0.069400  0.004800  0.967600  1.0  -0.1389
  C  C128  1  0.999900  0.053500  0.092300  1.0  -0.1314
  C  C129  1  0.608100  0.756900  0.792700  1.0  0.138
  C  C130  1  0.606900  0.829700  0.626400  1.0  0.1153
  C  C131  1  0.657200  0.684800  0.778300  1.0  -0.1644
  C  C132  1  0.658700  0.762400  0.606900  1.0  0.0799
  C  C133  1  0.683500  0.686600  0.685200  1.0  -0.1206
  C  C134  1  0.691600  0.777500  0.511300  1.0  -0.1416
  C  C135  1  0.708000  0.693100  0.444800  1.0  -0.1286
  C  C136  1  0.658500  0.695100  0.312200  1.0  0.557
  C  C137  1  0.647400  0.622900  0.125300  1.0  -0.1184
  C  C138  1  0.571000  0.559300  0.060900  1.0  0.0763
  C  C139  1  0.569400  0.504800  0.967600  1.0  -0.1389
  C  C140  1  0.499900  0.553500  0.092300  1.0  -0.1314
  C  C141  1  0.108100  0.743100  0.292700  1.0  0.1385
  C  C142  1  0.106900  0.670300  0.126400  1.0  0.114
  C  C143  1  0.157200  0.815200  0.278300  1.0  -0.1622
  C  C144  1  0.158700  0.737600  0.106900  1.0  0.0804
  C  C145  1  0.183500  0.813400  0.185200  1.0  -0.1211
  C  C146  1  0.191600  0.722500  0.011300  1.0  -0.1429
  C  C147  1  0.208000  0.806900  0.944800  1.0  -0.129
  C  C148  1  0.158500  0.804900  0.812200  1.0  0.5558
  C  C149  1  0.147400  0.877100  0.625300  1.0  -0.1176
  C  C150  1  0.071000  0.940700  0.560900  1.0  0.0765
  C  C151  1  0.069400  0.995200  0.467600  1.0  -0.1422
  C  C152  1  0.999900  0.946500  0.592300  1.0  -0.1316
  C  C153  1  0.608100  0.243100  0.292700  1.0  0.1385
  C  C154  1  0.606900  0.170300  0.126400  1.0  0.114
  C  C155  1  0.657200  0.315200  0.278300  1.0  -0.1622
  C  C156  1  0.658700  0.237600  0.106900  1.0  0.0804
  C  C157  1  0.683500  0.313400  0.185200  1.0  -0.1211
  C  C158  1  0.691600  0.222500  0.011300  1.0  -0.1429
  C  C159  1  0.708000  0.306900  0.944800  1.0  -0.129
  C  C160  1  0.658500  0.304900  0.812200  1.0  0.5558
  C  C161  1  0.647400  0.377100  0.625300  1.0  -0.1176
  C  C162  1  0.571000  0.440700  0.560900  1.0  0.0765
  C  C163  1  0.569400  0.495200  0.467600  1.0  -0.1422
  C  C164  1  0.499900  0.446500  0.592300  1.0  -0.1316
  C  C165  1  0.891900  0.743100  0.207300  1.0  0.139
  C  C166  1  0.893100  0.670300  0.373600  1.0  0.1138
  C  C167  1  0.842800  0.815200  0.221700  1.0  -0.1628
  C  C168  1  0.841300  0.737600  0.393100  1.0  0.0789
  C  C169  1  0.816500  0.813400  0.314800  1.0  -0.1214
  C  C170  1  0.808400  0.722500  0.488700  1.0  -0.1431
  C  C171  1  0.792000  0.806900  0.555200  1.0  -0.1283
  C  C172  1  0.841500  0.804900  0.687800  1.0  0.556
  C  C173  1  0.852600  0.877100  0.874700  1.0  -0.1191
  C  C174  1  0.929000  0.940700  0.939100  1.0  0.0769
  C  C175  1  0.930600  0.995200  0.032400  1.0  -0.1421
  C  C176  1  0.000100  0.946500  0.907700  1.0  -0.1309
  C  C177  1  0.391900  0.243100  0.207300  1.0  0.139
  C  C178  1  0.393100  0.170300  0.373600  1.0  0.1138
  C  C179  1  0.342800  0.315200  0.221700  1.0  -0.1628
  C  C180  1  0.341300  0.237600  0.393100  1.0  0.0789
  C  C181  1  0.316500  0.313400  0.314800  1.0  -0.1214
  C  C182  1  0.308400  0.222500  0.488700  1.0  -0.1431
  C  C183  1  0.292000  0.306900  0.555200  1.0  -0.1283
  C  C184  1  0.341500  0.304900  0.687800  1.0  0.556
  C  C185  1  0.352600  0.377100  0.874700  1.0  -0.1191
  C  C186  1  0.429000  0.440700  0.939100  1.0  0.0769
  C  C187  1  0.430600  0.495200  0.032400  1.0  -0.1421
  C  C188  1  0.500100  0.446500  0.907700  1.0  -0.1309
  N  N189  1  0.918800  0.329700  0.782400  1.0  -0.355
  N  N190  1  0.825500  0.123900  0.246300  1.0  -0.4381
  N  N191  1  0.418800  0.829700  0.782400  1.0  -0.355
  N  N192  1  0.325500  0.623900  0.246300  1.0  -0.4381
  N  N193  1  0.081200  0.329700  0.717600  1.0  -0.3527
  N  N194  1  0.174500  0.123900  0.253700  1.0  -0.4373
  N  N195  1  0.581200  0.829700  0.717600  1.0  -0.3527
  N  N196  1  0.674500  0.623900  0.253700  1.0  -0.4373
  N  N197  1  0.081200  0.670300  0.217600  1.0  -0.3575
  N  N198  1  0.174500  0.876100  0.753700  1.0  -0.4376
  N  N199  1  0.581200  0.170300  0.217600  1.0  -0.3575
  N  N200  1  0.674500  0.376100  0.753700  1.0  -0.4376
  N  N201  1  0.918800  0.670300  0.282400  1.0  -0.3553
  N  N202  1  0.825500  0.876100  0.746300  1.0  -0.4376
  N  N203  1  0.418800  0.170300  0.282400  1.0  -0.3553
  N  N204  1  0.325500  0.376100  0.746300  1.0  -0.4376
  O  O205  1  0.890100  0.260500  0.239400  1.0  -0.6008
  O  O206  1  0.390100  0.760500  0.239400  1.0  -0.6008
  O  O207  1  0.109900  0.260500  0.260600  1.0  -0.6014
  O  O208  1  0.609900  0.760500  0.260600  1.0  -0.6014
  O  O209  1  0.109900  0.739500  0.760600  1.0  -0.6037
  O  O210  1  0.609900  0.239500  0.760600  1.0  -0.6037
  O  O211  1  0.890100  0.739500  0.739400  1.0  -0.6029
  O  O212  1  0.390100  0.239500  0.739400  1.0  -0.6029
