# generated using pymatgen
data_MnH7C9NO4
_symmetry_space_group_name_H-M   'P 1'
_cell_length_a   7.41300000
_cell_length_b   23.88900000
_cell_length_c   7.46700000
_cell_angle_alpha   90.00000000
_cell_angle_beta   92.22400000
_cell_angle_gamma   90.00000000
_symmetry_Int_Tables_number   1
_chemical_formula_structural   MnH7C9NO4
_chemical_formula_sum   'Mn4 H28 C36 N4 O16'
_cell_volume   1321.32869276
_cell_formula_units_Z   4
loop_
 _symmetry_equiv_pos_site_id
 _symmetry_equiv_pos_as_xyz
  1  'x, y, z'
loop_
 _atom_site_type_symbol
 _atom_site_label
 _atom_site_symmetry_multiplicity
 _atom_site_fract_x
 _atom_site_fract_y
 _atom_site_fract_z
 _atom_site_occupancy
 _atom_site_charge
  Mn  Mn1  1  0.365030  0.284790  0.855130  1.0  1.0526
  Mn  Mn2  1  0.134970  0.784790  0.644870  1.0  1.0515
  Mn  Mn3  1  0.634970  0.715210  0.144870  1.0  1.0517
  Mn  Mn4  1  0.865030  0.215210  0.355130  1.0  1.0526
  H  H5  1  0.655400  0.127600  0.843600  1.0  0.1376
  H  H6  1  0.454100  0.147800  0.839100  1.0  0.1521
  H  H7  1  0.431100  0.404800  0.041900  1.0  0.0736
  H  H8  1  0.647600  0.472400  0.095000  1.0  0.0926
  H  H9  1  0.983800  0.384700  0.817800  1.0  0.088
  H  H10  1  0.770000  0.318300  0.779300  1.0  0.0694
  H  H11  1  0.089400  0.466300  0.910500  1.0  0.1163
  H  H12  1  0.844600  0.627600  0.656400  1.0  0.1369
  H  H13  1  0.045900  0.647800  0.660900  1.0  0.1457
  H  H14  1  0.068900  0.904800  0.458100  1.0  0.0733
  H  H15  1  0.852400  0.972400  0.405000  1.0  0.0929
  H  H16  1  0.516200  0.884700  0.682200  1.0  0.0876
  H  H17  1  0.730000  0.818300  0.720700  1.0  0.0697
  H  H18  1  0.410600  0.966300  0.589500  1.0  0.1169
  H  H19  1  0.344600  0.872400  0.156400  1.0  0.1374
  H  H20  1  0.545900  0.852200  0.160900  1.0  0.1458
  H  H21  1  0.568900  0.595200  0.958100  1.0  0.0734
  H  H22  1  0.352400  0.527600  0.905000  1.0  0.0931
  H  H23  1  0.016200  0.615300  0.182200  1.0  0.0877
  H  H24  1  0.230000  0.681700  0.220700  1.0  0.0694
  H  H25  1  0.910600  0.533700  0.089500  1.0  0.1171
  H  H26  1  0.155400  0.372400  0.343600  1.0  0.1374
  H  H27  1  0.954100  0.352200  0.339100  1.0  0.1519
  H  H28  1  0.931100  0.095200  0.541900  1.0  0.0737
  H  H29  1  0.147600  0.027600  0.595000  1.0  0.0927
  H  H30  1  0.483800  0.115300  0.317800  1.0  0.0881
  H  H31  1  0.270000  0.181700  0.279300  1.0  0.0694
  H  H32  1  0.589400  0.033700  0.410500  1.0  0.1162
  C  C33  1  0.613300  0.196260  0.680300  1.0  0.7711
  C  C34  1  0.578600  0.160420  0.845000  1.0  -0.526
  C  C35  1  0.614600  0.192090  0.020800  1.0  0.7878
  C  C36  1  0.544300  0.400100  0.994700  1.0  0.1461
  C  C37  1  0.674900  0.441400  0.025800  1.0  -0.1585
  C  C38  1  0.842200  0.437100  0.956100  1.0  0.1056
  C  C39  1  0.871400  0.390500  0.865900  1.0  -0.1734
  C  C40  1  0.740600  0.350500  0.841800  1.0  0.172
  C  C41  1  0.988300  0.478600  0.969100  1.0  -0.1187
  C  C42  1  0.886700  0.696260  0.819700  1.0  0.7717
  C  C43  1  0.921400  0.660420  0.655000  1.0  -0.525
  C  C44  1  0.885400  0.692090  0.479200  1.0  0.788
  C  C45  1  0.955700  0.900100  0.505300  1.0  0.146
  C  C46  1  0.825100  0.941400  0.474200  1.0  -0.1591
  C  C47  1  0.657800  0.937100  0.543900  1.0  0.1068
  C  C48  1  0.628600  0.890500  0.634100  1.0  -0.1725
  C  C49  1  0.759400  0.850500  0.658200  1.0  0.1712
  C  C50  1  0.511700  0.978600  0.530900  1.0  -0.1208
  C  C51  1  0.386700  0.803740  0.319700  1.0  0.772
  C  C52  1  0.421400  0.839580  0.155000  1.0  -0.5248
  C  C53  1  0.385400  0.807910  0.979200  1.0  0.7875
  C  C54  1  0.455700  0.599900  0.005300  1.0  0.1466
  C  C55  1  0.325100  0.558600  0.974200  1.0  -0.1593
  C  C56  1  0.157800  0.562900  0.043900  1.0  0.1063
  C  C57  1  0.128600  0.609500  0.134100  1.0  -0.1724
  C  C58  1  0.259400  0.649500  0.158200  1.0  0.1714
  C  C59  1  0.011700  0.521400  0.030900  1.0  -0.1212
  C  C60  1  0.113300  0.303740  0.180300  1.0  0.7708
  C  C61  1  0.078600  0.339580  0.345000  1.0  -0.5257
  C  C62  1  0.114600  0.307910  0.520800  1.0  0.787
  C  C63  1  0.044300  0.099900  0.494700  1.0  0.1463
  C  C64  1  0.174900  0.058600  0.525800  1.0  -0.1584
  C  C65  1  0.342200  0.062900  0.456100  1.0  0.1055
  C  C66  1  0.371400  0.109500  0.365900  1.0  -0.1736
  C  C67  1  0.240600  0.149500  0.341800  1.0  0.1717
  C  C68  1  0.488300  0.021400  0.469100  1.0  -0.1189
  N  N69  1  0.575500  0.354430  0.900900  1.0  -0.3262
  N  N70  1  0.924500  0.854430  0.599100  1.0  -0.3246
  N  N71  1  0.424500  0.645570  0.099100  1.0  -0.326
  N  N72  1  0.075500  0.145570  0.400900  1.0  -0.3266
  O  O73  1  0.531800  0.242480  0.662100  1.0  -0.6157
  O  O74  1  0.721600  0.177130  0.570900  1.0  -0.62
  O  O75  1  0.732300  0.172640  0.129200  1.0  -0.6064
  O  O76  1  0.524200  0.235630  0.048300  1.0  -0.6177
  O  O77  1  0.968200  0.742480  0.837900  1.0  -0.6156
  O  O78  1  0.778400  0.677130  0.929100  1.0  -0.6186
  O  O79  1  0.767700  0.672640  0.370800  1.0  -0.6068
  O  O80  1  0.975800  0.735630  0.451700  1.0  -0.618
  O  O81  1  0.468200  0.757520  0.337900  1.0  -0.6149
  O  O82  1  0.278400  0.822870  0.429100  1.0  -0.6176
  O  O83  1  0.267700  0.827360  0.870800  1.0  -0.6065
  O  O84  1  0.475800  0.764370  0.951700  1.0  -0.6176
  O  O85  1  0.031800  0.257520  0.162100  1.0  -0.6161
  O  O86  1  0.221600  0.322870  0.070900  1.0  -0.6188
  O  O87  1  0.232300  0.327360  0.629200  1.0  -0.6064
  O  O88  1  0.024200  0.264370  0.548300  1.0  -0.617
