# generated using pymatgen
data_CsEuMoH4C9N8O
_symmetry_space_group_name_H-M   'P 1'
_cell_length_a   9.90900000
_cell_length_b   10.33700000
_cell_length_c   13.55800000
_cell_angle_alpha   81.95000000
_cell_angle_beta   86.55000000
_cell_angle_gamma   65.69000000
_symmetry_Int_Tables_number   1
_chemical_formula_structural   CsEuMoH4C9N8O
_chemical_formula_sum   'Cs2 Eu2 Mo2 H8 C18 N16 O2'
_cell_volume   1253.12376422
_cell_formula_units_Z   2
loop_
 _symmetry_equiv_pos_site_id
 _symmetry_equiv_pos_as_xyz
  1  'x, y, z'
loop_
 _atom_site_type_symbol
 _atom_site_label
 _atom_site_symmetry_multiplicity
 _atom_site_fract_x
 _atom_site_fract_y
 _atom_site_fract_z
 _atom_site_occupancy
 _atom_site_charge
  Cs  Cs1  1  0.148580  0.550560  0.384070  1.0  0.9029
  Cs  Cs2  1  0.851420  0.449440  0.615930  1.0  0.9029
  Eu  Eu3  1  0.333580  0.217050  0.183630  1.0  1.9231
  Eu  Eu4  1  0.666420  0.782950  0.816370  1.0  1.9225
  Mo  Mo5  1  0.743880  0.623870  0.240670  1.0  -0.1518
  Mo  Mo6  1  0.256120  0.376130  0.759330  1.0  -0.1531
  H  H7  1  0.454200  0.425900  0.201300  1.0  0.2143
  H  H8  1  0.373300  0.538300  0.047700  1.0  0.1303
  H  H9  1  0.310800  0.648300  0.125200  1.0  0.1348
  H  H10  1  0.208000  0.587500  0.083000  1.0  0.1336
  H  H11  1  0.545800  0.574100  0.798700  1.0  0.2123
  H  H12  1  0.626700  0.461700  0.952300  1.0  0.1312
  H  H13  1  0.689200  0.351700  0.874800  1.0  0.1348
  H  H14  1  0.792000  0.412500  0.917000  1.0  0.1302
  C  C15  1  0.843200  0.438600  0.350100  1.0  0.1519
  C  C16  1  0.745900  0.700100  0.380900  1.0  0.163
  C  C17  1  0.542900  0.616200  0.303300  1.0  0.2048
  C  C18  1  0.572600  0.840800  0.219600  1.0  0.1824
  C  C19  1  0.703800  0.461500  0.177900  1.0  0.1836
  C  C20  1  0.281700  0.313000  0.918700  1.0  0.1463
  C  C21  1  0.962200  0.490800  0.189600  1.0  0.1038
  C  C22  1  0.872300  0.752900  0.213500  1.0  0.179
  C  C23  1  0.307100  0.565500  0.103100  1.0  -0.0537
  C  C24  1  0.156800  0.561400  0.649900  1.0  0.1526
  C  C25  1  0.254100  0.299900  0.619100  1.0  0.1674
  C  C26  1  0.457100  0.383800  0.696700  1.0  0.2067
  C  C27  1  0.427400  0.159200  0.780400  1.0  0.1868
  C  C28  1  0.296200  0.538500  0.822100  1.0  0.182
  C  C29  1  0.718300  0.687000  0.081300  1.0  0.1452
  C  C30  1  0.037800  0.509200  0.810400  1.0  0.1046
  C  C31  1  0.127700  0.247100  0.786500  1.0  0.18
  C  C32  1  0.692900  0.434500  0.896900  1.0  -0.0538
  N  N33  1  0.904900  0.339600  0.405300  1.0  -0.4883
  N  N34  1  0.750100  0.736900  0.457100  1.0  -0.4882
  N  N35  1  0.433500  0.609400  0.331900  1.0  -0.4899
  N  N36  1  0.484800  0.954300  0.208000  1.0  -0.5329
  N  N37  1  0.678200  0.373700  0.149000  1.0  -0.449
  N  N38  1  0.293200  0.279900  0.002300  1.0  -0.4648
  N  N39  1  0.080300  0.415500  0.170400  1.0  -0.4661
  N  N40  1  0.945600  0.815800  0.202200  1.0  -0.4774
  N  N41  1  0.095100  0.660400  0.594700  1.0  -0.4883
  N  N42  1  0.249900  0.263100  0.542900  1.0  -0.4874
  N  N43  1  0.566500  0.390600  0.668100  1.0  -0.4903
  N  N44  1  0.515200  0.045700  0.792000  1.0  -0.5342
  N  N45  1  0.321800  0.626300  0.851000  1.0  -0.4499
  N  N46  1  0.706800  0.720100  0.997700  1.0  -0.468
  N  N47  1  0.919700  0.584500  0.829600  1.0  -0.4687
  N  N48  1  0.054400  0.184200  0.797800  1.0  -0.4764
  O  O49  1  0.351600  0.447600  0.184500  1.0  -0.6902
  O  O50  1  0.648400  0.552400  0.815500  1.0  -0.6907
