# generated using pymatgen
data_CsTbMoH4C9N8O
_symmetry_space_group_name_H-M   'P 1'
_cell_length_a   9.88900000
_cell_length_b   10.29300000
_cell_length_c   13.51800000
_cell_angle_alpha   82.04000000
_cell_angle_beta   86.67000000
_cell_angle_gamma   65.58000000
_symmetry_Int_Tables_number   1
_chemical_formula_structural   CsTbMoH4C9N8O
_chemical_formula_sum   'Cs2 Tb2 Mo2 H8 C18 N16 O2'
_cell_volume   1240.79669880
_cell_formula_units_Z   2
loop_
 _symmetry_equiv_pos_site_id
 _symmetry_equiv_pos_as_xyz
  1  'x, y, z'
loop_
 _atom_site_type_symbol
 _atom_site_label
 _atom_site_symmetry_multiplicity
 _atom_site_fract_x
 _atom_site_fract_y
 _atom_site_fract_z
 _atom_site_occupancy
 _atom_site_charge
  Cs  Cs1  1  0.149230  0.550030  0.384060  1.0  0.904
  Cs  Cs2  1  0.850770  0.449970  0.615940  1.0  0.9042
  Tb  Tb3  1  0.333810  0.217450  0.183260  1.0  1.9396
  Tb  Tb4  1  0.666190  0.782550  0.816740  1.0  1.9356
  Mo  Mo5  1  0.744540  0.624290  0.240110  1.0  -0.1507
  Mo  Mo6  1  0.255460  0.375710  0.759890  1.0  -0.155
  H  H7  1  0.454300  0.424200  0.202600  1.0  0.1302
  H  H8  1  0.386200  0.549700  0.058400  1.0  0.13
  H  H9  1  0.284100  0.652900  0.133100  1.0  0.1427
  H  H10  1  0.220400  0.570400  0.073400  1.0  0.1334
  H  H11  1  0.545700  0.575800  0.797400  1.0  0.1276
  H  H12  1  0.613800  0.450300  0.941600  1.0  0.1305
  H  H13  1  0.715900  0.347100  0.866900  1.0  0.1416
  H  H14  1  0.779600  0.429600  0.926600  1.0  0.1344
  C  C15  1  0.843200  0.437100  0.350900  1.0  0.1593
  C  C16  1  0.745400  0.701200  0.381600  1.0  0.175
  C  C17  1  0.542100  0.615000  0.304300  1.0  0.1887
  C  C18  1  0.572900  0.841500  0.220100  1.0  0.1951
  C  C19  1  0.703300  0.460300  0.179600  1.0  0.1914
  C  C20  1  0.281500  0.312400  0.918400  1.0  0.178
  C  C21  1  0.963300  0.490200  0.190800  1.0  0.0984
  C  C22  1  0.873500  0.753000  0.215500  1.0  0.1779
  C  C23  1  0.306800  0.564800  0.105900  1.0  -0.0399
  C  C24  1  0.156800  0.562900  0.649100  1.0  0.1594
  C  C25  1  0.254600  0.298800  0.618400  1.0  0.177
  C  C26  1  0.457900  0.385000  0.695700  1.0  0.1914
  C  C27  1  0.427100  0.158500  0.779900  1.0  0.1989
  C  C28  1  0.296700  0.539700  0.820400  1.0  0.1906
  C  C29  1  0.718500  0.687600  0.081600  1.0  0.1778
  C  C30  1  0.036700  0.509800  0.809200  1.0  0.0985
  C  C31  1  0.126500  0.247000  0.784500  1.0  0.1772
  C  C32  1  0.693200  0.435200  0.894100  1.0  -0.0404
  N  N33  1  0.904600  0.339600  0.406900  1.0  -0.4774
  N  N34  1  0.749200  0.736600  0.458500  1.0  -0.4894
  N  N35  1  0.433900  0.611300  0.332700  1.0  -0.4497
  N  N36  1  0.482500  0.956000  0.210200  1.0  -0.5582
  N  N37  1  0.678000  0.372800  0.150200  1.0  -0.4428
  N  N38  1  0.292900  0.281000  0.003800  1.0  -0.4903
  N  N39  1  0.081800  0.412900  0.172800  1.0  -0.4518
  N  N40  1  0.946200  0.816400  0.203700  1.0  -0.4997
  N  N41  1  0.095400  0.660400  0.593100  1.0  -0.4782
  N  N42  1  0.250800  0.263400  0.541500  1.0  -0.4893
  N  N43  1  0.566100  0.388700  0.667300  1.0  -0.4497
  N  N44  1  0.517500  0.044000  0.789800  1.0  -0.5593
  N  N45  1  0.322000  0.627200  0.849800  1.0  -0.4449
  N  N46  1  0.707100  0.719000  0.996200  1.0  -0.4889
  N  N47  1  0.918200  0.587100  0.827200  1.0  -0.4534
  N  N48  1  0.053800  0.183600  0.796300  1.0  -0.4973
  O  O49  1  0.351400  0.446200  0.185600  1.0  -0.6909
  O  O50  1  0.648600  0.553800  0.814400  1.0  -0.6912
