# generated using pymatgen
data_ErH6(C2O)6
_symmetry_space_group_name_H-M   'P 1'
_cell_length_a   10.70980000
_cell_length_b   11.24490000
_cell_length_c   26.06600000
_cell_angle_alpha   84.99800000
_cell_angle_beta   88.13500000
_cell_angle_gamma   62.66000000
_symmetry_Int_Tables_number   1
_chemical_formula_structural   ErH6(C2O)6
_chemical_formula_sum   'Er6 H36 C72 O36'
_cell_volume   2777.77304501
_cell_formula_units_Z   6
loop_
 _symmetry_equiv_pos_site_id
 _symmetry_equiv_pos_as_xyz
  1  'x, y, z'
loop_
 _atom_site_type_symbol
 _atom_site_label
 _atom_site_symmetry_multiplicity
 _atom_site_fract_x
 _atom_site_fract_y
 _atom_site_fract_z
 _atom_site_occupancy
 _atom_site_charge
  Er  Er1  1  0.411530  0.617170  0.899730  1.0  1.4642
  Er  Er2  1  0.344260  0.845900  0.741710  1.0  1.5987
  Er  Er3  1  0.381330  0.034850  0.560250  1.0  1.5011
  Er  Er4  1  0.588470  0.382830  0.100270  1.0  1.4638
  Er  Er5  1  0.655740  0.154100  0.258290  1.0  1.5999
  Er  Er6  1  0.618670  0.965150  0.439750  1.0  1.5012
  H  H7  1  0.541500  0.390100  0.425200  1.0  0.1225
  H  H8  1  0.452000  0.407700  0.575600  1.0  0.1082
  H  H9  1  0.433300  0.119700  0.777900  1.0  0.1162
  H  H10  1  0.461100  0.281500  0.818700  1.0  0.1186
  H  H11  1  0.336100  0.358000  0.646100  1.0  0.1128
  H  H12  1  0.365100  0.519200  0.686500  1.0  0.1149
  H  H13  1  0.037600  0.007600  0.549200  1.0  0.1079
  H  H14  1  0.823400  0.020200  0.527100  1.0  0.1211
  H  H15  1  0.073700  0.746800  0.670100  1.0  0.1126
  H  H16  1  0.855200  0.766100  0.650600  1.0  0.1183
  H  H17  1  0.813400  0.666300  0.903600  1.0  0.1063
  H  H18  1  0.016400  0.689300  0.896800  1.0  0.0963
  H  H19  1  0.711800  0.823400  0.757800  1.0  0.1145
  H  H20  1  0.921400  0.833400  0.749600  1.0  0.104
  H  H21  1  0.594800  0.779000  0.034800  1.0  0.1134
  H  H22  1  0.359400  0.066000  0.927300  1.0  0.1146
  H  H23  1  0.055700  0.655400  0.030900  1.0  0.1155
  H  H24  1  0.131200  0.372400  0.934700  1.0  0.1172
  H  H25  1  0.458500  0.609900  0.574800  1.0  0.1224
  H  H26  1  0.548000  0.592300  0.424400  1.0  0.1081
  H  H27  1  0.566700  0.880300  0.222100  1.0  0.1164
  H  H28  1  0.538900  0.718500  0.181300  1.0  0.1191
  H  H29  1  0.663900  0.642000  0.353900  1.0  0.1136
  H  H30  1  0.634900  0.480800  0.313500  1.0  0.115
  H  H31  1  0.962400  0.992400  0.450800  1.0  0.1076
  H  H32  1  0.176600  0.979800  0.472900  1.0  0.1209
  H  H33  1  0.926300  0.253200  0.329900  1.0  0.1129
  H  H34  1  0.144800  0.233900  0.349400  1.0  0.1188
  H  H35  1  0.186600  0.333700  0.096400  1.0  0.106
  H  H36  1  0.983600  0.310700  0.103200  1.0  0.097
  H  H37  1  0.288200  0.176600  0.242200  1.0  0.1151
  H  H38  1  0.078600  0.166600  0.250400  1.0  0.1037
  H  H39  1  0.405200  0.221000  0.965200  1.0  0.1131
  H  H40  1  0.640600  0.934000  0.072700  1.0  0.1145
  H  H41  1  0.944300  0.344600  0.969100  1.0  0.1156
  H  H42  1  0.868800  0.627600  0.065300  1.0  0.1177
  C  C43  1  0.487600  0.247300  0.500950  1.0  0.7329
  C  C44  1  0.494600  0.378600  0.501040  1.0  -0.1229
  C  C45  1  0.524600  0.434100  0.455220  1.0  -0.0571
  C  C46  1  0.471200  0.445100  0.545030  1.0  -0.0407
  C  C47  1  0.369200  0.117300  0.680270  1.0  0.7818
  C  C48  1  0.384000  0.222200  0.707520  1.0  -0.1293
  C  C49  1  0.420300  0.199400  0.759540  1.0  -0.0408
  C  C50  1  0.437000  0.296500  0.783970  1.0  -0.037
  C  C51  1  0.362400  0.342200  0.680710  1.0  -0.036
  C  C52  1  0.379400  0.439200  0.704850  1.0  -0.0342
  C  C53  1  0.417900  0.416100  0.756670  1.0  -0.1254
  C  C54  1  0.440000  0.519100  0.782780  1.0  0.7699
  C  C55  1  0.210400  0.876800  0.627250  1.0  0.7792
  C  C56  1  0.077100  0.877100  0.611390  1.0  -0.1372
  C  C57  1  0.001600  0.958100  0.569290  1.0  -0.0169
  C  C58  1  0.872300  0.967200  0.556190  1.0  -0.0806
  C  C59  1  0.022600  0.803000  0.641940  1.0  -0.0356
  C  C60  1  0.892400  0.813800  0.630010  1.0  -0.0673
  C  C61  1  0.817400  0.895800  0.587330  1.0  -0.1051
  C  C62  1  0.673700  0.917600  0.574850  1.0  0.7053
  C  C63  1  0.609000  0.725100  0.835060  1.0  0.7725
  C  C64  1  0.742300  0.740600  0.831420  1.0  -0.1176
  C  C65  1  0.834300  0.700900  0.872670  1.0  -0.0404
  C  C66  1  0.957600  0.712300  0.868220  1.0  -0.0264
  C  C67  1  0.774700  0.793000  0.785410  1.0  -0.0629
  C  C68  1  0.899800  0.800000  0.780670  1.0  -0.0366
  C  C69  1  0.994600  0.757300  0.822010  1.0  -0.1049
  C  C70  1  0.130900  0.765700  0.817170  1.0  0.7788
  C  C71  1  0.439100  0.808400  0.953380  1.0  0.6543
  C  C72  1  0.470600  0.908000  0.977310  1.0  -0.103
  C  C73  1  0.556300  0.867700  0.020840  1.0  -0.0357
  C  C74  1  0.415800  0.039300  0.956680  1.0  -0.0416
  C  C75  1  0.234000  0.535500  0.956060  1.0  0.6379
  C  C76  1  0.114900  0.515000  0.980580  1.0  -0.1015
  C  C77  1  0.034000  0.591900  0.018580  1.0  -0.0259
  C  C78  1  0.079200  0.423300  0.961150  1.0  -0.0559
  C  C79  1  0.512400  0.752700  0.499050  1.0  0.7338
  C  C80  1  0.505400  0.621400  0.498960  1.0  -0.1231
  C  C81  1  0.475400  0.565900  0.544780  1.0  -0.0575
  C  C82  1  0.528800  0.554900  0.454970  1.0  -0.0405
  C  C83  1  0.630800  0.882700  0.319730  1.0  0.7843
  C  C84  1  0.616000  0.777800  0.292480  1.0  -0.129
  C  C85  1  0.579700  0.800600  0.240460  1.0  -0.0399
  C  C86  1  0.563000  0.703500  0.216030  1.0  -0.0378
  C  C87  1  0.637600  0.657800  0.319290  1.0  -0.0368
  C  C88  1  0.620600  0.560800  0.295150  1.0  -0.0339
  C  C89  1  0.582100  0.583900  0.243330  1.0  -0.1234
  C  C90  1  0.560000  0.480900  0.217220  1.0  0.7693
  C  C91  1  0.789600  0.123200  0.372750  1.0  0.778
  C  C92  1  0.922900  0.122900  0.388610  1.0  -0.1363
  C  C93  1  0.998400  0.041900  0.430710  1.0  -0.0168
  C  C94  1  0.127700  0.032800  0.443810  1.0  -0.0783
  C  C95  1  0.977400  0.197000  0.358060  1.0  -0.0354
  C  C96  1  0.107600  0.186200  0.369990  1.0  -0.0684
  C  C97  1  0.182600  0.104200  0.412670  1.0  -0.1066
  C  C98  1  0.326300  0.082400  0.425150  1.0  0.7017
  C  C99  1  0.391000  0.274900  0.164940  1.0  0.7738
  C  C100  1  0.257700  0.259400  0.168580  1.0  -0.1177
  C  C101  1  0.165700  0.299100  0.127330  1.0  -0.0401
  C  C102  1  0.042400  0.287700  0.131780  1.0  -0.0252
  C  C103  1  0.225300  0.207000  0.214590  1.0  -0.0645
  C  C104  1  0.100200  0.200000  0.219330  1.0  -0.0371
  C  C105  1  0.005400  0.242700  0.177990  1.0  -0.1057
  C  C106  1  0.869100  0.234300  0.182830  1.0  0.7858
  C  C107  1  0.560900  0.191600  0.046620  1.0  0.6576
  C  C108  1  0.529400  0.092000  0.022690  1.0  -0.1021
  C  C109  1  0.443700  0.132300  0.979160  1.0  -0.0355
  C  C110  1  0.584200  0.960700  0.043320  1.0  -0.0429
  C  C111  1  0.766000  0.464500  0.043940  1.0  0.635
  C  C112  1  0.885100  0.485000  0.019420  1.0  -0.1041
  C  C113  1  0.966000  0.408100  0.981420  1.0  -0.0245
  C  C114  1  0.920800  0.576700  0.038850  1.0  -0.0556
  O  O115  1  0.426670  0.217940  0.538080  1.0  -0.646
  O  O116  1  0.542820  0.179620  0.464570  1.0  -0.5971
  O  O117  1  0.335160  0.143820  0.633470  1.0  -0.6482
  O  O118  1  0.394940  0.007480  0.705750  1.0  -0.7181
  O  O119  1  0.435750  0.616750  0.755080  1.0  -0.679
  O  O120  1  0.462790  0.498420  0.830050  1.0  -0.6685
  O  O121  1  0.246020  0.953560  0.600230  1.0  -0.6643
  O  O122  1  0.274250  0.805150  0.665740  1.0  -0.6703
  O  O123  1  0.629490  0.952250  0.529380  1.0  -0.7086
  O  O124  1  0.594630  0.911100  0.610530  1.0  -0.5732
  O  O125  1  0.512040  0.794850  0.804280  1.0  -0.6923
  O  O126  1  0.603940  0.644810  0.870150  1.0  -0.6295
  O  O127  1  0.161670  0.801520  0.774090  1.0  -0.6966
  O  O128  1  0.206960  0.733880  0.856690  1.0  -0.6492
  O  O129  1  0.356060  0.844850  0.915690  1.0  -0.5267
  O  O130  1  0.497520  0.686910  0.971740  1.0  -0.5623
  O  O131  1  0.256610  0.629120  0.971920  1.0  -0.5347
  O  O132  1  0.302390  0.468810  0.920980  1.0  -0.5301
  O  O133  1  0.573330  0.782060  0.461920  1.0  -0.6445
  O  O134  1  0.457180  0.820380  0.535430  1.0  -0.5869
  O  O135  1  0.664840  0.856180  0.366530  1.0  -0.6472
  O  O136  1  0.605060  0.992520  0.294250  1.0  -0.7206
  O  O137  1  0.564250  0.383250  0.244920  1.0  -0.681
  O  O138  1  0.537210  0.501580  0.169950  1.0  -0.68
  O  O139  1  0.753980  0.046440  0.399770  1.0  -0.6627
  O  O140  1  0.725750  0.194850  0.334260  1.0  -0.6701
  O  O141  1  0.370510  0.047750  0.470620  1.0  -0.7091
  O  O142  1  0.405370  0.088900  0.389470  1.0  -0.5725
  O  O143  1  0.487960  0.205150  0.195720  1.0  -0.691
  O  O144  1  0.396060  0.355190  0.129850  1.0  -0.6344
  O  O145  1  0.838330  0.198480  0.225910  1.0  -0.6961
  O  O146  1  0.793040  0.266120  0.143310  1.0  -0.649
  O  O147  1  0.643940  0.155150  0.084310  1.0  -0.527
  O  O148  1  0.502480  0.313090  0.028260  1.0  -0.5638
  O  O149  1  0.743390  0.370880  0.028080  1.0  -0.5364
  O  O150  1  0.697610  0.531190  0.079020  1.0  -0.5286
