# generated using pymatgen
data_TbH6(C2O)6
_symmetry_space_group_name_H-M   'P 1'
_cell_length_a   10.76220000
_cell_length_b   11.30380000
_cell_length_c   26.22400000
_cell_angle_alpha   85.08600000
_cell_angle_beta   88.09200000
_cell_angle_gamma   62.22500000
_symmetry_Int_Tables_number   1
_chemical_formula_structural   TbH6(C2O)6
_chemical_formula_sum   'Tb6 H36 C72 O36'
_cell_volume   2812.22729001
_cell_formula_units_Z   6
loop_
 _symmetry_equiv_pos_site_id
 _symmetry_equiv_pos_as_xyz
  1  'x, y, z'
loop_
 _atom_site_type_symbol
 _atom_site_label
 _atom_site_symmetry_multiplicity
 _atom_site_fract_x
 _atom_site_fract_y
 _atom_site_fract_z
 _atom_site_occupancy
 _atom_site_charge
  Tb  Tb1  1  0.411270  0.617430  0.399620  1.0  2.2224
  Tb  Tb2  1  0.343860  0.846360  0.241890  1.0  2.2988
  Tb  Tb3  1  0.379520  0.036280  0.060440  1.0  2.2769
  Tb  Tb4  1  0.588730  0.382570  0.600380  1.0  2.2225
  Tb  Tb5  1  0.656140  0.153640  0.758110  1.0  2.2996
  Tb  Tb6  1  0.620480  0.963720  0.939560  1.0  2.2772
  H  H7  1  0.545200  0.387900  0.926700  1.0  0.0965
  H  H8  1  0.447700  0.411000  0.075700  1.0  0.0951
  H  H9  1  0.432500  0.121300  0.277700  1.0  0.1127
  H  H10  1  0.461100  0.277000  0.317700  1.0  0.0919
  H  H11  1  0.333100  0.358100  0.147500  1.0  0.1068
  H  H12  1  0.369700  0.515200  0.187800  1.0  0.0861
  H  H13  1  0.038600  0.003500  0.049900  1.0  0.0875
  H  H14  1  0.828700  0.014300  0.027300  1.0  0.0939
  H  H15  1  0.071800  0.753300  0.171300  1.0  0.0843
  H  H16  1  0.854600  0.772200  0.153400  1.0  0.1006
  H  H17  1  0.816100  0.667500  0.403100  1.0  0.0869
  H  H18  1  0.017300  0.691100  0.394900  1.0  0.0807
  H  H19  1  0.707500  0.828100  0.259900  1.0  0.0927
  H  H20  1  0.914400  0.842300  0.251600  1.0  0.086
  H  H21  1  0.593900  0.779800  0.534100  1.0  0.0953
  H  H22  1  0.361900  0.065200  0.427000  1.0  0.0991
  H  H23  1  0.060500  0.647800  0.532500  1.0  0.0936
  H  H24  1  0.132700  0.374000  0.436400  1.0  0.0806
  H  H25  1  0.454800  0.612100  0.073300  1.0  0.0961
  H  H26  1  0.552300  0.589000  0.924300  1.0  0.0948
  H  H27  1  0.567500  0.878700  0.722300  1.0  0.1125
  H  H28  1  0.538900  0.723000  0.682300  1.0  0.092
  H  H29  1  0.666900  0.641900  0.852500  1.0  0.1073
  H  H30  1  0.630300  0.484800  0.812200  1.0  0.0859
  H  H31  1  0.961400  0.996500  0.950100  1.0  0.0868
  H  H32  1  0.171300  0.985700  0.972700  1.0  0.0939
  H  H33  1  0.928200  0.246700  0.828700  1.0  0.0841
  H  H34  1  0.145400  0.227800  0.846600  1.0  0.1008
  H  H35  1  0.183900  0.332500  0.596900  1.0  0.0867
  H  H36  1  0.982700  0.308900  0.605100  1.0  0.0809
  H  H37  1  0.292500  0.171900  0.740100  1.0  0.0934
  H  H38  1  0.085600  0.157700  0.748400  1.0  0.0858
  H  H39  1  0.406100  0.220200  0.465900  1.0  0.0947
  H  H40  1  0.638100  0.934800  0.573000  1.0  0.0991
  H  H41  1  0.939500  0.352200  0.467500  1.0  0.0929
  H  H42  1  0.867300  0.626000  0.563600  1.0  0.0806
  C  C43  1  0.488000  0.247000  0.001300  1.0  0.7094
  C  C44  1  0.494800  0.380500  0.002400  1.0  -0.1682
  C  C45  1  0.527000  0.433800  0.956100  1.0  -0.0497
  C  C46  1  0.468600  0.446600  0.045300  1.0  -0.011
  C  C47  1  0.370900  0.117900  0.181800  1.0  0.7344
  C  C48  1  0.388000  0.222500  0.208100  1.0  -0.1483
  C  C49  1  0.421300  0.200000  0.259500  1.0  -0.1002
  C  C50  1  0.438000  0.293200  0.283100  1.0  -0.0419
  C  C51  1  0.363000  0.341000  0.181500  1.0  -0.0654
  C  C52  1  0.382400  0.436100  0.206100  1.0  -0.041
  C  C53  1  0.420500  0.414200  0.257200  1.0  -0.1395
  C  C54  1  0.442500  0.517900  0.281400  1.0  0.7487
  C  C55  1  0.209800  0.877200  0.128000  1.0  0.7754
  C  C56  1  0.076700  0.877200  0.112500  1.0  -0.1632
  C  C57  1  0.002400  0.955400  0.070100  1.0  -0.0516
  C  C58  1  0.876000  0.964000  0.057000  1.0  -0.1025
  C  C59  1  0.021100  0.807700  0.142900  1.0  -0.0467
  C  C60  1  0.891500  0.817700  0.132000  1.0  -0.0874
  C  C61  1  0.816900  0.895500  0.089000  1.0  -0.1142
  C  C62  1  0.670000  0.918400  0.077300  1.0  0.6667
  C  C63  1  0.610300  0.724300  0.336400  1.0  0.7517
  C  C64  1  0.742900  0.741600  0.332100  1.0  -0.1275
  C  C65  1  0.835000  0.702000  0.372200  1.0  -0.0607
  C  C66  1  0.957000  0.715000  0.367000  1.0  -0.0329
  C  C67  1  0.771500  0.796800  0.286900  1.0  -0.0858
  C  C68  1  0.896000  0.805400  0.282100  1.0  -0.0406
  C  C69  1  0.990700  0.760400  0.321500  1.0  -0.1323
  C  C70  1  0.125900  0.766400  0.316600  1.0  0.7206
  C  C71  1  0.437800  0.810700  0.453300  1.0  0.6542
  C  C72  1  0.471300  0.909800  0.477400  1.0  -0.1346
  C  C73  1  0.556000  0.868400  0.520500  1.0  -0.0493
  C  C74  1  0.417000  0.038800  0.456500  1.0  -0.0648
  C  C75  1  0.231000  0.535200  0.456600  1.0  0.691
  C  C76  1  0.116600  0.514300  0.480200  1.0  -0.0267
  C  C77  1  0.037000  0.587500  0.518700  1.0  -0.0924
  C  C78  1  0.080000  0.426600  0.462200  1.0  -0.1332
  C  C79  1  0.512000  0.753000  0.998700  1.0  0.7107
  C  C80  1  0.505200  0.619500  0.997600  1.0  -0.1695
  C  C81  1  0.473000  0.566200  0.043900  1.0  -0.0506
  C  C82  1  0.531400  0.553400  0.954700  1.0  -0.0087
  C  C83  1  0.629100  0.882100  0.818200  1.0  0.7373
  C  C84  1  0.612000  0.777500  0.791900  1.0  -0.1486
  C  C85  1  0.578700  0.800000  0.740500  1.0  -0.0984
  C  C86  1  0.562000  0.706800  0.716900  1.0  -0.0429
  C  C87  1  0.637000  0.659000  0.818500  1.0  -0.0665
  C  C88  1  0.617600  0.563900  0.793900  1.0  -0.0412
  C  C89  1  0.579500  0.585800  0.742800  1.0  -0.1391
  C  C90  1  0.557500  0.482100  0.718600  1.0  0.748
  C  C91  1  0.790200  0.122800  0.872000  1.0  0.7768
  C  C92  1  0.923300  0.122800  0.887500  1.0  -0.1633
  C  C93  1  0.997600  0.044600  0.929900  1.0  -0.0514
  C  C94  1  0.124000  0.036000  0.943000  1.0  -0.1024
  C  C95  1  0.978900  0.192300  0.857100  1.0  -0.0466
  C  C96  1  0.108500  0.182300  0.868000  1.0  -0.0884
  C  C97  1  0.183100  0.104500  0.911000  1.0  -0.1149
  C  C98  1  0.330000  0.081600  0.922700  1.0  0.6656
  C  C99  1  0.389700  0.275700  0.663600  1.0  0.7519
  C  C100  1  0.257100  0.258400  0.667900  1.0  -0.1274
  C  C101  1  0.165000  0.298000  0.627800  1.0  -0.0591
  C  C102  1  0.043000  0.285000  0.633000  1.0  -0.0327
  C  C103  1  0.228500  0.203200  0.713100  1.0  -0.0862
  C  C104  1  0.104000  0.194600  0.717900  1.0  -0.0415
  C  C105  1  0.009300  0.239600  0.678500  1.0  -0.1339
  C  C106  1  0.874100  0.233600  0.683400  1.0  0.7255
  C  C107  1  0.562200  0.189300  0.546700  1.0  0.6585
  C  C108  1  0.528700  0.090200  0.522600  1.0  -0.1343
  C  C109  1  0.444000  0.131600  0.479500  1.0  -0.0492
  C  C110  1  0.583000  0.961200  0.543500  1.0  -0.067
  C  C111  1  0.769000  0.464800  0.543400  1.0  0.6923
  C  C112  1  0.883400  0.485700  0.519800  1.0  -0.0271
  C  C113  1  0.963000  0.412500  0.481300  1.0  -0.0916
  C  C114  1  0.920000  0.573400  0.537800  1.0  -0.1335
  O  O115  1  0.425000  0.220100  0.038400  1.0  -0.6946
  O  O116  1  0.547800  0.176700  0.964300  1.0  -0.6804
  O  O117  1  0.335100  0.143700  0.134900  1.0  -0.7016
  O  O118  1  0.396100  0.009400  0.205800  1.0  -0.7909
  O  O119  1  0.437000  0.613500  0.255000  1.0  -0.6672
  O  O120  1  0.466500  0.496900  0.329200  1.0  -0.7263
  O  O121  1  0.243600  0.952100  0.100800  1.0  -0.7246
  O  O122  1  0.273200  0.806300  0.165700  1.0  -0.7078
  O  O123  1  0.629700  0.950800  0.030000  1.0  -0.8177
  O  O124  1  0.594400  0.909900  0.112100  1.0  -0.5893
  O  O125  1  0.515000  0.791000  0.305400  1.0  -0.7976
  O  O126  1  0.610400  0.641400  0.370800  1.0  -0.653
  O  O127  1  0.156900  0.803300  0.274300  1.0  -0.7234
  O  O128  1  0.205300  0.735700  0.355600  1.0  -0.7383
  O  O129  1  0.355500  0.847700  0.414900  1.0  -0.6307
  O  O130  1  0.493000  0.690400  0.472900  1.0  -0.6603
  O  O131  1  0.253500  0.627300  0.471200  1.0  -0.693
  O  O132  1  0.301100  0.468900  0.421700  1.0  -0.6096
  O  O133  1  0.575000  0.779900  0.961600  1.0  -0.6938
  O  O134  1  0.452200  0.823300  0.035700  1.0  -0.677
  O  O135  1  0.664900  0.856300  0.865100  1.0  -0.7011
  O  O136  1  0.603900  0.990600  0.794200  1.0  -0.7929
  O  O137  1  0.563000  0.386500  0.745000  1.0  -0.6702
  O  O138  1  0.533500  0.503100  0.670800  1.0  -0.7309
  O  O139  1  0.756400  0.047900  0.899200  1.0  -0.7244
  O  O140  1  0.726800  0.193700  0.834300  1.0  -0.7084
  O  O141  1  0.370300  0.049200  0.970000  1.0  -0.818
  O  O142  1  0.405600  0.090100  0.887900  1.0  -0.5898
  O  O143  1  0.485000  0.209000  0.694600  1.0  -0.7964
  O  O144  1  0.389600  0.358600  0.629200  1.0  -0.6561
  O  O145  1  0.843100  0.196700  0.725700  1.0  -0.7229
  O  O146  1  0.794700  0.264300  0.644400  1.0  -0.7393
  O  O147  1  0.644500  0.152300  0.585100  1.0  -0.6306
  O  O148  1  0.507000  0.309600  0.527100  1.0  -0.6628
  O  O149  1  0.746500  0.372700  0.528800  1.0  -0.6944
  O  O150  1  0.698900  0.531100  0.578300  1.0  -0.611
