# generated using pymatgen
data_HoH6(C2O)6
_symmetry_space_group_name_H-M   'P 1'
_cell_length_a   10.74100000
_cell_length_b   11.28400000
_cell_length_c   26.15200000
_cell_angle_alpha   84.97000000
_cell_angle_beta   87.96300000
_cell_angle_gamma   62.56800000
_symmetry_Int_Tables_number   1
_chemical_formula_structural   HoH6(C2O)6
_chemical_formula_sum   'Ho6 H36 C72 O36'
_cell_volume   2802.38175456
_cell_formula_units_Z   6
loop_
 _symmetry_equiv_pos_site_id
 _symmetry_equiv_pos_as_xyz
  1  'x, y, z'
loop_
 _atom_site_type_symbol
 _atom_site_label
 _atom_site_symmetry_multiplicity
 _atom_site_fract_x
 _atom_site_fract_y
 _atom_site_fract_z
 _atom_site_occupancy
 _atom_site_charge
  Ho  Ho1  1  0.380870  0.035330  0.560290  1.0  2.0774
  Ho  Ho2  1  0.344180  0.846160  0.741800  1.0  2.3705
  Ho  Ho3  1  0.411400  0.617270  0.899670  1.0  2.0539
  Ho  Ho4  1  0.619130  0.964670  0.439710  1.0  2.0724
  Ho  Ho5  1  0.655820  0.153840  0.258200  1.0  2.3731
  Ho  Ho6  1  0.588600  0.382730  0.100330  1.0  2.0534
  H  H7  1  0.453400  0.408100  0.575700  1.0  0.1026
  H  H8  1  0.544300  0.387500  0.426100  1.0  0.1075
  H  H9  1  0.338900  0.355500  0.646500  1.0  0.104
  H  H10  1  0.364900  0.519800  0.687100  1.0  0.1158
  H  H11  1  0.438900  0.118300  0.777000  1.0  0.1103
  H  H12  1  0.454400  0.286300  0.818700  1.0  0.1112
  H  H13  1  0.036100  0.006100  0.548900  1.0  0.0993
  H  H14  1  0.824000  0.018100  0.527600  1.0  0.1166
  H  H15  1  0.853100  0.768700  0.651300  1.0  0.1173
  H  H16  1  0.072500  0.750100  0.670100  1.0  0.1009
  H  H17  1  0.710900  0.824200  0.758300  1.0  0.1036
  H  H18  1  0.922400  0.833600  0.750400  1.0  0.0945
  H  H19  1  0.018300  0.686500  0.895800  1.0  0.0897
  H  H20  1  0.816100  0.663100  0.902400  1.0  0.0952
  H  H21  1  0.362200  0.064700  0.927100  1.0  0.1027
  H  H22  1  0.594900  0.780500  0.034800  1.0  0.0983
  H  H23  1  0.130400  0.374000  0.935300  1.0  0.0941
  H  H24  1  0.051800  0.657800  0.031300  1.0  0.1188
  H  H25  1  0.546600  0.591900  0.424300  1.0  0.1009
  H  H26  1  0.455700  0.612500  0.573900  1.0  0.1074
  H  H27  1  0.661100  0.644500  0.353500  1.0  0.1043
  H  H28  1  0.635100  0.480200  0.312900  1.0  0.117
  H  H29  1  0.561100  0.881700  0.223000  1.0  0.1105
  H  H30  1  0.545600  0.713700  0.181300  1.0  0.1114
  H  H31  1  0.963900  0.993900  0.451100  1.0  0.0987
  H  H32  1  0.176000  0.981900  0.472400  1.0  0.1168
  H  H33  1  0.146900  0.231300  0.348700  1.0  0.1177
  H  H34  1  0.927500  0.249900  0.329900  1.0  0.101
  H  H35  1  0.289100  0.175800  0.241700  1.0  0.1042
  H  H36  1  0.077600  0.166400  0.249600  1.0  0.094
  H  H37  1  0.981700  0.313500  0.104200  1.0  0.0898
  H  H38  1  0.183900  0.336900  0.097600  1.0  0.0943
  H  H39  1  0.637800  0.935300  0.072900  1.0  0.1031
  H  H40  1  0.405100  0.219500  0.965200  1.0  0.0975
  H  H41  1  0.869600  0.626000  0.064700  1.0  0.0951
  H  H42  1  0.948200  0.342200  0.968700  1.0  0.119
  C  C43  1  0.488700  0.247100  0.500660  1.0  0.7582
  C  C44  1  0.494800  0.379000  0.500650  1.0  -0.128
  C  C45  1  0.471400  0.445700  0.544990  1.0  -0.0537
  C  C46  1  0.525600  0.432500  0.455760  1.0  -0.0642
  C  C47  1  0.675100  0.915300  0.575480  1.0  0.7174
  C  C48  1  0.369900  0.116000  0.680640  1.0  0.7472
  C  C49  1  0.382200  0.225000  0.707600  1.0  -0.1476
  C  C50  1  0.363300  0.341000  0.681110  1.0  -0.0312
  C  C51  1  0.380100  0.439300  0.705020  1.0  -0.0539
  C  C52  1  0.421800  0.199400  0.759230  1.0  -0.0594
  C  C53  1  0.435200  0.298600  0.783690  1.0  -0.0419
  C  C54  1  0.211300  0.877500  0.626400  1.0  0.7889
  C  C55  1  0.075200  0.878500  0.611470  1.0  -0.147
  C  C56  1  0.000200  0.957400  0.569280  1.0  -0.0257
  C  C57  1  0.872900  0.965800  0.556650  1.0  -0.0985
  C  C58  1  0.818600  0.895000  0.587900  1.0  -0.1011
  C  C59  1  0.890700  0.815300  0.630490  1.0  -0.0776
  C  C60  1  0.021400  0.805500  0.641970  1.0  -0.0385
  C  C61  1  0.420200  0.412400  0.756590  1.0  -0.1408
  C  C62  1  0.440100  0.518700  0.782750  1.0  0.7697
  C  C63  1  0.129600  0.766200  0.816650  1.0  0.7586
  C  C64  1  0.993000  0.759000  0.822260  1.0  -0.1437
  C  C65  1  0.612700  0.723500  0.835560  1.0  0.7732
  C  C66  1  0.741300  0.740500  0.831320  1.0  -0.1308
  C  C67  1  0.773500  0.793500  0.785820  1.0  -0.0614
  C  C68  1  0.900200  0.800600  0.781320  1.0  -0.0434
  C  C69  1  0.958700  0.711300  0.867540  1.0  -0.0329
  C  C70  1  0.835600  0.699400  0.871720  1.0  -0.0477
  C  C71  1  0.437600  0.808000  0.952740  1.0  0.6836
  C  C72  1  0.469800  0.907800  0.977290  1.0  -0.107
  C  C73  1  0.417100  0.038200  0.956690  1.0  -0.064
  C  C74  1  0.555800  0.868900  0.020840  1.0  -0.054
  C  C75  1  0.230300  0.539500  0.956660  1.0  0.6451
  C  C76  1  0.116000  0.513500  0.979930  1.0  -0.1028
  C  C77  1  0.078500  0.424400  0.961840  1.0  -0.0593
  C  C78  1  0.031800  0.593600  0.018940  1.0  -0.0758
  C  C79  1  0.511300  0.752900  0.499340  1.0  0.7514
  C  C80  1  0.505200  0.621000  0.499350  1.0  -0.1298
  C  C81  1  0.528600  0.554300  0.455010  1.0  -0.0544
  C  C82  1  0.474400  0.567500  0.544240  1.0  -0.0666
  C  C83  1  0.324900  0.084700  0.424520  1.0  0.7156
  C  C84  1  0.630100  0.884000  0.319360  1.0  0.7679
  C  C85  1  0.617800  0.775000  0.292400  1.0  -0.1478
  C  C86  1  0.636700  0.659000  0.318890  1.0  -0.032
  C  C87  1  0.619900  0.560700  0.294980  1.0  -0.0544
  C  C88  1  0.578200  0.800600  0.240770  1.0  -0.0578
  C  C89  1  0.564800  0.701400  0.216310  1.0  -0.0423
  C  C90  1  0.788700  0.122500  0.373600  1.0  0.7864
  C  C91  1  0.924800  0.121500  0.388530  1.0  -0.1464
  C  C92  1  0.999800  0.042600  0.430720  1.0  -0.0256
  C  C93  1  0.127100  0.034200  0.443350  1.0  -0.0945
  C  C94  1  0.181400  0.105000  0.412100  1.0  -0.1016
  C  C95  1  0.109300  0.184700  0.369510  1.0  -0.077
  C  C96  1  0.978600  0.194500  0.358030  1.0  -0.0376
  C  C97  1  0.579800  0.587600  0.243410  1.0  -0.14
  C  C98  1  0.559900  0.481300  0.217250  1.0  0.7708
  C  C99  1  0.870400  0.233800  0.183350  1.0  0.7668
  C  C100  1  0.007000  0.241000  0.177740  1.0  -0.1454
  C  C101  1  0.387300  0.276500  0.164440  1.0  0.7755
  C  C102  1  0.258700  0.259500  0.168680  1.0  -0.1315
  C  C103  1  0.226500  0.206500  0.214180  1.0  -0.0678
  C  C104  1  0.099800  0.199400  0.218680  1.0  -0.0447
  C  C105  1  0.041300  0.288700  0.132460  1.0  -0.0326
  C  C106  1  0.164400  0.300600  0.128280  1.0  -0.0461
  C  C107  1  0.562400  0.192000  0.047260  1.0  0.6797
  C  C108  1  0.530200  0.092200  0.022710  1.0  -0.1069
  C  C109  1  0.582900  0.961800  0.043310  1.0  -0.0716
  C  C110  1  0.444200  0.131100  0.979160  1.0  -0.0536
  C  C111  1  0.769700  0.460500  0.043340  1.0  0.6368
  C  C112  1  0.884000  0.486500  0.020070  1.0  -0.1038
  C  C113  1  0.921500  0.575600  0.038160  1.0  -0.0557
  C  C114  1  0.968200  0.406400  0.981060  1.0  -0.0737
  O  O115  1  0.426400  0.218400  0.538090  1.0  -0.7164
  O  O116  1  0.543500  0.179500  0.464290  1.0  -0.6757
  O  O117  1  0.630500  0.951100  0.529480  1.0  -0.8491
  O  O118  1  0.593800  0.911600  0.610580  1.0  -0.6336
  O  O119  1  0.245200  0.953500  0.600010  1.0  -0.7482
  O  O120  1  0.334700  0.144200  0.633190  1.0  -0.7055
  O  O121  1  0.159100  0.803100  0.774030  1.0  -0.7201
  O  O122  1  0.394200  0.009100  0.705160  1.0  -0.8213
  O  O123  1  0.273000  0.805700  0.665830  1.0  -0.7645
  O  O124  1  0.436900  0.617300  0.754710  1.0  -0.7441
  O  O125  1  0.512200  0.794100  0.804090  1.0  -0.8531
  O  O126  1  0.605300  0.644700  0.870040  1.0  -0.6483
  O  O127  1  0.207200  0.734000  0.856170  1.0  -0.7445
  O  O128  1  0.355600  0.846000  0.915730  1.0  -0.6329
  O  O129  1  0.494500  0.690200  0.971640  1.0  -0.6346
  O  O130  1  0.256150  0.628200  0.971860  1.0  -0.6294
  O  O131  1  0.302400  0.468200  0.921370  1.0  -0.6685
  O  O132  1  0.463300  0.497700  0.830080  1.0  -0.6909
  O  O133  1  0.573600  0.781600  0.461910  1.0  -0.7148
  O  O134  1  0.456500  0.820500  0.535710  1.0  -0.6727
  O  O135  1  0.369500  0.048900  0.470520  1.0  -0.849
  O  O136  1  0.406200  0.088400  0.389420  1.0  -0.6333
  O  O137  1  0.754800  0.046500  0.399990  1.0  -0.7491
  O  O138  1  0.665300  0.855800  0.366810  1.0  -0.7034
  O  O139  1  0.840900  0.196900  0.225970  1.0  -0.7155
  O  O140  1  0.605800  0.990900  0.294840  1.0  -0.8357
  O  O141  1  0.727000  0.194300  0.334170  1.0  -0.764
  O  O142  1  0.563100  0.382700  0.245290  1.0  -0.7506
  O  O143  1  0.487800  0.205900  0.195910  1.0  -0.854
  O  O144  1  0.394700  0.355300  0.129960  1.0  -0.6504
  O  O145  1  0.792800  0.266000  0.143830  1.0  -0.7442
  O  O146  1  0.644400  0.154000  0.084270  1.0  -0.6345
  O  O147  1  0.505500  0.309800  0.028360  1.0  -0.637
  O  O148  1  0.743850  0.371800  0.028140  1.0  -0.6298
  O  O149  1  0.697600  0.531800  0.078630  1.0  -0.6693
  O  O150  1  0.536700  0.502300  0.169920  1.0  -0.6977
