# generated using pymatgen
data_DyH6(C2O)6
_symmetry_space_group_name_H-M   'P 1'
_cell_length_a   10.73830000
_cell_length_b   11.28080000
_cell_length_c   26.13800000
_cell_angle_alpha   85.11100000
_cell_angle_beta   88.14800000
_cell_angle_gamma   62.41500000
_symmetry_Int_Tables_number   1
_chemical_formula_structural   DyH6(C2O)6
_chemical_formula_sum   'Dy6 H36 C72 O36'
_cell_volume   2796.04076008
_cell_formula_units_Z   6
loop_
 _symmetry_equiv_pos_site_id
 _symmetry_equiv_pos_as_xyz
  1  'x, y, z'
loop_
 _atom_site_type_symbol
 _atom_site_label
 _atom_site_symmetry_multiplicity
 _atom_site_fract_x
 _atom_site_fract_y
 _atom_site_fract_z
 _atom_site_occupancy
 _atom_site_charge
  Dy  Dy1  1  0.619820  0.464220  0.939670  1.0  2.3199
  Dy  Dy2  1  0.588510  0.882820  0.600370  1.0  2.2552
  Dy  Dy3  1  0.656250  0.653550  0.758150  1.0  2.3709
  Dy  Dy4  1  0.380180  0.535780  0.060330  1.0  2.3184
  Dy  Dy5  1  0.411490  0.117180  0.399630  1.0  2.2558
  Dy  Dy6  1  0.343750  0.346450  0.241850  1.0  2.3672
  H  H7  1  0.545700  0.092600  0.924300  1.0  0.0949
  H  H8  1  0.455300  0.112500  0.074100  1.0  0.1042
  H  H9  1  0.962200  0.494400  0.950000  1.0  0.0882
  H  H10  1  0.175900  0.484700  0.973000  1.0  0.1
  H  H11  1  0.145200  0.733900  0.849500  1.0  0.1107
  H  H12  1  0.927500  0.750300  0.829600  1.0  0.0981
  H  H13  1  0.662000  0.141600  0.854100  1.0  0.103
  H  H14  1  0.633200  0.982300  0.812800  1.0  0.0938
  H  H15  1  0.541200  0.219000  0.681700  1.0  0.1138
  H  H16  1  0.565800  0.377700  0.723100  1.0  0.0982
  H  H17  1  0.079000  0.669000  0.750500  1.0  0.0916
  H  H18  1  0.291400  0.671300  0.740800  1.0  0.094
  H  H19  1  0.186700  0.832600  0.596500  1.0  0.106
  H  H20  1  0.980100  0.816500  0.604900  1.0  0.0808
  H  H21  1  0.866000  0.132000  0.563700  1.0  0.1035
  H  H22  1  0.943200  0.847400  0.467300  1.0  0.1022
  H  H23  1  0.643200  0.430300  0.572400  1.0  0.1045
  H  H24  1  0.406700  0.719500  0.465500  1.0  0.0896
  H  H25  1  0.454300  0.907400  0.075700  1.0  0.095
  H  H26  1  0.544700  0.887500  0.925900  1.0  0.1042
  H  H27  1  0.037800  0.505600  0.050000  1.0  0.0885
  H  H28  1  0.824100  0.515300  0.027000  1.0  0.0997
  H  H29  1  0.854800  0.266100  0.150500  1.0  0.1106
  H  H30  1  0.072500  0.249700  0.170400  1.0  0.0981
  H  H31  1  0.338000  0.858400  0.145900  1.0  0.1026
  H  H32  1  0.366800  0.017700  0.187200  1.0  0.0938
  H  H33  1  0.458800  0.781000  0.318300  1.0  0.1143
  H  H34  1  0.434200  0.622300  0.276900  1.0  0.0979
  H  H35  1  0.921000  0.331000  0.249500  1.0  0.092
  H  H36  1  0.708600  0.328700  0.259200  1.0  0.0933
  H  H37  1  0.813300  0.167400  0.403500  1.0  0.1062
  H  H38  1  0.019900  0.183500  0.395100  1.0  0.08
  H  H39  1  0.134000  0.868000  0.436300  1.0  0.103
  H  H40  1  0.056800  0.152600  0.532700  1.0  0.1028
  H  H41  1  0.356800  0.569700  0.427600  1.0  0.1042
  H  H42  1  0.593300  0.280500  0.534500  1.0  0.0904
  C  C43  1  0.510200  0.253700  0.998790  1.0  0.7561
  C  C44  1  0.504900  0.121000  0.998910  1.0  -0.1435
  C  C45  1  0.528200  0.054900  0.954980  1.0  -0.0559
  C  C46  1  0.474200  0.067300  0.044380  1.0  -0.0651
  C  C47  1  0.791800  0.622800  0.872890  1.0  0.7917
  C  C48  1  0.924800  0.621600  0.888450  1.0  -0.1586
  C  C49  1  0.998100  0.543600  0.930010  1.0  -0.0224
  C  C50  1  0.128200  0.535400  0.943490  1.0  -0.0955
  C  C51  1  0.183400  0.603900  0.912190  1.0  -0.1158
  C  C52  1  0.108800  0.685700  0.869790  1.0  -0.0905
  C  C53  1  0.978500  0.695200  0.857830  1.0  -0.0438
  C  C54  1  0.323400  0.585800  0.924300  1.0  0.7146
  C  C55  1  0.631100  0.382400  0.819450  1.0  0.8129
  C  C56  1  0.616500  0.277200  0.792470  1.0  -0.1728
  C  C57  1  0.636700  0.157500  0.819560  1.0  -0.059
  C  C58  1  0.618900  0.062400  0.794780  1.0  -0.0545
  C  C59  1  0.580100  0.085600  0.743540  1.0  -0.1282
  C  C60  1  0.563400  0.203900  0.716490  1.0  -0.062
  C  C61  1  0.579800  0.297900  0.741300  1.0  -0.0421
  C  C62  1  0.559300  0.982100  0.717450  1.0  0.7734
  C  C63  1  0.870900  0.734900  0.683920  1.0  0.7708
  C  C64  1  0.007100  0.740700  0.677940  1.0  -0.1406
  C  C65  1  0.101200  0.699900  0.719190  1.0  -0.0607
  C  C66  1  0.226800  0.705100  0.713760  1.0  -0.0718
  C  C67  1  0.258700  0.759600  0.668970  1.0  -0.1346
  C  C68  1  0.165800  0.799400  0.627560  1.0  -0.0683
  C  C69  1  0.041500  0.789400  0.632780  1.0  -0.0282
  C  C70  1  0.389500  0.774900  0.664530  1.0  0.8004
  C  C71  1  0.767900  0.964000  0.543700  1.0  0.6492
  C  C72  1  0.885800  0.984600  0.519360  1.0  -0.1055
  C  C73  1  0.920400  0.078600  0.538230  1.0  -0.0869
  C  C74  1  0.966500  0.908400  0.480660  1.0  -0.0559
  C  C75  1  0.561000  0.690700  0.546050  1.0  0.6786
  C  C76  1  0.529100  0.592000  0.522850  1.0  -0.122
  C  C77  1  0.585700  0.458400  0.543430  1.0  -0.0854
  C  C78  1  0.444200  0.631100  0.479450  1.0  -0.0325
  C  C79  1  0.489800  0.746300  0.001210  1.0  0.7559
  C  C80  1  0.495100  0.879000  0.001090  1.0  -0.1443
  C  C81  1  0.471800  0.945100  0.045020  1.0  -0.0566
  C  C82  1  0.525800  0.932700  0.955620  1.0  -0.0638
  C  C83  1  0.208200  0.377200  0.127110  1.0  0.7922
  C  C84  1  0.075200  0.378400  0.111550  1.0  -0.1584
  C  C85  1  0.001900  0.456400  0.069990  1.0  -0.0223
  C  C86  1  0.871800  0.464600  0.056510  1.0  -0.0966
  C  C87  1  0.816600  0.396100  0.087810  1.0  -0.1155
  C  C88  1  0.891200  0.314300  0.130210  1.0  -0.0901
  C  C89  1  0.021500  0.304800  0.142170  1.0  -0.0432
  C  C90  1  0.676600  0.414200  0.075700  1.0  0.7197
  C  C91  1  0.368900  0.617600  0.180550  1.0  0.8045
  C  C92  1  0.383500  0.722800  0.207530  1.0  -0.1732
  C  C93  1  0.363300  0.842500  0.180440  1.0  -0.0601
  C  C94  1  0.381100  0.937600  0.205220  1.0  -0.0538
  C  C95  1  0.419900  0.914400  0.256460  1.0  -0.1293
  C  C96  1  0.436600  0.796100  0.283510  1.0  -0.0606
  C  C97  1  0.420200  0.702100  0.258700  1.0  -0.0443
  C  C98  1  0.440700  0.017900  0.282550  1.0  0.7748
  C  C99  1  0.129100  0.265100  0.316080  1.0  0.7618
  C  C100  1  0.992900  0.259300  0.322060  1.0  -0.1396
  C  C101  1  0.898800  0.300100  0.280810  1.0  -0.0607
  C  C102  1  0.773200  0.294900  0.286240  1.0  -0.0727
  C  C103  1  0.741300  0.240400  0.331030  1.0  -0.1345
  C  C104  1  0.834200  0.200600  0.372440  1.0  -0.068
  C  C105  1  0.958500  0.210600  0.367220  1.0  -0.0268
  C  C106  1  0.610500  0.225100  0.335470  1.0  0.7994
  C  C107  1  0.232100  0.036000  0.456300  1.0  0.6498
  C  C108  1  0.114200  0.015400  0.480640  1.0  -0.1048
  C  C109  1  0.079600  0.921400  0.461770  1.0  -0.0851
  C  C110  1  0.033500  0.091600  0.519340  1.0  -0.0566
  C  C111  1  0.439000  0.309300  0.453950  1.0  0.6764
  C  C112  1  0.470900  0.408000  0.477150  1.0  -0.1217
  C  C113  1  0.414300  0.541600  0.456570  1.0  -0.0822
  C  C114  1  0.555800  0.368900  0.520550  1.0  -0.0364
  O  O115  1  0.574900  0.278700  0.961890  1.0  -0.7357
  O  O116  1  0.454700  0.321800  0.035210  1.0  -0.6879
  O  O117  1  0.756600  0.544600  0.899510  1.0  -0.7672
  O  O118  1  0.726500  0.693900  0.834640  1.0  -0.7343
  O  O119  1  0.369700  0.549800  0.970320  1.0  -0.883
  O  O120  1  0.404200  0.591000  0.889090  1.0  -0.6398
  O  O121  1  0.665600  0.355600  0.865820  1.0  -0.7067
  O  O122  1  0.606000  0.489800  0.794350  1.0  -0.843
  O  O123  1  0.564100  0.884100  0.745030  1.0  -0.7464
  O  O124  1  0.535800  0.002200  0.670200  1.0  -0.7261
  O  O125  1  0.841500  0.697200  0.725700  1.0  -0.7517
  O  O126  1  0.793300  0.764600  0.644410  1.0  -0.7553
  O  O127  1  0.487100  0.707100  0.695090  1.0  -0.8297
  O  O128  1  0.394800  0.855800  0.629660  1.0  -0.6684
  O  O129  1  0.644400  0.652500  0.584020  1.0  -0.7107
  O  O130  1  0.505500  0.810500  0.527920  1.0  -0.6568
  O  O131  1  0.697300  0.031900  0.579320  1.0  -0.66
  O  O132  1  0.744300  0.872000  0.527910  1.0  -0.6641
  O  O133  1  0.425100  0.721300  0.038110  1.0  -0.7368
  O  O134  1  0.545300  0.678200  0.964790  1.0  -0.6896
  O  O135  1  0.243400  0.455400  0.100490  1.0  -0.7652
  O  O136  1  0.273500  0.306100  0.165360  1.0  -0.7348
  O  O137  1  0.630300  0.450200  0.029680  1.0  -0.8833
  O  O138  1  0.595800  0.409000  0.110910  1.0  -0.6396
  O  O139  1  0.334400  0.644400  0.134180  1.0  -0.7085
  O  O140  1  0.394000  0.510200  0.205650  1.0  -0.8413
  O  O141  1  0.435900  0.115900  0.254970  1.0  -0.7432
  O  O142  1  0.464200  0.997800  0.329800  1.0  -0.7203
  O  O143  1  0.158500  0.302800  0.274300  1.0  -0.7534
  O  O144  1  0.206700  0.235400  0.355590  1.0  -0.7555
  O  O145  1  0.512900  0.292900  0.304910  1.0  -0.8289
  O  O146  1  0.605200  0.144200  0.370340  1.0  -0.6667
  O  O147  1  0.355600  0.347500  0.415980  1.0  -0.7102
  O  O148  1  0.494500  0.189500  0.472080  1.0  -0.6554
  O  O149  1  0.302700  0.968100  0.420680  1.0  -0.6569
  O  O150  1  0.255700  0.128000  0.472090  1.0  -0.6638
