# generated using pymatgen
data_CuH2(C3O2)2
_symmetry_space_group_name_H-M   'P 1'
_cell_length_a   18.60190000
_cell_length_b   18.60190000
_cell_length_c   18.60190000
_cell_angle_alpha   60.00000000
_cell_angle_beta   60.00000000
_cell_angle_gamma   60.00000000
_symmetry_Int_Tables_number   1
_chemical_formula_structural   CuH2(C3O2)2
_chemical_formula_sum   'Cu12 H24 C72 O48'
_cell_volume   4551.52485078
_cell_formula_units_Z   12
loop_
 _symmetry_equiv_pos_site_id
 _symmetry_equiv_pos_as_xyz
  1  'x, y, z'
loop_
 _atom_site_type_symbol
 _atom_site_label
 _atom_site_symmetry_multiplicity
 _atom_site_fract_x
 _atom_site_fract_y
 _atom_site_fract_z
 _atom_site_occupancy
 _atom_site_charge
  Cu  Cu1  1  0.070460  0.500000  0.929540  1.0  0.9032
  Cu  Cu2  1  0.500000  0.070460  0.500000  1.0  0.9031
  Cu  Cu3  1  0.929540  0.500000  0.070460  1.0  0.9043
  Cu  Cu4  1  0.500000  0.929540  0.500000  1.0  0.9031
  Cu  Cu5  1  0.070460  0.929540  0.500000  1.0  0.9029
  Cu  Cu6  1  0.500000  0.500000  0.929540  1.0  0.9026
  Cu  Cu7  1  0.929540  0.070460  0.500000  1.0  0.9036
  Cu  Cu8  1  0.500000  0.500000  0.070460  1.0  0.9019
  Cu  Cu9  1  0.070460  0.500000  0.500000  1.0  0.903
  Cu  Cu10  1  0.500000  0.929540  0.070460  1.0  0.9036
  Cu  Cu11  1  0.929540  0.500000  0.500000  1.0  0.9042
  Cu  Cu12  1  0.500000  0.070460  0.929540  1.0  0.9036
  H  H13  1  0.771800  0.465000  0.991400  1.0  0.113
  H  H14  1  0.465000  0.771800  0.771800  1.0  0.1127
  H  H15  1  0.991400  0.771800  0.771800  1.0  0.1131
  H  H16  1  0.771800  0.991400  0.465000  1.0  0.1142
  H  H17  1  0.771800  0.991400  0.771800  1.0  0.1142
  H  H18  1  0.465000  0.771800  0.991400  1.0  0.113
  H  H19  1  0.991400  0.771800  0.465000  1.0  0.1131
  H  H20  1  0.771800  0.465000  0.771800  1.0  0.1127
  H  H21  1  0.771800  0.771800  0.465000  1.0  0.1126
  H  H22  1  0.465000  0.991400  0.771800  1.0  0.1142
  H  H23  1  0.991400  0.465000  0.771800  1.0  0.113
  H  H24  1  0.771800  0.771800  0.991400  1.0  0.1127
  H  H25  1  0.535000  0.228200  0.008600  1.0  0.1125
  H  H26  1  0.228200  0.535000  0.228200  1.0  0.113
  H  H27  1  0.228200  0.008600  0.228200  1.0  0.1142
  H  H28  1  0.008600  0.228200  0.535000  1.0  0.1129
  H  H29  1  0.008600  0.228200  0.228200  1.0  0.1127
  H  H30  1  0.228200  0.535000  0.008600  1.0  0.1127
  H  H31  1  0.228200  0.008600  0.535000  1.0  0.1144
  H  H32  1  0.535000  0.228200  0.228200  1.0  0.1128
  H  H33  1  0.228200  0.228200  0.535000  1.0  0.1119
  H  H34  1  0.008600  0.535000  0.228200  1.0  0.1128
  H  H35  1  0.535000  0.008600  0.228200  1.0  0.1144
  H  H36  1  0.228200  0.228200  0.008600  1.0  0.1122
  C  C37  1  0.801000  0.466000  0.932000  1.0  0.0168
  C  C38  1  0.466000  0.801000  0.801000  1.0  0.0177
  C  C39  1  0.932000  0.801000  0.801000  1.0  0.0187
  C  C40  1  0.801000  0.932000  0.466000  1.0  0.0171
  C  C41  1  0.801000  0.932000  0.801000  1.0  0.0175
  C  C42  1  0.466000  0.801000  0.932000  1.0  0.0169
  C  C43  1  0.932000  0.801000  0.466000  1.0  0.0185
  C  C44  1  0.801000  0.466000  0.801000  1.0  0.0178
  C  C45  1  0.801000  0.801000  0.466000  1.0  0.0182
  C  C46  1  0.466000  0.932000  0.801000  1.0  0.0174
  C  C47  1  0.932000  0.466000  0.801000  1.0  0.0177
  C  C48  1  0.801000  0.801000  0.932000  1.0  0.0182
  C  C49  1  0.534000  0.199000  0.068000  1.0  0.0179
  C  C50  1  0.199000  0.534000  0.199000  1.0  0.0173
  C  C51  1  0.199000  0.068000  0.199000  1.0  0.0183
  C  C52  1  0.068000  0.199000  0.534000  1.0  0.0187
  C  C53  1  0.068000  0.199000  0.199000  1.0  0.0185
  C  C54  1  0.199000  0.534000  0.068000  1.0  0.0176
  C  C55  1  0.199000  0.068000  0.534000  1.0  0.0186
  C  C56  1  0.534000  0.199000  0.199000  1.0  0.0175
  C  C57  1  0.199000  0.199000  0.534000  1.0  0.0183
  C  C58  1  0.068000  0.534000  0.199000  1.0  0.0163
  C  C59  1  0.534000  0.068000  0.199000  1.0  0.018
  C  C60  1  0.199000  0.199000  0.068000  1.0  0.0185
  C  C61  1  0.889300  0.466700  0.889300  1.0  -0.1372
  C  C62  1  0.931200  0.475600  0.931200  1.0  0.6926
  C  C63  1  0.466700  0.889300  0.754700  1.0  -0.1373
  C  C64  1  0.475600  0.931200  0.662000  1.0  0.6922
  C  C65  1  0.889300  0.754700  0.889300  1.0  -0.1377
  C  C66  1  0.931200  0.662000  0.931200  1.0  0.6918
  C  C67  1  0.754700  0.889300  0.466700  1.0  -0.1374
  C  C68  1  0.662000  0.931200  0.475600  1.0  0.6919
  C  C69  1  0.889300  0.889300  0.754700  1.0  -0.1375
  C  C70  1  0.931200  0.931200  0.662000  1.0  0.6917
  C  C71  1  0.466700  0.754700  0.889300  1.0  -0.1374
  C  C72  1  0.475600  0.662000  0.931200  1.0  0.6914
  C  C73  1  0.889300  0.889300  0.466700  1.0  -0.1374
  C  C74  1  0.931200  0.931200  0.475600  1.0  0.6912
  C  C75  1  0.754700  0.466700  0.889300  1.0  -0.1371
  C  C76  1  0.662000  0.475600  0.931200  1.0  0.6922
  C  C77  1  0.889300  0.754700  0.466700  1.0  -0.1376
  C  C78  1  0.931200  0.662000  0.475600  1.0  0.6915
  C  C79  1  0.466700  0.889300  0.889300  1.0  -0.1379
  C  C80  1  0.475600  0.931200  0.931200  1.0  0.6923
  C  C81  1  0.889300  0.466700  0.754700  1.0  -0.1367
  C  C82  1  0.931200  0.475600  0.662000  1.0  0.6925
  C  C83  1  0.754700  0.889300  0.889300  1.0  -0.1377
  C  C84  1  0.662000  0.931200  0.931200  1.0  0.692
  C  C85  1  0.533300  0.110700  0.110700  1.0  -0.1375
  C  C86  1  0.524400  0.068800  0.068800  1.0  0.6922
  C  C87  1  0.110700  0.533300  0.245300  1.0  -0.1374
  C  C88  1  0.068800  0.524400  0.338000  1.0  0.6924
  C  C89  1  0.245300  0.110700  0.110700  1.0  -0.1374
  C  C90  1  0.338000  0.068800  0.068800  1.0  0.6917
  C  C91  1  0.110700  0.245300  0.533300  1.0  -0.1373
  C  C92  1  0.068800  0.338000  0.524400  1.0  0.6922
  C  C93  1  0.110700  0.110700  0.245300  1.0  -0.1374
  C  C94  1  0.068800  0.068800  0.338000  1.0  0.6916
  C  C95  1  0.245300  0.533300  0.110700  1.0  -0.1372
  C  C96  1  0.338000  0.524400  0.068800  1.0  0.6919
  C  C97  1  0.110700  0.110700  0.533300  1.0  -0.1376
  C  C98  1  0.068800  0.068800  0.524400  1.0  0.692
  C  C99  1  0.533300  0.245300  0.110700  1.0  -0.1376
  C  C100  1  0.524400  0.338000  0.068800  1.0  0.6925
  C  C101  1  0.245300  0.110700  0.533300  1.0  -0.1374
  C  C102  1  0.338000  0.068800  0.524400  1.0  0.6919
  C  C103  1  0.110700  0.533300  0.110700  1.0  -0.1368
  C  C104  1  0.068800  0.524400  0.068800  1.0  0.6922
  C  C105  1  0.533300  0.110700  0.245300  1.0  -0.1381
  C  C106  1  0.524400  0.068800  0.338000  1.0  0.6925
  C  C107  1  0.110700  0.245300  0.110700  1.0  -0.1372
  C  C108  1  0.068800  0.338000  0.068800  1.0  0.692
  O  O109  1  0.008900  0.478700  0.886100  1.0  -0.5693
  O  O110  1  0.478700  0.008900  0.626300  1.0  -0.5686
  O  O111  1  0.886100  0.626300  0.008900  1.0  -0.5684
  O  O112  1  0.626300  0.886100  0.478700  1.0  -0.5692
  O  O113  1  0.008900  0.886100  0.626300  1.0  -0.5693
  O  O114  1  0.478700  0.626300  0.886100  1.0  -0.5684
  O  O115  1  0.886100  0.008900  0.478700  1.0  -0.569
  O  O116  1  0.626300  0.478700  0.008900  1.0  -0.5674
  O  O117  1  0.008900  0.626300  0.478700  1.0  -0.5683
  O  O118  1  0.478700  0.886100  0.008900  1.0  -0.5685
  O  O119  1  0.886100  0.478700  0.626300  1.0  -0.5675
  O  O120  1  0.626300  0.008900  0.886100  1.0  -0.5687
  O  O121  1  0.521300  0.991100  0.113900  1.0  -0.5683
  O  O122  1  0.991100  0.521300  0.373700  1.0  -0.5688
  O  O123  1  0.373700  0.113900  0.991100  1.0  -0.569
  O  O124  1  0.113900  0.373700  0.521300  1.0  -0.569
  O  O125  1  0.113900  0.991100  0.373700  1.0  -0.5694
  O  O126  1  0.373700  0.521300  0.113900  1.0  -0.5673
  O  O127  1  0.991100  0.113900  0.521300  1.0  -0.5688
  O  O128  1  0.521300  0.373700  0.991100  1.0  -0.5686
  O  O129  1  0.373700  0.991100  0.521300  1.0  -0.5692
  O  O130  1  0.113900  0.521300  0.991100  1.0  -0.5684
  O  O131  1  0.521300  0.113900  0.373700  1.0  -0.5689
  O  O132  1  0.991100  0.373700  0.113900  1.0  -0.5676
  O  O133  1  0.991100  0.521300  0.113900  1.0  -0.5689
  O  O134  1  0.521300  0.991100  0.373700  1.0  -0.5686
  O  O135  1  0.113900  0.373700  0.991100  1.0  -0.5693
  O  O136  1  0.373700  0.113900  0.521300  1.0  -0.5689
  O  O137  1  0.991100  0.113900  0.373700  1.0  -0.5688
  O  O138  1  0.521300  0.373700  0.113900  1.0  -0.5673
  O  O139  1  0.113900  0.991100  0.521300  1.0  -0.5691
  O  O140  1  0.373700  0.521300  0.991100  1.0  -0.5683
  O  O141  1  0.991100  0.373700  0.521300  1.0  -0.5677
  O  O142  1  0.521300  0.113900  0.991100  1.0  -0.5689
  O  O143  1  0.113900  0.521300  0.373700  1.0  -0.5683
  O  O144  1  0.373700  0.991100  0.113900  1.0  -0.5693
  O  O145  1  0.478700  0.008900  0.886100  1.0  -0.5687
  O  O146  1  0.008900  0.478700  0.626300  1.0  -0.5688
  O  O147  1  0.626300  0.886100  0.008900  1.0  -0.5686
  O  O148  1  0.886100  0.626300  0.478700  1.0  -0.5686
  O  O149  1  0.886100  0.008900  0.626300  1.0  -0.569
  O  O150  1  0.626300  0.478700  0.886100  1.0  -0.5689
  O  O151  1  0.008900  0.886100  0.478700  1.0  -0.5696
  O  O152  1  0.478700  0.626300  0.008900  1.0  -0.5672
  O  O153  1  0.626300  0.008900  0.478700  1.0  -0.5691
  O  O154  1  0.886100  0.478700  0.008900  1.0  -0.5672
  O  O155  1  0.478700  0.886100  0.626300  1.0  -0.569
  O  O156  1  0.008900  0.626300  0.886100  1.0  -0.5682
