# generated using pymatgen
data_ZnH8C12(IN2)2
_symmetry_space_group_name_H-M   'P 1'
_cell_length_a   27.16500000
_cell_length_b   13.74500000
_cell_length_c   46.16200000
_cell_angle_alpha   90.00000000
_cell_angle_beta   90.00000000
_cell_angle_gamma   90.00000000
_symmetry_Int_Tables_number   1
_chemical_formula_structural   ZnH8C12(IN2)2
_chemical_formula_sum   'Zn24 H192 C288 I48 N96'
_cell_volume   17236.10258385
_cell_formula_units_Z   24
loop_
 _symmetry_equiv_pos_site_id
 _symmetry_equiv_pos_as_xyz
  1  'x, y, z'
loop_
 _atom_site_type_symbol
 _atom_site_label
 _atom_site_symmetry_multiplicity
 _atom_site_fract_x
 _atom_site_fract_y
 _atom_site_fract_z
 _atom_site_occupancy
 _atom_site_charge
  Zn  Zn1  1  0.750440  0.145590  0.192560  1.0  0.8839
  Zn  Zn2  1  0.464290  0.845550  0.404300  1.0  0.8291
  Zn  Zn3  1  0.950860  0.856530  0.435660  1.0  0.8525
  Zn  Zn4  1  0.749560  0.854410  0.692560  1.0  0.8858
  Zn  Zn5  1  0.035710  0.154450  0.904300  1.0  0.8273
  Zn  Zn6  1  0.549140  0.143470  0.935660  1.0  0.8525
  Zn  Zn7  1  0.249560  0.645590  0.307440  1.0  0.8841
  Zn  Zn8  1  0.535710  0.345550  0.095700  1.0  0.8285
  Zn  Zn9  1  0.049140  0.356530  0.064340  1.0  0.8536
  Zn  Zn10  1  0.250440  0.354410  0.807440  1.0  0.8861
  Zn  Zn11  1  0.964290  0.654450  0.595700  1.0  0.8272
  Zn  Zn12  1  0.450860  0.643470  0.564340  1.0  0.8533
  Zn  Zn13  1  0.249560  0.854410  0.807440  1.0  0.8862
  Zn  Zn14  1  0.535710  0.154450  0.595700  1.0  0.8276
  Zn  Zn15  1  0.049140  0.143470  0.564340  1.0  0.8532
  Zn  Zn16  1  0.250440  0.145590  0.307440  1.0  0.8841
  Zn  Zn17  1  0.964290  0.845550  0.095700  1.0  0.8289
  Zn  Zn18  1  0.450860  0.856530  0.064340  1.0  0.8536
  Zn  Zn19  1  0.750440  0.354410  0.692560  1.0  0.8857
  Zn  Zn20  1  0.464290  0.654450  0.904300  1.0  0.827
  Zn  Zn21  1  0.950860  0.643470  0.935660  1.0  0.8528
  Zn  Zn22  1  0.749560  0.645590  0.192560  1.0  0.8839
  Zn  Zn23  1  0.035710  0.345550  0.404300  1.0  0.8287
  Zn  Zn24  1  0.549140  0.356530  0.435660  1.0  0.8523
  H  H25  1  0.670800  0.079600  0.231300  1.0  0.0926
  H  H26  1  0.659100  0.015300  0.277100  1.0  0.1242
  H  H27  1  0.806200  0.968200  0.281700  1.0  0.1205
  H  H28  1  0.813300  0.030200  0.235300  1.0  0.0924
  H  H29  1  0.567600  0.877800  0.426000  1.0  0.0936
  H  H30  1  0.647000  0.898400  0.408600  1.0  0.1307
  H  H31  1  0.590300  0.921300  0.327600  1.0  0.1267
  H  H32  1  0.512600  0.894200  0.347100  1.0  0.0984
  H  H33  1  0.923200  0.905000  0.374300  1.0  0.1014
  H  H34  1  0.854800  0.928400  0.345200  1.0  0.1228
  H  H35  1  0.768500  0.875700  0.414700  1.0  0.1228
  H  H36  1  0.839100  0.849500  0.441900  1.0  0.0977
  H  H37  1  0.612100  0.170300  0.988200  1.0  0.0994
  H  H38  1  0.642500  0.084200  0.027700  1.0  0.126
  H  H39  1  0.557800  0.855200  0.003400  1.0  0.1156
  H  H40  1  0.529900  0.947200  0.964200  1.0  0.0906
  H  H41  1  0.726500  0.937200  0.177900  1.0  0.0914
  H  H42  1  0.691700  0.846200  0.140500  1.0  0.1148
  H  H43  1  0.659600  0.099100  0.099300  1.0  0.1224
  H  H44  1  0.695000  0.182900  0.137900  1.0  0.0906
  H  H45  1  0.571600  0.468600  0.044900  1.0  0.0929
  H  H46  1  0.598800  0.627300  0.035600  1.0  0.1209
  H  H47  1  0.597200  0.676000  0.122300  1.0  0.1173
  H  H48  1  0.567400  0.520500  0.128700  1.0  0.0961
  H  H49  1  0.829200  0.920400  0.731300  1.0  0.0927
  H  H50  1  0.840900  0.984700  0.777100  1.0  0.1244
  H  H51  1  0.693800  0.031800  0.781700  1.0  0.1206
  H  H52  1  0.686700  0.969800  0.735300  1.0  0.0925
  H  H53  1  0.932400  0.122200  0.926000  1.0  0.0929
  H  H54  1  0.853000  0.101600  0.908600  1.0  0.1308
  H  H55  1  0.909700  0.078700  0.827600  1.0  0.1264
  H  H56  1  0.987400  0.105800  0.847100  1.0  0.099
  H  H57  1  0.576800  0.095000  0.874300  1.0  0.1028
  H  H58  1  0.645200  0.071600  0.845200  1.0  0.1229
  H  H59  1  0.731500  0.124300  0.914700  1.0  0.1222
  H  H60  1  0.660900  0.150500  0.941900  1.0  0.0979
  H  H61  1  0.887900  0.829700  0.488200  1.0  0.1011
  H  H62  1  0.857500  0.915800  0.527700  1.0  0.1264
  H  H63  1  0.942200  0.144800  0.503400  1.0  0.1156
  H  H64  1  0.970100  0.052800  0.464200  1.0  0.0903
  H  H65  1  0.773500  0.062800  0.677900  1.0  0.0914
  H  H66  1  0.808300  0.153800  0.640500  1.0  0.1149
  H  H67  1  0.840400  0.900900  0.599300  1.0  0.1224
  H  H68  1  0.805000  0.817100  0.637900  1.0  0.0904
  H  H69  1  0.928400  0.531400  0.544900  1.0  0.0921
  H  H70  1  0.901200  0.372700  0.535600  1.0  0.1206
  H  H71  1  0.902800  0.324000  0.622300  1.0  0.1177
  H  H72  1  0.932600  0.479500  0.628700  1.0  0.0961
  H  H73  1  0.329200  0.579600  0.268700  1.0  0.092
  H  H74  1  0.340900  0.515300  0.222900  1.0  0.1247
  H  H75  1  0.193800  0.468200  0.218300  1.0  0.1209
  H  H76  1  0.186700  0.530200  0.264700  1.0  0.0928
  H  H77  1  0.432400  0.377800  0.074000  1.0  0.0924
  H  H78  1  0.353000  0.398400  0.091400  1.0  0.1307
  H  H79  1  0.409700  0.421300  0.172400  1.0  0.1265
  H  H80  1  0.487400  0.394200  0.152900  1.0  0.0997
  H  H81  1  0.076800  0.405000  0.125700  1.0  0.1027
  H  H82  1  0.145200  0.428400  0.154800  1.0  0.1224
  H  H83  1  0.231500  0.375700  0.085300  1.0  0.1227
  H  H84  1  0.160900  0.349500  0.058100  1.0  0.0975
  H  H85  1  0.387900  0.670300  0.511800  1.0  0.0996
  H  H86  1  0.357500  0.584200  0.472300  1.0  0.127
  H  H87  1  0.442200  0.355200  0.496600  1.0  0.1155
  H  H88  1  0.470100  0.447200  0.535800  1.0  0.0916
  H  H89  1  0.273500  0.437200  0.322100  1.0  0.0926
  H  H90  1  0.308300  0.346200  0.359500  1.0  0.115
  H  H91  1  0.340400  0.599100  0.400700  1.0  0.1229
  H  H92  1  0.305000  0.682900  0.362100  1.0  0.0904
  H  H93  1  0.428400  0.968600  0.455100  1.0  0.0934
  H  H94  1  0.401200  0.127300  0.464400  1.0  0.1209
  H  H95  1  0.402800  0.176000  0.377700  1.0  0.1163
  H  H96  1  0.432600  0.020500  0.371300  1.0  0.0963
  H  H97  1  0.170800  0.420400  0.768700  1.0  0.0926
  H  H98  1  0.159100  0.484700  0.722900  1.0  0.1247
  H  H99  1  0.306200  0.531800  0.718300  1.0  0.121
  H  H100  1  0.313300  0.469800  0.764700  1.0  0.0925
  H  H101  1  0.067600  0.622200  0.574000  1.0  0.093
  H  H102  1  0.147000  0.601600  0.591400  1.0  0.1302
  H  H103  1  0.090300  0.578700  0.672400  1.0  0.1266
  H  H104  1  0.012600  0.605800  0.652900  1.0  0.0994
  H  H105  1  0.423200  0.595000  0.625700  1.0  0.1015
  H  H106  1  0.354800  0.571600  0.654800  1.0  0.1223
  H  H107  1  0.268500  0.624300  0.585300  1.0  0.1228
  H  H108  1  0.339100  0.650500  0.558100  1.0  0.0971
  H  H109  1  0.112100  0.329700  0.011800  1.0  0.1009
  H  H110  1  0.142500  0.415800  0.972300  1.0  0.1264
  H  H111  1  0.057800  0.644800  0.996600  1.0  0.1156
  H  H112  1  0.029900  0.552800  0.035800  1.0  0.0911
  H  H113  1  0.226500  0.562800  0.822100  1.0  0.0923
  H  H114  1  0.191700  0.653800  0.859500  1.0  0.1146
  H  H115  1  0.159600  0.400900  0.900700  1.0  0.1231
  H  H116  1  0.195000  0.317100  0.862100  1.0  0.0904
  H  H117  1  0.071600  0.031400  0.955100  1.0  0.0934
  H  H118  1  0.098800  0.872700  0.964400  1.0  0.1203
  H  H119  1  0.097200  0.824000  0.877700  1.0  0.1157
  H  H120  1  0.067400  0.979500  0.871300  1.0  0.0959
  H  H121  1  0.329200  0.920400  0.768700  1.0  0.0923
  H  H122  1  0.340900  0.984700  0.722900  1.0  0.1247
  H  H123  1  0.193800  0.031800  0.718300  1.0  0.121
  H  H124  1  0.186700  0.969800  0.764700  1.0  0.0929
  H  H125  1  0.432400  0.122200  0.574000  1.0  0.0924
  H  H126  1  0.353000  0.101600  0.591400  1.0  0.1306
  H  H127  1  0.409700  0.078700  0.672400  1.0  0.1265
  H  H128  1  0.487400  0.105800  0.652900  1.0  0.0995
  H  H129  1  0.076800  0.095000  0.625700  1.0  0.1032
  H  H130  1  0.145200  0.071600  0.654800  1.0  0.1227
  H  H131  1  0.231500  0.124300  0.585300  1.0  0.1227
  H  H132  1  0.160900  0.150500  0.558100  1.0  0.0974
  H  H133  1  0.387900  0.829700  0.011800  1.0  0.0997
  H  H134  1  0.357500  0.915800  0.972300  1.0  0.1263
  H  H135  1  0.442200  0.144800  0.996600  1.0  0.1154
  H  H136  1  0.470100  0.052800  0.035800  1.0  0.0911
  H  H137  1  0.273500  0.062800  0.822100  1.0  0.0924
  H  H138  1  0.308300  0.153800  0.859500  1.0  0.1151
  H  H139  1  0.340400  0.900900  0.900700  1.0  0.123
  H  H140  1  0.305000  0.817100  0.862100  1.0  0.0903
  H  H141  1  0.428400  0.531400  0.955100  1.0  0.093
  H  H142  1  0.401200  0.372700  0.964400  1.0  0.1206
  H  H143  1  0.402800  0.324000  0.877700  1.0  0.1161
  H  H144  1  0.432600  0.479500  0.871300  1.0  0.0959
  H  H145  1  0.170800  0.079600  0.268700  1.0  0.0922
  H  H146  1  0.159100  0.015300  0.222900  1.0  0.1246
  H  H147  1  0.306200  0.968200  0.218300  1.0  0.1206
  H  H148  1  0.313300  0.030200  0.264700  1.0  0.0925
  H  H149  1  0.067600  0.877800  0.074000  1.0  0.0931
  H  H150  1  0.147000  0.898400  0.091400  1.0  0.1304
  H  H151  1  0.090300  0.921300  0.172400  1.0  0.1266
  H  H152  1  0.012600  0.894200  0.152900  1.0  0.0994
  H  H153  1  0.423200  0.905000  0.125700  1.0  0.101
  H  H154  1  0.354800  0.928400  0.154800  1.0  0.1222
  H  H155  1  0.268500  0.875700  0.085300  1.0  0.1229
  H  H156  1  0.339100  0.849500  0.058100  1.0  0.0976
  H  H157  1  0.112100  0.170300  0.511800  1.0  0.1007
  H  H158  1  0.142500  0.084200  0.472300  1.0  0.1267
  H  H159  1  0.057800  0.855200  0.496600  1.0  0.1155
  H  H160  1  0.029900  0.947200  0.535800  1.0  0.0914
  H  H161  1  0.226500  0.937200  0.322100  1.0  0.0924
  H  H162  1  0.191700  0.846200  0.359500  1.0  0.1147
  H  H163  1  0.159600  0.099100  0.400700  1.0  0.1231
  H  H164  1  0.195000  0.182900  0.362100  1.0  0.0904
  H  H165  1  0.071600  0.468600  0.455100  1.0  0.0939
  H  H166  1  0.098800  0.627300  0.464400  1.0  0.1207
  H  H167  1  0.097200  0.676000  0.377700  1.0  0.1159
  H  H168  1  0.067400  0.520500  0.371300  1.0  0.0963
  H  H169  1  0.670800  0.420400  0.731300  1.0  0.0928
  H  H170  1  0.659100  0.484700  0.777100  1.0  0.1243
  H  H171  1  0.806200  0.531800  0.781700  1.0  0.1205
  H  H172  1  0.813300  0.469800  0.735300  1.0  0.0924
  H  H173  1  0.567600  0.622200  0.926000  1.0  0.0933
  H  H174  1  0.647000  0.601600  0.908600  1.0  0.1306
  H  H175  1  0.590300  0.578700  0.827600  1.0  0.1267
  H  H176  1  0.512600  0.605800  0.847100  1.0  0.0987
  H  H177  1  0.923200  0.595000  0.874300  1.0  0.102
  H  H178  1  0.854800  0.571600  0.845200  1.0  0.1228
  H  H179  1  0.768500  0.624300  0.914700  1.0  0.1226
  H  H180  1  0.839100  0.650500  0.941900  1.0  0.0974
  H  H181  1  0.612100  0.329700  0.488200  1.0  0.0999
  H  H182  1  0.642500  0.415800  0.527700  1.0  0.1262
  H  H183  1  0.557800  0.644800  0.503400  1.0  0.1155
  H  H184  1  0.529900  0.552800  0.464200  1.0  0.0905
  H  H185  1  0.726500  0.562800  0.677900  1.0  0.0914
  H  H186  1  0.691700  0.653800  0.640500  1.0  0.1145
  H  H187  1  0.659600  0.400900  0.599300  1.0  0.1224
  H  H188  1  0.695000  0.317100  0.637900  1.0  0.0905
  H  H189  1  0.571600  0.031400  0.544900  1.0  0.0926
  H  H190  1  0.598800  0.872700  0.535600  1.0  0.1207
  H  H191  1  0.597200  0.824000  0.622300  1.0  0.1172
  H  H192  1  0.567400  0.979500  0.628700  1.0  0.096
  H  H193  1  0.829200  0.579600  0.231300  1.0  0.0928
  H  H194  1  0.840900  0.515300  0.277100  1.0  0.1244
  H  H195  1  0.693800  0.468200  0.281700  1.0  0.1207
  H  H196  1  0.686700  0.530200  0.235300  1.0  0.0924
  H  H197  1  0.932400  0.377800  0.426000  1.0  0.0933
  H  H198  1  0.853000  0.398400  0.408600  1.0  0.1309
  H  H199  1  0.909700  0.421300  0.327600  1.0  0.1264
  H  H200  1  0.987400  0.394200  0.347100  1.0  0.0988
  H  H201  1  0.576800  0.405000  0.374300  1.0  0.1024
  H  H202  1  0.645200  0.428400  0.345200  1.0  0.1226
  H  H203  1  0.731500  0.375700  0.414700  1.0  0.1225
  H  H204  1  0.660900  0.349500  0.441900  1.0  0.0975
  H  H205  1  0.887900  0.670300  0.988200  1.0  0.1008
  H  H206  1  0.857500  0.584200  0.027700  1.0  0.1266
  H  H207  1  0.942200  0.355200  0.003400  1.0  0.1158
  H  H208  1  0.970100  0.447200  0.964200  1.0  0.0908
  H  H209  1  0.773500  0.437200  0.177900  1.0  0.0916
  H  H210  1  0.808300  0.346200  0.140500  1.0  0.1151
  H  H211  1  0.840400  0.599100  0.099300  1.0  0.1223
  H  H212  1  0.805000  0.682900  0.137900  1.0  0.0906
  H  H213  1  0.928400  0.968600  0.044900  1.0  0.0924
  H  H214  1  0.901200  0.127300  0.035600  1.0  0.1207
  H  H215  1  0.902800  0.176000  0.122300  1.0  0.1177
  H  H216  1  0.932600  0.020500  0.128700  1.0  0.0962
  C  C217  1  0.698500  0.056800  0.241820  1.0  0.1415
  C  C218  1  0.691200  0.019500  0.269160  1.0  -0.1503
  C  C219  1  0.731800  0.987900  0.284890  1.0  -0.0963
  C  C220  1  0.777900  0.991300  0.271750  1.0  -0.1373
  C  C221  1  0.781800  0.028500  0.244240  1.0  0.1382
  C  C222  1  0.572500  0.885300  0.405700  1.0  0.1318
  C  C223  1  0.619900  0.897800  0.395610  1.0  -0.1487
  C  C224  1  0.627100  0.909300  0.366050  1.0  -0.1037
  C  C225  1  0.586500  0.910500  0.347760  1.0  -0.1399
  C  C226  1  0.540300  0.895700  0.359680  1.0  0.1471
  C  C227  1  0.891400  0.898700  0.382580  1.0  0.1342
  C  C228  1  0.850800  0.913000  0.365090  1.0  -0.1338
  C  C229  1  0.804000  0.904600  0.377020  1.0  -0.1111
  C  C230  1  0.800000  0.881500  0.405940  1.0  -0.1205
  C  C231  1  0.842200  0.866800  0.422080  1.0  0.1442
  C  C232  1  0.726100  0.956300  0.315530  1.0  0.3862
  C  C233  1  0.677600  0.922600  0.353860  1.0  0.3953
  C  C234  1  0.759800  0.919100  0.358610  1.0  0.416
  C  C235  1  0.601300  0.105400  0.991290  1.0  0.1375
  C  C236  1  0.619500  0.054800  0.014960  1.0  -0.1303
  C  C237  1  0.603300  0.959600  0.019640  1.0  -0.1083
  C  C238  1  0.569500  0.919600  0.000590  1.0  -0.1079
  C  C239  1  0.553100  0.974800  0.977260  1.0  0.1312
  C  C240  1  0.713100  0.970000  0.161590  1.0  0.1432
  C  C241  1  0.692400  0.915200  0.139390  1.0  -0.1336
  C  C242  1  0.672700  0.963000  0.115580  1.0  -0.1132
  C  C243  1  0.673400  0.064400  0.115150  1.0  -0.14
  C  C244  1  0.694700  0.113800  0.138180  1.0  0.1354
  C  C245  1  0.576100  0.512100  0.060660  1.0  0.1284
  C  C246  1  0.593000  0.606300  0.054960  1.0  -0.1223
  C  C247  1  0.601100  0.668600  0.078270  1.0  -0.1187
  C  C248  1  0.591600  0.635200  0.106010  1.0  -0.1552
  C  C249  1  0.574200  0.542600  0.109650  1.0  0.1209
  C  C250  1  0.620100  0.905400  0.045800  1.0  0.2333
  C  C251  1  0.650200  0.907800  0.091180  1.0  0.3733
  C  C252  1  0.617300  0.770300  0.073510  1.0  0.3937
  C  C253  1  0.801500  0.943200  0.741820  1.0  0.1407
  C  C254  1  0.808800  0.980500  0.769160  1.0  -0.1489
  C  C255  1  0.768200  0.012100  0.784890  1.0  -0.097
  C  C256  1  0.722100  0.008700  0.771750  1.0  -0.1387
  C  C257  1  0.718200  0.971500  0.744240  1.0  0.1392
  C  C258  1  0.927500  0.114700  0.905700  1.0  0.1321
  C  C259  1  0.880100  0.102200  0.895610  1.0  -0.1494
  C  C260  1  0.872900  0.090700  0.866050  1.0  -0.1032
  C  C261  1  0.913500  0.089500  0.847760  1.0  -0.1401
  C  C262  1  0.959700  0.104300  0.859680  1.0  0.1462
  C  C263  1  0.608600  0.101300  0.882580  1.0  0.1351
  C  C264  1  0.649200  0.087000  0.865090  1.0  -0.1322
  C  C265  1  0.696000  0.095400  0.877020  1.0  -0.1111
  C  C266  1  0.700000  0.118500  0.905940  1.0  -0.1185
  C  C267  1  0.657800  0.133200  0.922080  1.0  0.1426
  C  C268  1  0.773900  0.043700  0.815530  1.0  0.3861
  C  C269  1  0.822400  0.077400  0.853860  1.0  0.3958
  C  C270  1  0.740200  0.080900  0.858610  1.0  0.416
  C  C271  1  0.898700  0.894600  0.491290  1.0  0.1364
  C  C272  1  0.880500  0.945200  0.514960  1.0  -0.1317
  C  C273  1  0.896700  0.040400  0.519640  1.0  -0.1074
  C  C274  1  0.930500  0.080400  0.500590  1.0  -0.1066
  C  C275  1  0.946900  0.025200  0.477260  1.0  0.1319
  C  C276  1  0.786900  0.030000  0.661590  1.0  0.1422
  C  C277  1  0.807600  0.084800  0.639390  1.0  -0.1341
  C  C278  1  0.827300  0.037000  0.615580  1.0  -0.1131
  C  C279  1  0.826600  0.935600  0.615150  1.0  -0.1403
  C  C280  1  0.805300  0.886200  0.638180  1.0  0.1329
  C  C281  1  0.923900  0.487900  0.560660  1.0  0.1298
  C  C282  1  0.907000  0.393700  0.554960  1.0  -0.1215
  C  C283  1  0.898900  0.331400  0.578270  1.0  -0.1188
  C  C284  1  0.908400  0.364800  0.606010  1.0  -0.1552
  C  C285  1  0.925800  0.457400  0.609650  1.0  0.1212
  C  C286  1  0.879900  0.094600  0.545800  1.0  0.2339
  C  C287  1  0.849800  0.092200  0.591180  1.0  0.3732
  C  C288  1  0.882700  0.229700  0.573510  1.0  0.3931
  C  C289  1  0.301500  0.556800  0.258180  1.0  0.1406
  C  C290  1  0.308800  0.519500  0.230840  1.0  -0.1487
  C  C291  1  0.268200  0.487900  0.215110  1.0  -0.0969
  C  C292  1  0.222100  0.491300  0.228250  1.0  -0.1387
  C  C293  1  0.218200  0.528500  0.255760  1.0  0.139
  C  C294  1  0.427500  0.385300  0.094300  1.0  0.1335
  C  C295  1  0.380100  0.397800  0.104390  1.0  -0.1487
  C  C296  1  0.372900  0.409300  0.133950  1.0  -0.1033
  C  C297  1  0.413500  0.410500  0.152240  1.0  -0.1416
  C  C298  1  0.459700  0.395700  0.140320  1.0  0.148
  C  C299  1  0.108600  0.398700  0.117420  1.0  0.1355
  C  C300  1  0.149200  0.413000  0.134910  1.0  -0.1344
  C  C301  1  0.196000  0.404600  0.122980  1.0  -0.1109
  C  C302  1  0.200000  0.381500  0.094060  1.0  -0.1192
  C  C303  1  0.157800  0.366800  0.077920  1.0  0.1429
  C  C304  1  0.273900  0.456300  0.184470  1.0  0.3862
  C  C305  1  0.322400  0.422600  0.146140  1.0  0.3958
  C  C306  1  0.240200  0.419100  0.141390  1.0  0.4158
  C  C307  1  0.398700  0.605400  0.508710  1.0  0.137
  C  C308  1  0.380500  0.554800  0.485040  1.0  -0.1309
  C  C309  1  0.396700  0.459600  0.480360  1.0  -0.1085
  C  C310  1  0.430500  0.419600  0.499410  1.0  -0.1071
  C  C311  1  0.446900  0.474800  0.522740  1.0  0.1322
  C  C312  1  0.286900  0.470000  0.338410  1.0  0.1427
  C  C313  1  0.307600  0.415200  0.360610  1.0  -0.1337
  C  C314  1  0.327300  0.463000  0.384420  1.0  -0.1134
  C  C315  1  0.326600  0.564400  0.384850  1.0  -0.1408
  C  C316  1  0.305300  0.613800  0.361820  1.0  0.1347
  C  C317  1  0.423900  0.012100  0.439340  1.0  0.1307
  C  C318  1  0.407000  0.106300  0.445040  1.0  -0.1253
  C  C319  1  0.398900  0.168600  0.421730  1.0  -0.1187
  C  C320  1  0.408400  0.135200  0.393990  1.0  -0.1541
  C  C321  1  0.425800  0.042600  0.390350  1.0  0.1218
  C  C322  1  0.379900  0.405400  0.454200  1.0  0.2341
  C  C323  1  0.349800  0.407800  0.408820  1.0  0.3732
  C  C324  1  0.382700  0.270300  0.426490  1.0  0.3933
  C  C325  1  0.198500  0.443200  0.758180  1.0  0.1416
  C  C326  1  0.191200  0.480500  0.730840  1.0  -0.1497
  C  C327  1  0.231800  0.512100  0.715110  1.0  -0.0963
  C  C328  1  0.277900  0.508700  0.728250  1.0  -0.1374
  C  C329  1  0.281800  0.471500  0.755760  1.0  0.1394
  C  C330  1  0.072500  0.614700  0.594300  1.0  0.1337
  C  C331  1  0.119900  0.602200  0.604390  1.0  -0.1497
  C  C332  1  0.127100  0.590700  0.633950  1.0  -0.1038
  C  C333  1  0.086500  0.589500  0.652240  1.0  -0.1419
  C  C334  1  0.040300  0.604300  0.640320  1.0  0.1473
  C  C335  1  0.391400  0.601300  0.617420  1.0  0.1351
  C  C336  1  0.350800  0.587000  0.634910  1.0  -0.1348
  C  C337  1  0.304000  0.595400  0.622980  1.0  -0.1109
  C  C338  1  0.300000  0.618500  0.594060  1.0  -0.1203
  C  C339  1  0.342200  0.633200  0.577920  1.0  0.1438
  C  C340  1  0.226100  0.543700  0.684470  1.0  0.3861
  C  C341  1  0.177600  0.577400  0.646140  1.0  0.3955
  C  C342  1  0.259800  0.580900  0.641390  1.0  0.4158
  C  C343  1  0.101300  0.394600  0.008710  1.0  0.1369
  C  C344  1  0.119500  0.445200  0.985040  1.0  -0.1297
  C  C345  1  0.103300  0.540400  0.980360  1.0  -0.1075
  C  C346  1  0.069500  0.580400  0.999410  1.0  -0.1088
  C  C347  1  0.053100  0.525200  0.022740  1.0  0.1308
  C  C348  1  0.213100  0.530000  0.838410  1.0  0.1425
  C  C349  1  0.192400  0.584800  0.860610  1.0  -0.1344
  C  C350  1  0.172700  0.537000  0.884420  1.0  -0.1133
  C  C351  1  0.173400  0.435600  0.884850  1.0  -0.1413
  C  C352  1  0.194700  0.386200  0.861820  1.0  0.1344
  C  C353  1  0.076100  0.987900  0.939340  1.0  0.1289
  C  C354  1  0.093000  0.893700  0.945040  1.0  -0.1241
  C  C355  1  0.101100  0.831400  0.921730  1.0  -0.1188
  C  C356  1  0.091600  0.864800  0.893990  1.0  -0.1538
  C  C357  1  0.074200  0.957400  0.890350  1.0  0.1213
  C  C358  1  0.120100  0.594600  0.954200  1.0  0.2336
  C  C359  1  0.150200  0.592200  0.908820  1.0  0.373
  C  C360  1  0.117300  0.729700  0.926490  1.0  0.3929
  C  C361  1  0.301500  0.943200  0.758180  1.0  0.1411
  C  C362  1  0.308800  0.980500  0.730840  1.0  -0.1487
  C  C363  1  0.268200  0.012100  0.715110  1.0  -0.0964
  C  C364  1  0.222100  0.008700  0.728250  1.0  -0.1383
  C  C365  1  0.218200  0.971500  0.755760  1.0  0.14
  C  C366  1  0.427500  0.114700  0.594300  1.0  0.1335
  C  C367  1  0.380100  0.102200  0.604390  1.0  -0.1488
  C  C368  1  0.372900  0.090700  0.633950  1.0  -0.1033
  C  C369  1  0.413500  0.089500  0.652240  1.0  -0.1417
  C  C370  1  0.459700  0.104300  0.640320  1.0  0.1475
  C  C371  1  0.108600  0.101300  0.617420  1.0  0.1355
  C  C372  1  0.149200  0.087000  0.634910  1.0  -0.1346
  C  C373  1  0.196000  0.095400  0.622980  1.0  -0.111
  C  C374  1  0.200000  0.118500  0.594060  1.0  -0.1189
  C  C375  1  0.157800  0.133200  0.577920  1.0  0.1429
  C  C376  1  0.273900  0.043700  0.684470  1.0  0.3862
  C  C377  1  0.322400  0.077400  0.646140  1.0  0.3959
  C  C378  1  0.240200  0.080900  0.641390  1.0  0.4158
  C  C379  1  0.398700  0.894600  0.008710  1.0  0.1362
  C  C380  1  0.380500  0.945200  0.985040  1.0  -0.1315
  C  C381  1  0.396700  0.040400  0.980360  1.0  -0.1079
  C  C382  1  0.430500  0.080400  0.999410  1.0  -0.1073
  C  C383  1  0.446900  0.025200  0.022740  1.0  0.1316
  C  C384  1  0.286900  0.030000  0.838410  1.0  0.1426
  C  C385  1  0.307600  0.084800  0.860610  1.0  -0.1343
  C  C386  1  0.327300  0.037000  0.884420  1.0  -0.1134
  C  C387  1  0.326600  0.935600  0.884850  1.0  -0.1405
  C  C388  1  0.305300  0.886200  0.861820  1.0  0.1333
  C  C389  1  0.423900  0.487900  0.939340  1.0  0.129
  C  C390  1  0.407000  0.393700  0.945040  1.0  -0.1251
  C  C391  1  0.398900  0.331400  0.921730  1.0  -0.1188
  C  C392  1  0.408400  0.364800  0.893990  1.0  -0.1534
  C  C393  1  0.425800  0.457400  0.890350  1.0  0.1218
  C  C394  1  0.379900  0.094600  0.954200  1.0  0.2342
  C  C395  1  0.349800  0.092200  0.908820  1.0  0.373
  C  C396  1  0.382700  0.229700  0.926490  1.0  0.3928
  C  C397  1  0.198500  0.056800  0.258180  1.0  0.141
  C  C398  1  0.191200  0.019500  0.230840  1.0  -0.1497
  C  C399  1  0.231800  0.987900  0.215110  1.0  -0.0968
  C  C400  1  0.277900  0.991300  0.228250  1.0  -0.1376
  C  C401  1  0.281800  0.028500  0.255760  1.0  0.1386
  C  C402  1  0.072500  0.885300  0.094300  1.0  0.1337
  C  C403  1  0.119900  0.897800  0.104390  1.0  -0.1497
  C  C404  1  0.127100  0.909300  0.133950  1.0  -0.104
  C  C405  1  0.086500  0.910500  0.152240  1.0  -0.1417
  C  C406  1  0.040300  0.895700  0.140320  1.0  0.1478
  C  C407  1  0.391400  0.898700  0.117420  1.0  0.1353
  C  C408  1  0.350800  0.913000  0.134910  1.0  -0.1346
  C  C409  1  0.304000  0.904600  0.122980  1.0  -0.1107
  C  C410  1  0.300000  0.881500  0.094060  1.0  -0.1203
  C  C411  1  0.342200  0.866800  0.077920  1.0  0.144
  C  C412  1  0.226100  0.956300  0.184470  1.0  0.3862
  C  C413  1  0.177600  0.922600  0.146140  1.0  0.3955
  C  C414  1  0.259800  0.919100  0.141390  1.0  0.4158
  C  C415  1  0.101300  0.105400  0.508710  1.0  0.1378
  C  C416  1  0.119500  0.054800  0.485040  1.0  -0.1297
  C  C417  1  0.103300  0.959600  0.480360  1.0  -0.1074
  C  C418  1  0.069500  0.919600  0.499410  1.0  -0.1086
  C  C419  1  0.053100  0.974800  0.522740  1.0  0.1314
  C  C420  1  0.213100  0.970000  0.338410  1.0  0.1426
  C  C421  1  0.192400  0.915200  0.360610  1.0  -0.1339
  C  C422  1  0.172700  0.963000  0.384420  1.0  -0.1132
  C  C423  1  0.173400  0.064400  0.384850  1.0  -0.1415
  C  C424  1  0.194700  0.113800  0.361820  1.0  0.1356
  C  C425  1  0.076100  0.512100  0.439340  1.0  0.1301
  C  C426  1  0.093000  0.606300  0.445040  1.0  -0.1243
  C  C427  1  0.101100  0.668600  0.421730  1.0  -0.1188
  C  C428  1  0.091600  0.635200  0.393990  1.0  -0.1542
  C  C429  1  0.074200  0.542600  0.390350  1.0  0.1213
  C  C430  1  0.120100  0.905400  0.454200  1.0  0.2335
  C  C431  1  0.150200  0.907800  0.408820  1.0  0.3731
  C  C432  1  0.117300  0.770300  0.426490  1.0  0.3934
  C  C433  1  0.698500  0.443200  0.741820  1.0  0.1415
  C  C434  1  0.691200  0.480500  0.769160  1.0  -0.1503
  C  C435  1  0.731800  0.512100  0.784890  1.0  -0.0969
  C  C436  1  0.777900  0.508700  0.771750  1.0  -0.1371
  C  C437  1  0.781800  0.471500  0.744240  1.0  0.1386
  C  C438  1  0.572500  0.614700  0.905700  1.0  0.1318
  C  C439  1  0.619900  0.602200  0.895610  1.0  -0.1486
  C  C440  1  0.627100  0.590700  0.866050  1.0  -0.1036
  C  C441  1  0.586500  0.589500  0.847760  1.0  -0.1397
  C  C442  1  0.540300  0.604300  0.859680  1.0  0.147
  C  C443  1  0.891400  0.601300  0.882580  1.0  0.134
  C  C444  1  0.850800  0.587000  0.865090  1.0  -0.1339
  C  C445  1  0.804000  0.595400  0.877020  1.0  -0.1113
  C  C446  1  0.800000  0.618500  0.905940  1.0  -0.1206
  C  C447  1  0.842200  0.633200  0.922080  1.0  0.1432
  C  C448  1  0.726100  0.543700  0.815530  1.0  0.3861
  C  C449  1  0.677600  0.577400  0.853860  1.0  0.3954
  C  C450  1  0.759800  0.580900  0.858610  1.0  0.4161
  C  C451  1  0.601300  0.394600  0.491290  1.0  0.1364
  C  C452  1  0.619500  0.445200  0.514960  1.0  -0.1297
  C  C453  1  0.603300  0.540400  0.519640  1.0  -0.1082
  C  C454  1  0.569500  0.580400  0.500590  1.0  -0.108
  C  C455  1  0.553100  0.525200  0.477260  1.0  0.1313
  C  C456  1  0.713100  0.530000  0.661590  1.0  0.1425
  C  C457  1  0.692400  0.584800  0.639390  1.0  -0.1342
  C  C458  1  0.672700  0.537000  0.615580  1.0  -0.1131
  C  C459  1  0.673400  0.435600  0.615150  1.0  -0.1407
  C  C460  1  0.694700  0.386200  0.638180  1.0  0.134
  C  C461  1  0.576100  0.987900  0.560660  1.0  0.1295
  C  C462  1  0.593000  0.893700  0.554960  1.0  -0.1226
  C  C463  1  0.601100  0.831400  0.578270  1.0  -0.1187
  C  C464  1  0.591600  0.864800  0.606010  1.0  -0.1549
  C  C465  1  0.574200  0.957400  0.609650  1.0  0.1203
  C  C466  1  0.620100  0.594600  0.545800  1.0  0.2333
  C  C467  1  0.650200  0.592200  0.591180  1.0  0.3732
  C  C468  1  0.617300  0.729700  0.573510  1.0  0.3932
  C  C469  1  0.801500  0.556800  0.241820  1.0  0.1409
  C  C470  1  0.808800  0.519500  0.269160  1.0  -0.1489
  C  C471  1  0.768200  0.487900  0.284890  1.0  -0.0964
  C  C472  1  0.722100  0.491300  0.271750  1.0  -0.1387
  C  C473  1  0.718200  0.528500  0.244240  1.0  0.1387
  C  C474  1  0.927500  0.385300  0.405700  1.0  0.132
  C  C475  1  0.880100  0.397800  0.395610  1.0  -0.1494
  C  C476  1  0.872900  0.409300  0.366050  1.0  -0.1032
  C  C477  1  0.913500  0.410500  0.347760  1.0  -0.1402
  C  C478  1  0.959700  0.395700  0.359680  1.0  0.1465
  C  C479  1  0.608600  0.398700  0.382580  1.0  0.1351
  C  C480  1  0.649200  0.413000  0.365090  1.0  -0.1324
  C  C481  1  0.696000  0.404600  0.377020  1.0  -0.111
  C  C482  1  0.700000  0.381500  0.405940  1.0  -0.1188
  C  C483  1  0.657800  0.366800  0.422080  1.0  0.1436
  C  C484  1  0.773900  0.456300  0.315530  1.0  0.3862
  C  C485  1  0.822400  0.422600  0.353860  1.0  0.3957
  C  C486  1  0.740200  0.419100  0.358610  1.0  0.416
  C  C487  1  0.898700  0.605400  0.991290  1.0  0.1373
  C  C488  1  0.880500  0.554800  0.014960  1.0  -0.1318
  C  C489  1  0.896700  0.459600  0.019640  1.0  -0.1081
  C  C490  1  0.930500  0.419600  0.000590  1.0  -0.1066
  C  C491  1  0.946900  0.474800  0.977260  1.0  0.132
  C  C492  1  0.786900  0.470000  0.161590  1.0  0.143
  C  C493  1  0.807600  0.415200  0.139390  1.0  -0.1335
  C  C494  1  0.827300  0.463000  0.115580  1.0  -0.1134
  C  C495  1  0.826600  0.564400  0.115150  1.0  -0.1395
  C  C496  1  0.805300  0.613800  0.138180  1.0  0.1346
  C  C497  1  0.923900  0.012100  0.060660  1.0  0.1291
  C  C498  1  0.907000  0.106300  0.054960  1.0  -0.1213
  C  C499  1  0.898900  0.168600  0.078270  1.0  -0.1186
  C  C500  1  0.908400  0.135200  0.106010  1.0  -0.1556
  C  C501  1  0.925800  0.042600  0.109650  1.0  0.1221
  C  C502  1  0.879900  0.405400  0.045800  1.0  0.2339
  C  C503  1  0.849800  0.407800  0.091180  1.0  0.3733
  C  C504  1  0.882700  0.270300  0.073510  1.0  0.3935
  I  I505  1  0.697290  0.297350  0.200880  1.0  -0.3969
  I  I506  1  0.841940  0.161880  0.181230  1.0  -0.3063
  I  I507  1  0.474290  0.757660  0.452620  1.0  -0.3893
  I  I508  1  0.419860  0.771420  0.361050  1.0  -0.3269
  I  I509  1  0.017840  0.946340  0.408150  1.0  -0.4199
  I  I510  1  0.959030  0.679500  0.451570  1.0  -0.379
  I  I511  1  0.802710  0.702650  0.700880  1.0  -0.3978
  I  I512  1  0.658060  0.838120  0.681230  1.0  -0.305
  I  I513  1  0.025710  0.242340  0.952620  1.0  -0.3892
  I  I514  1  0.080140  0.228580  0.861050  1.0  -0.3259
  I  I515  1  0.482160  0.053660  0.908150  1.0  -0.4208
  I  I516  1  0.540970  0.320500  0.951570  1.0  -0.3792
  I  I517  1  0.302710  0.797350  0.299120  1.0  -0.3973
  I  I518  1  0.158060  0.661880  0.318770  1.0  -0.3046
  I  I519  1  0.525710  0.257660  0.047380  1.0  -0.3894
  I  I520  1  0.580140  0.271420  0.138950  1.0  -0.3246
  I  I521  1  0.982160  0.446340  0.091850  1.0  -0.4208
  I  I522  1  0.040970  0.179500  0.048430  1.0  -0.3796
  I  I523  1  0.197290  0.202650  0.799120  1.0  -0.397
  I  I524  1  0.341940  0.338120  0.818770  1.0  -0.3062
  I  I525  1  0.974290  0.742340  0.547380  1.0  -0.3893
  I  I526  1  0.919860  0.728580  0.638950  1.0  -0.3248
  I  I527  1  0.517840  0.553660  0.591850  1.0  -0.4195
  I  I528  1  0.459030  0.820500  0.548430  1.0  -0.378
  I  I529  1  0.302710  0.702650  0.799120  1.0  -0.3975
  I  I530  1  0.158060  0.838120  0.818770  1.0  -0.3047
  I  I531  1  0.525710  0.242340  0.547380  1.0  -0.3893
  I  I532  1  0.580140  0.228580  0.638950  1.0  -0.3249
  I  I533  1  0.982160  0.053660  0.591850  1.0  -0.4205
  I  I534  1  0.040970  0.320500  0.548430  1.0  -0.3789
  I  I535  1  0.197290  0.297350  0.299120  1.0  -0.3967
  I  I536  1  0.341940  0.161880  0.318770  1.0  -0.3062
  I  I537  1  0.974290  0.757660  0.047380  1.0  -0.3894
  I  I538  1  0.919860  0.771420  0.138950  1.0  -0.3254
  I  I539  1  0.517840  0.946340  0.091850  1.0  -0.4195
  I  I540  1  0.459030  0.679500  0.048430  1.0  -0.3789
  I  I541  1  0.697290  0.202650  0.700880  1.0  -0.397
  I  I542  1  0.841940  0.338120  0.681230  1.0  -0.3063
  I  I543  1  0.474290  0.742340  0.952620  1.0  -0.3892
  I  I544  1  0.419860  0.728580  0.861050  1.0  -0.326
  I  I545  1  0.017840  0.553660  0.908150  1.0  -0.4205
  I  I546  1  0.959030  0.820500  0.951570  1.0  -0.3782
  I  I547  1  0.802710  0.797350  0.200880  1.0  -0.3975
  I  I548  1  0.658060  0.661880  0.181230  1.0  -0.3049
  I  I549  1  0.025710  0.257660  0.452620  1.0  -0.3893
  I  I550  1  0.080140  0.271420  0.361050  1.0  -0.3261
  I  I551  1  0.482160  0.446340  0.408150  1.0  -0.4203
  I  I552  1  0.540970  0.179500  0.451570  1.0  -0.3798
  N  N553  1  0.743100  0.062400  0.229450  1.0  -0.3268
  N  N554  1  0.532900  0.883300  0.388200  1.0  -0.3202
  N  N555  1  0.887730  0.876200  0.410660  1.0  -0.3166
  N  N556  1  0.680400  0.947000  0.325780  1.0  -0.4683
  N  N557  1  0.715700  0.907900  0.371330  1.0  -0.4748
  N  N558  1  0.767260  0.942300  0.330870  1.0  -0.4779
  N  N559  1  0.569050  0.066300  0.972610  1.0  -0.3236
  N  N560  1  0.714800  0.067500  0.160790  1.0  -0.323
  N  N561  1  0.566200  0.481200  0.087360  1.0  -0.2891
  N  N562  1  0.642900  0.956900  0.066460  1.0  -0.4592
  N  N563  1  0.638200  0.815600  0.095970  1.0  -0.426
  N  N564  1  0.608100  0.810700  0.047460  1.0  -0.3085
  N  N565  1  0.756900  0.937600  0.729450  1.0  -0.3263
  N  N566  1  0.967100  0.116700  0.888200  1.0  -0.3207
  N  N567  1  0.612270  0.123800  0.910660  1.0  -0.319
  N  N568  1  0.819600  0.053000  0.825780  1.0  -0.4696
  N  N569  1  0.784300  0.092100  0.871330  1.0  -0.4743
  N  N570  1  0.732740  0.057700  0.830870  1.0  -0.4774
  N  N571  1  0.930950  0.933700  0.472610  1.0  -0.3245
  N  N572  1  0.785200  0.932500  0.660790  1.0  -0.3221
  N  N573  1  0.933800  0.518800  0.587360  1.0  -0.2903
  N  N574  1  0.857100  0.043100  0.566460  1.0  -0.4591
  N  N575  1  0.861800  0.184400  0.595970  1.0  -0.4254
  N  N576  1  0.891900  0.189300  0.547460  1.0  -0.308
  N  N577  1  0.256900  0.562400  0.270550  1.0  -0.3255
  N  N578  1  0.467100  0.383300  0.111800  1.0  -0.3201
  N  N579  1  0.112270  0.376200  0.089340  1.0  -0.3181
  N  N580  1  0.319600  0.447000  0.174220  1.0  -0.4703
  N  N581  1  0.284300  0.407900  0.128670  1.0  -0.4756
  N  N582  1  0.232740  0.442300  0.169130  1.0  -0.4777
  N  N583  1  0.430950  0.566300  0.527390  1.0  -0.323
  N  N584  1  0.285200  0.567500  0.339210  1.0  -0.3229
  N  N585  1  0.433800  0.981200  0.412640  1.0  -0.2883
  N  N586  1  0.357100  0.456900  0.433540  1.0  -0.4596
  N  N587  1  0.361800  0.315600  0.404030  1.0  -0.4259
  N  N588  1  0.391900  0.310700  0.452540  1.0  -0.3055
  N  N589  1  0.243100  0.437600  0.770550  1.0  -0.3248
  N  N590  1  0.032900  0.616700  0.611800  1.0  -0.3194
  N  N591  1  0.387730  0.623800  0.589340  1.0  -0.3164
  N  N592  1  0.180400  0.553000  0.674220  1.0  -0.47
  N  N593  1  0.215700  0.592100  0.628670  1.0  -0.475
  N  N594  1  0.267260  0.557700  0.669130  1.0  -0.4782
  N  N595  1  0.069050  0.433700  0.027390  1.0  -0.3221
  N  N596  1  0.214800  0.432500  0.839210  1.0  -0.3226
  N  N597  1  0.066200  0.018800  0.912640  1.0  -0.2894
  N  N598  1  0.142900  0.543100  0.933540  1.0  -0.4586
  N  N599  1  0.138200  0.684400  0.904030  1.0  -0.4252
  N  N600  1  0.108100  0.689300  0.952540  1.0  -0.3074
  N  N601  1  0.256900  0.937600  0.770550  1.0  -0.3251
  N  N602  1  0.467100  0.116700  0.611800  1.0  -0.3203
  N  N603  1  0.112270  0.123800  0.589340  1.0  -0.3175
  N  N604  1  0.319600  0.053000  0.674220  1.0  -0.4703
  N  N605  1  0.284300  0.092100  0.628670  1.0  -0.4749
  N  N606  1  0.232740  0.057700  0.669130  1.0  -0.4776
  N  N607  1  0.430950  0.933700  0.027390  1.0  -0.3227
  N  N608  1  0.285200  0.932500  0.839210  1.0  -0.3229
  N  N609  1  0.433800  0.518800  0.912640  1.0  -0.2899
  N  N610  1  0.357100  0.043100  0.933540  1.0  -0.459
  N  N611  1  0.361800  0.184400  0.904030  1.0  -0.425
  N  N612  1  0.391900  0.189300  0.952540  1.0  -0.307
  N  N613  1  0.243100  0.062400  0.270550  1.0  -0.3255
  N  N614  1  0.032900  0.883300  0.111800  1.0  -0.3198
  N  N615  1  0.387730  0.876200  0.089340  1.0  -0.3165
  N  N616  1  0.180400  0.947000  0.174220  1.0  -0.47
  N  N617  1  0.215700  0.907900  0.128670  1.0  -0.4758
  N  N618  1  0.267260  0.942300  0.169130  1.0  -0.4783
  N  N619  1  0.069050  0.066300  0.527390  1.0  -0.3226
  N  N620  1  0.214800  0.067500  0.339210  1.0  -0.3222
  N  N621  1  0.066200  0.481200  0.412640  1.0  -0.2889
  N  N622  1  0.142900  0.956900  0.433540  1.0  -0.4596
  N  N623  1  0.138200  0.815600  0.404030  1.0  -0.4261
  N  N624  1  0.108100  0.810700  0.452540  1.0  -0.3064
  N  N625  1  0.743100  0.437600  0.729450  1.0  -0.3262
  N  N626  1  0.532900  0.616700  0.888200  1.0  -0.3204
  N  N627  1  0.887730  0.623800  0.910660  1.0  -0.3171
  N  N628  1  0.680400  0.553000  0.825780  1.0  -0.4686
  N  N629  1  0.715700  0.592100  0.871330  1.0  -0.4746
  N  N630  1  0.767260  0.557700  0.830870  1.0  -0.4779
  N  N631  1  0.569050  0.433700  0.472610  1.0  -0.3248
  N  N632  1  0.714800  0.432500  0.660790  1.0  -0.322
  N  N633  1  0.566200  0.018800  0.587360  1.0  -0.2897
  N  N634  1  0.642900  0.543100  0.566460  1.0  -0.4584
  N  N635  1  0.638200  0.684400  0.595970  1.0  -0.4264
  N  N636  1  0.608100  0.689300  0.547460  1.0  -0.3081
  N  N637  1  0.756900  0.562400  0.229450  1.0  -0.3263
  N  N638  1  0.967100  0.383300  0.388200  1.0  -0.32
  N  N639  1  0.612270  0.376200  0.410660  1.0  -0.3193
  N  N640  1  0.819600  0.447000  0.325780  1.0  -0.4694
  N  N641  1  0.784300  0.407900  0.371330  1.0  -0.4744
  N  N642  1  0.732740  0.442300  0.330870  1.0  -0.4774
  N  N643  1  0.930950  0.566300  0.972610  1.0  -0.3231
  N  N644  1  0.785200  0.567500  0.160790  1.0  -0.3238
  N  N645  1  0.933800  0.981200  0.087360  1.0  -0.2885
  N  N646  1  0.857100  0.456900  0.066460  1.0  -0.4594
  N  N647  1  0.861800  0.315600  0.095970  1.0  -0.4251
  N  N648  1  0.891900  0.310700  0.047460  1.0  -0.3077
