# generated using pymatgen
data_ZnH8C12(IN2)2
_symmetry_space_group_name_H-M   'P 1'
_cell_length_a   28.14700000
_cell_length_b   13.89260000
_cell_length_c   44.02800000
_cell_angle_alpha   90.00000000
_cell_angle_beta   90.00000000
_cell_angle_gamma   90.00000000
_symmetry_Int_Tables_number   1
_chemical_formula_structural   ZnH8C12(IN2)2
_chemical_formula_sum   'Zn24 H192 C288 I48 N96'
_cell_volume   17216.48951714
_cell_formula_units_Z   24
loop_
 _symmetry_equiv_pos_site_id
 _symmetry_equiv_pos_as_xyz
  1  'x, y, z'
loop_
 _atom_site_type_symbol
 _atom_site_label
 _atom_site_symmetry_multiplicity
 _atom_site_fract_x
 _atom_site_fract_y
 _atom_site_fract_z
 _atom_site_occupancy
 _atom_site_charge
  Zn  Zn1  1  0.022120  0.888880  0.910230  1.0  0.8313
  Zn  Zn2  1  0.546370  0.863520  0.906960  1.0  0.8804
  Zn  Zn3  1  0.760730  0.190890  0.675460  1.0  0.8528
  Zn  Zn4  1  0.477880  0.111120  0.410230  1.0  0.8275
  Zn  Zn5  1  0.953630  0.136480  0.406960  1.0  0.8806
  Zn  Zn6  1  0.739270  0.809110  0.175460  1.0  0.8549
  Zn  Zn7  1  0.977880  0.388880  0.589770  1.0  0.8309
  Zn  Zn8  1  0.453630  0.363520  0.593040  1.0  0.8814
  Zn  Zn9  1  0.239270  0.690890  0.824540  1.0  0.853
  Zn  Zn10  1  0.522120  0.611120  0.089770  1.0  0.8276
  Zn  Zn11  1  0.046370  0.636480  0.093040  1.0  0.8803
  Zn  Zn12  1  0.260730  0.309110  0.324540  1.0  0.8549
  Zn  Zn13  1  0.977880  0.111120  0.089770  1.0  0.8272
  Zn  Zn14  1  0.453630  0.136480  0.093040  1.0  0.8809
  Zn  Zn15  1  0.239270  0.809110  0.324540  1.0  0.8552
  Zn  Zn16  1  0.522120  0.888880  0.589770  1.0  0.8308
  Zn  Zn17  1  0.046370  0.863520  0.593040  1.0  0.8805
  Zn  Zn18  1  0.260730  0.190890  0.824540  1.0  0.8527
  Zn  Zn19  1  0.022120  0.611120  0.410230  1.0  0.8277
  Zn  Zn20  1  0.546370  0.636480  0.406960  1.0  0.8808
  Zn  Zn21  1  0.760730  0.309110  0.175460  1.0  0.8544
  Zn  Zn22  1  0.477880  0.388880  0.910230  1.0  0.8316
  Zn  Zn23  1  0.953630  0.363520  0.906960  1.0  0.8807
  Zn  Zn24  1  0.739270  0.690890  0.675460  1.0  0.853
  H  H25  1  0.917700  0.897200  0.926500  1.0  0.0944
  H  H26  1  0.844300  0.920000  0.902900  1.0  0.1182
  H  H27  1  0.913000  0.974100  0.824500  1.0  0.1166
  H  H28  1  0.984600  0.950000  0.849100  1.0  0.0932
  H  H29  1  0.838800  0.140900  0.719500  1.0  0.0965
  H  H30  1  0.848500  0.071500  0.766400  1.0  0.1133
  H  H31  1  0.708200  0.004500  0.766700  1.0  0.1139
  H  H32  1  0.702400  0.071500  0.718800  1.0  0.0877
  H  H33  1  0.584900  0.950000  0.851400  1.0  0.0848
  H  H34  1  0.656500  0.977300  0.826600  1.0  0.1233
  H  H35  1  0.724300  0.913300  0.905700  1.0  0.1218
  H  H36  1  0.650300  0.884700  0.927500  1.0  0.0923
  H  H37  1  0.072500  0.700900  0.029200  1.0  0.096
  H  H38  1  0.089200  0.631300  0.983000  1.0  0.1092
  H  H39  1  0.044400  0.375500  0.016400  1.0  0.1192
  H  H40  1  0.024900  0.452600  0.060700  1.0  0.0697
  H  H41  1  0.027000  0.025000  0.964000  1.0  0.0989
  H  H42  1  0.050500  0.182500  0.974700  1.0  0.1057
  H  H43  1  0.104900  0.200800  0.889200  1.0  0.1181
  H  H44  1  0.075700  0.047300  0.879900  1.0  0.0849
  H  H45  1  0.218300  0.483100  0.838400  1.0  0.1022
  H  H46  1  0.177000  0.391200  0.874200  1.0  0.1133
  H  H47  1  0.135800  0.639100  0.914400  1.0  0.1251
  H  H48  1  0.174900  0.721800  0.876800  1.0  0.0896
  H  H49  1  0.582300  0.102800  0.426500  1.0  0.0939
  H  H50  1  0.655700  0.080000  0.402900  1.0  0.1178
  H  H51  1  0.587000  0.025900  0.324500  1.0  0.1164
  H  H52  1  0.515400  0.050000  0.349100  1.0  0.093
  H  H53  1  0.661200  0.859100  0.219500  1.0  0.0961
  H  H54  1  0.651500  0.928500  0.266400  1.0  0.1134
  H  H55  1  0.791800  0.995500  0.266700  1.0  0.1142
  H  H56  1  0.797600  0.928500  0.218800  1.0  0.087
  H  H57  1  0.915100  0.050000  0.351400  1.0  0.0847
  H  H58  1  0.843500  0.022700  0.326600  1.0  0.1235
  H  H59  1  0.775700  0.086700  0.405700  1.0  0.1224
  H  H60  1  0.849700  0.115300  0.427500  1.0  0.0924
  H  H61  1  0.427500  0.299100  0.529200  1.0  0.0965
  H  H62  1  0.410800  0.368700  0.483000  1.0  0.109
  H  H63  1  0.455600  0.624500  0.516400  1.0  0.118
  H  H64  1  0.475100  0.547400  0.560700  1.0  0.0705
  H  H65  1  0.473000  0.975000  0.464000  1.0  0.0989
  H  H66  1  0.449500  0.817500  0.474700  1.0  0.1056
  H  H67  1  0.395100  0.799200  0.389200  1.0  0.1183
  H  H68  1  0.424300  0.952700  0.379900  1.0  0.0843
  H  H69  1  0.281700  0.516900  0.338400  1.0  0.1026
  H  H70  1  0.323000  0.608800  0.374200  1.0  0.113
  H  H71  1  0.364200  0.360900  0.414400  1.0  0.125
  H  H72  1  0.325100  0.278200  0.376800  1.0  0.0917
  H  H73  1  0.082300  0.397200  0.573500  1.0  0.0934
  H  H74  1  0.155700  0.420000  0.597100  1.0  0.1184
  H  H75  1  0.087000  0.474100  0.675500  1.0  0.1158
  H  H76  1  0.015400  0.450000  0.650900  1.0  0.0936
  H  H77  1  0.161200  0.640900  0.780500  1.0  0.0959
  H  H78  1  0.151500  0.571500  0.733600  1.0  0.1135
  H  H79  1  0.291800  0.504500  0.733300  1.0  0.1142
  H  H80  1  0.297600  0.571500  0.781200  1.0  0.0867
  H  H81  1  0.415100  0.450000  0.648600  1.0  0.085
  H  H82  1  0.343500  0.477300  0.673400  1.0  0.123
  H  H83  1  0.275700  0.413300  0.594300  1.0  0.1222
  H  H84  1  0.349700  0.384700  0.572500  1.0  0.093
  H  H85  1  0.927500  0.200900  0.470800  1.0  0.0963
  H  H86  1  0.910800  0.131300  0.517000  1.0  0.1093
  H  H87  1  0.955600  0.875500  0.483600  1.0  0.1192
  H  H88  1  0.975100  0.952600  0.439300  1.0  0.0696
  H  H89  1  0.973000  0.525000  0.536000  1.0  0.0984
  H  H90  1  0.949500  0.682500  0.525300  1.0  0.1059
  H  H91  1  0.895100  0.700800  0.610800  1.0  0.1184
  H  H92  1  0.924300  0.547300  0.620100  1.0  0.0854
  H  H93  1  0.781700  0.983100  0.661600  1.0  0.1026
  H  H94  1  0.823000  0.891200  0.625800  1.0  0.1132
  H  H95  1  0.864200  0.139100  0.585600  1.0  0.1248
  H  H96  1  0.825100  0.221800  0.623200  1.0  0.09
  H  H97  1  0.417700  0.602800  0.073500  1.0  0.0931
  H  H98  1  0.344300  0.580000  0.097100  1.0  0.1182
  H  H99  1  0.413000  0.525900  0.175500  1.0  0.116
  H  H100  1  0.484600  0.550000  0.150900  1.0  0.0933
  H  H101  1  0.338800  0.359100  0.280500  1.0  0.0965
  H  H102  1  0.348500  0.428500  0.233600  1.0  0.1134
  H  H103  1  0.208200  0.495500  0.233300  1.0  0.1143
  H  H104  1  0.202400  0.428500  0.281200  1.0  0.0873
  H  H105  1  0.084900  0.550000  0.148600  1.0  0.0852
  H  H106  1  0.156500  0.522700  0.173400  1.0  0.1239
  H  H107  1  0.224300  0.586700  0.094300  1.0  0.1219
  H  H108  1  0.150300  0.615300  0.072500  1.0  0.0929
  H  H109  1  0.572500  0.799100  0.970800  1.0  0.0964
  H  H110  1  0.589200  0.868700  0.017000  1.0  0.1091
  H  H111  1  0.544400  0.124500  0.983600  1.0  0.1184
  H  H112  1  0.524900  0.047400  0.939300  1.0  0.0697
  H  H113  1  0.527000  0.475000  0.036000  1.0  0.0984
  H  H114  1  0.550500  0.317500  0.025300  1.0  0.1061
  H  H115  1  0.604900  0.299200  0.110800  1.0  0.1186
  H  H116  1  0.575700  0.452700  0.120100  1.0  0.0847
  H  H117  1  0.718300  0.016900  0.161600  1.0  0.1022
  H  H118  1  0.677000  0.108800  0.125800  1.0  0.1132
  H  H119  1  0.635800  0.860900  0.085600  1.0  0.1245
  H  H120  1  0.674900  0.778200  0.123200  1.0  0.0917
  H  H121  1  0.082300  0.102800  0.073500  1.0  0.0934
  H  H122  1  0.155700  0.080000  0.097100  1.0  0.1182
  H  H123  1  0.087000  0.025900  0.175500  1.0  0.1161
  H  H124  1  0.015400  0.050000  0.150900  1.0  0.0935
  H  H125  1  0.161200  0.859100  0.280500  1.0  0.0964
  H  H126  1  0.151500  0.928500  0.233600  1.0  0.1136
  H  H127  1  0.291800  0.995500  0.233300  1.0  0.1144
  H  H128  1  0.297600  0.928500  0.281200  1.0  0.0866
  H  H129  1  0.415100  0.050000  0.148600  1.0  0.0852
  H  H130  1  0.343500  0.022700  0.173400  1.0  0.1233
  H  H131  1  0.275700  0.086700  0.094300  1.0  0.1222
  H  H132  1  0.349700  0.115300  0.072500  1.0  0.0928
  H  H133  1  0.927500  0.299100  0.970800  1.0  0.0964
  H  H134  1  0.910800  0.368700  0.017000  1.0  0.1097
  H  H135  1  0.955600  0.624500  0.983600  1.0  0.1182
  H  H136  1  0.975100  0.547400  0.939300  1.0  0.07
  H  H137  1  0.973000  0.975000  0.036000  1.0  0.0986
  H  H138  1  0.949500  0.817500  0.025300  1.0  0.1061
  H  H139  1  0.895100  0.799200  0.110800  1.0  0.1187
  H  H140  1  0.924300  0.952700  0.120100  1.0  0.0846
  H  H141  1  0.781700  0.516900  0.161600  1.0  0.1025
  H  H142  1  0.823000  0.608800  0.125800  1.0  0.1131
  H  H143  1  0.864200  0.360900  0.085600  1.0  0.1245
  H  H144  1  0.825100  0.278200  0.123200  1.0  0.0918
  H  H145  1  0.417700  0.897200  0.573500  1.0  0.0932
  H  H146  1  0.344300  0.920000  0.597100  1.0  0.1184
  H  H147  1  0.413000  0.974100  0.675500  1.0  0.1158
  H  H148  1  0.484600  0.950000  0.650900  1.0  0.0934
  H  H149  1  0.338800  0.140900  0.780500  1.0  0.0963
  H  H150  1  0.348500  0.071500  0.733600  1.0  0.1133
  H  H151  1  0.208200  0.004500  0.733300  1.0  0.1142
  H  H152  1  0.202400  0.071500  0.781200  1.0  0.0873
  H  H153  1  0.084900  0.950000  0.648600  1.0  0.0851
  H  H154  1  0.156500  0.977300  0.673400  1.0  0.1237
  H  H155  1  0.224300  0.913300  0.594300  1.0  0.1219
  H  H156  1  0.150300  0.884700  0.572500  1.0  0.0929
  H  H157  1  0.572500  0.700900  0.470800  1.0  0.096
  H  H158  1  0.589200  0.631300  0.517000  1.0  0.1091
  H  H159  1  0.544400  0.375500  0.483600  1.0  0.1196
  H  H160  1  0.524900  0.452600  0.439300  1.0  0.069
  H  H161  1  0.527000  0.025000  0.536000  1.0  0.0982
  H  H162  1  0.550500  0.182500  0.525300  1.0  0.1059
  H  H163  1  0.604900  0.200800  0.610800  1.0  0.1183
  H  H164  1  0.575700  0.047300  0.620100  1.0  0.085
  H  H165  1  0.718300  0.483100  0.661600  1.0  0.1023
  H  H166  1  0.677000  0.391200  0.625800  1.0  0.1133
  H  H167  1  0.635800  0.639100  0.585600  1.0  0.1249
  H  H168  1  0.674900  0.721800  0.623200  1.0  0.0898
  H  H169  1  0.917700  0.602800  0.426500  1.0  0.094
  H  H170  1  0.844300  0.580000  0.402900  1.0  0.1179
  H  H171  1  0.913000  0.525900  0.324500  1.0  0.1166
  H  H172  1  0.984600  0.550000  0.349100  1.0  0.0931
  H  H173  1  0.838800  0.359100  0.219500  1.0  0.0962
  H  H174  1  0.848500  0.428500  0.266400  1.0  0.1136
  H  H175  1  0.708200  0.495500  0.266700  1.0  0.1138
  H  H176  1  0.702400  0.428500  0.218800  1.0  0.0877
  H  H177  1  0.584900  0.550000  0.351400  1.0  0.0847
  H  H178  1  0.656500  0.522700  0.326600  1.0  0.1232
  H  H179  1  0.724300  0.586700  0.405700  1.0  0.1218
  H  H180  1  0.650300  0.615300  0.427500  1.0  0.0921
  H  H181  1  0.072500  0.799100  0.529200  1.0  0.0966
  H  H182  1  0.089200  0.868700  0.483000  1.0  0.1089
  H  H183  1  0.044400  0.124500  0.516400  1.0  0.1181
  H  H184  1  0.024900  0.047400  0.560700  1.0  0.07
  H  H185  1  0.027000  0.475000  0.464000  1.0  0.0989
  H  H186  1  0.050500  0.317500  0.474700  1.0  0.1056
  H  H187  1  0.104900  0.299200  0.389200  1.0  0.1182
  H  H188  1  0.075700  0.452700  0.379900  1.0  0.0846
  H  H189  1  0.218300  0.016900  0.338400  1.0  0.1024
  H  H190  1  0.177000  0.108800  0.374200  1.0  0.1133
  H  H191  1  0.135800  0.860900  0.414400  1.0  0.125
  H  H192  1  0.174900  0.778200  0.376800  1.0  0.0917
  H  H193  1  0.582300  0.397200  0.926500  1.0  0.0942
  H  H194  1  0.655700  0.420000  0.902900  1.0  0.1182
  H  H195  1  0.587000  0.474100  0.824500  1.0  0.1162
  H  H196  1  0.515400  0.450000  0.849100  1.0  0.0932
  H  H197  1  0.661200  0.640900  0.719500  1.0  0.096
  H  H198  1  0.651500  0.571500  0.766400  1.0  0.1133
  H  H199  1  0.791800  0.504500  0.766700  1.0  0.1142
  H  H200  1  0.797600  0.571500  0.718800  1.0  0.0871
  H  H201  1  0.915100  0.450000  0.851400  1.0  0.0849
  H  H202  1  0.843500  0.477300  0.826600  1.0  0.1237
  H  H203  1  0.775700  0.413300  0.905700  1.0  0.1224
  H  H204  1  0.849700  0.384700  0.927500  1.0  0.093
  H  H205  1  0.427500  0.200900  0.029200  1.0  0.0963
  H  H206  1  0.410800  0.131300  0.983000  1.0  0.1092
  H  H207  1  0.455600  0.875500  0.016400  1.0  0.1189
  H  H208  1  0.475100  0.952600  0.060700  1.0  0.0704
  H  H209  1  0.473000  0.525000  0.964000  1.0  0.099
  H  H210  1  0.449500  0.682500  0.974700  1.0  0.1058
  H  H211  1  0.395100  0.700800  0.889200  1.0  0.1181
  H  H212  1  0.424300  0.547300  0.879900  1.0  0.0851
  H  H213  1  0.281700  0.983100  0.838400  1.0  0.1025
  H  H214  1  0.323000  0.891200  0.874200  1.0  0.1131
  H  H215  1  0.364200  0.139100  0.914400  1.0  0.1249
  H  H216  1  0.325100  0.221800  0.876800  1.0  0.0898
  C  C217  1  0.916900  0.912600  0.905510  1.0  0.1243
  C  C218  1  0.872900  0.926200  0.891570  1.0  -0.1185
  C  C219  1  0.871300  0.948900  0.861070  1.0  -0.113
  C  C220  1  0.913300  0.958000  0.845460  1.0  -0.114
  C  C221  1  0.955900  0.943600  0.860300  1.0  0.1315
  C  C222  1  0.812100  0.112800  0.729200  1.0  0.1316
  C  C223  1  0.817900  0.072900  0.757260  1.0  -0.13
  C  C224  1  0.778700  0.033700  0.772730  1.0  -0.0952
  C  C225  1  0.735400  0.032600  0.757520  1.0  -0.1227
  C  C226  1  0.732200  0.072900  0.728820  1.0  0.1398
  C  C227  1  0.613700  0.940700  0.862290  1.0  0.1329
  C  C228  1  0.656100  0.957800  0.847320  1.0  -0.1201
  C  C229  1  0.698200  0.945500  0.863590  1.0  -0.1082
  C  C230  1  0.696200  0.919600  0.893930  1.0  -0.1422
  C  C231  1  0.651800  0.903100  0.906700  1.0  0.1396
  C  C232  1  0.824000  0.962000  0.845320  1.0  0.3722
  C  C233  1  0.745000  0.959200  0.847670  1.0  0.3605
  C  C234  1  0.781700  0.998700  0.804110  1.0  0.321
  C  C235  1  0.066600  0.634100  0.026420  1.0  0.113
  C  C236  1  0.077200  0.592600  0.999040  1.0  -0.1219
  C  C237  1  0.070500  0.495400  0.994370  1.0  -0.043
  C  C238  1  0.050300  0.442500  0.018530  1.0  -0.1453
  C  C239  1  0.039400  0.488700  0.044860  1.0  0.1379
  C  C240  1  0.042500  0.061800  0.948800  1.0  0.1339
  C  C241  1  0.056500  0.155500  0.955290  1.0  -0.115
  C  C242  1  0.079600  0.210000  0.932870  1.0  -0.1359
  C  C243  1  0.088100  0.167000  0.904570  1.0  -0.1509
  C  C244  1  0.071700  0.074500  0.899520  1.0  0.1405
  C  C245  1  0.201200  0.514400  0.854140  1.0  0.1335
  C  C246  1  0.177000  0.459400  0.875530  1.0  -0.074
  C  C247  1  0.152900  0.505000  0.898710  1.0  -0.0972
  C  C248  1  0.152400  0.605100  0.899000  1.0  -0.1497
  C  C249  1  0.176200  0.653500  0.876900  1.0  0.1328
  C  C250  1  0.086300  0.447100  0.966190  1.0  0.3427
  C  C251  1  0.126300  0.448700  0.922380  1.0  0.3739
  C  C252  1  0.092500  0.311400  0.938060  1.0  0.3766
  C  C253  1  0.583100  0.087400  0.405510  1.0  0.1235
  C  C254  1  0.627100  0.073800  0.391570  1.0  -0.1175
  C  C255  1  0.628700  0.051100  0.361070  1.0  -0.1128
  C  C256  1  0.586700  0.042000  0.345460  1.0  -0.1135
  C  C257  1  0.544100  0.056400  0.360300  1.0  0.1308
  C  C258  1  0.687900  0.887200  0.229200  1.0  0.1314
  C  C259  1  0.682100  0.927100  0.257260  1.0  -0.131
  C  C260  1  0.721300  0.966300  0.272730  1.0  -0.0952
  C  C261  1  0.764600  0.967400  0.257520  1.0  -0.1206
  C  C262  1  0.767800  0.927100  0.228820  1.0  0.1398
  C  C263  1  0.886300  0.059300  0.362290  1.0  0.1317
  C  C264  1  0.843900  0.042200  0.347320  1.0  -0.1193
  C  C265  1  0.801800  0.054500  0.363590  1.0  -0.1085
  C  C266  1  0.803800  0.080400  0.393930  1.0  -0.1437
  C  C267  1  0.848200  0.096900  0.406700  1.0  0.14
  C  C268  1  0.676000  0.038000  0.345320  1.0  0.3717
  C  C269  1  0.755000  0.040800  0.347670  1.0  0.3596
  C  C270  1  0.718300  0.001300  0.304110  1.0  0.3211
  C  C271  1  0.433400  0.365900  0.526420  1.0  0.1115
  C  C272  1  0.422800  0.407400  0.499040  1.0  -0.1207
  C  C273  1  0.429500  0.504600  0.494370  1.0  -0.0443
  C  C274  1  0.449700  0.557500  0.518530  1.0  -0.145
  C  C275  1  0.460600  0.511300  0.544860  1.0  0.1383
  C  C276  1  0.457500  0.938200  0.448800  1.0  0.1328
  C  C277  1  0.443500  0.844500  0.455290  1.0  -0.1145
  C  C278  1  0.420400  0.790000  0.432870  1.0  -0.1351
  C  C279  1  0.411900  0.833000  0.404570  1.0  -0.1505
  C  C280  1  0.428300  0.925500  0.399520  1.0  0.1414
  C  C281  1  0.298800  0.485600  0.354140  1.0  0.1332
  C  C282  1  0.323000  0.540600  0.375530  1.0  -0.0762
  C  C283  1  0.347100  0.495000  0.398710  1.0  -0.0977
  C  C284  1  0.347600  0.394900  0.399000  1.0  -0.1492
  C  C285  1  0.323800  0.346500  0.376900  1.0  0.1324
  C  C286  1  0.413700  0.552900  0.466190  1.0  0.3441
  C  C287  1  0.373700  0.551300  0.422380  1.0  0.374
  C  C288  1  0.407500  0.688600  0.438060  1.0  0.377
  C  C289  1  0.083100  0.412600  0.594490  1.0  0.1241
  C  C290  1  0.127100  0.426200  0.608430  1.0  -0.1185
  C  C291  1  0.128700  0.448900  0.638930  1.0  -0.1126
  C  C292  1  0.086700  0.458000  0.654540  1.0  -0.1166
  C  C293  1  0.044100  0.443600  0.639700  1.0  0.1311
  C  C294  1  0.187900  0.612800  0.770800  1.0  0.1321
  C  C295  1  0.182100  0.572900  0.742740  1.0  -0.1314
  C  C296  1  0.221300  0.533700  0.727270  1.0  -0.0952
  C  C297  1  0.264600  0.532600  0.742480  1.0  -0.1207
  C  C298  1  0.267800  0.572900  0.771180  1.0  0.1408
  C  C299  1  0.386300  0.440700  0.637710  1.0  0.1325
  C  C300  1  0.343900  0.457800  0.652680  1.0  -0.1205
  C  C301  1  0.301800  0.445500  0.636410  1.0  -0.1083
  C  C302  1  0.303800  0.419600  0.606070  1.0  -0.1431
  C  C303  1  0.348200  0.403100  0.593300  1.0  0.1405
  C  C304  1  0.176000  0.462000  0.654680  1.0  0.3713
  C  C305  1  0.255000  0.459200  0.652330  1.0  0.3598
  C  C306  1  0.218300  0.498700  0.695890  1.0  0.3207
  C  C307  1  0.933400  0.134100  0.473580  1.0  0.1141
  C  C308  1  0.922800  0.092600  0.500960  1.0  -0.1212
  C  C309  1  0.929500  0.995400  0.505630  1.0  -0.0438
  C  C310  1  0.949700  0.942500  0.481470  1.0  -0.1456
  C  C311  1  0.960600  0.988700  0.455140  1.0  0.1382
  C  C312  1  0.957500  0.561800  0.551200  1.0  0.1313
  C  C313  1  0.943500  0.655500  0.544710  1.0  -0.1143
  C  C314  1  0.920400  0.710000  0.567130  1.0  -0.1348
  C  C315  1  0.911900  0.667000  0.595430  1.0  -0.1503
  C  C316  1  0.928300  0.574500  0.600480  1.0  0.1416
  C  C317  1  0.798800  0.014400  0.645860  1.0  0.1333
  C  C318  1  0.823000  0.959400  0.624470  1.0  -0.0736
  C  C319  1  0.847100  0.005000  0.601290  1.0  -0.0969
  C  C320  1  0.847600  0.105100  0.601000  1.0  -0.1488
  C  C321  1  0.823800  0.153500  0.623100  1.0  0.1326
  C  C322  1  0.913700  0.947100  0.533810  1.0  0.3442
  C  C323  1  0.873700  0.948700  0.577620  1.0  0.3747
  C  C324  1  0.907500  0.811400  0.561940  1.0  0.3776
  C  C325  1  0.416900  0.587400  0.094490  1.0  0.1243
  C  C326  1  0.372900  0.573800  0.108430  1.0  -0.1182
  C  C327  1  0.371300  0.551100  0.138930  1.0  -0.1128
  C  C328  1  0.413300  0.542000  0.154540  1.0  -0.1164
  C  C329  1  0.455900  0.556400  0.139700  1.0  0.1311
  C  C330  1  0.312100  0.387200  0.270800  1.0  0.1328
  C  C331  1  0.317900  0.427100  0.242740  1.0  -0.1295
  C  C332  1  0.278700  0.466300  0.227270  1.0  -0.0948
  C  C333  1  0.235400  0.467400  0.242480  1.0  -0.1231
  C  C334  1  0.232200  0.427100  0.271180  1.0  0.1412
  C  C335  1  0.113700  0.559300  0.137710  1.0  0.1328
  C  C336  1  0.156100  0.542200  0.152680  1.0  -0.1208
  C  C337  1  0.198200  0.554500  0.136410  1.0  -0.1081
  C  C338  1  0.196200  0.580400  0.106070  1.0  -0.1436
  C  C339  1  0.151800  0.596900  0.093300  1.0  0.1394
  C  C340  1  0.324000  0.538000  0.154680  1.0  0.3717
  C  C341  1  0.245000  0.540800  0.152330  1.0  0.3606
  C  C342  1  0.281700  0.501300  0.195890  1.0  0.3207
  C  C343  1  0.566600  0.865900  0.973580  1.0  0.1109
  C  C344  1  0.577200  0.907400  0.000960  1.0  -0.1225
  C  C345  1  0.570500  0.004600  0.005630  1.0  -0.0439
  C  C346  1  0.550300  0.057500  0.981470  1.0  -0.1443
  C  C347  1  0.539400  0.011300  0.955140  1.0  0.1391
  C  C348  1  0.542500  0.438200  0.051200  1.0  0.1334
  C  C349  1  0.556500  0.344500  0.044710  1.0  -0.1155
  C  C350  1  0.579600  0.290000  0.067130  1.0  -0.1354
  C  C351  1  0.588100  0.333000  0.095430  1.0  -0.1492
  C  C352  1  0.571700  0.425500  0.100480  1.0  0.1407
  C  C353  1  0.701200  0.985600  0.145860  1.0  0.1326
  C  C354  1  0.677000  0.040600  0.124470  1.0  -0.0749
  C  C355  1  0.652900  0.995000  0.101290  1.0  -0.0959
  C  C356  1  0.652400  0.894900  0.101000  1.0  -0.1495
  C  C357  1  0.676200  0.846500  0.123100  1.0  0.1318
  C  C358  1  0.586300  0.052900  0.033810  1.0  0.3431
  C  C359  1  0.626300  0.051300  0.077620  1.0  0.3742
  C  C360  1  0.592500  0.188600  0.061940  1.0  0.3767
  C  C361  1  0.083100  0.087400  0.094490  1.0  0.1237
  C  C362  1  0.127100  0.073800  0.108430  1.0  -0.1185
  C  C363  1  0.128700  0.051100  0.138930  1.0  -0.1129
  C  C364  1  0.086700  0.042000  0.154540  1.0  -0.1166
  C  C365  1  0.044100  0.056400  0.139700  1.0  0.1308
  C  C366  1  0.187900  0.887200  0.270800  1.0  0.1328
  C  C367  1  0.182100  0.927100  0.242740  1.0  -0.1309
  C  C368  1  0.221300  0.966300  0.227270  1.0  -0.095
  C  C369  1  0.264600  0.967400  0.242480  1.0  -0.1209
  C  C370  1  0.267800  0.927100  0.271180  1.0  0.141
  C  C371  1  0.386300  0.059300  0.137710  1.0  0.1321
  C  C372  1  0.343900  0.042200  0.152680  1.0  -0.1202
  C  C373  1  0.301800  0.054500  0.136410  1.0  -0.1082
  C  C374  1  0.303800  0.080400  0.106070  1.0  -0.1435
  C  C375  1  0.348200  0.096900  0.093300  1.0  0.1401
  C  C376  1  0.176000  0.038000  0.154680  1.0  0.3713
  C  C377  1  0.255000  0.040800  0.152330  1.0  0.3598
  C  C378  1  0.218300  0.001300  0.195890  1.0  0.3207
  C  C379  1  0.933400  0.365900  0.973580  1.0  0.1116
  C  C380  1  0.922800  0.407400  0.000960  1.0  -0.1206
  C  C381  1  0.929500  0.504600  0.005630  1.0  -0.0437
  C  C382  1  0.949700  0.557500  0.981470  1.0  -0.1443
  C  C383  1  0.960600  0.511300  0.955140  1.0  0.1391
  C  C384  1  0.957500  0.938200  0.051200  1.0  0.1322
  C  C385  1  0.943500  0.844500  0.044710  1.0  -0.1145
  C  C386  1  0.920400  0.790000  0.067130  1.0  -0.1352
  C  C387  1  0.911900  0.833000  0.095430  1.0  -0.1504
  C  C388  1  0.928300  0.925500  0.100480  1.0  0.1405
  C  C389  1  0.798800  0.485600  0.145860  1.0  0.1327
  C  C390  1  0.823000  0.540600  0.124470  1.0  -0.0748
  C  C391  1  0.847100  0.495000  0.101290  1.0  -0.0957
  C  C392  1  0.847600  0.394900  0.101000  1.0  -0.1488
  C  C393  1  0.823800  0.346500  0.123100  1.0  0.1318
  C  C394  1  0.913700  0.552900  0.033810  1.0  0.3442
  C  C395  1  0.873700  0.551300  0.077620  1.0  0.3745
  C  C396  1  0.907500  0.688600  0.061940  1.0  0.3772
  C  C397  1  0.416900  0.912600  0.594490  1.0  0.125
  C  C398  1  0.372900  0.926200  0.608430  1.0  -0.118
  C  C399  1  0.371300  0.948900  0.638930  1.0  -0.113
  C  C400  1  0.413300  0.958000  0.654540  1.0  -0.1163
  C  C401  1  0.455900  0.943600  0.639700  1.0  0.1311
  C  C402  1  0.312100  0.112800  0.770800  1.0  0.1319
  C  C403  1  0.317900  0.072900  0.742740  1.0  -0.1301
  C  C404  1  0.278700  0.033700  0.727270  1.0  -0.095
  C  C405  1  0.235400  0.032600  0.742480  1.0  -0.123
  C  C406  1  0.232200  0.072900  0.771180  1.0  0.1406
  C  C407  1  0.113700  0.940700  0.637710  1.0  0.1331
  C  C408  1  0.156100  0.957800  0.652680  1.0  -0.1211
  C  C409  1  0.198200  0.945500  0.636410  1.0  -0.1082
  C  C410  1  0.196200  0.919600  0.606070  1.0  -0.1434
  C  C411  1  0.151800  0.903100  0.593300  1.0  0.1396
  C  C412  1  0.324000  0.962000  0.654680  1.0  0.3718
  C  C413  1  0.245000  0.959200  0.652330  1.0  0.3607
  C  C414  1  0.281700  0.998700  0.695890  1.0  0.3206
  C  C415  1  0.566600  0.634100  0.473580  1.0  0.1127
  C  C416  1  0.577200  0.592600  0.500960  1.0  -0.1223
  C  C417  1  0.570500  0.495400  0.505630  1.0  -0.0433
  C  C418  1  0.550300  0.442500  0.481470  1.0  -0.146
  C  C419  1  0.539400  0.488700  0.455140  1.0  0.1382
  C  C420  1  0.542500  0.061800  0.551200  1.0  0.1326
  C  C421  1  0.556500  0.155500  0.544710  1.0  -0.1155
  C  C422  1  0.579600  0.210000  0.567130  1.0  -0.1355
  C  C423  1  0.588100  0.167000  0.595430  1.0  -0.1489
  C  C424  1  0.571700  0.074500  0.600480  1.0  0.1415
  C  C425  1  0.701200  0.514400  0.645860  1.0  0.1333
  C  C426  1  0.677000  0.459400  0.624470  1.0  -0.0732
  C  C427  1  0.652900  0.505000  0.601290  1.0  -0.0965
  C  C428  1  0.652400  0.605100  0.601000  1.0  -0.1489
  C  C429  1  0.676200  0.653500  0.623100  1.0  0.1323
  C  C430  1  0.586300  0.447100  0.533810  1.0  0.3432
  C  C431  1  0.626300  0.448700  0.577620  1.0  0.3744
  C  C432  1  0.592500  0.311400  0.561940  1.0  0.3768
  C  C433  1  0.916900  0.587400  0.405510  1.0  0.1238
  C  C434  1  0.872900  0.573800  0.391570  1.0  -0.1188
  C  C435  1  0.871300  0.551100  0.361070  1.0  -0.1129
  C  C436  1  0.913300  0.542000  0.345460  1.0  -0.1143
  C  C437  1  0.955900  0.556400  0.360300  1.0  0.1314
  C  C438  1  0.812100  0.387200  0.229200  1.0  0.1314
  C  C439  1  0.817900  0.427100  0.257260  1.0  -0.1296
  C  C440  1  0.778700  0.466300  0.272730  1.0  -0.0951
  C  C441  1  0.735400  0.467400  0.257520  1.0  -0.1229
  C  C442  1  0.732200  0.427100  0.228820  1.0  0.1401
  C  C443  1  0.613700  0.559300  0.362290  1.0  0.1326
  C  C444  1  0.656100  0.542200  0.347320  1.0  -0.1195
  C  C445  1  0.698200  0.554500  0.363590  1.0  -0.1081
  C  C446  1  0.696200  0.580400  0.393930  1.0  -0.1424
  C  C447  1  0.651800  0.596900  0.406700  1.0  0.1395
  C  C448  1  0.824000  0.538000  0.345320  1.0  0.3721
  C  C449  1  0.745000  0.540800  0.347670  1.0  0.3606
  C  C450  1  0.781700  0.501300  0.304110  1.0  0.3211
  C  C451  1  0.066600  0.865900  0.526420  1.0  0.1111
  C  C452  1  0.077200  0.907400  0.499040  1.0  -0.1224
  C  C453  1  0.070500  0.004600  0.494370  1.0  -0.0426
  C  C454  1  0.050300  0.057500  0.518530  1.0  -0.1453
  C  C455  1  0.039400  0.011300  0.544860  1.0  0.1381
  C  C456  1  0.042500  0.438200  0.448800  1.0  0.1336
  C  C457  1  0.056500  0.344500  0.455290  1.0  -0.1155
  C  C458  1  0.079600  0.290000  0.432870  1.0  -0.1354
  C  C459  1  0.088100  0.333000  0.404570  1.0  -0.1507
  C  C460  1  0.071700  0.425500  0.399520  1.0  0.1404
  C  C461  1  0.201200  0.985600  0.354140  1.0  0.1334
  C  C462  1  0.177000  0.040600  0.375530  1.0  -0.0761
  C  C463  1  0.152900  0.995000  0.398710  1.0  -0.0978
  C  C464  1  0.152400  0.894900  0.399000  1.0  -0.1501
  C  C465  1  0.176200  0.846500  0.376900  1.0  0.1325
  C  C466  1  0.086300  0.052900  0.466190  1.0  0.3426
  C  C467  1  0.126300  0.051300  0.422380  1.0  0.3738
  C  C468  1  0.092500  0.188600  0.438060  1.0  0.3765
  C  C469  1  0.583100  0.412600  0.905510  1.0  0.1236
  C  C470  1  0.627100  0.426200  0.891570  1.0  -0.1175
  C  C471  1  0.628700  0.448900  0.861070  1.0  -0.1126
  C  C472  1  0.586700  0.458000  0.845460  1.0  -0.1136
  C  C473  1  0.544100  0.443600  0.860300  1.0  0.1311
  C  C474  1  0.687900  0.612800  0.729200  1.0  0.1319
  C  C475  1  0.682100  0.572900  0.757260  1.0  -0.1314
  C  C476  1  0.721300  0.533700  0.772730  1.0  -0.0953
  C  C477  1  0.764600  0.532600  0.757520  1.0  -0.1204
  C  C478  1  0.767800  0.572900  0.728820  1.0  0.1398
  C  C479  1  0.886300  0.440700  0.862290  1.0  0.1319
  C  C480  1  0.843900  0.457800  0.847320  1.0  -0.1199
  C  C481  1  0.801800  0.445500  0.863590  1.0  -0.1085
  C  C482  1  0.803800  0.419600  0.893930  1.0  -0.1433
  C  C483  1  0.848200  0.403100  0.906700  1.0  0.1405
  C  C484  1  0.676000  0.462000  0.845320  1.0  0.3716
  C  C485  1  0.755000  0.459200  0.847670  1.0  0.3596
  C  C486  1  0.718300  0.498700  0.804110  1.0  0.321
  C  C487  1  0.433400  0.134100  0.026420  1.0  0.114
  C  C488  1  0.422800  0.092600  0.999040  1.0  -0.121
  C  C489  1  0.429500  0.995400  0.994370  1.0  -0.0455
  C  C490  1  0.449700  0.942500  0.018530  1.0  -0.1448
  C  C491  1  0.460600  0.988700  0.044860  1.0  0.138
  C  C492  1  0.457500  0.561800  0.948800  1.0  0.1331
  C  C493  1  0.443500  0.655500  0.955290  1.0  -0.1141
  C  C494  1  0.420400  0.710000  0.932870  1.0  -0.1349
  C  C495  1  0.411900  0.667000  0.904570  1.0  -0.1508
  C  C496  1  0.428300  0.574500  0.899520  1.0  0.1413
  C  C497  1  0.298800  0.014400  0.854140  1.0  0.1331
  C  C498  1  0.323000  0.959400  0.875530  1.0  -0.0744
  C  C499  1  0.347100  0.005000  0.898710  1.0  -0.0975
  C  C500  1  0.347600  0.105100  0.899000  1.0  -0.1493
  C  C501  1  0.323800  0.153500  0.876900  1.0  0.1329
  C  C502  1  0.413700  0.947100  0.966190  1.0  0.344
  C  C503  1  0.373700  0.948700  0.922380  1.0  0.3743
  C  C504  1  0.407500  0.811400  0.938060  1.0  0.3774
  I  I505  1  0.006520  0.803780  0.961030  1.0  -0.4284
  I  I506  1  0.070900  0.812240  0.868470  1.0  -0.3259
  I  I507  1  0.556630  0.682030  0.908250  1.0  -0.4067
  I  I508  1  0.481740  0.951100  0.877130  1.0  -0.3542
  I  I509  1  0.672650  0.191590  0.662450  1.0  -0.2881
  I  I510  1  0.803380  0.351640  0.682030  1.0  -0.3803
  I  I511  1  0.493480  0.196220  0.461030  1.0  -0.4258
  I  I512  1  0.429100  0.187760  0.368470  1.0  -0.3259
  I  I513  1  0.943370  0.317970  0.408250  1.0  -0.4057
  I  I514  1  0.018260  0.048900  0.377130  1.0  -0.3544
  I  I515  1  0.827350  0.808410  0.162450  1.0  -0.289
  I  I516  1  0.696620  0.648360  0.182030  1.0  -0.3816
  I  I517  1  0.993480  0.303780  0.538970  1.0  -0.4262
  I  I518  1  0.929100  0.312240  0.631530  1.0  -0.3255
  I  I519  1  0.443370  0.182030  0.591750  1.0  -0.4061
  I  I520  1  0.518260  0.451100  0.622870  1.0  -0.3523
  I  I521  1  0.327350  0.691590  0.837550  1.0  -0.2891
  I  I522  1  0.196620  0.851640  0.817970  1.0  -0.381
  I  I523  1  0.506520  0.696220  0.038970  1.0  -0.4283
  I  I524  1  0.570900  0.687760  0.131530  1.0  -0.325
  I  I525  1  0.056630  0.817970  0.091750  1.0  -0.4066
  I  I526  1  0.981740  0.548900  0.122870  1.0  -0.3537
  I  I527  1  0.172650  0.308410  0.337550  1.0  -0.288
  I  I528  1  0.303380  0.148360  0.317970  1.0  -0.3803
  I  I529  1  0.993480  0.196220  0.038970  1.0  -0.426
  I  I530  1  0.929100  0.187760  0.131530  1.0  -0.3254
  I  I531  1  0.443370  0.317970  0.091750  1.0  -0.4059
  I  I532  1  0.518260  0.048900  0.122870  1.0  -0.353
  I  I533  1  0.327350  0.808410  0.337550  1.0  -0.2891
  I  I534  1  0.196620  0.648360  0.317970  1.0  -0.3815
  I  I535  1  0.506520  0.803780  0.538970  1.0  -0.4286
  I  I536  1  0.570900  0.812240  0.631530  1.0  -0.325
  I  I537  1  0.056630  0.682030  0.591750  1.0  -0.4068
  I  I538  1  0.981740  0.951100  0.622870  1.0  -0.353
  I  I539  1  0.172650  0.191590  0.837550  1.0  -0.288
  I  I540  1  0.303380  0.351640  0.817970  1.0  -0.3801
  I  I541  1  0.006520  0.696220  0.461030  1.0  -0.4282
  I  I542  1  0.070900  0.687760  0.368470  1.0  -0.3255
  I  I543  1  0.556630  0.817970  0.408250  1.0  -0.4063
  I  I544  1  0.481740  0.548900  0.377130  1.0  -0.3549
  I  I545  1  0.672650  0.308410  0.162450  1.0  -0.2881
  I  I546  1  0.803380  0.148360  0.182030  1.0  -0.3804
  I  I547  1  0.493480  0.303780  0.961030  1.0  -0.4259
  I  I548  1  0.429100  0.312240  0.868470  1.0  -0.3264
  I  I549  1  0.943370  0.182030  0.908250  1.0  -0.4061
  I  I550  1  0.018260  0.451100  0.877130  1.0  -0.3538
  I  I551  1  0.827350  0.691590  0.662450  1.0  -0.2889
  I  I552  1  0.696620  0.851640  0.682030  1.0  -0.3812
  N  N553  1  0.958400  0.920600  0.890160  1.0  -0.3285
  N  N554  1  0.610800  0.911900  0.891100  1.0  -0.3281
  N  N555  1  0.769300  0.114100  0.714420  1.0  -0.3276
  N  N556  1  0.785000  0.945600  0.862440  1.0  -0.4005
  N  N557  1  0.741000  0.985200  0.818210  1.0  -0.4401
  N  N558  1  0.825500  0.987500  0.816760  1.0  -0.4102
  N  N559  1  0.048000  0.582300  0.049720  1.0  -0.3223
  N  N560  1  0.200800  0.609800  0.855370  1.0  -0.2919
  N  N561  1  0.050600  0.021400  0.921010  1.0  -0.3301
  N  N562  1  0.110800  0.498900  0.946170  1.0  -0.3607
  N  N563  1  0.119100  0.355400  0.917190  1.0  -0.4648
  N  N564  1  0.075100  0.352400  0.962770  1.0  -0.5036
  N  N565  1  0.541600  0.079400  0.390160  1.0  -0.3284
  N  N566  1  0.889200  0.088100  0.391100  1.0  -0.3298
  N  N567  1  0.730700  0.885900  0.214420  1.0  -0.3279
  N  N568  1  0.715000  0.054400  0.362440  1.0  -0.4016
  N  N569  1  0.759000  0.014800  0.318210  1.0  -0.4424
  N  N570  1  0.674500  0.012500  0.316760  1.0  -0.4075
  N  N571  1  0.452000  0.417700  0.549720  1.0  -0.3211
  N  N572  1  0.299200  0.390200  0.355370  1.0  -0.2927
  N  N573  1  0.449400  0.978600  0.421010  1.0  -0.3299
  N  N574  1  0.389200  0.501100  0.446170  1.0  -0.3583
  N  N575  1  0.380900  0.644600  0.417190  1.0  -0.4648
  N  N576  1  0.424900  0.647600  0.462770  1.0  -0.5037
  N  N577  1  0.041600  0.420600  0.609840  1.0  -0.328
  N  N578  1  0.389200  0.411900  0.608900  1.0  -0.3306
  N  N579  1  0.230700  0.614100  0.785580  1.0  -0.3276
  N  N580  1  0.215000  0.445600  0.637560  1.0  -0.4038
  N  N581  1  0.259000  0.485200  0.681790  1.0  -0.4423
  N  N582  1  0.174500  0.487500  0.683240  1.0  -0.4067
  N  N583  1  0.952000  0.082300  0.450280  1.0  -0.3251
  N  N584  1  0.799200  0.109800  0.644630  1.0  -0.2939
  N  N585  1  0.949400  0.521400  0.578990  1.0  -0.3305
  N  N586  1  0.889200  0.998900  0.553830  1.0  -0.36
  N  N587  1  0.880900  0.855400  0.582810  1.0  -0.4654
  N  N588  1  0.924900  0.852400  0.537230  1.0  -0.5031
  N  N589  1  0.458400  0.579400  0.109840  1.0  -0.3284
  N  N590  1  0.110800  0.588100  0.108900  1.0  -0.3274
  N  N591  1  0.269300  0.385900  0.285580  1.0  -0.3276
  N  N592  1  0.285000  0.554400  0.137560  1.0  -0.4032
  N  N593  1  0.241000  0.514800  0.181790  1.0  -0.4402
  N  N594  1  0.325500  0.512500  0.183240  1.0  -0.4101
  N  N595  1  0.548000  0.917700  0.950280  1.0  -0.3258
  N  N596  1  0.700800  0.890200  0.144630  1.0  -0.2904
  N  N597  1  0.550600  0.478600  0.078990  1.0  -0.3295
  N  N598  1  0.610800  0.001100  0.053830  1.0  -0.3586
  N  N599  1  0.619100  0.144600  0.082810  1.0  -0.466
  N  N600  1  0.575100  0.147600  0.037230  1.0  -0.5036
  N  N601  1  0.041600  0.079400  0.109840  1.0  -0.3271
  N  N602  1  0.389200  0.088100  0.108900  1.0  -0.3303
  N  N603  1  0.230700  0.885900  0.285580  1.0  -0.3272
  N  N604  1  0.215000  0.054400  0.137560  1.0  -0.4036
  N  N605  1  0.259000  0.014800  0.181790  1.0  -0.442
  N  N606  1  0.174500  0.012500  0.183240  1.0  -0.4071
  N  N607  1  0.952000  0.417700  0.950280  1.0  -0.3251
  N  N608  1  0.799200  0.390200  0.144630  1.0  -0.2922
  N  N609  1  0.949400  0.978600  0.078990  1.0  -0.3304
  N  N610  1  0.889200  0.501100  0.053830  1.0  -0.3579
  N  N611  1  0.880900  0.644600  0.082810  1.0  -0.4664
  N  N612  1  0.924900  0.647600  0.037230  1.0  -0.5028
  N  N613  1  0.458400  0.920600  0.609840  1.0  -0.3282
  N  N614  1  0.110800  0.911900  0.608900  1.0  -0.3281
  N  N615  1  0.269300  0.114100  0.785580  1.0  -0.3279
  N  N616  1  0.285000  0.945600  0.637560  1.0  -0.4036
  N  N617  1  0.241000  0.985200  0.681790  1.0  -0.4403
  N  N618  1  0.325500  0.987500  0.683240  1.0  -0.4098
  N  N619  1  0.548000  0.582300  0.450280  1.0  -0.3252
  N  N620  1  0.700800  0.609800  0.644630  1.0  -0.2913
  N  N621  1  0.550600  0.021400  0.578990  1.0  -0.3302
  N  N622  1  0.610800  0.498900  0.553830  1.0  -0.3598
  N  N623  1  0.619100  0.355400  0.582810  1.0  -0.4646
  N  N624  1  0.575100  0.352400  0.537230  1.0  -0.5049
  N  N625  1  0.958400  0.579400  0.390160  1.0  -0.3293
  N  N626  1  0.610800  0.588100  0.391100  1.0  -0.3276
  N  N627  1  0.769300  0.385900  0.214420  1.0  -0.3285
  N  N628  1  0.785000  0.554400  0.362440  1.0  -0.4014
  N  N629  1  0.741000  0.514800  0.318210  1.0  -0.4404
  N  N630  1  0.825500  0.512500  0.316760  1.0  -0.4109
  N  N631  1  0.048000  0.917700  0.549720  1.0  -0.3211
  N  N632  1  0.200800  0.890200  0.355370  1.0  -0.2912
  N  N633  1  0.050600  0.478600  0.421010  1.0  -0.3292
  N  N634  1  0.110800  0.001100  0.446170  1.0  -0.3594
  N  N635  1  0.119100  0.144600  0.417190  1.0  -0.4648
  N  N636  1  0.075100  0.147600  0.462770  1.0  -0.5035
  N  N637  1  0.541600  0.420600  0.890160  1.0  -0.3286
  N  N638  1  0.889200  0.411900  0.891100  1.0  -0.33
  N  N639  1  0.730700  0.614100  0.714420  1.0  -0.3274
  N  N640  1  0.715000  0.445600  0.862440  1.0  -0.4007
  N  N641  1  0.759000  0.485200  0.818210  1.0  -0.4423
  N  N642  1  0.674500  0.487500  0.816760  1.0  -0.4069
  N  N643  1  0.452000  0.082300  0.049720  1.0  -0.3227
  N  N644  1  0.299200  0.109800  0.855370  1.0  -0.2937
  N  N645  1  0.449400  0.521400  0.921010  1.0  -0.3303
  N  N646  1  0.389200  0.998900  0.946170  1.0  -0.3606
  N  N647  1  0.380900  0.855400  0.917190  1.0  -0.4647
  N  N648  1  0.424900  0.852400  0.962770  1.0  -0.5027
