# generated using pymatgen
data_ZnH8C12(IN2)2
_symmetry_space_group_name_H-M   'P 1'
_cell_length_a   13.78500000
_cell_length_b   27.11000000
_cell_length_c   45.81400000
_cell_angle_alpha   90.00000000
_cell_angle_beta   90.00000000
_cell_angle_gamma   90.00000000
_symmetry_Int_Tables_number   1
_chemical_formula_structural   ZnH8C12(IN2)2
_chemical_formula_sum   'Zn24 H192 C288 I48 N96'
_cell_volume   17121.21178890
_cell_formula_units_Z   24
loop_
 _symmetry_equiv_pos_site_id
 _symmetry_equiv_pos_as_xyz
  1  'x, y, z'
loop_
 _atom_site_type_symbol
 _atom_site_label
 _atom_site_symmetry_multiplicity
 _atom_site_fract_x
 _atom_site_fract_y
 _atom_site_fract_z
 _atom_site_occupancy
 _atom_site_charge
  Zn  Zn1  1  0.345580  0.756560  0.688660  1.0  0.9224
  Zn  Zn2  1  0.643120  0.032710  0.916890  1.0  0.8355
  Zn  Zn3  1  0.646190  0.551030  0.925990  1.0  0.8616
  Zn  Zn4  1  0.654420  0.743440  0.188660  1.0  0.9227
  Zn  Zn5  1  0.356880  0.467290  0.416890  1.0  0.8353
  Zn  Zn6  1  0.353810  0.948970  0.425990  1.0  0.8613
  Zn  Zn7  1  0.845580  0.243440  0.811340  1.0  0.9219
  Zn  Zn8  1  0.143120  0.967290  0.583110  1.0  0.8346
  Zn  Zn9  1  0.146190  0.448970  0.574010  1.0  0.8627
  Zn  Zn10  1  0.154420  0.256560  0.311340  1.0  0.9232
  Zn  Zn11  1  0.856880  0.532710  0.083110  1.0  0.8335
  Zn  Zn12  1  0.853810  0.051030  0.074010  1.0  0.8621
  Zn  Zn13  1  0.654420  0.243440  0.311340  1.0  0.9229
  Zn  Zn14  1  0.356880  0.967290  0.083110  1.0  0.8337
  Zn  Zn15  1  0.353810  0.448970  0.074010  1.0  0.8609
  Zn  Zn16  1  0.345580  0.256560  0.811340  1.0  0.9227
  Zn  Zn17  1  0.643120  0.532710  0.583110  1.0  0.8348
  Zn  Zn18  1  0.646190  0.051030  0.574010  1.0  0.8625
  Zn  Zn19  1  0.154420  0.756560  0.188660  1.0  0.923
  Zn  Zn20  1  0.856880  0.032710  0.416890  1.0  0.8344
  Zn  Zn21  1  0.853810  0.551030  0.425990  1.0  0.8615
  Zn  Zn22  1  0.845580  0.743440  0.688660  1.0  0.9217
  Zn  Zn23  1  0.143120  0.467290  0.916890  1.0  0.8357
  Zn  Zn24  1  0.146190  0.948970  0.925990  1.0  0.8625
  H  H25  1  0.443800  0.695400  0.733400  1.0  0.0887
  H  H26  1  0.500500  0.702800  0.781900  1.0  0.1202
  H  H27  1  0.489500  0.851100  0.771800  1.0  0.1121
  H  H28  1  0.419700  0.840000  0.727300  1.0  0.0875
  H  H29  1  0.606100  0.996500  0.855600  1.0  0.0927
  H  H30  1  0.576100  0.921900  0.830500  1.0  0.1118
  H  H31  1  0.577400  0.853100  0.907600  1.0  0.1025
  H  H32  1  0.606000  0.926800  0.931000  1.0  0.1029
  H  H33  1  0.630200  0.660100  0.936600  1.0  0.0852
  H  H34  1  0.608500  0.732900  0.913000  1.0  0.1159
  H  H35  1  0.550400  0.652200  0.839000  1.0  0.1129
  H  H36  1  0.584500  0.583700  0.866500  1.0  0.0697
  H  H37  1  0.553000  0.953800  0.451000  1.0  0.0654
  H  H38  1  0.640700  0.935400  0.492500  1.0  0.1218
  H  H39  1  0.389500  0.885600  0.528600  1.0  0.1232
  H  H40  1  0.310800  0.909200  0.485800  1.0  0.0833
  H  H41  1  0.312500  0.796200  0.630700  1.0  0.0958
  H  H42  1  0.397800  0.830600  0.590800  1.0  0.1178
  H  H43  1  0.642800  0.817800  0.635500  1.0  0.1047
  H  H44  1  0.558100  0.784000  0.674200  1.0  0.1022
  H  H45  1  0.995100  0.910700  0.617100  1.0  0.0899
  H  H46  1  0.839800  0.880300  0.612100  1.0  0.1067
  H  H47  1  0.831900  0.928900  0.529000  1.0  0.1139
  H  H48  1  0.996800  0.954100  0.533900  1.0  0.1132
  H  H49  1  0.556200  0.804600  0.233400  1.0  0.0882
  H  H50  1  0.499500  0.797200  0.281900  1.0  0.1198
  H  H51  1  0.510500  0.648900  0.271800  1.0  0.112
  H  H52  1  0.580300  0.660000  0.227300  1.0  0.0882
  H  H53  1  0.393900  0.503500  0.355600  1.0  0.0926
  H  H54  1  0.423900  0.578100  0.330500  1.0  0.1116
  H  H55  1  0.422600  0.646900  0.407600  1.0  0.1026
  H  H56  1  0.394000  0.573200  0.431000  1.0  0.103
  H  H57  1  0.369800  0.839900  0.436600  1.0  0.0853
  H  H58  1  0.391500  0.767100  0.413000  1.0  0.1156
  H  H59  1  0.449600  0.847800  0.339000  1.0  0.1132
  H  H60  1  0.415500  0.916300  0.366500  1.0  0.0696
  H  H61  1  0.447000  0.546200  0.951000  1.0  0.0648
  H  H62  1  0.359300  0.564600  0.992500  1.0  0.1218
  H  H63  1  0.610500  0.614400  0.028600  1.0  0.1226
  H  H64  1  0.689200  0.590800  0.985800  1.0  0.0834
  H  H65  1  0.687500  0.703800  0.130700  1.0  0.0956
  H  H66  1  0.602200  0.669400  0.090800  1.0  0.118
  H  H67  1  0.357200  0.682200  0.135500  1.0  0.106
  H  H68  1  0.441900  0.716000  0.174200  1.0  0.1024
  H  H69  1  0.004900  0.589300  0.117100  1.0  0.0896
  H  H70  1  0.160200  0.619700  0.112100  1.0  0.1065
  H  H71  1  0.168100  0.571100  0.029000  1.0  0.1143
  H  H72  1  0.003200  0.545900  0.033900  1.0  0.1137
  H  H73  1  0.943800  0.304600  0.766600  1.0  0.0892
  H  H74  1  0.000500  0.297200  0.718100  1.0  0.1198
  H  H75  1  0.989500  0.148900  0.728200  1.0  0.1123
  H  H76  1  0.919700  0.160000  0.772700  1.0  0.088
  H  H77  1  0.106100  0.003500  0.644400  1.0  0.093
  H  H78  1  0.076100  0.078100  0.669500  1.0  0.1117
  H  H79  1  0.077400  0.146900  0.592400  1.0  0.1026
  H  H80  1  0.106000  0.073200  0.569000  1.0  0.1021
  H  H81  1  0.130200  0.339900  0.563400  1.0  0.0855
  H  H82  1  0.108500  0.267100  0.587000  1.0  0.1157
  H  H83  1  0.050400  0.347800  0.661000  1.0  0.113
  H  H84  1  0.084500  0.416300  0.633500  1.0  0.0702
  H  H85  1  0.053000  0.046200  0.049000  1.0  0.0657
  H  H86  1  0.140700  0.064600  0.007500  1.0  0.1217
  H  H87  1  0.889500  0.114400  0.971400  1.0  0.1225
  H  H88  1  0.810800  0.090800  0.014200  1.0  0.0831
  H  H89  1  0.812500  0.203800  0.869300  1.0  0.0958
  H  H90  1  0.897800  0.169400  0.909200  1.0  0.1184
  H  H91  1  0.142800  0.182200  0.864500  1.0  0.1043
  H  H92  1  0.058100  0.216000  0.825800  1.0  0.1023
  H  H93  1  0.495100  0.089300  0.882900  1.0  0.0898
  H  H94  1  0.339800  0.119700  0.887900  1.0  0.1068
  H  H95  1  0.331900  0.071100  0.971000  1.0  0.1139
  H  H96  1  0.496800  0.045900  0.966100  1.0  0.1138
  H  H97  1  0.056200  0.195400  0.266600  1.0  0.0894
  H  H98  1  0.999500  0.202800  0.218100  1.0  0.1199
  H  H99  1  0.010500  0.351100  0.228200  1.0  0.1124
  H  H100  1  0.080300  0.340000  0.272700  1.0  0.0869
  H  H101  1  0.893900  0.496500  0.144400  1.0  0.0932
  H  H102  1  0.923900  0.421900  0.169500  1.0  0.1119
  H  H103  1  0.922600  0.353100  0.092400  1.0  0.1028
  H  H104  1  0.894000  0.426800  0.069000  1.0  0.1021
  H  H105  1  0.869800  0.160100  0.063400  1.0  0.0852
  H  H106  1  0.891500  0.232900  0.087000  1.0  0.116
  H  H107  1  0.949600  0.152200  0.161000  1.0  0.113
  H  H108  1  0.915500  0.083700  0.133500  1.0  0.0702
  H  H109  1  0.947000  0.453800  0.549000  1.0  0.0667
  H  H110  1  0.859300  0.435400  0.507500  1.0  0.1216
  H  H111  1  0.110500  0.385600  0.471400  1.0  0.1223
  H  H112  1  0.189200  0.409200  0.514200  1.0  0.083
  H  H113  1  0.187500  0.296200  0.369300  1.0  0.0953
  H  H114  1  0.102200  0.330600  0.409200  1.0  0.1183
  H  H115  1  0.857200  0.317800  0.364500  1.0  0.1056
  H  H116  1  0.941900  0.284000  0.325800  1.0  0.102
  H  H117  1  0.504900  0.410700  0.382900  1.0  0.0894
  H  H118  1  0.660200  0.380300  0.387900  1.0  0.1068
  H  H119  1  0.668100  0.428900  0.471000  1.0  0.1145
  H  H120  1  0.503200  0.454100  0.466100  1.0  0.1139
  H  H121  1  0.556200  0.304600  0.266600  1.0  0.089
  H  H122  1  0.499500  0.297200  0.218100  1.0  0.1198
  H  H123  1  0.510500  0.148900  0.228200  1.0  0.1121
  H  H124  1  0.580300  0.160000  0.272700  1.0  0.0882
  H  H125  1  0.393900  0.003500  0.144400  1.0  0.0933
  H  H126  1  0.423900  0.078100  0.169500  1.0  0.1118
  H  H127  1  0.422600  0.146900  0.092400  1.0  0.1027
  H  H128  1  0.394000  0.073200  0.069000  1.0  0.1021
  H  H129  1  0.369800  0.339900  0.063400  1.0  0.0856
  H  H130  1  0.391500  0.267100  0.087000  1.0  0.1157
  H  H131  1  0.449600  0.347800  0.161000  1.0  0.1132
  H  H132  1  0.415500  0.416300  0.133500  1.0  0.0703
  H  H133  1  0.447000  0.046200  0.549000  1.0  0.0664
  H  H134  1  0.359300  0.064600  0.507500  1.0  0.1219
  H  H135  1  0.610500  0.114400  0.471400  1.0  0.1225
  H  H136  1  0.689200  0.090800  0.514200  1.0  0.0833
  H  H137  1  0.687500  0.203800  0.369300  1.0  0.0954
  H  H138  1  0.602200  0.169400  0.409200  1.0  0.1182
  H  H139  1  0.357200  0.182200  0.364500  1.0  0.1056
  H  H140  1  0.441900  0.216000  0.325800  1.0  0.1022
  H  H141  1  0.004900  0.089300  0.382900  1.0  0.0895
  H  H142  1  0.160200  0.119700  0.387900  1.0  0.1066
  H  H143  1  0.168100  0.071100  0.471000  1.0  0.1147
  H  H144  1  0.003200  0.045900  0.466100  1.0  0.1139
  H  H145  1  0.443800  0.195400  0.766600  1.0  0.0893
  H  H146  1  0.500500  0.202800  0.718100  1.0  0.1201
  H  H147  1  0.489500  0.351100  0.728200  1.0  0.1123
  H  H148  1  0.419700  0.340000  0.772700  1.0  0.0871
  H  H149  1  0.606100  0.496500  0.644400  1.0  0.0933
  H  H150  1  0.576100  0.421900  0.669500  1.0  0.1117
  H  H151  1  0.577400  0.353100  0.592400  1.0  0.1027
  H  H152  1  0.606000  0.426800  0.569000  1.0  0.1023
  H  H153  1  0.630200  0.160100  0.563400  1.0  0.0855
  H  H154  1  0.608500  0.232900  0.587000  1.0  0.1161
  H  H155  1  0.550400  0.152200  0.661000  1.0  0.1129
  H  H156  1  0.584500  0.083700  0.633500  1.0  0.0701
  H  H157  1  0.553000  0.453800  0.049000  1.0  0.066
  H  H158  1  0.640700  0.435400  0.007500  1.0  0.1218
  H  H159  1  0.389500  0.385600  0.971400  1.0  0.1225
  H  H160  1  0.310800  0.409200  0.014200  1.0  0.083
  H  H161  1  0.312500  0.296200  0.869300  1.0  0.0958
  H  H162  1  0.397800  0.330600  0.909200  1.0  0.1185
  H  H163  1  0.642800  0.317800  0.864500  1.0  0.1044
  H  H164  1  0.558100  0.284000  0.825800  1.0  0.1022
  H  H165  1  0.995100  0.410700  0.882900  1.0  0.0898
  H  H166  1  0.839800  0.380300  0.887900  1.0  0.1067
  H  H167  1  0.831900  0.428900  0.971000  1.0  0.1138
  H  H168  1  0.996800  0.454100  0.966100  1.0  0.1135
  H  H169  1  0.056200  0.695400  0.233400  1.0  0.0889
  H  H170  1  0.999500  0.702800  0.281900  1.0  0.12
  H  H171  1  0.010500  0.851100  0.271800  1.0  0.1121
  H  H172  1  0.080300  0.840000  0.227300  1.0  0.0872
  H  H173  1  0.893900  0.996500  0.355600  1.0  0.0926
  H  H174  1  0.923900  0.921900  0.330500  1.0  0.1118
  H  H175  1  0.922600  0.853100  0.407600  1.0  0.1026
  H  H176  1  0.894000  0.926800  0.431000  1.0  0.1027
  H  H177  1  0.869800  0.660100  0.436600  1.0  0.085
  H  H178  1  0.891500  0.732900  0.413000  1.0  0.1157
  H  H179  1  0.949600  0.652200  0.339000  1.0  0.1129
  H  H180  1  0.915500  0.583700  0.366500  1.0  0.0697
  H  H181  1  0.947000  0.953800  0.951000  1.0  0.0652
  H  H182  1  0.859300  0.935400  0.992500  1.0  0.1216
  H  H183  1  0.110500  0.885600  0.028600  1.0  0.1226
  H  H184  1  0.189200  0.909200  0.985800  1.0  0.0834
  H  H185  1  0.187500  0.796200  0.130700  1.0  0.0954
  H  H186  1  0.102200  0.830600  0.090800  1.0  0.118
  H  H187  1  0.857200  0.817800  0.135500  1.0  0.1059
  H  H188  1  0.941900  0.784000  0.174200  1.0  0.1024
  H  H189  1  0.504900  0.910700  0.117100  1.0  0.0897
  H  H190  1  0.660200  0.880300  0.112100  1.0  0.1067
  H  H191  1  0.668100  0.928900  0.029000  1.0  0.1144
  H  H192  1  0.503200  0.954100  0.033900  1.0  0.1133
  H  H193  1  0.943800  0.804600  0.733400  1.0  0.0884
  H  H194  1  0.000500  0.797200  0.781900  1.0  0.1199
  H  H195  1  0.989500  0.648900  0.771800  1.0  0.1122
  H  H196  1  0.919700  0.660000  0.727300  1.0  0.088
  H  H197  1  0.106100  0.503500  0.855600  1.0  0.0927
  H  H198  1  0.076100  0.578100  0.830500  1.0  0.1117
  H  H199  1  0.077400  0.646900  0.907600  1.0  0.1023
  H  H200  1  0.106000  0.573200  0.931000  1.0  0.103
  H  H201  1  0.130200  0.839900  0.936600  1.0  0.0853
  H  H202  1  0.108500  0.767100  0.913000  1.0  0.1156
  H  H203  1  0.050400  0.847800  0.839000  1.0  0.1131
  H  H204  1  0.084500  0.916300  0.866500  1.0  0.0696
  H  H205  1  0.053000  0.546200  0.451000  1.0  0.065
  H  H206  1  0.140700  0.564600  0.492500  1.0  0.1218
  H  H207  1  0.889500  0.614400  0.528600  1.0  0.1229
  H  H208  1  0.810800  0.590800  0.485800  1.0  0.0829
  H  H209  1  0.812500  0.703800  0.630700  1.0  0.0958
  H  H210  1  0.897800  0.669400  0.590800  1.0  0.1178
  H  H211  1  0.142800  0.682200  0.635500  1.0  0.1047
  H  H212  1  0.058100  0.716000  0.674200  1.0  0.1023
  H  H213  1  0.495100  0.589300  0.617100  1.0  0.0897
  H  H214  1  0.339800  0.619700  0.612100  1.0  0.1066
  H  H215  1  0.331900  0.571100  0.529000  1.0  0.1138
  H  H216  1  0.496800  0.545900  0.533900  1.0  0.1139
  C  C217  1  0.451100  0.727400  0.741700  1.0  0.1188
  C  C218  1  0.485700  0.731200  0.770500  1.0  -0.1025
  C  C219  1  0.497400  0.778700  0.781700  1.0  -0.1346
  C  C220  1  0.477100  0.818800  0.764700  1.0  -0.1595
  C  C221  1  0.439600  0.811900  0.738100  1.0  0.1292
  C  C222  1  0.600100  0.966600  0.866300  1.0  0.122
  C  C223  1  0.582800  0.922000  0.851100  1.0  -0.1096
  C  C224  1  0.576000  0.879100  0.866700  1.0  -0.1178
  C  C225  1  0.583700  0.882300  0.896300  1.0  -0.0803
  C  C226  1  0.600200  0.926100  0.910300  1.0  0.1035
  C  C227  1  0.615600  0.659300  0.916300  1.0  0.1615
  C  C228  1  0.602000  0.702500  0.902900  1.0  -0.1447
  C  C229  1  0.577000  0.700700  0.872700  1.0  -0.1099
  C  C230  1  0.568500  0.655100  0.858900  1.0  -0.1208
  C  C231  1  0.587900  0.614900  0.875900  1.0  0.1621
  C  C232  1  0.527500  0.784200  0.813100  1.0  0.3681
  C  C233  1  0.561800  0.829700  0.852000  1.0  0.3715
  C  C234  1  0.561200  0.746700  0.856000  1.0  0.3842
  C  C235  1  0.519400  0.940300  0.467200  1.0  0.1386
  C  C236  1  0.573400  0.928200  0.491500  1.0  -0.1457
  C  C237  1  0.525500  0.904900  0.514700  1.0  -0.0682
  C  C238  1  0.425400  0.899200  0.512900  1.0  -0.1589
  C  C239  1  0.378900  0.914100  0.487200  1.0  0.1392
  C  C240  1  0.380400  0.801500  0.632200  1.0  0.1067
  C  C241  1  0.431000  0.822400  0.608300  1.0  -0.089
  C  C242  1  0.527700  0.830500  0.610800  1.0  -0.1608
  C  C243  1  0.574200  0.814900  0.634500  1.0  -0.0939
  C  C244  1  0.523900  0.794600  0.657300  1.0  0.1157
  C  C245  1  0.963000  0.914200  0.598900  1.0  0.1192
  C  C246  1  0.869900  0.896100  0.596000  1.0  -0.0733
  C  C247  1  0.820300  0.900700  0.570400  1.0  -0.1311
  C  C248  1  0.865700  0.924000  0.546900  1.0  -0.0298
  C  C249  1  0.962800  0.940300  0.550000  1.0  0.1165
  C  C250  1  0.580100  0.887800  0.541300  1.0  0.3923
  C  C251  1  0.580000  0.853500  0.584900  1.0  0.3699
  C  C252  1  0.716400  0.886400  0.566800  1.0  0.4006
  C  C253  1  0.548900  0.772600  0.241700  1.0  0.1177
  C  C254  1  0.514300  0.768800  0.270500  1.0  -0.1022
  C  C255  1  0.502600  0.721300  0.281700  1.0  -0.135
  C  C256  1  0.522900  0.681200  0.264700  1.0  -0.1594
  C  C257  1  0.560400  0.688100  0.238100  1.0  0.1285
  C  C258  1  0.399900  0.533400  0.366300  1.0  0.1226
  C  C259  1  0.417200  0.578000  0.351100  1.0  -0.1089
  C  C260  1  0.424000  0.620900  0.366700  1.0  -0.1193
  C  C261  1  0.416300  0.617700  0.396300  1.0  -0.08
  C  C262  1  0.399800  0.573900  0.410300  1.0  0.1035
  C  C263  1  0.384400  0.840700  0.416300  1.0  0.1613
  C  C264  1  0.398000  0.797500  0.402900  1.0  -0.1458
  C  C265  1  0.423000  0.799300  0.372700  1.0  -0.1094
  C  C266  1  0.431500  0.844900  0.358900  1.0  -0.1203
  C  C267  1  0.412100  0.885100  0.375900  1.0  0.1613
  C  C268  1  0.472500  0.715800  0.313100  1.0  0.3681
  C  C269  1  0.438200  0.670300  0.352000  1.0  0.3723
  C  C270  1  0.438800  0.753300  0.356000  1.0  0.384
  C  C271  1  0.480600  0.559700  0.967200  1.0  0.1393
  C  C272  1  0.426600  0.571800  0.991500  1.0  -0.1487
  C  C273  1  0.474500  0.595100  0.014700  1.0  -0.0687
  C  C274  1  0.574600  0.600800  0.012900  1.0  -0.1581
  C  C275  1  0.621100  0.585900  0.987200  1.0  0.138
  C  C276  1  0.619600  0.698500  0.132200  1.0  0.1064
  C  C277  1  0.569000  0.677600  0.108300  1.0  -0.0884
  C  C278  1  0.472300  0.669500  0.110800  1.0  -0.1613
  C  C279  1  0.425800  0.685100  0.134500  1.0  -0.094
  C  C280  1  0.476100  0.705400  0.157300  1.0  0.1154
  C  C281  1  0.037000  0.585800  0.098900  1.0  0.1185
  C  C282  1  0.130100  0.603900  0.096000  1.0  -0.0746
  C  C283  1  0.179700  0.599300  0.070400  1.0  -0.1306
  C  C284  1  0.134300  0.576000  0.046900  1.0  -0.029
  C  C285  1  0.037200  0.559700  0.050000  1.0  0.1167
  C  C286  1  0.419900  0.612200  0.041300  1.0  0.3924
  C  C287  1  0.420000  0.646500  0.084900  1.0  0.3702
  C  C288  1  0.283600  0.613600  0.066800  1.0  0.401
  C  C289  1  0.951100  0.272600  0.758300  1.0  0.1173
  C  C290  1  0.985700  0.268800  0.729500  1.0  -0.1013
  C  C291  1  0.997400  0.221300  0.718300  1.0  -0.1344
  C  C292  1  0.977100  0.181200  0.735300  1.0  -0.1587
  C  C293  1  0.939600  0.188100  0.761900  1.0  0.1285
  C  C294  1  0.100100  0.033400  0.633700  1.0  0.1239
  C  C295  1  0.082800  0.078000  0.648900  1.0  -0.112
  C  C296  1  0.076000  0.120900  0.633300  1.0  -0.119
  C  C297  1  0.083700  0.117700  0.603700  1.0  -0.0788
  C  C298  1  0.100200  0.073900  0.589700  1.0  0.1032
  C  C299  1  0.115600  0.340700  0.583700  1.0  0.1603
  C  C300  1  0.102000  0.297500  0.597100  1.0  -0.1465
  C  C301  1  0.077000  0.299300  0.627300  1.0  -0.1091
  C  C302  1  0.068500  0.344900  0.641100  1.0  -0.121
  C  C303  1  0.087900  0.385100  0.624100  1.0  0.1621
  C  C304  1  0.027500  0.215800  0.686900  1.0  0.3681
  C  C305  1  0.061800  0.170300  0.648000  1.0  0.3725
  C  C306  1  0.061200  0.253300  0.644000  1.0  0.3838
  C  C307  1  0.019400  0.059700  0.032800  1.0  0.1394
  C  C308  1  0.073400  0.071800  0.008500  1.0  -0.1475
  C  C309  1  0.025500  0.095100  0.985300  1.0  -0.0675
  C  C310  1  0.925400  0.100800  0.987100  1.0  -0.1576
  C  C311  1  0.878900  0.085900  0.012800  1.0  0.1389
  C  C312  1  0.880400  0.198500  0.867800  1.0  0.1065
  C  C313  1  0.931000  0.177600  0.891700  1.0  -0.0893
  C  C314  1  0.027700  0.169500  0.889200  1.0  -0.1613
  C  C315  1  0.074200  0.185100  0.865500  1.0  -0.0938
  C  C316  1  0.023900  0.205400  0.842700  1.0  0.1155
  C  C317  1  0.463000  0.085800  0.901100  1.0  0.1184
  C  C318  1  0.369900  0.103900  0.904000  1.0  -0.0732
  C  C319  1  0.320300  0.099300  0.929600  1.0  -0.13
  C  C320  1  0.365700  0.076000  0.953100  1.0  -0.0298
  C  C321  1  0.462800  0.059700  0.950000  1.0  0.1174
  C  C322  1  0.080100  0.112200  0.958700  1.0  0.3921
  C  C323  1  0.080000  0.146500  0.915100  1.0  0.3703
  C  C324  1  0.216400  0.113600  0.933200  1.0  0.4006
  C  C325  1  0.048900  0.227400  0.258300  1.0  0.1183
  C  C326  1  0.014300  0.231200  0.229500  1.0  -0.1025
  C  C327  1  0.002600  0.278700  0.218300  1.0  -0.1346
  C  C328  1  0.022900  0.318800  0.235300  1.0  -0.1588
  C  C329  1  0.060400  0.311900  0.261900  1.0  0.1298
  C  C330  1  0.899900  0.466600  0.133700  1.0  0.1231
  C  C331  1  0.917200  0.422000  0.148900  1.0  -0.1113
  C  C332  1  0.924000  0.379100  0.133300  1.0  -0.1174
  C  C333  1  0.916300  0.382300  0.103700  1.0  -0.0796
  C  C334  1  0.899800  0.426100  0.089700  1.0  0.1044
  C  C335  1  0.884400  0.159300  0.083700  1.0  0.1595
  C  C336  1  0.898000  0.202500  0.097100  1.0  -0.1457
  C  C337  1  0.923000  0.200700  0.127300  1.0  -0.1105
  C  C338  1  0.931500  0.155100  0.141100  1.0  -0.1204
  C  C339  1  0.912100  0.114900  0.124100  1.0  0.1623
  C  C340  1  0.972500  0.284200  0.186900  1.0  0.3682
  C  C341  1  0.938200  0.329700  0.148000  1.0  0.3715
  C  C342  1  0.938800  0.246700  0.144000  1.0  0.384
  C  C343  1  0.980600  0.440300  0.532800  1.0  0.1391
  C  C344  1  0.926600  0.428200  0.508500  1.0  -0.149
  C  C345  1  0.974500  0.404900  0.485300  1.0  -0.0691
  C  C346  1  0.074600  0.399200  0.487100  1.0  -0.1577
  C  C347  1  0.121100  0.414100  0.512800  1.0  0.138
  C  C348  1  0.119600  0.301500  0.367800  1.0  0.1062
  C  C349  1  0.069000  0.322400  0.391700  1.0  -0.0885
  C  C350  1  0.972300  0.330500  0.389200  1.0  -0.1617
  C  C351  1  0.925800  0.314900  0.365500  1.0  -0.0936
  C  C352  1  0.976100  0.294600  0.342700  1.0  0.1154
  C  C353  1  0.537000  0.414200  0.401100  1.0  0.1193
  C  C354  1  0.630100  0.396100  0.404000  1.0  -0.0739
  C  C355  1  0.679700  0.400700  0.429600  1.0  -0.1316
  C  C356  1  0.634300  0.424000  0.453100  1.0  -0.0295
  C  C357  1  0.537200  0.440300  0.450000  1.0  0.1151
  C  C358  1  0.919900  0.387800  0.458700  1.0  0.3926
  C  C359  1  0.920000  0.353500  0.415100  1.0  0.3701
  C  C360  1  0.783600  0.386400  0.433200  1.0  0.4003
  C  C361  1  0.548900  0.272600  0.258300  1.0  0.1176
  C  C362  1  0.514300  0.268800  0.229500  1.0  -0.1017
  C  C363  1  0.502600  0.221300  0.218300  1.0  -0.1348
  C  C364  1  0.522900  0.181200  0.235300  1.0  -0.1589
  C  C365  1  0.560400  0.188100  0.261900  1.0  0.1294
  C  C366  1  0.399900  0.033400  0.133700  1.0  0.124
  C  C367  1  0.417200  0.078000  0.148900  1.0  -0.1115
  C  C368  1  0.424000  0.120900  0.133300  1.0  -0.1191
  C  C369  1  0.416300  0.117700  0.103700  1.0  -0.0797
  C  C370  1  0.399800  0.073900  0.089700  1.0  0.1044
  C  C371  1  0.384400  0.340700  0.083700  1.0  0.1598
  C  C372  1  0.398000  0.297500  0.097100  1.0  -0.1458
  C  C373  1  0.423000  0.299300  0.127300  1.0  -0.1093
  C  C374  1  0.431500  0.344900  0.141100  1.0  -0.1199
  C  C375  1  0.412100  0.385100  0.124100  1.0  0.1621
  C  C376  1  0.472500  0.215800  0.186900  1.0  0.3681
  C  C377  1  0.438200  0.170300  0.148000  1.0  0.3725
  C  C378  1  0.438800  0.253300  0.144000  1.0  0.3838
  C  C379  1  0.480600  0.059700  0.532800  1.0  0.1391
  C  C380  1  0.426600  0.071800  0.508500  1.0  -0.15
  C  C381  1  0.474500  0.095100  0.485300  1.0  -0.0686
  C  C382  1  0.574600  0.100800  0.487100  1.0  -0.1566
  C  C383  1  0.621100  0.085900  0.512800  1.0  0.1384
  C  C384  1  0.619600  0.198500  0.367800  1.0  0.1064
  C  C385  1  0.569000  0.177600  0.391700  1.0  -0.0885
  C  C386  1  0.472300  0.169500  0.389200  1.0  -0.1614
  C  C387  1  0.425800  0.185100  0.365500  1.0  -0.0939
  C  C388  1  0.476100  0.205400  0.342700  1.0  0.116
  C  C389  1  0.037000  0.085800  0.401100  1.0  0.1191
  C  C390  1  0.130100  0.103900  0.404000  1.0  -0.0739
  C  C391  1  0.179700  0.099300  0.429600  1.0  -0.1306
  C  C392  1  0.134300  0.076000  0.453100  1.0  -0.0294
  C  C393  1  0.037200  0.059700  0.450000  1.0  0.115
  C  C394  1  0.419900  0.112200  0.458700  1.0  0.3923
  C  C395  1  0.420000  0.146500  0.415100  1.0  0.3703
  C  C396  1  0.283600  0.113600  0.433200  1.0  0.4007
  C  C397  1  0.451100  0.227400  0.758300  1.0  0.1186
  C  C398  1  0.485700  0.231200  0.729500  1.0  -0.1022
  C  C399  1  0.497400  0.278700  0.718300  1.0  -0.1343
  C  C400  1  0.477100  0.318800  0.735300  1.0  -0.159
  C  C401  1  0.439600  0.311900  0.761900  1.0  0.1287
  C  C402  1  0.600100  0.466600  0.633700  1.0  0.1236
  C  C403  1  0.582800  0.422000  0.648900  1.0  -0.1116
  C  C404  1  0.576000  0.379100  0.633300  1.0  -0.1174
  C  C405  1  0.583700  0.382300  0.603700  1.0  -0.0788
  C  C406  1  0.600200  0.426100  0.589700  1.0  0.1034
  C  C407  1  0.615600  0.159300  0.583700  1.0  0.16
  C  C408  1  0.602000  0.202500  0.597100  1.0  -0.1458
  C  C409  1  0.577000  0.200700  0.627300  1.0  -0.1102
  C  C410  1  0.568500  0.155100  0.641100  1.0  -0.1213
  C  C411  1  0.587900  0.114900  0.624100  1.0  0.1621
  C  C412  1  0.527500  0.284200  0.686900  1.0  0.3681
  C  C413  1  0.561800  0.329700  0.648000  1.0  0.3716
  C  C414  1  0.561200  0.246700  0.644000  1.0  0.3839
  C  C415  1  0.519400  0.440300  0.032800  1.0  0.1392
  C  C416  1  0.573400  0.428200  0.008500  1.0  -0.1471
  C  C417  1  0.525500  0.404900  0.985300  1.0  -0.0679
  C  C418  1  0.425400  0.399200  0.987100  1.0  -0.1586
  C  C419  1  0.378900  0.414100  0.012800  1.0  0.1389
  C  C420  1  0.380400  0.301500  0.867800  1.0  0.1067
  C  C421  1  0.431000  0.322400  0.891700  1.0  -0.0892
  C  C422  1  0.527700  0.330500  0.889200  1.0  -0.1615
  C  C423  1  0.574200  0.314900  0.865500  1.0  -0.0937
  C  C424  1  0.523900  0.294600  0.842700  1.0  0.1151
  C  C425  1  0.963000  0.414200  0.901100  1.0  0.1187
  C  C426  1  0.869900  0.396100  0.904000  1.0  -0.0733
  C  C427  1  0.820300  0.400700  0.929600  1.0  -0.1311
  C  C428  1  0.865700  0.424000  0.953100  1.0  -0.0298
  C  C429  1  0.962800  0.440300  0.950000  1.0  0.1176
  C  C430  1  0.580100  0.387800  0.958700  1.0  0.3921
  C  C431  1  0.580000  0.353500  0.915100  1.0  0.37
  C  C432  1  0.716400  0.386400  0.933200  1.0  0.4004
  C  C433  1  0.048900  0.727400  0.241700  1.0  0.1182
  C  C434  1  0.014300  0.731200  0.270500  1.0  -0.103
  C  C435  1  0.002600  0.778700  0.281700  1.0  -0.1348
  C  C436  1  0.022900  0.818800  0.264700  1.0  -0.1591
  C  C437  1  0.060400  0.811900  0.238100  1.0  0.1299
  C  C438  1  0.899900  0.966600  0.366300  1.0  0.1225
  C  C439  1  0.917200  0.922000  0.351100  1.0  -0.1096
  C  C440  1  0.924000  0.879100  0.366700  1.0  -0.1177
  C  C441  1  0.916300  0.882300  0.396300  1.0  -0.0808
  C  C442  1  0.899800  0.926100  0.410300  1.0  0.1031
  C  C443  1  0.884400  0.659300  0.416300  1.0  0.1608
  C  C444  1  0.898000  0.702500  0.402900  1.0  -0.1457
  C  C445  1  0.923000  0.700700  0.372700  1.0  -0.1101
  C  C446  1  0.931500  0.655100  0.358900  1.0  -0.1206
  C  C447  1  0.912100  0.614900  0.375900  1.0  0.1622
  C  C448  1  0.972500  0.784200  0.313100  1.0  0.3681
  C  C449  1  0.938200  0.829700  0.352000  1.0  0.3714
  C  C450  1  0.938800  0.746700  0.356000  1.0  0.3842
  C  C451  1  0.980600  0.940300  0.967200  1.0  0.1393
  C  C452  1  0.926600  0.928200  0.991500  1.0  -0.1479
  C  C453  1  0.974500  0.904900  0.014700  1.0  -0.0694
  C  C454  1  0.074600  0.899200  0.012900  1.0  -0.1579
  C  C455  1  0.121100  0.914100  0.987200  1.0  0.1376
  C  C456  1  0.119600  0.801500  0.132200  1.0  0.1063
  C  C457  1  0.069000  0.822400  0.108300  1.0  -0.0883
  C  C458  1  0.972300  0.830500  0.110800  1.0  -0.1612
  C  C459  1  0.925800  0.814900  0.134500  1.0  -0.0938
  C  C460  1  0.976100  0.794600  0.157300  1.0  0.1154
  C  C461  1  0.537000  0.914200  0.098900  1.0  0.119
  C  C462  1  0.630100  0.896100  0.096000  1.0  -0.0737
  C  C463  1  0.679700  0.900700  0.070400  1.0  -0.1314
  C  C464  1  0.634300  0.924000  0.046900  1.0  -0.0295
  C  C465  1  0.537200  0.940300  0.050000  1.0  0.1166
  C  C466  1  0.919900  0.887800  0.041300  1.0  0.3927
  C  C467  1  0.920000  0.853500  0.084900  1.0  0.3701
  C  C468  1  0.783600  0.886400  0.066800  1.0  0.4005
  C  C469  1  0.951100  0.772600  0.741700  1.0  0.1177
  C  C470  1  0.985700  0.768800  0.770500  1.0  -0.1014
  C  C471  1  0.997400  0.721300  0.781700  1.0  -0.1348
  C  C472  1  0.977100  0.681200  0.764700  1.0  -0.1594
  C  C473  1  0.939600  0.688100  0.738100  1.0  0.128
  C  C474  1  0.100100  0.533400  0.866300  1.0  0.1217
  C  C475  1  0.082800  0.578000  0.851100  1.0  -0.1091
  C  C476  1  0.076000  0.620900  0.866700  1.0  -0.1192
  C  C477  1  0.083700  0.617700  0.896300  1.0  -0.0793
  C  C478  1  0.100200  0.573900  0.910300  1.0  0.1034
  C  C479  1  0.115600  0.840700  0.916300  1.0  0.162
  C  C480  1  0.102000  0.797500  0.902900  1.0  -0.1455
  C  C481  1  0.077000  0.799300  0.872700  1.0  -0.1092
  C  C482  1  0.068500  0.844900  0.858900  1.0  -0.121
  C  C483  1  0.087900  0.885100  0.875900  1.0  0.1613
  C  C484  1  0.027500  0.715800  0.813100  1.0  0.3681
  C  C485  1  0.061800  0.670300  0.852000  1.0  0.3724
  C  C486  1  0.061200  0.753300  0.856000  1.0  0.384
  C  C487  1  0.019400  0.559700  0.467200  1.0  0.1387
  C  C488  1  0.073400  0.571800  0.491500  1.0  -0.1459
  C  C489  1  0.025500  0.595100  0.514700  1.0  -0.0678
  C  C490  1  0.925400  0.600800  0.512900  1.0  -0.1592
  C  C491  1  0.878900  0.585900  0.487200  1.0  0.1391
  C  C492  1  0.880400  0.698500  0.632200  1.0  0.1066
  C  C493  1  0.931000  0.677600  0.608300  1.0  -0.0895
  C  C494  1  0.027700  0.669500  0.610800  1.0  -0.1611
  C  C495  1  0.074200  0.685100  0.634500  1.0  -0.094
  C  C496  1  0.023900  0.705400  0.657300  1.0  0.1157
  C  C497  1  0.463000  0.585800  0.598900  1.0  0.1188
  C  C498  1  0.369900  0.603900  0.596000  1.0  -0.074
  C  C499  1  0.320300  0.599300  0.570400  1.0  -0.13
  C  C500  1  0.365700  0.576000  0.546900  1.0  -0.0296
  C  C501  1  0.462800  0.559700  0.550000  1.0  0.1165
  C  C502  1  0.080100  0.612200  0.541300  1.0  0.3923
  C  C503  1  0.080000  0.646500  0.584900  1.0  0.3701
  C  C504  1  0.216400  0.613600  0.566800  1.0  0.4008
  I  I505  1  0.328200  0.663640  0.679380  1.0  -0.3019
  I  I506  1  0.191270  0.809170  0.694970  1.0  -0.3559
  I  I507  1  0.736110  0.085190  0.881280  1.0  -0.3552
  I  I508  1  0.710420  0.008600  0.966830  1.0  -0.4259
  I  I509  1  0.553450  0.483410  0.899300  1.0  -0.3499
  I  I510  1  0.827650  0.555420  0.935150  1.0  -0.3745
  I  I511  1  0.671800  0.836360  0.179380  1.0  -0.302
  I  I512  1  0.808730  0.690830  0.194970  1.0  -0.357
  I  I513  1  0.263890  0.414810  0.381280  1.0  -0.3551
  I  I514  1  0.289580  0.491400  0.466830  1.0  -0.4254
  I  I515  1  0.446550  0.016590  0.399300  1.0  -0.3507
  I  I516  1  0.172350  0.944580  0.435150  1.0  -0.3733
  I  I517  1  0.828200  0.336360  0.820620  1.0  -0.3017
  I  I518  1  0.691270  0.190830  0.805030  1.0  -0.3567
  I  I519  1  0.236110  0.914810  0.618720  1.0  -0.3556
  I  I520  1  0.210420  0.991400  0.533170  1.0  -0.4253
  I  I521  1  0.053450  0.516590  0.600700  1.0  -0.3484
  I  I522  1  0.327650  0.444580  0.564850  1.0  -0.3739
  I  I523  1  0.171800  0.163640  0.320620  1.0  -0.3016
  I  I524  1  0.308730  0.309170  0.305030  1.0  -0.3567
  I  I525  1  0.763890  0.585190  0.118720  1.0  -0.3548
  I  I526  1  0.789580  0.508600  0.033170  1.0  -0.4256
  I  I527  1  0.946550  0.983410  0.100700  1.0  -0.3484
  I  I528  1  0.672350  0.055420  0.064850  1.0  -0.3741
  I  I529  1  0.671800  0.336360  0.320620  1.0  -0.3017
  I  I530  1  0.808730  0.190830  0.305030  1.0  -0.3572
  I  I531  1  0.263890  0.914810  0.118720  1.0  -0.3551
  I  I532  1  0.289580  0.991400  0.033170  1.0  -0.4252
  I  I533  1  0.446550  0.516590  0.100700  1.0  -0.3488
  I  I534  1  0.172350  0.444580  0.064850  1.0  -0.3733
  I  I535  1  0.328200  0.163640  0.820620  1.0  -0.3014
  I  I536  1  0.191270  0.309170  0.805030  1.0  -0.3563
  I  I537  1  0.736110  0.585190  0.618720  1.0  -0.3554
  I  I538  1  0.710420  0.508600  0.533170  1.0  -0.4257
  I  I539  1  0.553450  0.983410  0.600700  1.0  -0.3478
  I  I540  1  0.827650  0.055420  0.564850  1.0  -0.3746
  I  I541  1  0.171800  0.663640  0.179380  1.0  -0.3019
  I  I542  1  0.308730  0.809170  0.194970  1.0  -0.3564
  I  I543  1  0.763890  0.085190  0.381280  1.0  -0.3548
  I  I544  1  0.789580  0.008600  0.466830  1.0  -0.4257
  I  I545  1  0.946550  0.483410  0.399300  1.0  -0.3504
  I  I546  1  0.672350  0.555420  0.435150  1.0  -0.374
  I  I547  1  0.828200  0.836360  0.679380  1.0  -0.3019
  I  I548  1  0.691270  0.690830  0.694970  1.0  -0.3564
  I  I549  1  0.236110  0.414810  0.881280  1.0  -0.3555
  I  I550  1  0.210420  0.491400  0.966830  1.0  -0.4255
  I  I551  1  0.053450  0.016590  0.899300  1.0  -0.3501
  I  I552  1  0.327650  0.944580  0.935150  1.0  -0.374
  N  N553  1  0.428300  0.766100  0.725600  1.0  -0.3356
  N  N554  1  0.608100  0.968000  0.894900  1.0  -0.311
  N  N555  1  0.610400  0.614500  0.903390  1.0  -0.321
  N  N556  1  0.539100  0.829600  0.823900  1.0  -0.4369
  N  N557  1  0.576500  0.790700  0.869200  1.0  -0.4815
  N  N558  1  0.536700  0.742100  0.827500  1.0  -0.456
  N  N559  1  0.423900  0.934600  0.464800  1.0  -0.3004
  N  N560  1  0.425200  0.789200  0.656200  1.0  -0.3161
  N  N561  1  0.008100  0.935700  0.577600  1.0  -0.3488
  N  N562  1  0.529100  0.864300  0.561400  1.0  -0.4471
  N  N563  1  0.674400  0.863300  0.589100  1.0  -0.5324
  N  N564  1  0.671500  0.898900  0.542100  1.0  -0.3996
  N  N565  1  0.571700  0.733900  0.225600  1.0  -0.3348
  N  N566  1  0.391900  0.532000  0.394900  1.0  -0.3098
  N  N567  1  0.389600  0.885500  0.403390  1.0  -0.3223
  N  N568  1  0.460900  0.670400  0.323900  1.0  -0.4363
  N  N569  1  0.423500  0.709300  0.369200  1.0  -0.4826
  N  N570  1  0.463300  0.757900  0.327500  1.0  -0.4553
  N  N571  1  0.576100  0.565400  0.964800  1.0  -0.301
  N  N572  1  0.574800  0.710800  0.156200  1.0  -0.3159
  N  N573  1  0.991900  0.564300  0.077600  1.0  -0.347
  N  N574  1  0.470900  0.635700  0.061400  1.0  -0.4472
  N  N575  1  0.325600  0.636700  0.089100  1.0  -0.5325
  N  N576  1  0.328500  0.601100  0.042100  1.0  -0.3987
  N  N577  1  0.928300  0.233900  0.774400  1.0  -0.3331
  N  N578  1  0.108100  0.032000  0.605100  1.0  -0.3089
  N  N579  1  0.110400  0.385500  0.596610  1.0  -0.3223
  N  N580  1  0.039100  0.170400  0.676100  1.0  -0.4361
  N  N581  1  0.076500  0.209300  0.630800  1.0  -0.4838
  N  N582  1  0.036700  0.257900  0.672500  1.0  -0.4557
  N  N583  1  0.923900  0.065400  0.035200  1.0  -0.301
  N  N584  1  0.925200  0.210800  0.843800  1.0  -0.3163
  N  N585  1  0.508100  0.064300  0.922400  1.0  -0.3482
  N  N586  1  0.029100  0.135700  0.938600  1.0  -0.4463
  N  N587  1  0.174400  0.136700  0.910900  1.0  -0.5301
  N  N588  1  0.171500  0.101100  0.957900  1.0  -0.3995
  N  N589  1  0.071700  0.266100  0.274400  1.0  -0.3329
  N  N590  1  0.891900  0.468000  0.105100  1.0  -0.3088
  N  N591  1  0.889600  0.114500  0.096610  1.0  -0.3223
  N  N592  1  0.960900  0.329600  0.176100  1.0  -0.4368
  N  N593  1  0.923500  0.290700  0.130800  1.0  -0.4842
  N  N594  1  0.963300  0.242100  0.172500  1.0  -0.4552
  N  N595  1  0.076100  0.434600  0.535200  1.0  -0.3
  N  N596  1  0.074800  0.289200  0.343800  1.0  -0.3165
  N  N597  1  0.491900  0.435700  0.422400  1.0  -0.3475
  N  N598  1  0.970900  0.364300  0.438600  1.0  -0.4473
  N  N599  1  0.825600  0.363300  0.410900  1.0  -0.5317
  N  N600  1  0.828500  0.398900  0.457900  1.0  -0.3975
  N  N601  1  0.571700  0.233900  0.274400  1.0  -0.3327
  N  N602  1  0.391900  0.032000  0.105100  1.0  -0.3093
  N  N603  1  0.389600  0.385500  0.096610  1.0  -0.3221
  N  N604  1  0.460900  0.170400  0.176100  1.0  -0.4358
  N  N605  1  0.423500  0.209300  0.130800  1.0  -0.4843
  N  N606  1  0.463300  0.257900  0.172500  1.0  -0.4556
  N  N607  1  0.576100  0.065400  0.535200  1.0  -0.2998
  N  N608  1  0.574800  0.210800  0.343800  1.0  -0.3163
  N  N609  1  0.991900  0.064300  0.422400  1.0  -0.3475
  N  N610  1  0.470900  0.135700  0.438600  1.0  -0.4473
  N  N611  1  0.325600  0.136700  0.410900  1.0  -0.5302
  N  N612  1  0.328500  0.101100  0.457900  1.0  -0.3976
  N  N613  1  0.428300  0.266100  0.774400  1.0  -0.3336
  N  N614  1  0.608100  0.468000  0.605100  1.0  -0.3092
  N  N615  1  0.610400  0.114500  0.596610  1.0  -0.3218
  N  N616  1  0.539100  0.329600  0.676100  1.0  -0.4369
  N  N617  1  0.576500  0.290700  0.630800  1.0  -0.4838
  N  N618  1  0.536700  0.242100  0.672500  1.0  -0.4556
  N  N619  1  0.423900  0.434600  0.035200  1.0  -0.3008
  N  N620  1  0.425200  0.289200  0.843800  1.0  -0.3174
  N  N621  1  0.008100  0.435700  0.922400  1.0  -0.3492
  N  N622  1  0.529100  0.364300  0.938600  1.0  -0.4469
  N  N623  1  0.674400  0.363300  0.910900  1.0  -0.5311
  N  N624  1  0.671500  0.398900  0.957900  1.0  -0.4
  N  N625  1  0.071700  0.766100  0.225600  1.0  -0.3351
  N  N626  1  0.891900  0.968000  0.394900  1.0  -0.3106
  N  N627  1  0.889600  0.614500  0.403390  1.0  -0.3217
  N  N628  1  0.960900  0.829600  0.323900  1.0  -0.4368
  N  N629  1  0.923500  0.790700  0.369200  1.0  -0.4826
  N  N630  1  0.963300  0.742100  0.327500  1.0  -0.4554
  N  N631  1  0.076100  0.934600  0.964800  1.0  -0.2997
  N  N632  1  0.074800  0.789200  0.156200  1.0  -0.3157
  N  N633  1  0.491900  0.935700  0.077600  1.0  -0.3469
  N  N634  1  0.970900  0.864300  0.061400  1.0  -0.4475
  N  N635  1  0.825600  0.863300  0.089100  1.0  -0.5332
  N  N636  1  0.828500  0.898900  0.042100  1.0  -0.3979
  N  N637  1  0.928300  0.733900  0.725600  1.0  -0.335
  N  N638  1  0.108100  0.532000  0.894900  1.0  -0.3098
  N  N639  1  0.110400  0.885500  0.903390  1.0  -0.3222
  N  N640  1  0.039100  0.670400  0.823900  1.0  -0.4366
  N  N641  1  0.076500  0.709300  0.869200  1.0  -0.4814
  N  N642  1  0.036700  0.757900  0.827500  1.0  -0.4555
  N  N643  1  0.923900  0.565400  0.464800  1.0  -0.3029
  N  N644  1  0.925200  0.710800  0.656200  1.0  -0.3159
  N  N645  1  0.508100  0.564300  0.577600  1.0  -0.3479
  N  N646  1  0.029100  0.635700  0.561400  1.0  -0.4464
  N  N647  1  0.174400  0.636700  0.589100  1.0  -0.5323
  N  N648  1  0.171500  0.601100  0.542100  1.0  -0.4
