# generated using pymatgen
data_ZnH8C12(IN2)2
_symmetry_space_group_name_H-M   'P 1'
_cell_length_a   13.79800000
_cell_length_b   27.24900000
_cell_length_c   44.83400000
_cell_angle_alpha   90.00000000
_cell_angle_beta   90.00000000
_cell_angle_gamma   90.00000000
_symmetry_Int_Tables_number   1
_chemical_formula_structural   ZnH8C12(IN2)2
_chemical_formula_sum   'Zn24 H192 C288 I48 N96'
_cell_volume   16856.76362747
_cell_formula_units_Z   24
loop_
 _symmetry_equiv_pos_site_id
 _symmetry_equiv_pos_as_xyz
  1  'x, y, z'
loop_
 _atom_site_type_symbol
 _atom_site_label
 _atom_site_symmetry_multiplicity
 _atom_site_fract_x
 _atom_site_fract_y
 _atom_site_fract_z
 _atom_site_occupancy
 _atom_site_charge
  Zn  Zn1  1  0.620210  0.027700  0.913020  1.0  0.8463
  Zn  Zn2  1  0.647540  0.543740  0.914430  1.0  0.8232
  Zn  Zn3  1  0.320520  0.756030  0.680390  1.0  0.8735
  Zn  Zn4  1  0.379790  0.472300  0.413020  1.0  0.8459
  Zn  Zn5  1  0.352460  0.956260  0.414430  1.0  0.8209
  Zn  Zn6  1  0.679480  0.743970  0.180390  1.0  0.8741
  Zn  Zn7  1  0.120210  0.972300  0.586980  1.0  0.846
  Zn  Zn8  1  0.147540  0.456260  0.585570  1.0  0.821
  Zn  Zn9  1  0.820520  0.243970  0.819610  1.0  0.8721
  Zn  Zn10  1  0.879790  0.527700  0.086980  1.0  0.8452
  Zn  Zn11  1  0.852460  0.043740  0.085570  1.0  0.8235
  Zn  Zn12  1  0.179480  0.256030  0.319610  1.0  0.875
  Zn  Zn13  1  0.379790  0.972300  0.086980  1.0  0.8457
  Zn  Zn14  1  0.352460  0.456260  0.085570  1.0  0.82
  Zn  Zn15  1  0.679480  0.243970  0.319610  1.0  0.8739
  Zn  Zn16  1  0.620210  0.527700  0.586980  1.0  0.8462
  Zn  Zn17  1  0.647540  0.043740  0.585570  1.0  0.8234
  Zn  Zn18  1  0.320520  0.256030  0.819610  1.0  0.8736
  Zn  Zn19  1  0.879790  0.027700  0.413020  1.0  0.8455
  Zn  Zn20  1  0.852460  0.543740  0.414430  1.0  0.8238
  Zn  Zn21  1  0.179480  0.756030  0.180390  1.0  0.8749
  Zn  Zn22  1  0.120210  0.472300  0.913020  1.0  0.8461
  Zn  Zn23  1  0.147540  0.956260  0.914430  1.0  0.8213
  Zn  Zn24  1  0.820520  0.743970  0.680390  1.0  0.8722
  H  H25  1  0.593700  0.920400  0.928200  1.0  0.0997
  H  H26  1  0.587500  0.845400  0.903300  1.0  0.1111
  H  H27  1  0.531000  0.917400  0.827200  1.0  0.1181
  H  H28  1  0.558900  0.989500  0.851900  1.0  0.0803
  H  H29  1  0.568800  0.577900  0.857800  1.0  0.0821
  H  H30  1  0.532400  0.648600  0.831600  1.0  0.1108
  H  H31  1  0.603300  0.726600  0.906500  1.0  0.1192
  H  H32  1  0.622800  0.649700  0.929600  1.0  0.0815
  H  H33  1  0.389200  0.838700  0.719700  1.0  0.0959
  H  H34  1  0.452700  0.850500  0.767700  1.0  0.1196
  H  H35  1  0.490600  0.703000  0.771200  1.0  0.1008
  H  H36  1  0.434800  0.696600  0.724300  1.0  0.0739
  H  H37  1  0.797400  0.072200  0.023300  1.0  0.0717
  H  H38  1  0.869700  0.101300  0.979100  1.0  0.1196
  H  H39  1  0.127500  0.053900  0.012000  1.0  0.1145
  H  H40  1  0.044500  0.028800  0.057000  1.0  0.1036
  H  H41  1  0.026400  0.225900  0.835700  1.0  0.0852
  H  H42  1  0.118800  0.187400  0.873300  1.0  0.0945
  H  H43  1  0.872500  0.154200  0.914600  1.0  0.103
  H  H44  1  0.786900  0.183800  0.874600  1.0  0.0988
  H  H45  1  0.481800  0.032300  0.964900  1.0  0.1086
  H  H46  1  0.330600  0.064500  0.975900  1.0  0.0986
  H  H47  1  0.313700  0.114900  0.890600  1.0  0.0985
  H  H48  1  0.468800  0.088100  0.882500  1.0  0.1028
  H  H49  1  0.406300  0.579600  0.428200  1.0  0.0997
  H  H50  1  0.412500  0.654600  0.403300  1.0  0.1107
  H  H51  1  0.469000  0.582600  0.327200  1.0  0.1179
  H  H52  1  0.441100  0.510500  0.351900  1.0  0.0801
  H  H53  1  0.431200  0.922100  0.357800  1.0  0.082
  H  H54  1  0.467600  0.851400  0.331600  1.0  0.111
  H  H55  1  0.396700  0.773400  0.406500  1.0  0.119
  H  H56  1  0.377200  0.850300  0.429600  1.0  0.081
  H  H57  1  0.610800  0.661300  0.219700  1.0  0.0953
  H  H58  1  0.547300  0.649500  0.267700  1.0  0.1192
  H  H59  1  0.509400  0.797000  0.271200  1.0  0.1006
  H  H60  1  0.565200  0.803400  0.224300  1.0  0.0716
  H  H61  1  0.202600  0.427800  0.523300  1.0  0.0714
  H  H62  1  0.130300  0.398700  0.479100  1.0  0.1197
  H  H63  1  0.872500  0.446100  0.512000  1.0  0.1149
  H  H64  1  0.955500  0.471200  0.557000  1.0  0.104
  H  H65  1  0.973600  0.274100  0.335700  1.0  0.0851
  H  H66  1  0.881200  0.312600  0.373300  1.0  0.0951
  H  H67  1  0.127500  0.345800  0.414600  1.0  0.1031
  H  H68  1  0.213100  0.316200  0.374600  1.0  0.0982
  H  H69  1  0.518200  0.467700  0.464900  1.0  0.1084
  H  H70  1  0.669400  0.435500  0.475900  1.0  0.0988
  H  H71  1  0.686300  0.385100  0.390600  1.0  0.0987
  H  H72  1  0.531200  0.411900  0.382500  1.0  0.1028
  H  H73  1  0.093700  0.079600  0.571800  1.0  0.0996
  H  H74  1  0.087500  0.154600  0.596700  1.0  0.1109
  H  H75  1  0.031000  0.082600  0.672800  1.0  0.118
  H  H76  1  0.058900  0.010500  0.648100  1.0  0.0807
  H  H77  1  0.068800  0.422100  0.642200  1.0  0.0822
  H  H78  1  0.032400  0.351400  0.668400  1.0  0.1107
  H  H79  1  0.103300  0.273400  0.593500  1.0  0.119
  H  H80  1  0.122800  0.350300  0.570400  1.0  0.081
  H  H81  1  0.889200  0.161300  0.780300  1.0  0.0951
  H  H82  1  0.952700  0.149500  0.732300  1.0  0.1193
  H  H83  1  0.990600  0.297000  0.728800  1.0  0.1008
  H  H84  1  0.934800  0.303400  0.775700  1.0  0.0724
  H  H85  1  0.297400  0.927800  0.476700  1.0  0.0719
  H  H86  1  0.369700  0.898700  0.520900  1.0  0.1199
  H  H87  1  0.627500  0.946100  0.488000  1.0  0.115
  H  H88  1  0.544500  0.971200  0.443000  1.0  0.1033
  H  H89  1  0.526400  0.774100  0.664300  1.0  0.085
  H  H90  1  0.618800  0.812600  0.626700  1.0  0.0946
  H  H91  1  0.372500  0.845800  0.585400  1.0  0.1027
  H  H92  1  0.286900  0.816200  0.625400  1.0  0.0988
  H  H93  1  0.981800  0.967700  0.535100  1.0  0.1082
  H  H94  1  0.830600  0.935500  0.524100  1.0  0.0986
  H  H95  1  0.813700  0.885100  0.609400  1.0  0.099
  H  H96  1  0.968800  0.911900  0.617500  1.0  0.1033
  H  H97  1  0.906300  0.420400  0.071800  1.0  0.0993
  H  H98  1  0.912500  0.345400  0.096700  1.0  0.1107
  H  H99  1  0.969000  0.417400  0.172800  1.0  0.1179
  H  H100  1  0.941100  0.489500  0.148100  1.0  0.0811
  H  H101  1  0.931200  0.077900  0.142200  1.0  0.0824
  H  H102  1  0.967600  0.148600  0.168400  1.0  0.111
  H  H103  1  0.896700  0.226600  0.093500  1.0  0.1187
  H  H104  1  0.877200  0.149700  0.070400  1.0  0.0808
  H  H105  1  0.110800  0.338700  0.280300  1.0  0.0952
  H  H106  1  0.047300  0.350500  0.232300  1.0  0.1193
  H  H107  1  0.009400  0.203000  0.228800  1.0  0.1007
  H  H108  1  0.065200  0.196600  0.275700  1.0  0.074
  H  H109  1  0.702600  0.572200  0.976700  1.0  0.0719
  H  H110  1  0.630300  0.601300  0.020900  1.0  0.1193
  H  H111  1  0.372500  0.553900  0.988000  1.0  0.1151
  H  H112  1  0.455500  0.528800  0.943000  1.0  0.1036
  H  H113  1  0.473600  0.725900  0.164300  1.0  0.0847
  H  H114  1  0.381200  0.687400  0.126700  1.0  0.0947
  H  H115  1  0.627500  0.654200  0.085400  1.0  0.1014
  H  H116  1  0.713100  0.683800  0.125400  1.0  0.0979
  H  H117  1  0.018200  0.532300  0.035100  1.0  0.1079
  H  H118  1  0.169400  0.564500  0.024100  1.0  0.0989
  H  H119  1  0.186300  0.614900  0.109400  1.0  0.099
  H  H120  1  0.031200  0.588100  0.117500  1.0  0.103
  H  H121  1  0.406300  0.079600  0.071800  1.0  0.0994
  H  H122  1  0.412500  0.154600  0.096700  1.0  0.1107
  H  H123  1  0.469000  0.082600  0.172800  1.0  0.1181
  H  H124  1  0.441100  0.010500  0.148100  1.0  0.0808
  H  H125  1  0.431200  0.422100  0.142200  1.0  0.0821
  H  H126  1  0.467600  0.351400  0.168400  1.0  0.1107
  H  H127  1  0.396700  0.273400  0.093500  1.0  0.1186
  H  H128  1  0.377200  0.350300  0.070400  1.0  0.0808
  H  H129  1  0.610800  0.161300  0.280300  1.0  0.0951
  H  H130  1  0.547300  0.149500  0.232300  1.0  0.1193
  H  H131  1  0.509400  0.297000  0.228800  1.0  0.1009
  H  H132  1  0.565200  0.303400  0.275700  1.0  0.0718
  H  H133  1  0.202600  0.927800  0.976700  1.0  0.0716
  H  H134  1  0.130300  0.898700  0.020900  1.0  0.1196
  H  H135  1  0.872500  0.946100  0.988000  1.0  0.1149
  H  H136  1  0.955500  0.971200  0.943000  1.0  0.1035
  H  H137  1  0.973600  0.774100  0.164300  1.0  0.0853
  H  H138  1  0.881200  0.812600  0.126700  1.0  0.0951
  H  H139  1  0.127500  0.845800  0.085400  1.0  0.1028
  H  H140  1  0.213100  0.816200  0.125400  1.0  0.0981
  H  H141  1  0.518200  0.967700  0.035100  1.0  0.1078
  H  H142  1  0.669400  0.935500  0.024100  1.0  0.0989
  H  H143  1  0.686300  0.885100  0.109400  1.0  0.0993
  H  H144  1  0.531200  0.911900  0.117500  1.0  0.1034
  H  H145  1  0.593700  0.420400  0.571800  1.0  0.0997
  H  H146  1  0.587500  0.345400  0.596700  1.0  0.111
  H  H147  1  0.531000  0.417400  0.672800  1.0  0.1179
  H  H148  1  0.558900  0.489500  0.648100  1.0  0.0805
  H  H149  1  0.568800  0.077900  0.642200  1.0  0.0825
  H  H150  1  0.532400  0.148600  0.668400  1.0  0.1109
  H  H151  1  0.603300  0.226600  0.593500  1.0  0.1192
  H  H152  1  0.622800  0.149700  0.570400  1.0  0.0808
  H  H153  1  0.389200  0.338700  0.780300  1.0  0.0956
  H  H154  1  0.452700  0.350500  0.732300  1.0  0.1197
  H  H155  1  0.490600  0.203000  0.728800  1.0  0.1007
  H  H156  1  0.434800  0.196600  0.775700  1.0  0.0743
  H  H157  1  0.797400  0.572200  0.476700  1.0  0.0717
  H  H158  1  0.869700  0.601300  0.520900  1.0  0.1193
  H  H159  1  0.127500  0.553900  0.488000  1.0  0.1151
  H  H160  1  0.044500  0.528800  0.443000  1.0  0.1037
  H  H161  1  0.026400  0.725900  0.664300  1.0  0.0847
  H  H162  1  0.118800  0.687400  0.626700  1.0  0.0941
  H  H163  1  0.872500  0.654200  0.585400  1.0  0.1013
  H  H164  1  0.786900  0.683800  0.625400  1.0  0.0987
  H  H165  1  0.481800  0.532300  0.535100  1.0  0.1083
  H  H166  1  0.330600  0.564500  0.524100  1.0  0.0987
  H  H167  1  0.313700  0.614900  0.609400  1.0  0.0989
  H  H168  1  0.468800  0.588100  0.617500  1.0  0.103
  H  H169  1  0.906300  0.920400  0.428200  1.0  0.0994
  H  H170  1  0.912500  0.845400  0.403300  1.0  0.1112
  H  H171  1  0.969000  0.917400  0.327200  1.0  0.1179
  H  H172  1  0.941100  0.989500  0.351900  1.0  0.0806
  H  H173  1  0.931200  0.577900  0.357800  1.0  0.0818
  H  H174  1  0.967600  0.648600  0.331600  1.0  0.111
  H  H175  1  0.896700  0.726600  0.406500  1.0  0.1187
  H  H176  1  0.877200  0.649700  0.429600  1.0  0.0813
  H  H177  1  0.110800  0.838700  0.219700  1.0  0.0956
  H  H178  1  0.047300  0.850500  0.267700  1.0  0.1192
  H  H179  1  0.009400  0.703000  0.271200  1.0  0.1008
  H  H180  1  0.065200  0.696600  0.224300  1.0  0.0736
  H  H181  1  0.702600  0.072200  0.523300  1.0  0.0717
  H  H182  1  0.630300  0.101300  0.479100  1.0  0.1199
  H  H183  1  0.372500  0.053900  0.512000  1.0  0.1149
  H  H184  1  0.455500  0.028800  0.557000  1.0  0.1041
  H  H185  1  0.473600  0.225900  0.335700  1.0  0.0852
  H  H186  1  0.381200  0.187400  0.373300  1.0  0.095
  H  H187  1  0.627500  0.154200  0.414600  1.0  0.103
  H  H188  1  0.713100  0.183800  0.374600  1.0  0.0981
  H  H189  1  0.018200  0.032300  0.464900  1.0  0.1086
  H  H190  1  0.169400  0.064500  0.475900  1.0  0.0987
  H  H191  1  0.186300  0.114900  0.390600  1.0  0.0985
  H  H192  1  0.031200  0.088100  0.382500  1.0  0.1026
  H  H193  1  0.093700  0.579600  0.928200  1.0  0.0999
  H  H194  1  0.087500  0.654600  0.903300  1.0  0.1107
  H  H195  1  0.031000  0.582600  0.827200  1.0  0.118
  H  H196  1  0.058900  0.510500  0.851900  1.0  0.0801
  H  H197  1  0.068800  0.922100  0.857800  1.0  0.0823
  H  H198  1  0.032400  0.851400  0.831600  1.0  0.1109
  H  H199  1  0.103300  0.773400  0.906500  1.0  0.1192
  H  H200  1  0.122800  0.850300  0.929600  1.0  0.0814
  H  H201  1  0.889200  0.661300  0.719700  1.0  0.0952
  H  H202  1  0.952700  0.649500  0.767700  1.0  0.1193
  H  H203  1  0.990600  0.797000  0.771200  1.0  0.1006
  H  H204  1  0.934800  0.803400  0.724300  1.0  0.0721
  H  H205  1  0.297400  0.427800  0.023300  1.0  0.0719
  H  H206  1  0.369700  0.398700  0.979100  1.0  0.1196
  H  H207  1  0.627500  0.446100  0.012000  1.0  0.1147
  H  H208  1  0.544500  0.471200  0.057000  1.0  0.1031
  H  H209  1  0.526400  0.274100  0.835700  1.0  0.0849
  H  H210  1  0.618800  0.312600  0.873300  1.0  0.0947
  H  H211  1  0.372500  0.345800  0.914600  1.0  0.1032
  H  H212  1  0.286900  0.316200  0.874600  1.0  0.0988
  H  H213  1  0.981800  0.467700  0.964900  1.0  0.1083
  H  H214  1  0.830600  0.435500  0.975900  1.0  0.0986
  H  H215  1  0.813700  0.385100  0.890600  1.0  0.0986
  H  H216  1  0.968800  0.411900  0.882500  1.0  0.1028
  C  C217  1  0.586800  0.919800  0.907100  1.0  0.1191
  C  C218  1  0.577800  0.875100  0.892500  1.0  -0.0915
  C  C219  1  0.555100  0.873200  0.862800  1.0  -0.1093
  C  C220  1  0.547400  0.916900  0.847800  1.0  -0.1327
  C  C221  1  0.563700  0.959700  0.862800  1.0  0.1465
  C  C222  1  0.574400  0.608600  0.867600  1.0  0.166
  C  C223  1  0.552900  0.650700  0.851800  1.0  -0.1239
  C  C224  1  0.561600  0.696200  0.865700  1.0  -0.0766
  C  C225  1  0.592900  0.696800  0.895900  1.0  -0.1422
  C  C226  1  0.607500  0.650600  0.909000  1.0  0.1535
  C  C227  1  0.410600  0.810900  0.730700  1.0  0.1301
  C  C228  1  0.448300  0.818500  0.759400  1.0  -0.1563
  C  C229  1  0.479200  0.777200  0.775400  1.0  -0.1361
  C  C230  1  0.470900  0.731900  0.761000  1.0  -0.1353
  C  C231  1  0.435900  0.728200  0.733300  1.0  0.1494
  C  C232  1  0.543900  0.826000  0.847900  1.0  0.3481
  C  C233  1  0.544600  0.743900  0.849800  1.0  0.3913
  C  C234  1  0.506700  0.781000  0.806600  1.0  0.3802
  C  C235  1  0.865800  0.070000  0.021500  1.0  0.1564
  C  C236  1  0.907200  0.086600  0.994400  1.0  -0.1339
  C  C237  1  0.006300  0.079700  0.991800  1.0  -0.1118
  C  C238  1  0.059700  0.058700  0.014200  1.0  -0.0592
  C  C239  1  0.009600  0.044100  0.041200  1.0  0.1263
  C  C240  1  0.994000  0.209800  0.851600  1.0  0.1193
  C  C241  1  0.050000  0.186800  0.874500  1.0  -0.1089
  C  C242  1  0.006400  0.164100  0.898100  1.0  -0.0564
  C  C243  1  0.907000  0.166600  0.897900  1.0  -0.0968
  C  C244  1  0.855600  0.186300  0.874600  1.0  0.1156
  C  C245  1  0.447800  0.050900  0.950300  1.0  0.1162
  C  C246  1  0.356300  0.068000  0.956300  1.0  -0.101
  C  C247  1  0.299100  0.091100  0.933800  1.0  -0.1199
  C  C248  1  0.347100  0.098500  0.906200  1.0  -0.0803
  C  C249  1  0.439600  0.083000  0.901400  1.0  0.1212
  C  C250  1  0.059900  0.097800  0.965800  1.0  0.2885
  C  C251  1  0.059800  0.139800  0.921400  1.0  0.3584
  C  C252  1  0.196100  0.104800  0.938300  1.0  0.4172
  C  C253  1  0.413200  0.580200  0.407100  1.0  0.1182
  C  C254  1  0.422200  0.624900  0.392500  1.0  -0.0918
  C  C255  1  0.444900  0.626800  0.362800  1.0  -0.1094
  C  C256  1  0.452600  0.583100  0.347800  1.0  -0.1328
  C  C257  1  0.436300  0.540300  0.362800  1.0  0.1451
  C  C258  1  0.425600  0.891400  0.367600  1.0  0.1644
  C  C259  1  0.447100  0.849300  0.351800  1.0  -0.125
  C  C260  1  0.438400  0.803800  0.365700  1.0  -0.0767
  C  C261  1  0.407100  0.803200  0.395900  1.0  -0.1426
  C  C262  1  0.392500  0.849400  0.409000  1.0  0.1528
  C  C263  1  0.589400  0.689100  0.230700  1.0  0.1294
  C  C264  1  0.551700  0.681500  0.259400  1.0  -0.1575
  C  C265  1  0.520800  0.722800  0.275400  1.0  -0.1365
  C  C266  1  0.529100  0.768100  0.261000  1.0  -0.1353
  C  C267  1  0.564100  0.771800  0.233300  1.0  0.1486
  C  C268  1  0.456100  0.674000  0.347900  1.0  0.3476
  C  C269  1  0.455400  0.756100  0.349800  1.0  0.3908
  C  C270  1  0.493300  0.719000  0.306600  1.0  0.3802
  C  C271  1  0.134200  0.430000  0.521500  1.0  0.1562
  C  C272  1  0.092800  0.413400  0.494400  1.0  -0.1317
  C  C273  1  0.993700  0.420300  0.491800  1.0  -0.1111
  C  C274  1  0.940300  0.441300  0.514200  1.0  -0.0613
  C  C275  1  0.990400  0.455900  0.541200  1.0  0.1252
  C  C276  1  0.006000  0.290200  0.351600  1.0  0.1187
  C  C277  1  0.950000  0.313200  0.374500  1.0  -0.1118
  C  C278  1  0.993600  0.335900  0.398100  1.0  -0.0559
  C  C279  1  0.093000  0.333400  0.397900  1.0  -0.0981
  C  C280  1  0.144400  0.313700  0.374600  1.0  0.1153
  C  C281  1  0.552200  0.449100  0.450300  1.0  0.1143
  C  C282  1  0.643700  0.432000  0.456300  1.0  -0.0995
  C  C283  1  0.700900  0.408900  0.433800  1.0  -0.122
  C  C284  1  0.652900  0.401500  0.406200  1.0  -0.0804
  C  C285  1  0.560400  0.417000  0.401400  1.0  0.1215
  C  C286  1  0.940100  0.402200  0.465800  1.0  0.2875
  C  C287  1  0.940200  0.360200  0.421400  1.0  0.3592
  C  C288  1  0.803900  0.395200  0.438300  1.0  0.4176
  C  C289  1  0.086800  0.080200  0.592900  1.0  0.1187
  C  C290  1  0.077800  0.124900  0.607500  1.0  -0.0931
  C  C291  1  0.055100  0.126800  0.637200  1.0  -0.11
  C  C292  1  0.047400  0.083100  0.652200  1.0  -0.134
  C  C293  1  0.063700  0.040300  0.637200  1.0  0.1455
  C  C294  1  0.074400  0.391400  0.632400  1.0  0.1654
  C  C295  1  0.052900  0.349300  0.648200  1.0  -0.1251
  C  C296  1  0.061600  0.303800  0.634300  1.0  -0.077
  C  C297  1  0.092900  0.303200  0.604100  1.0  -0.1428
  C  C298  1  0.107500  0.349400  0.591000  1.0  0.1521
  C  C299  1  0.910600  0.189100  0.769300  1.0  0.1307
  C  C300  1  0.948300  0.181500  0.740600  1.0  -0.1569
  C  C301  1  0.979200  0.222800  0.724600  1.0  -0.1361
  C  C302  1  0.970900  0.268100  0.739000  1.0  -0.1354
  C  C303  1  0.935900  0.271800  0.766700  1.0  0.1486
  C  C304  1  0.043900  0.174000  0.652100  1.0  0.3483
  C  C305  1  0.044600  0.256100  0.650200  1.0  0.391
  C  C306  1  0.006700  0.219000  0.693400  1.0  0.3804
  C  C307  1  0.365800  0.930000  0.478500  1.0  0.1566
  C  C308  1  0.407200  0.913400  0.505600  1.0  -0.1341
  C  C309  1  0.506300  0.920300  0.508200  1.0  -0.1109
  C  C310  1  0.559700  0.941300  0.485800  1.0  -0.0606
  C  C311  1  0.509600  0.955900  0.458800  1.0  0.1256
  C  C312  1  0.494000  0.790200  0.648400  1.0  0.1196
  C  C313  1  0.550000  0.813200  0.625500  1.0  -0.1086
  C  C314  1  0.506400  0.835900  0.601900  1.0  -0.0564
  C  C315  1  0.407000  0.833400  0.602100  1.0  -0.0973
  C  C316  1  0.355600  0.813700  0.625400  1.0  0.1154
  C  C317  1  0.947800  0.949100  0.549700  1.0  0.1148
  C  C318  1  0.856300  0.932000  0.543700  1.0  -0.1005
  C  C319  1  0.799100  0.908900  0.566200  1.0  -0.1197
  C  C320  1  0.847100  0.901500  0.593800  1.0  -0.074
  C  C321  1  0.939600  0.917000  0.598600  1.0  0.1217
  C  C322  1  0.559900  0.902200  0.534200  1.0  0.2884
  C  C323  1  0.559800  0.860200  0.578600  1.0  0.3587
  C  C324  1  0.696100  0.895200  0.561700  1.0  0.4177
  C  C325  1  0.913200  0.419800  0.092900  1.0  0.1189
  C  C326  1  0.922200  0.375100  0.107500  1.0  -0.0927
  C  C327  1  0.944900  0.373200  0.137200  1.0  -0.1089
  C  C328  1  0.952600  0.416900  0.152200  1.0  -0.134
  C  C329  1  0.936300  0.459700  0.137200  1.0  0.1463
  C  C330  1  0.925600  0.108600  0.132400  1.0  0.1668
  C  C331  1  0.947100  0.150700  0.148200  1.0  -0.1246
  C  C332  1  0.938400  0.196200  0.134300  1.0  -0.076
  C  C333  1  0.907100  0.196800  0.104100  1.0  -0.143
  C  C334  1  0.892500  0.150600  0.091000  1.0  0.1517
  C  C335  1  0.089400  0.310900  0.269300  1.0  0.1306
  C  C336  1  0.051700  0.318500  0.240600  1.0  -0.1563
  C  C337  1  0.020800  0.277200  0.224600  1.0  -0.1368
  C  C338  1  0.029100  0.231900  0.239000  1.0  -0.1347
  C  C339  1  0.064100  0.228200  0.266700  1.0  0.1492
  C  C340  1  0.956100  0.326000  0.152100  1.0  0.3473
  C  C341  1  0.955400  0.243900  0.150200  1.0  0.3914
  C  C342  1  0.993300  0.281000  0.193400  1.0  0.3808
  C  C343  1  0.634200  0.570000  0.978500  1.0  0.1558
  C  C344  1  0.592800  0.586600  0.005600  1.0  -0.1337
  C  C345  1  0.493700  0.579700  0.008200  1.0  -0.1118
  C  C346  1  0.440300  0.558700  0.985800  1.0  -0.0616
  C  C347  1  0.490400  0.544100  0.958800  1.0  0.1257
  C  C348  1  0.506000  0.709800  0.148400  1.0  0.1195
  C  C349  1  0.450000  0.686800  0.125500  1.0  -0.1117
  C  C350  1  0.493600  0.664100  0.101900  1.0  -0.0535
  C  C351  1  0.593000  0.666667  0.102100  1.0  -0.0916
  C  C352  1  0.644400  0.686300  0.125400  1.0  0.1107
  C  C353  1  0.052200  0.550900  0.049700  1.0  0.1146
  C  C354  1  0.143700  0.568000  0.043700  1.0  -0.098
  C  C355  1  0.200900  0.591100  0.066200  1.0  -0.1196
  C  C356  1  0.152900  0.598500  0.093800  1.0  -0.0807
  C  C357  1  0.060400  0.583000  0.098600  1.0  0.1204
  C  C358  1  0.440100  0.597800  0.034200  1.0  0.2887
  C  C359  1  0.440200  0.639800  0.078600  1.0  0.3592
  C  C360  1  0.303900  0.604800  0.061700  1.0  0.4174
  C  C361  1  0.413200  0.080200  0.092900  1.0  0.1186
  C  C362  1  0.422200  0.124900  0.107500  1.0  -0.0921
  C  C363  1  0.444900  0.126800  0.137200  1.0  -0.1095
  C  C364  1  0.452600  0.083100  0.152200  1.0  -0.134
  C  C365  1  0.436300  0.040300  0.137200  1.0  0.146
  C  C366  1  0.425600  0.391400  0.132400  1.0  0.1654
  C  C367  1  0.447100  0.349300  0.148200  1.0  -0.1248
  C  C368  1  0.438400  0.303800  0.134300  1.0  -0.0765
  C  C369  1  0.407100  0.303200  0.104100  1.0  -0.1417
  C  C370  1  0.392500  0.349400  0.091000  1.0  0.152
  C  C371  1  0.589400  0.189100  0.269300  1.0  0.1304
  C  C372  1  0.551700  0.181500  0.240600  1.0  -0.1569
  C  C373  1  0.520800  0.222800  0.224600  1.0  -0.1367
  C  C374  1  0.529100  0.268100  0.239000  1.0  -0.1353
  C  C375  1  0.564100  0.271800  0.266700  1.0  0.1483
  C  C376  1  0.456100  0.174000  0.152100  1.0  0.3476
  C  C377  1  0.455400  0.256100  0.150200  1.0  0.391
  C  C378  1  0.493300  0.219000  0.193400  1.0  0.3806
  C  C379  1  0.134200  0.930000  0.978500  1.0  0.156
  C  C380  1  0.092800  0.913400  0.005600  1.0  -0.1321
  C  C381  1  0.993700  0.920300  0.008200  1.0  -0.111
  C  C382  1  0.940300  0.941300  0.985800  1.0  -0.0617
  C  C383  1  0.990400  0.955900  0.958800  1.0  0.1258
  C  C384  1  0.006000  0.790200  0.148400  1.0  0.1197
  C  C385  1  0.950000  0.813200  0.125500  1.0  -0.1116
  C  C386  1  0.993600  0.835900  0.101900  1.0  -0.056
  C  C387  1  0.093000  0.833400  0.102100  1.0  -0.0978
  C  C388  1  0.144400  0.813700  0.125400  1.0  0.1152
  C  C389  1  0.552200  0.949100  0.049700  1.0  0.1142
  C  C390  1  0.643700  0.932000  0.043700  1.0  -0.0982
  C  C391  1  0.700900  0.908900  0.066200  1.0  -0.1193
  C  C392  1  0.652900  0.901500  0.093800  1.0  -0.0731
  C  C393  1  0.560400  0.917000  0.098600  1.0  0.1211
  C  C394  1  0.940100  0.902200  0.034200  1.0  0.288
  C  C395  1  0.940200  0.860200  0.078600  1.0  0.3593
  C  C396  1  0.803900  0.895200  0.061700  1.0  0.4175
  C  C397  1  0.586800  0.419800  0.592900  1.0  0.119
  C  C398  1  0.577800  0.375100  0.607500  1.0  -0.0935
  C  C399  1  0.555100  0.373200  0.637200  1.0  -0.1094
  C  C400  1  0.547400  0.416900  0.652200  1.0  -0.1339
  C  C401  1  0.563700  0.459700  0.637200  1.0  0.1467
  C  C402  1  0.574400  0.108600  0.632400  1.0  0.1668
  C  C403  1  0.552900  0.150700  0.648200  1.0  -0.1248
  C  C404  1  0.561600  0.196200  0.634300  1.0  -0.0766
  C  C405  1  0.592900  0.196800  0.604100  1.0  -0.1436
  C  C406  1  0.607500  0.150600  0.591000  1.0  0.1517
  C  C407  1  0.410600  0.310900  0.769300  1.0  0.13
  C  C408  1  0.448300  0.318500  0.740600  1.0  -0.1566
  C  C409  1  0.479200  0.277200  0.724600  1.0  -0.1361
  C  C410  1  0.470900  0.231900  0.739000  1.0  -0.1347
  C  C411  1  0.435900  0.228200  0.766700  1.0  0.1497
  C  C412  1  0.543900  0.326000  0.652100  1.0  0.348
  C  C413  1  0.544600  0.243900  0.650200  1.0  0.3913
  C  C414  1  0.506700  0.281000  0.693400  1.0  0.3806
  C  C415  1  0.865800  0.570000  0.478500  1.0  0.1568
  C  C416  1  0.907200  0.586600  0.505600  1.0  -0.135
  C  C417  1  0.006300  0.579700  0.508200  1.0  -0.1118
  C  C418  1  0.059700  0.558700  0.485800  1.0  -0.0591
  C  C419  1  0.009600  0.544100  0.458800  1.0  0.1257
  C  C420  1  0.994000  0.709800  0.648400  1.0  0.1197
  C  C421  1  0.050000  0.686800  0.625500  1.0  -0.1086
  C  C422  1  0.006400  0.664100  0.601900  1.0  -0.0535
  C  C423  1  0.907000  0.666667  0.602100  1.0  -0.0915
  C  C424  1  0.855600  0.686300  0.625400  1.0  0.1102
  C  C425  1  0.447800  0.550900  0.549700  1.0  0.1149
  C  C426  1  0.356300  0.568000  0.543700  1.0  -0.1003
  C  C427  1  0.299100  0.591100  0.566200  1.0  -0.1198
  C  C428  1  0.347100  0.598500  0.593800  1.0  -0.0808
  C  C429  1  0.439600  0.583000  0.598600  1.0  0.1211
  C  C430  1  0.059900  0.597800  0.534200  1.0  0.2889
  C  C431  1  0.059800  0.639800  0.578600  1.0  0.3586
  C  C432  1  0.196100  0.604800  0.561700  1.0  0.4173
  C  C433  1  0.913200  0.919800  0.407100  1.0  0.1183
  C  C434  1  0.922200  0.875100  0.392500  1.0  -0.0919
  C  C435  1  0.944900  0.873200  0.362800  1.0  -0.1088
  C  C436  1  0.952600  0.916900  0.347800  1.0  -0.133
  C  C437  1  0.936300  0.959700  0.362800  1.0  0.1465
  C  C438  1  0.925600  0.608600  0.367600  1.0  0.1661
  C  C439  1  0.947100  0.650700  0.351800  1.0  -0.1252
  C  C440  1  0.938400  0.696200  0.365700  1.0  -0.0759
  C  C441  1  0.907100  0.696800  0.395900  1.0  -0.1426
  C  C442  1  0.892500  0.650600  0.409000  1.0  0.152
  C  C443  1  0.089400  0.810900  0.230700  1.0  0.1303
  C  C444  1  0.051700  0.818500  0.259400  1.0  -0.1563
  C  C445  1  0.020800  0.777200  0.275400  1.0  -0.1366
  C  C446  1  0.029100  0.731900  0.261000  1.0  -0.1351
  C  C447  1  0.064100  0.728200  0.233300  1.0  0.149
  C  C448  1  0.956100  0.826000  0.347900  1.0  0.3474
  C  C449  1  0.955400  0.743900  0.349800  1.0  0.3914
  C  C450  1  0.993300  0.781000  0.306600  1.0  0.3804
  C  C451  1  0.634200  0.070000  0.521500  1.0  0.156
  C  C452  1  0.592800  0.086600  0.494400  1.0  -0.1332
  C  C453  1  0.493700  0.079700  0.491800  1.0  -0.1119
  C  C454  1  0.440300  0.058700  0.514200  1.0  -0.0617
  C  C455  1  0.490400  0.044100  0.541200  1.0  0.125
  C  C456  1  0.506000  0.209800  0.351600  1.0  0.1191
  C  C457  1  0.450000  0.186800  0.374500  1.0  -0.1118
  C  C458  1  0.493600  0.164100  0.398100  1.0  -0.0557
  C  C459  1  0.593000  0.166600  0.397900  1.0  -0.0977
  C  C460  1  0.644400  0.186300  0.374600  1.0  0.1153
  C  C461  1  0.052200  0.050900  0.450300  1.0  0.1146
  C  C462  1  0.143700  0.068000  0.456300  1.0  -0.0994
  C  C463  1  0.200900  0.091100  0.433800  1.0  -0.12
  C  C464  1  0.152900  0.098500  0.406200  1.0  -0.0804
  C  C465  1  0.060400  0.083000  0.401400  1.0  0.1217
  C  C466  1  0.440100  0.097800  0.465800  1.0  0.2884
  C  C467  1  0.440200  0.139800  0.421400  1.0  0.359
  C  C468  1  0.303900  0.104800  0.438300  1.0  0.4173
  C  C469  1  0.086800  0.580200  0.907100  1.0  0.1187
  C  C470  1  0.077800  0.624900  0.892500  1.0  -0.0909
  C  C471  1  0.055100  0.626800  0.862800  1.0  -0.1099
  C  C472  1  0.047400  0.583100  0.847800  1.0  -0.1324
  C  C473  1  0.063700  0.540300  0.862800  1.0  0.145
  C  C474  1  0.074400  0.891400  0.867600  1.0  0.1646
  C  C475  1  0.052900  0.849300  0.851800  1.0  -0.1238
  C  C476  1  0.061600  0.803800  0.865700  1.0  -0.0772
  C  C477  1  0.092900  0.803200  0.895900  1.0  -0.1423
  C  C478  1  0.107500  0.849400  0.909000  1.0  0.1541
  C  C479  1  0.910600  0.689100  0.730700  1.0  0.1301
  C  C480  1  0.948300  0.681500  0.759400  1.0  -0.1573
  C  C481  1  0.979200  0.722800  0.775400  1.0  -0.1361
  C  C482  1  0.970900  0.768100  0.761000  1.0  -0.1355
  C  C483  1  0.935900  0.771800  0.733300  1.0  0.149
  C  C484  1  0.043900  0.674000  0.847900  1.0  0.3484
  C  C485  1  0.044600  0.756100  0.849800  1.0  0.3908
  C  C486  1  0.006700  0.719000  0.806600  1.0  0.38
  C  C487  1  0.365800  0.430000  0.021500  1.0  0.1563
  C  C488  1  0.407200  0.413400  0.994400  1.0  -0.1331
  C  C489  1  0.506300  0.420300  0.991800  1.0  -0.111
  C  C490  1  0.559700  0.441300  0.014200  1.0  -0.0604
  C  C491  1  0.509600  0.455900  0.041200  1.0  0.1261
  C  C492  1  0.494000  0.290200  0.851600  1.0  0.1187
  C  C493  1  0.550000  0.313200  0.874500  1.0  -0.109
  C  C494  1  0.506400  0.335900  0.898100  1.0  -0.0564
  C  C495  1  0.407000  0.333400  0.897900  1.0  -0.0969
  C  C496  1  0.355600  0.313700  0.874600  1.0  0.1158
  C  C497  1  0.947800  0.449100  0.950300  1.0  0.1162
  C  C498  1  0.856300  0.432000  0.956300  1.0  -0.1012
  C  C499  1  0.799100  0.408900  0.933800  1.0  -0.1221
  C  C500  1  0.847100  0.401500  0.906200  1.0  -0.0808
  C  C501  1  0.939600  0.417000  0.901400  1.0  0.121
  C  C502  1  0.559900  0.402200  0.965800  1.0  0.2878
  C  C503  1  0.559800  0.360200  0.921400  1.0  0.3586
  C  C504  1  0.696100  0.395200  0.938300  1.0  0.4177
  I  I505  1  0.700680  0.006460  0.963010  1.0  -0.4192
  I  I506  1  0.702620  0.077800  0.873200  1.0  -0.3897
  I  I507  1  0.559290  0.476500  0.886030  1.0  -0.3617
  I  I508  1  0.829760  0.557260  0.919830  1.0  -0.3985
  I  I509  1  0.164710  0.803750  0.689450  1.0  -0.3953
  I  I510  1  0.309220  0.664220  0.669520  1.0  -0.3403
  I  I511  1  0.299320  0.493540  0.463010  1.0  -0.4192
  I  I512  1  0.297380  0.422200  0.373200  1.0  -0.3897
  I  I513  1  0.440710  0.023500  0.386030  1.0  -0.3622
  I  I514  1  0.170240  0.942740  0.419830  1.0  -0.3983
  I  I515  1  0.835290  0.696250  0.189450  1.0  -0.3962
  I  I516  1  0.690780  0.835780  0.169520  1.0  -0.3397
  I  I517  1  0.200680  0.993540  0.536990  1.0  -0.4193
  I  I518  1  0.202620  0.922200  0.626800  1.0  -0.3906
  I  I519  1  0.059290  0.523500  0.613970  1.0  -0.3625
  I  I520  1  0.329760  0.442740  0.580170  1.0  -0.3998
  I  I521  1  0.664710  0.196250  0.810550  1.0  -0.3953
  I  I522  1  0.809220  0.335780  0.830480  1.0  -0.34
  I  I523  1  0.799320  0.506460  0.036990  1.0  -0.4194
  I  I524  1  0.797380  0.577800  0.126800  1.0  -0.3904
  I  I525  1  0.940710  0.976500  0.113970  1.0  -0.3625
  I  I526  1  0.670240  0.057260  0.080170  1.0  -0.3989
  I  I527  1  0.335290  0.303750  0.310550  1.0  -0.3958
  I  I528  1  0.190780  0.164220  0.330480  1.0  -0.3404
  I  I529  1  0.299320  0.993540  0.036990  1.0  -0.4193
  I  I530  1  0.297380  0.922200  0.126800  1.0  -0.3903
  I  I531  1  0.440710  0.523500  0.113970  1.0  -0.3627
  I  I532  1  0.170240  0.442740  0.080170  1.0  -0.3986
  I  I533  1  0.835290  0.196250  0.310550  1.0  -0.3961
  I  I534  1  0.690780  0.335780  0.330480  1.0  -0.3399
  I  I535  1  0.700680  0.506460  0.536990  1.0  -0.4194
  I  I536  1  0.702620  0.577800  0.626800  1.0  -0.3907
  I  I537  1  0.559290  0.976500  0.613970  1.0  -0.3625
  I  I538  1  0.829760  0.057260  0.580170  1.0  -0.3987
  I  I539  1  0.164710  0.303750  0.810550  1.0  -0.3952
  I  I540  1  0.309220  0.164220  0.830480  1.0  -0.3405
  I  I541  1  0.799320  0.006460  0.463010  1.0  -0.4193
  I  I542  1  0.797380  0.077800  0.373200  1.0  -0.3896
  I  I543  1  0.940710  0.476500  0.386030  1.0  -0.363
  I  I544  1  0.670240  0.557260  0.419830  1.0  -0.3979
  I  I545  1  0.335290  0.803750  0.189450  1.0  -0.396
  I  I546  1  0.190780  0.664220  0.169520  1.0  -0.3403
  I  I547  1  0.200680  0.493540  0.963010  1.0  -0.4191
  I  I548  1  0.202620  0.422200  0.873200  1.0  -0.3899
  I  I549  1  0.059290  0.023500  0.886030  1.0  -0.3609
  I  I550  1  0.329760  0.942740  0.919830  1.0  -0.3987
  I  I551  1  0.664710  0.696250  0.689450  1.0  -0.3953
  I  I552  1  0.809220  0.835780  0.669520  1.0  -0.3398
  N  N553  1  0.586100  0.962700  0.891800  1.0  -0.3244
  N  N554  1  0.601400  0.608800  0.894800  1.0  -0.2365
  N  N555  1  0.403000  0.765100  0.717700  1.0  -0.3396
  N  N556  1  0.557500  0.785000  0.863900  1.0  -0.388
  N  N557  1  0.521600  0.739100  0.820630  1.0  -0.4966
  N  N558  1  0.516000  0.825600  0.818600  1.0  -0.4684
  N  N559  1  0.912800  0.052200  0.044000  1.0  -0.3128
  N  N560  1  0.900600  0.209100  0.851900  1.0  -0.3083
  N  N561  1  0.490300  0.060500  0.923200  1.0  -0.3304
  N  N562  1  0.006100  0.122500  0.945100  1.0  -0.3362
  N  N563  1  0.154700  0.132300  0.917600  1.0  -0.4738
  N  N564  1  0.154700  0.086600  0.962500  1.0  -0.4381
  N  N565  1  0.413900  0.537300  0.391800  1.0  -0.3229
  N  N566  1  0.398600  0.891200  0.394800  1.0  -0.2366
  N  N567  1  0.597000  0.734900  0.217700  1.0  -0.3388
  N  N568  1  0.442500  0.715000  0.363900  1.0  -0.3871
  N  N569  1  0.478400  0.760900  0.320630  1.0  -0.4952
  N  N570  1  0.484000  0.674400  0.318600  1.0  -0.4684
  N  N571  1  0.087200  0.447800  0.544000  1.0  -0.3125
  N  N572  1  0.099400  0.290900  0.351900  1.0  -0.3083
  N  N573  1  0.509700  0.439500  0.423200  1.0  -0.3293
  N  N574  1  0.993900  0.377500  0.445100  1.0  -0.3353
  N  N575  1  0.845300  0.367700  0.417600  1.0  -0.4747
  N  N576  1  0.845300  0.413400  0.462500  1.0  -0.4376
  N  N577  1  0.086100  0.037300  0.608200  1.0  -0.3232
  N  N578  1  0.101400  0.391200  0.605200  1.0  -0.2361
  N  N579  1  0.903000  0.234900  0.782300  1.0  -0.3379
  N  N580  1  0.057500  0.215000  0.636100  1.0  -0.3867
  N  N581  1  0.021600  0.260900  0.679370  1.0  -0.497
  N  N582  1  0.016000  0.174400  0.681400  1.0  -0.4693
  N  N583  1  0.412800  0.947800  0.456000  1.0  -0.3154
  N  N584  1  0.400600  0.790900  0.648100  1.0  -0.3081
  N  N585  1  0.990300  0.939500  0.576800  1.0  -0.3303
  N  N586  1  0.506100  0.877500  0.554900  1.0  -0.3358
  N  N587  1  0.654700  0.867700  0.582400  1.0  -0.4734
  N  N588  1  0.654700  0.913400  0.537500  1.0  -0.436
  N  N589  1  0.913900  0.462700  0.108200  1.0  -0.3235
  N  N590  1  0.898600  0.108800  0.105200  1.0  -0.236
  N  N591  1  0.097000  0.265100  0.282300  1.0  -0.3375
  N  N592  1  0.942500  0.285000  0.136100  1.0  -0.3865
  N  N593  1  0.978400  0.239100  0.179370  1.0  -0.4955
  N  N594  1  0.984000  0.325600  0.181400  1.0  -0.4705
  N  N595  1  0.587200  0.552200  0.956000  1.0  -0.3154
  N  N596  1  0.599400  0.709100  0.148100  1.0  -0.3085
  N  N597  1  0.009700  0.560500  0.076800  1.0  -0.3294
  N  N598  1  0.493900  0.622500  0.054900  1.0  -0.3358
  N  N599  1  0.345300  0.632300  0.082400  1.0  -0.4746
  N  N600  1  0.345300  0.586600  0.037500  1.0  -0.4368
  N  N601  1  0.413900  0.037300  0.108200  1.0  -0.323
  N  N602  1  0.398600  0.391200  0.105200  1.0  -0.2361
  N  N603  1  0.597000  0.234900  0.282300  1.0  -0.3375
  N  N604  1  0.442500  0.215000  0.136100  1.0  -0.3864
  N  N605  1  0.478400  0.260900  0.179370  1.0  -0.496
  N  N606  1  0.484000  0.174400  0.181400  1.0  -0.4691
  N  N607  1  0.087200  0.947800  0.956000  1.0  -0.3143
  N  N608  1  0.099400  0.790900  0.148100  1.0  -0.3073
  N  N609  1  0.509700  0.939500  0.076800  1.0  -0.3296
  N  N610  1  0.993900  0.877500  0.054900  1.0  -0.3356
  N  N611  1  0.845300  0.867700  0.082400  1.0  -0.4741
  N  N612  1  0.845300  0.913400  0.037500  1.0  -0.4363
  N  N613  1  0.586100  0.462700  0.608200  1.0  -0.3244
  N  N614  1  0.601400  0.108800  0.605200  1.0  -0.2353
  N  N615  1  0.403000  0.265100  0.782300  1.0  -0.3385
  N  N616  1  0.557500  0.285000  0.636100  1.0  -0.3869
  N  N617  1  0.521600  0.239100  0.679370  1.0  -0.4966
  N  N618  1  0.516000  0.325600  0.681400  1.0  -0.4704
  N  N619  1  0.912800  0.552200  0.456000  1.0  -0.3165
  N  N620  1  0.900600  0.709100  0.648100  1.0  -0.3089
  N  N621  1  0.490300  0.560500  0.576800  1.0  -0.3303
  N  N622  1  0.006100  0.622500  0.554900  1.0  -0.3361
  N  N623  1  0.154700  0.632300  0.582400  1.0  -0.4745
  N  N624  1  0.154700  0.586600  0.537500  1.0  -0.4371
  N  N625  1  0.913900  0.962700  0.391800  1.0  -0.3235
  N  N626  1  0.898600  0.608800  0.394800  1.0  -0.2371
  N  N627  1  0.097000  0.765100  0.217700  1.0  -0.3391
  N  N628  1  0.942500  0.785000  0.363900  1.0  -0.3873
  N  N629  1  0.978400  0.739100  0.320630  1.0  -0.4954
  N  N630  1  0.984000  0.825600  0.318600  1.0  -0.4684
  N  N631  1  0.587200  0.052200  0.544000  1.0  -0.3126
  N  N632  1  0.599400  0.209100  0.351900  1.0  -0.3085
  N  N633  1  0.009700  0.060500  0.423200  1.0  -0.3293
  N  N634  1  0.493900  0.122500  0.445100  1.0  -0.3359
  N  N635  1  0.345300  0.132300  0.417600  1.0  -0.4736
  N  N636  1  0.345300  0.086600  0.462500  1.0  -0.4378
  N  N637  1  0.086100  0.537300  0.891800  1.0  -0.3231
  N  N638  1  0.101400  0.891200  0.894800  1.0  -0.237
  N  N639  1  0.903000  0.734900  0.717700  1.0  -0.3388
  N  N640  1  0.057500  0.715000  0.863900  1.0  -0.3877
  N  N641  1  0.021600  0.760900  0.820630  1.0  -0.4962
  N  N642  1  0.016000  0.674400  0.818600  1.0  -0.4688
  N  N643  1  0.412800  0.447800  0.044000  1.0  -0.3129
  N  N644  1  0.400600  0.290900  0.851900  1.0  -0.3092
  N  N645  1  0.990300  0.439500  0.923200  1.0  -0.3301
  N  N646  1  0.506100  0.377500  0.945100  1.0  -0.3356
  N  N647  1  0.654700  0.367700  0.917600  1.0  -0.4744
  N  N648  1  0.654700  0.413400  0.962500  1.0  -0.4374
