# generated using pymatgen
data_Cu3H40C45N9O8
_symmetry_space_group_name_H-M   'P 1'
_cell_length_a   16.64200000
_cell_length_b   19.54500000
_cell_length_c   22.66010000
_cell_angle_alpha   115.54800000
_cell_angle_beta   90.64690000
_cell_angle_gamma   90.00000000
_symmetry_Int_Tables_number   1
_chemical_formula_structural   Cu3H40C45N9O8
_chemical_formula_sum   'Cu12 H160 C180 N36 O32'
_cell_volume   6649.41638260
_cell_formula_units_Z   4
loop_
 _symmetry_equiv_pos_site_id
 _symmetry_equiv_pos_as_xyz
  1  'x, y, z'
loop_
 _atom_site_type_symbol
 _atom_site_label
 _atom_site_symmetry_multiplicity
 _atom_site_fract_x
 _atom_site_fract_y
 _atom_site_fract_z
 _atom_site_occupancy
 _atom_site_charge
  Cu  Cu1  1  0.142360  0.098170  0.774720  1.0  0.5246
  Cu  Cu2  1  0.620190  0.090100  0.729960  1.0  0.761
  Cu  Cu3  1  0.402580  0.904820  0.741540  1.0  0.731
  Cu  Cu4  1  0.357640  0.323450  0.225280  1.0  0.5244
  Cu  Cu5  1  0.879810  0.360140  0.270040  1.0  0.7613
  Cu  Cu6  1  0.097420  0.163280  0.258460  1.0  0.733
  Cu  Cu7  1  0.857640  0.901830  0.225280  1.0  0.5238
  Cu  Cu8  1  0.379810  0.909900  0.270040  1.0  0.7619
  Cu  Cu9  1  0.597420  0.095180  0.258460  1.0  0.7331
  Cu  Cu10  1  0.642360  0.676550  0.774720  1.0  0.5246
  Cu  Cu11  1  0.120190  0.639860  0.729960  1.0  0.7619
  Cu  Cu12  1  0.902580  0.836720  0.741540  1.0  0.73
  H  H13  1  0.298400  0.842000  0.352800  1.0  0.0629
  H  H14  1  0.250200  0.880100  0.456000  1.0  0.1052
  H  H15  1  0.313900  0.092800  0.495400  1.0  0.1154
  H  H16  1  0.359700  0.047600  0.389400  1.0  0.0597
  H  H17  1  0.127400  0.969900  0.644600  1.0  0.06
  H  H18  1  0.170500  0.928300  0.539200  1.0  0.1076
  H  H19  1  0.309800  0.115100  0.599800  1.0  0.1118
  H  H20  1  0.259300  0.151200  0.701800  1.0  0.0629
  H  H21  1  0.206700  0.564300  0.795200  1.0  0.068
  H  H22  1  0.210100  0.455900  0.810600  1.0  0.113
  H  H23  1  0.004200  0.392500  0.707200  1.0  0.1039
  H  H24  1  0.007700  0.501600  0.694000  1.0  0.088
  H  H25  1  0.173700  0.262400  0.860400  1.0  0.0936
  H  H26  1  0.168800  0.376200  0.852200  1.0  0.0969
  H  H27  1  0.047700  0.272800  0.682600  1.0  0.1098
  H  H28  1  0.056500  0.162600  0.692800  1.0  0.0722
  H  H29  1  0.024700  0.361200  0.202000  1.0  0.0683
  H  H30  1  0.083900  0.302000  0.099000  1.0  0.1056
  H  H31  1  0.892000  0.164300  0.037800  1.0  0.115
  H  H32  1  0.841600  0.226000  0.141600  1.0  0.0568
  H  H33  1  0.538000  0.886100  0.815800  1.0  0.0573
  H  H34  1  0.586100  0.929700  0.920600  1.0  0.1078
  H  H35  1  0.375400  0.029700  0.981600  1.0  0.1077
  H  H36  1  0.337700  0.989200  0.877000  1.0  0.0487
  H  H37  1  0.198000  0.154100  0.914000  1.0  0.064
  H  H38  1  0.146900  0.202100  0.017200  1.0  0.0911
  H  H39  1  0.926700  0.167500  0.938200  1.0  0.1128
  H  H40  1  0.983800  0.124100  0.838800  1.0  0.053
  H  H41  1  0.235200  0.773200  0.648400  1.0  0.0655
  H  H42  1  0.326700  0.752000  0.644000  1.0  0.0709
  H  H43  1  0.265800  0.885000  0.640600  1.0  0.0635
  H  H44  1  0.301100  0.816100  0.580000  1.0  0.0593
  H  H45  1  0.410400  0.940700  0.595800  1.0  0.0795
  H  H46  1  0.348800  0.979900  0.652800  1.0  0.0768
  H  H47  1  0.485400  0.848200  0.586400  1.0  0.0949
  H  H48  1  0.426500  0.780000  0.571000  1.0  0.0899
  H  H49  1  0.363300  0.758700  0.744000  1.0  0.1165
  H  H50  1  0.323000  0.814900  0.808400  1.0  0.1217
  H  H51  1  0.178600  0.860100  0.734000  1.0  0.087
  H  H52  1  0.216100  0.887100  0.804200  1.0  0.1083
  H  H53  1  0.201600  0.489200  0.647200  1.0  0.0602
  H  H54  1  0.249800  0.424100  0.544000  1.0  0.1066
  H  H55  1  0.186100  0.597400  0.504600  1.0  0.115
  H  H56  1  0.140300  0.658200  0.610600  1.0  0.0589
  H  H57  1  0.372600  0.325300  0.355400  1.0  0.0613
  H  H58  1  0.329500  0.389100  0.460800  1.0  0.108
  H  H59  1  0.190200  0.515300  0.400200  1.0  0.1117
  H  H60  1  0.240700  0.449400  0.298200  1.0  0.0638
  H  H61  1  0.293300  0.769100  0.204800  1.0  0.0658
  H  H62  1  0.289900  0.645300  0.189400  1.0  0.1132
  H  H63  1  0.495800  0.685300  0.292800  1.0  0.1044
  H  H64  1  0.492300  0.807600  0.306000  1.0  0.0896
  H  H65  1  0.326300  0.402000  0.139600  1.0  0.0923
  H  H66  1  0.331200  0.524000  0.147800  1.0  0.0975
  H  H67  1  0.452300  0.590200  0.317400  1.0  0.111
  H  H68  1  0.443500  0.469800  0.307200  1.0  0.0727
  H  H69  1  0.475300  0.159200  0.798000  1.0  0.0668
  H  H70  1  0.416100  0.203000  0.901000  1.0  0.1049
  H  H71  1  0.608000  0.126500  0.962200  1.0  0.1157
  H  H72  1  0.658400  0.084400  0.858400  1.0  0.0563
  H  H73  1  0.962000  0.070300  0.184200  1.0  0.0574
  H  H74  1  0.913900  0.009100  0.079400  1.0  0.1086
  H  H75  1  0.124600  0.048100  0.018400  1.0  0.1076
  H  H76  1  0.162300  0.112200  0.123000  1.0  0.0496
  H  H77  1  0.302000  0.240100  0.086000  1.0  0.0646
  H  H78  1  0.353100  0.184900  0.982800  1.0  0.0919
  H  H79  1  0.573300  0.229300  0.061800  1.0  0.1124
  H  H80  1  0.516200  0.285300  0.161200  1.0  0.0517
  H  H81  1  0.264800  0.124800  0.351600  1.0  0.0709
  H  H82  1  0.173300  0.108000  0.356000  1.0  0.0724
  H  H83  1  0.234200  0.244400  0.359400  1.0  0.063
  H  H84  1  0.198900  0.236100  0.420000  1.0  0.0598
  H  H85  1  0.089600  0.344900  0.404200  1.0  0.0785
  H  H86  1  0.151200  0.327100  0.347200  1.0  0.0737
  H  H87  1  0.014600  0.261800  0.413600  1.0  0.0978
  H  H88  1  0.073500  0.209000  0.429000  1.0  0.0911
  H  H89  1  0.136700  0.014700  0.256000  1.0  0.1162
  H  H90  1  0.177000  0.006500  0.191600  1.0  0.1199
  H  H91  1  0.321400  0.126100  0.266000  1.0  0.0872
  H  H92  1  0.283900  0.082900  0.195800  1.0  0.1089
  H  H93  1  0.701600  0.158000  0.647200  1.0  0.0614
  H  H94  1  0.749800  0.119900  0.544000  1.0  0.1053
  H  H95  1  0.686100  0.907200  0.504600  1.0  0.1153
  H  H96  1  0.640300  0.952400  0.610600  1.0  0.0597
  H  H97  1  0.872600  0.030100  0.355400  1.0  0.0623
  H  H98  1  0.829500  0.071700  0.460800  1.0  0.1075
  H  H99  1  0.690200  0.884900  0.400200  1.0  0.1109
  H  H100  1  0.740700  0.848800  0.298200  1.0  0.063
  H  H101  1  0.793300  0.435700  0.204800  1.0  0.0671
  H  H102  1  0.789900  0.544100  0.189400  1.0  0.1124
  H  H103  1  0.995800  0.607500  0.292800  1.0  0.104
  H  H104  1  0.992300  0.498400  0.306000  1.0  0.0887
  H  H105  1  0.826300  0.737600  0.139600  1.0  0.0933
  H  H106  1  0.831200  0.623800  0.147800  1.0  0.0963
  H  H107  1  0.952300  0.727200  0.317400  1.0  0.1102
  H  H108  1  0.943500  0.837400  0.307200  1.0  0.0729
  H  H109  1  0.975300  0.638800  0.798000  1.0  0.0681
  H  H110  1  0.916100  0.698000  0.901000  1.0  0.1051
  H  H111  1  0.108000  0.835700  0.962200  1.0  0.1153
  H  H112  1  0.158400  0.774000  0.858400  1.0  0.0571
  H  H113  1  0.462000  0.113900  0.184200  1.0  0.0558
  H  H114  1  0.413900  0.070300  0.079400  1.0  0.1082
  H  H115  1  0.624600  0.970300  0.018400  1.0  0.1086
  H  H116  1  0.662300  0.010800  0.123000  1.0  0.0495
  H  H117  1  0.802000  0.845900  0.086000  1.0  0.0647
  H  H118  1  0.853100  0.797900  0.982800  1.0  0.0915
  H  H119  1  0.073300  0.832500  0.061800  1.0  0.1125
  H  H120  1  0.016200  0.875900  0.161200  1.0  0.0536
  H  H121  1  0.764800  0.226800  0.351600  1.0  0.0688
  H  H122  1  0.673300  0.248000  0.356000  1.0  0.0734
  H  H123  1  0.734200  0.115000  0.359400  1.0  0.0626
  H  H124  1  0.698900  0.183900  0.420000  1.0  0.0591
  H  H125  1  0.589600  0.059300  0.404200  1.0  0.0787
  H  H126  1  0.651200  0.020100  0.347200  1.0  0.0762
  H  H127  1  0.514600  0.151800  0.413600  1.0  0.0961
  H  H128  1  0.573500  0.220000  0.429000  1.0  0.0902
  H  H129  1  0.636700  0.241300  0.256000  1.0  0.1167
  H  H130  1  0.677000  0.185100  0.191600  1.0  0.1201
  H  H131  1  0.821400  0.139900  0.266000  1.0  0.0883
  H  H132  1  0.783900  0.112900  0.195800  1.0  0.1084
  H  H133  1  0.798400  0.510800  0.352800  1.0  0.0608
  H  H134  1  0.750200  0.575900  0.456000  1.0  0.1062
  H  H135  1  0.813900  0.402600  0.495400  1.0  0.1153
  H  H136  1  0.859700  0.341800  0.389400  1.0  0.0592
  H  H137  1  0.627400  0.674700  0.644600  1.0  0.0608
  H  H138  1  0.670500  0.610900  0.539200  1.0  0.1086
  H  H139  1  0.809800  0.484700  0.599800  1.0  0.1114
  H  H140  1  0.759300  0.550600  0.701800  1.0  0.064
  H  H141  1  0.706700  0.230900  0.795200  1.0  0.0662
  H  H142  1  0.710100  0.354700  0.810600  1.0  0.1138
  H  H143  1  0.504200  0.314700  0.707200  1.0  0.1038
  H  H144  1  0.507700  0.192400  0.694000  1.0  0.0883
  H  H145  1  0.673700  0.598000  0.860400  1.0  0.0926
  H  H146  1  0.668800  0.476000  0.852200  1.0  0.0983
  H  H147  1  0.547700  0.409800  0.682600  1.0  0.1097
  H  H148  1  0.556500  0.530200  0.692800  1.0  0.0731
  H  H149  1  0.524700  0.840800  0.202000  1.0  0.0675
  H  H150  1  0.583900  0.797000  0.099000  1.0  0.105
  H  H151  1  0.392000  0.873500  0.037800  1.0  0.115
  H  H152  1  0.341600  0.915600  0.141600  1.0  0.0561
  H  H153  1  0.038000  0.929700  0.815800  1.0  0.0562
  H  H154  1  0.086100  0.990900  0.920600  1.0  0.1081
  H  H155  1  0.875400  0.951900  0.981600  1.0  0.1079
  H  H156  1  0.837700  0.887800  0.877000  1.0  0.0493
  H  H157  1  0.698000  0.759900  0.914000  1.0  0.0642
  H  H158  1  0.646900  0.815100  0.017200  1.0  0.0914
  H  H159  1  0.426700  0.770700  0.938200  1.0  0.1131
  H  H160  1  0.483800  0.714700  0.838800  1.0  0.0523
  H  H161  1  0.735200  0.875200  0.648400  1.0  0.0665
  H  H162  1  0.826700  0.892000  0.644000  1.0  0.0717
  H  H163  1  0.765800  0.755600  0.640600  1.0  0.0645
  H  H164  1  0.801100  0.763900  0.580000  1.0  0.0593
  H  H165  1  0.910400  0.655100  0.595800  1.0  0.0787
  H  H166  1  0.848800  0.672900  0.652800  1.0  0.0747
  H  H167  1  0.985400  0.738200  0.586400  1.0  0.0978
  H  H168  1  0.926500  0.791000  0.571000  1.0  0.0905
  H  H169  1  0.863300  0.985300  0.744000  1.0  0.1176
  H  H170  1  0.823000  0.993500  0.808400  1.0  0.1197
  H  H171  1  0.678600  0.873900  0.734000  1.0  0.0858
  H  H172  1  0.716100  0.917100  0.804200  1.0  0.1087
  C  C173  1  0.301500  0.893100  0.381800  1.0  0.1619
  C  C174  1  0.272300  0.915700  0.443800  1.0  -0.1998
  C  C175  1  0.275700  0.990790  0.487980  1.0  0.0744
  C  C176  1  0.309800  0.041460  0.467320  1.0  -0.2271
  C  C177  1  0.337500  0.013500  0.403400  1.0  0.156
  C  C178  1  0.164000  0.999590  0.634980  1.0  0.1431
  C  C179  1  0.189500  0.974160  0.571520  1.0  -0.2062
  C  C180  1  0.244400  0.018100  0.556000  1.0  0.068
  C  C181  1  0.271700  0.084900  0.607200  1.0  -0.2172
  C  C182  1  0.241900  0.105570  0.668340  1.0  0.1456
  C  C183  1  0.165600  0.528900  0.777200  1.0  0.149
  C  C184  1  0.168300  0.463900  0.786800  1.0  -0.2407
  C  C185  1  0.107300  0.410310  0.760020  1.0  0.0909
  C  C186  1  0.046500  0.426600  0.725400  1.0  -0.1815
  C  C187  1  0.048500  0.492000  0.717800  1.0  0.0856
  C  C188  1  0.149600  0.264500  0.824000  1.0  0.1165
  C  C189  1  0.145800  0.333333  0.819200  1.0  -0.148
  C  C190  1  0.109200  0.339240  0.767280  1.0  0.044
  C  C191  1  0.074200  0.271900  0.718600  1.0  -0.1891
  C  C192  1  0.080000  0.206200  0.725000  1.0  0.1468
  C  C193  1  0.997800  0.321450  0.168500  1.0  0.1471
  C  C194  1  0.034100  0.285400  0.106000  1.0  -0.1806
  C  C195  1  0.996000  0.227200  0.057000  1.0  0.0599
  C  C196  1  0.920600  0.203900  0.070000  1.0  -0.1917
  C  C197  1  0.890600  0.242100  0.132600  1.0  0.1658
  C  C198  1  0.505400  0.917300  0.849800  1.0  0.1631
  C  C199  1  0.534300  0.942400  0.913000  1.0  -0.2137
  C  C200  1  0.486500  0.986300  0.965200  1.0  0.0689
  C  C201  1  0.411200  0.001700  0.948800  1.0  -0.2133
  C  C202  1  0.388900  0.976500  0.885800  1.0  0.1704
  C  C203  1  0.142600  0.157400  0.919200  1.0  0.1291
  C  C204  1  0.111900  0.186300  0.981400  1.0  -0.1858
  C  C205  1  0.030900  0.192300  0.991400  1.0  0.0889
  C  C206  1  0.982400  0.166400  0.935000  1.0  -0.2208
  C  C207  1  0.017400  0.139500  0.875400  1.0  0.1586
  C  C208  1  0.289100  0.793920  0.659640  1.0  -0.0396
  C  C209  1  0.305400  0.844890  0.627180  1.0  -0.021
  C  C210  1  0.397700  0.950320  0.640440  1.0  -0.1385
  C  C211  1  0.466300  0.993490  0.686380  1.0  0.7285
  C  C212  1  0.451800  0.823400  0.606200  1.0  -0.2332
  C  C213  1  0.504400  0.795600  0.645600  1.0  0.7377
  C  C214  1  0.313500  0.784630  0.762060  1.0  -0.1376
  C  C215  1  0.251500  0.724430  0.755060  1.0  0.7212
  C  C216  1  0.225100  0.884600  0.761000  1.0  -0.1676
  C  C217  1  0.231700  0.965060  0.766920  1.0  0.7181
  C  C218  1  0.198500  0.511300  0.618200  1.0  0.1626
  C  C219  1  0.227700  0.471900  0.556200  1.0  -0.198
  C  C220  1  0.224300  0.502810  0.512020  1.0  0.0754
  C  C221  1  0.190200  0.574140  0.532680  1.0  -0.2253
  C  C222  1  0.162500  0.610100  0.596600  1.0  0.1543
  C  C223  1  0.336000  0.364610  0.365020  1.0  0.1398
  C  C224  1  0.310500  0.402640  0.428480  1.0  -0.2085
  C  C225  1  0.255600  0.462100  0.444000  1.0  0.0667
  C  C226  1  0.228300  0.477700  0.392800  1.0  -0.2178
  C  C227  1  0.258100  0.437230  0.331660  1.0  0.1453
  C  C228  1  0.334400  0.751700  0.222800  1.0  0.1494
  C  C229  1  0.331700  0.677100  0.213200  1.0  -0.2417
  C  C230  1  0.392700  0.650290  0.239980  1.0  0.0913
  C  C231  1  0.453500  0.701200  0.274600  1.0  -0.1813
  C  C232  1  0.451500  0.774200  0.282200  1.0  0.085
  C  C233  1  0.350400  0.440500  0.176000  1.0  0.117
  C  C234  1  0.354200  0.514100  0.180800  1.0  -0.1454
  C  C235  1  0.390800  0.571960  0.232720  1.0  0.0445
  C  C236  1  0.425800  0.553300  0.281400  1.0  -0.1908
  C  C237  1  0.420000  0.481200  0.275000  1.0  0.1439
  C  C238  1  0.502200  0.152950  0.831500  1.0  0.1468
  C  C239  1  0.465900  0.179400  0.894000  1.0  -0.1816
  C  C240  1  0.504000  0.170200  0.943000  1.0  0.0606
  C  C241  1  0.579400  0.133900  0.930000  1.0  -0.1909
  C  C242  1  0.609400  0.109500  0.867400  1.0  0.1649
  C  C243  1  0.994600  0.067500  0.150200  1.0  0.164
  C  C244  1  0.965700  0.029400  0.087000  1.0  -0.2124
  C  C245  1  0.013500  0.021100  0.034800  1.0  0.0689
  C  C246  1  0.088800  0.052900  0.051200  1.0  -0.2142
  C  C247  1  0.111100  0.090700  0.114200  1.0  0.1704
  C  C248  1  0.357400  0.238200  0.080800  1.0  0.1289
  C  C249  1  0.388100  0.204900  0.018600  1.0  -0.1838
  C  C250  1  0.469100  0.200900  0.008600  1.0  0.0886
  C  C251  1  0.517600  0.231400  0.065000  1.0  -0.2206
  C  C252  1  0.482600  0.264100  0.124600  1.0  0.16
  C  C253  1  0.210900  0.134280  0.340360  1.0  -0.0396
  C  C254  1  0.194600  0.217710  0.372820  1.0  -0.0243
  C  C255  1  0.102300  0.309880  0.359560  1.0  -0.1381
  C  C256  1  0.033700  0.307110  0.313620  1.0  0.7306
  C  C257  1  0.048200  0.217200  0.393800  1.0  -0.2348
  C  C258  1  0.995600  0.150000  0.354400  1.0  0.7339
  C  C259  1  0.186500  0.022570  0.237940  1.0  -0.1314
  C  C260  1  0.248500  0.969370  0.244940  1.0  0.7227
  C  C261  1  0.274900  0.123600  0.239000  1.0  -0.1693
  C  C262  1  0.268300  0.198140  0.233080  1.0  0.7195
  C  C263  1  0.698500  0.106900  0.618200  1.0  0.161
  C  C264  1  0.727700  0.084300  0.556200  1.0  -0.2002
  C  C265  1  0.724300  0.009210  0.512020  1.0  0.0751
  C  C266  1  0.690200  0.958540  0.532680  1.0  -0.2268
  C  C267  1  0.662500  0.986500  0.596600  1.0  0.156
  C  C268  1  0.836000  0.000410  0.365020  1.0  0.1414
  C  C269  1  0.810500  0.025840  0.428480  1.0  -0.206
  C  C270  1  0.755600  0.981900  0.444000  1.0  0.0666
  C  C271  1  0.728300  0.915100  0.392800  1.0  -0.2173
  C  C272  1  0.758100  0.894430  0.331660  1.0  0.1466
  C  C273  1  0.834400  0.471100  0.222800  1.0  0.1498
  C  C274  1  0.831700  0.536100  0.213200  1.0  -0.2434
  C  C275  1  0.892700  0.589690  0.239980  1.0  0.0921
  C  C276  1  0.953500  0.573400  0.274600  1.0  -0.1823
  C  C277  1  0.951500  0.508000  0.282200  1.0  0.0868
  C  C278  1  0.850400  0.735500  0.176000  1.0  0.118
  C  C279  1  0.854200  0.666667  0.180800  1.0  -0.1503
  C  C280  1  0.890800  0.660760  0.232720  1.0  0.0439
  C  C281  1  0.925800  0.728100  0.281400  1.0  -0.1904
  C  C282  1  0.920000  0.793800  0.275000  1.0  0.1458
  C  C283  1  0.002200  0.678550  0.831500  1.0  0.1462
  C  C284  1  0.965900  0.714600  0.894000  1.0  -0.18
  C  C285  1  0.004000  0.772800  0.943000  1.0  0.0598
  C  C286  1  0.079400  0.796100  0.930000  1.0  -0.1903
  C  C287  1  0.109400  0.757900  0.867400  1.0  0.1638
  C  C288  1  0.494600  0.082700  0.150200  1.0  0.1635
  C  C289  1  0.465700  0.057600  0.087000  1.0  -0.2123
  C  C290  1  0.513500  0.013700  0.034800  1.0  0.069
  C  C291  1  0.588800  0.998300  0.051200  1.0  -0.2141
  C  C292  1  0.611100  0.023500  0.114200  1.0  0.1711
  C  C293  1  0.857400  0.842600  0.080800  1.0  0.1281
  C  C294  1  0.888100  0.813700  0.018600  1.0  -0.1845
  C  C295  1  0.969100  0.807700  0.008600  1.0  0.0892
  C  C296  1  0.017600  0.833600  0.065000  1.0  -0.2177
  C  C297  1  0.982600  0.860500  0.124600  1.0  0.1594
  C  C298  1  0.710900  0.206080  0.340360  1.0  -0.0389
  C  C299  1  0.694600  0.155110  0.372820  1.0  -0.0224
  C  C300  1  0.602300  0.049680  0.359560  1.0  -0.1404
  C  C301  1  0.533700  0.006510  0.313620  1.0  0.7273
  C  C302  1  0.548200  0.176600  0.393800  1.0  -0.2349
  C  C303  1  0.495600  0.204400  0.354400  1.0  0.7363
  C  C304  1  0.686500  0.215370  0.237940  1.0  -0.1365
  C  C305  1  0.748500  0.275570  0.244940  1.0  0.7246
  C  C306  1  0.774900  0.115400  0.239000  1.0  -0.1698
  C  C307  1  0.768300  0.034940  0.233080  1.0  0.7181
  C  C308  1  0.801500  0.488700  0.381800  1.0  0.1624
  C  C309  1  0.772300  0.528100  0.443800  1.0  -0.199
  C  C310  1  0.775700  0.497190  0.487980  1.0  0.0743
  C  C311  1  0.809800  0.425860  0.467320  1.0  -0.2257
  C  C312  1  0.837500  0.389900  0.403400  1.0  0.1545
  C  C313  1  0.664000  0.635390  0.634980  1.0  0.1412
  C  C314  1  0.689500  0.597360  0.571520  1.0  -0.2092
  C  C315  1  0.744400  0.537900  0.556000  1.0  0.0673
  C  C316  1  0.771700  0.522300  0.607200  1.0  -0.2202
  C  C317  1  0.741900  0.562770  0.668340  1.0  0.1453
  C  C318  1  0.665600  0.248300  0.777200  1.0  0.15
  C  C319  1  0.668300  0.322900  0.786800  1.0  -0.2404
  C  C320  1  0.607300  0.349710  0.760020  1.0  0.0909
  C  C321  1  0.546500  0.298800  0.725400  1.0  -0.1819
  C  C322  1  0.548500  0.225800  0.717800  1.0  0.0851
  C  C323  1  0.649600  0.559500  0.824000  1.0  0.1158
  C  C324  1  0.645800  0.485900  0.819200  1.0  -0.1456
  C  C325  1  0.609200  0.428040  0.767280  1.0  0.0446
  C  C326  1  0.574200  0.446700  0.718600  1.0  -0.1906
  C  C327  1  0.580000  0.518800  0.725000  1.0  0.1432
  C  C328  1  0.497800  0.847050  0.168500  1.0  0.1462
  C  C329  1  0.534100  0.820600  0.106000  1.0  -0.1813
  C  C330  1  0.496000  0.829800  0.057000  1.0  0.0602
  C  C331  1  0.420600  0.866100  0.070000  1.0  -0.1918
  C  C332  1  0.390600  0.890500  0.132600  1.0  0.1653
  C  C333  1  0.005400  0.932500  0.849800  1.0  0.1628
  C  C334  1  0.034300  0.970600  0.913000  1.0  -0.2133
  C  C335  1  0.986500  0.978900  0.965200  1.0  0.0688
  C  C336  1  0.911200  0.947100  0.948800  1.0  -0.2133
  C  C337  1  0.888900  0.909300  0.885800  1.0  0.1695
  C  C338  1  0.642600  0.761800  0.919200  1.0  0.1291
  C  C339  1  0.611900  0.795100  0.981400  1.0  -0.1848
  C  C340  1  0.530900  0.799100  0.991400  1.0  0.0883
  C  C341  1  0.482400  0.768600  0.935000  1.0  -0.2202
  C  C342  1  0.517400  0.735900  0.875400  1.0  0.1588
  C  C343  1  0.789100  0.865720  0.659640  1.0  -0.039
  C  C344  1  0.805400  0.782290  0.627180  1.0  -0.024
  C  C345  1  0.897700  0.690120  0.640440  1.0  -0.1369
  C  C346  1  0.966300  0.692890  0.686380  1.0  0.7289
  C  C347  1  0.951800  0.782800  0.606200  1.0  -0.2331
  C  C348  1  0.004400  0.850000  0.645600  1.0  0.7327
  C  C349  1  0.813500  0.977430  0.762060  1.0  -0.1316
  C  C350  1  0.751500  0.030630  0.755060  1.0  0.7257
  C  C351  1  0.725100  0.876400  0.761000  1.0  -0.1705
  C  C352  1  0.731700  0.801860  0.766920  1.0  0.7199
  N  N353  1  0.334000  0.941270  0.361540  1.0  -0.3407
  N  N354  1  0.188800  0.063600  0.682600  1.0  -0.3128
  N  N355  1  0.108600  0.543710  0.744220  1.0  -0.3135
  N  N356  1  0.117800  0.200710  0.775420  1.0  -0.3175
  N  N357  1  0.927100  0.299780  0.179960  1.0  -0.3258
  N  N358  1  0.434000  0.935160  0.835120  1.0  -0.3277
  N  N359  1  0.095800  0.133660  0.865720  1.0  -0.3309
  N  N360  1  0.386700  0.878170  0.645140  1.0  -0.1368
  N  N361  1  0.297400  0.837160  0.732520  1.0  -0.172
  N  N362  1  0.166000  0.579730  0.638460  1.0  -0.3389
  N  N363  1  0.311200  0.381000  0.317400  1.0  -0.3139
  N  N364  1  0.391400  0.799490  0.255780  1.0  -0.3128
  N  N365  1  0.382200  0.425290  0.224580  1.0  -0.3174
  N  N366  1  0.572900  0.119820  0.820040  1.0  -0.3268
  N  N367  1  0.066000  0.100040  0.164880  1.0  -0.3239
  N  N368  1  0.404200  0.267940  0.134280  1.0  -0.3285
  N  N369  1  0.113300  0.233030  0.354860  1.0  -0.1361
  N  N370  1  0.202600  0.104640  0.267480  1.0  -0.1757
  N  N371  1  0.666000  0.058730  0.638460  1.0  -0.3393
  N  N372  1  0.811200  0.936400  0.317400  1.0  -0.3129
  N  N373  1  0.891400  0.456290  0.255780  1.0  -0.3143
  N  N374  1  0.882200  0.799290  0.224580  1.0  -0.3168
  N  N375  1  0.072900  0.700220  0.820040  1.0  -0.3247
  N  N376  1  0.566000  0.064840  0.164880  1.0  -0.3232
  N  N377  1  0.904200  0.866340  0.134280  1.0  -0.3277
  N  N378  1  0.613300  0.121830  0.354860  1.0  -0.1382
  N  N379  1  0.702600  0.162840  0.267480  1.0  -0.175
  N  N380  1  0.834000  0.420270  0.361540  1.0  -0.3409
  N  N381  1  0.688800  0.619000  0.682600  1.0  -0.3125
  N  N382  1  0.608600  0.200510  0.744220  1.0  -0.3127
  N  N383  1  0.617800  0.574710  0.775420  1.0  -0.3158
  N  N384  1  0.427100  0.880180  0.179960  1.0  -0.3257
  N  N385  1  0.934000  0.899960  0.835120  1.0  -0.3291
  N  N386  1  0.595800  0.732060  0.865720  1.0  -0.3308
  N  N387  1  0.886700  0.766970  0.645140  1.0  -0.135
  N  N388  1  0.797400  0.895360  0.732520  1.0  -0.1745
  O  O389  1  0.481500  0.977010  0.733420  1.0  -0.5698
  O  O390  1  0.503000  0.044060  0.676920  1.0  -0.6024
  O  O391  1  0.484000  0.805790  0.701780  1.0  -0.6121
  O  O392  1  0.568800  0.766600  0.620000  1.0  -0.5963
  O  O393  1  0.181700  0.729430  0.734260  1.0  -0.5768
  O  O394  1  0.270500  0.674740  0.771880  1.0  -0.593
  O  O395  1  0.299400  0.992060  0.765120  1.0  -0.6226
  O  O396  1  0.165700  0.999000  0.775600  1.0  -0.6056
  O  O397  1  0.018500  0.243590  0.266580  1.0  -0.5719
  O  O398  1  0.997000  0.367140  0.323080  1.0  -0.6025
  O  O399  1  0.016000  0.104010  0.298220  1.0  -0.613
  O  O400  1  0.931200  0.146600  0.380000  1.0  -0.5941
  O  O401  1  0.318300  0.995170  0.265740  1.0  -0.5789
  O  O402  1  0.229500  0.902860  0.228120  1.0  -0.5916
  O  O403  1  0.200600  0.226940  0.234880  1.0  -0.6248
  O  O404  1  0.334300  0.223400  0.224400  1.0  -0.6051
  O  O405  1  0.518500  0.022990  0.266580  1.0  -0.57
  O  O406  1  0.497000  0.955940  0.323080  1.0  -0.6042
  O  O407  1  0.516000  0.194210  0.298220  1.0  -0.6134
  O  O408  1  0.431200  0.233400  0.380000  1.0  -0.5928
  O  O409  1  0.818300  0.270570  0.265740  1.0  -0.5787
  O  O410  1  0.729500  0.325260  0.228120  1.0  -0.5925
  O  O411  1  0.700600  0.007940  0.234880  1.0  -0.6244
  O  O412  1  0.834300  0.001000  0.224400  1.0  -0.6055
  O  O413  1  0.981500  0.756410  0.733420  1.0  -0.5709
  O  O414  1  0.003000  0.632860  0.676920  1.0  -0.6033
  O  O415  1  0.984000  0.895990  0.701780  1.0  -0.6115
  O  O416  1  0.068800  0.853400  0.620000  1.0  -0.5962
  O  O417  1  0.681700  0.004830  0.734260  1.0  -0.577
  O  O418  1  0.770500  0.097140  0.771880  1.0  -0.591
  O  O419  1  0.799400  0.773060  0.765120  1.0  -0.6281
  O  O420  1  0.665700  0.776600  0.775600  1.0  -0.605
