# generated using pymatgen
data_ZnH6(C3O)4
_symmetry_space_group_name_H-M   'P 1'
_cell_length_a   21.85900000
_cell_length_b   11.66530000
_cell_length_c   7.37510000
_cell_angle_alpha   90.00000000
_cell_angle_beta   100.30100000
_cell_angle_gamma   90.00000000
_symmetry_Int_Tables_number   1
_chemical_formula_structural   ZnH6(C3O)4
_chemical_formula_sum   'Zn4 H24 C48 O16'
_cell_volume   1850.27846529
_cell_formula_units_Z   4
loop_
 _symmetry_equiv_pos_site_id
 _symmetry_equiv_pos_as_xyz
  1  'x, y, z'
loop_
 _atom_site_type_symbol
 _atom_site_label
 _atom_site_symmetry_multiplicity
 _atom_site_fract_x
 _atom_site_fract_y
 _atom_site_fract_z
 _atom_site_occupancy
 _atom_site_charge
  Zn  Zn1  1  0.000000  0.116030  0.750000  1.0  1.0706
  Zn  Zn2  1  0.500000  0.383970  0.250000  1.0  1.0737
  Zn  Zn3  1  0.500000  0.616030  0.750000  1.0  1.0682
  Zn  Zn4  1  0.000000  0.883970  0.250000  1.0  1.0714
  H  H5  1  0.176300  0.968500  0.757900  1.0  0.0609
  H  H6  1  0.272000  0.882600  0.763200  1.0  0.0602
  H  H7  1  0.145400  0.755300  0.133700  1.0  0.093
  H  H8  1  0.823700  0.968500  0.742100  1.0  0.06
  H  H9  1  0.728000  0.882600  0.736800  1.0  0.0589
  H  H10  1  0.854600  0.755300  0.366300  1.0  0.0932
  H  H11  1  0.323700  0.531500  0.242100  1.0  0.0601
  H  H12  1  0.228000  0.617400  0.236800  1.0  0.0599
  H  H13  1  0.354600  0.744700  0.866300  1.0  0.0934
  H  H14  1  0.676300  0.531500  0.257900  1.0  0.0608
  H  H15  1  0.772000  0.617400  0.263200  1.0  0.0607
  H  H16  1  0.645400  0.744700  0.633700  1.0  0.0929
  H  H17  1  0.676300  0.468500  0.757900  1.0  0.0609
  H  H18  1  0.772000  0.382600  0.763200  1.0  0.0602
  H  H19  1  0.645400  0.255300  0.133700  1.0  0.093
  H  H20  1  0.323700  0.468500  0.742100  1.0  0.06
  H  H21  1  0.228000  0.382600  0.736800  1.0  0.0589
  H  H22  1  0.354600  0.255300  0.366300  1.0  0.0932
  H  H23  1  0.823700  0.031500  0.242100  1.0  0.0601
  H  H24  1  0.728000  0.117400  0.236800  1.0  0.0599
  H  H25  1  0.854600  0.244700  0.866300  1.0  0.0934
  H  H26  1  0.176300  0.031500  0.257900  1.0  0.0608
  H  H27  1  0.272000  0.117400  0.263200  1.0  0.0607
  H  H28  1  0.145400  0.244700  0.633700  1.0  0.0929
  C  C29  1  0.085100  0.921600  0.944500  1.0  0.7161
  C  C30  1  0.149200  0.871600  0.945700  1.0  0.0366
  C  C31  1  0.187700  0.907400  0.837500  1.0  -0.1573
  C  C32  1  0.247100  0.852800  0.841700  1.0  -0.0578
  C  C33  1  0.268900  0.768400  0.941100  1.0  0.168
  C  C34  1  0.170600  0.784200  0.055300  1.0  -0.1299
  C  C35  1  0.914900  0.921600  0.555500  1.0  0.716
  C  C36  1  0.850800  0.871600  0.554300  1.0  0.036
  C  C37  1  0.812300  0.907400  0.662500  1.0  -0.1576
  C  C38  1  0.752900  0.852800  0.658300  1.0  -0.0607
  C  C39  1  0.731100  0.768400  0.558900  1.0  0.1669
  C  C40  1  0.829400  0.784200  0.444700  1.0  -0.129
  C  C41  1  0.414900  0.578400  0.055500  1.0  0.716
  C  C42  1  0.350800  0.628400  0.054300  1.0  0.0357
  C  C43  1  0.312300  0.592600  0.162500  1.0  -0.1577
  C  C44  1  0.252900  0.647200  0.158300  1.0  -0.0591
  C  C45  1  0.231100  0.731600  0.058900  1.0  0.1678
  C  C46  1  0.329400  0.715800  0.944700  1.0  -0.1298
  C  C47  1  0.585100  0.578400  0.444500  1.0  0.716
  C  C48  1  0.649200  0.628400  0.445700  1.0  0.0376
  C  C49  1  0.687700  0.592600  0.337500  1.0  -0.1577
  C  C50  1  0.747100  0.647200  0.341700  1.0  -0.0573
  C  C51  1  0.768900  0.731600  0.441100  1.0  0.1679
  C  C52  1  0.670600  0.715800  0.555300  1.0  -0.132
  C  C53  1  0.585100  0.421600  0.944500  1.0  0.7161
  C  C54  1  0.649200  0.371600  0.945700  1.0  0.0366
  C  C55  1  0.687700  0.407400  0.837500  1.0  -0.1573
  C  C56  1  0.747100  0.352800  0.841700  1.0  -0.0578
  C  C57  1  0.768900  0.268400  0.941100  1.0  0.168
  C  C58  1  0.670600  0.284200  0.055300  1.0  -0.1299
  C  C59  1  0.414900  0.421600  0.555500  1.0  0.716
  C  C60  1  0.350800  0.371600  0.554300  1.0  0.036
  C  C61  1  0.312300  0.407400  0.662500  1.0  -0.1576
  C  C62  1  0.252900  0.352800  0.658300  1.0  -0.0607
  C  C63  1  0.231100  0.268400  0.558900  1.0  0.1669
  C  C64  1  0.329400  0.284200  0.444700  1.0  -0.129
  C  C65  1  0.914900  0.078400  0.055500  1.0  0.716
  C  C66  1  0.850800  0.128400  0.054300  1.0  0.0357
  C  C67  1  0.812300  0.092600  0.162500  1.0  -0.1577
  C  C68  1  0.752900  0.147200  0.158300  1.0  -0.0591
  C  C69  1  0.731100  0.231600  0.058900  1.0  0.1678
  C  C70  1  0.829400  0.215800  0.944700  1.0  -0.1298
  C  C71  1  0.085100  0.078400  0.444500  1.0  0.716
  C  C72  1  0.149200  0.128400  0.445700  1.0  0.0376
  C  C73  1  0.187700  0.092600  0.337500  1.0  -0.1577
  C  C74  1  0.247100  0.147200  0.341700  1.0  -0.0573
  C  C75  1  0.268900  0.231600  0.441100  1.0  0.1679
  C  C76  1  0.170600  0.215800  0.555300  1.0  -0.132
  O  O77  1  0.076610  0.017800  0.868600  1.0  -0.6369
  O  O78  1  0.047540  0.864700  0.013100  1.0  -0.6866
  O  O79  1  0.923390  0.017800  0.631400  1.0  -0.6364
  O  O80  1  0.952460  0.864700  0.486900  1.0  -0.6848
  O  O81  1  0.423390  0.482200  0.131400  1.0  -0.6352
  O  O82  1  0.452460  0.635300  0.986900  1.0  -0.6867
  O  O83  1  0.576610  0.482200  0.368600  1.0  -0.6355
  O  O84  1  0.547540  0.635300  0.513100  1.0  -0.6885
  O  O85  1  0.576610  0.517800  0.868600  1.0  -0.6369
  O  O86  1  0.547540  0.364700  0.013100  1.0  -0.6866
  O  O87  1  0.423390  0.517800  0.631400  1.0  -0.6364
  O  O88  1  0.452460  0.364700  0.486900  1.0  -0.6848
  O  O89  1  0.923390  0.982200  0.131400  1.0  -0.6352
  O  O90  1  0.952460  0.135300  0.986900  1.0  -0.6867
  O  O91  1  0.076610  0.982200  0.368600  1.0  -0.6355
  O  O92  1  0.047540  0.135300  0.513100  1.0  -0.6885
