# generated using pymatgen
data_In4H3C15(NO2)6
_symmetry_space_group_name_H-M   'P 1'
_cell_length_a   24.96900000
_cell_length_b   24.96900000
_cell_length_c   24.96900000
_cell_angle_alpha   90.00000000
_cell_angle_beta   90.00000000
_cell_angle_gamma   90.00000000
_symmetry_Int_Tables_number   1
_chemical_formula_structural   In4H3C15(NO2)6
_chemical_formula_sum   'In32 H24 C120 N48 O96'
_cell_volume   15566.94704521
_cell_formula_units_Z   8
loop_
 _symmetry_equiv_pos_site_id
 _symmetry_equiv_pos_as_xyz
  1  'x, y, z'
loop_
 _atom_site_type_symbol
 _atom_site_label
 _atom_site_symmetry_multiplicity
 _atom_site_fract_x
 _atom_site_fract_y
 _atom_site_fract_z
 _atom_site_occupancy
 _atom_site_charge
  In  In1  1  0.446000  0.000000  0.250000  1.0  1.1947
  In  In2  1  0.054000  0.000000  0.750000  1.0  1.1949
  In  In3  1  0.554000  0.500000  0.250000  1.0  1.2
  In  In4  1  0.946000  0.500000  0.750000  1.0  1.2002
  In  In5  1  0.250000  0.446000  0.000000  1.0  1.2042
  In  In6  1  0.750000  0.054000  0.000000  1.0  1.2029
  In  In7  1  0.250000  0.554000  0.500000  1.0  1.2085
  In  In8  1  0.750000  0.946000  0.500000  1.0  1.2102
  In  In9  1  0.000000  0.250000  0.446000  1.0  1.2001
  In  In10  1  0.000000  0.750000  0.054000  1.0  1.1931
  In  In11  1  0.500000  0.250000  0.554000  1.0  1.1977
  In  In12  1  0.500000  0.750000  0.946000  1.0  1.2025
  In  In13  1  0.750000  0.696000  0.000000  1.0  1.2042
  In  In14  1  0.750000  0.304000  0.500000  1.0  1.2085
  In  In15  1  0.250000  0.804000  0.000000  1.0  1.2029
  In  In16  1  0.250000  0.196000  0.500000  1.0  1.2102
  In  In17  1  0.196000  0.500000  0.250000  1.0  1.2002
  In  In18  1  0.804000  0.000000  0.250000  1.0  1.1949
  In  In19  1  0.304000  0.500000  0.750000  1.0  1.2
  In  In20  1  0.696000  0.000000  0.750000  1.0  1.1947
  In  In21  1  0.000000  0.250000  0.804000  1.0  1.1931
  In  In22  1  0.500000  0.250000  0.196000  1.0  1.2025
  In  In23  1  0.000000  0.750000  0.696000  1.0  1.2001
  In  In24  1  0.500000  0.750000  0.304000  1.0  1.1977
  In  In25  1  0.625000  0.125000  0.375000  1.0  1.529
  In  In26  1  0.125000  0.625000  0.875000  1.0  1.529
  In  In27  1  0.875000  0.875000  0.875000  1.0  1.529
  In  In28  1  0.375000  0.375000  0.375000  1.0  1.529
  In  In29  1  0.375000  0.625000  0.125000  1.0  1.529
  In  In30  1  0.875000  0.125000  0.625000  1.0  1.529
  In  In31  1  0.125000  0.375000  0.625000  1.0  1.529
  In  In32  1  0.625000  0.875000  0.125000  1.0  1.529
  H  H33  1  0.438600  0.125000  0.188600  1.0  0.1077
  H  H34  1  0.938600  0.625000  0.688600  1.0  0.1062
  H  H35  1  0.061400  0.875000  0.688600  1.0  0.1107
  H  H36  1  0.561400  0.375000  0.188600  1.0  0.1074
  H  H37  1  0.561400  0.625000  0.311400  1.0  0.1065
  H  H38  1  0.061400  0.125000  0.811400  1.0  0.1071
  H  H39  1  0.938600  0.375000  0.811400  1.0  0.1073
  H  H40  1  0.438600  0.875000  0.311400  1.0  0.1105
  H  H41  1  0.188600  0.438600  0.125000  1.0  0.1089
  H  H42  1  0.688600  0.938600  0.625000  1.0  0.1075
  H  H43  1  0.688600  0.061400  0.875000  1.0  0.1117
  H  H44  1  0.188600  0.561400  0.375000  1.0  0.1082
  H  H45  1  0.311400  0.561400  0.625000  1.0  0.1066
  H  H46  1  0.811400  0.061400  0.125000  1.0  0.1067
  H  H47  1  0.811400  0.938600  0.375000  1.0  0.1072
  H  H48  1  0.311400  0.438600  0.875000  1.0  0.1109
  H  H49  1  0.125000  0.188600  0.438600  1.0  0.1096
  H  H50  1  0.625000  0.688600  0.938600  1.0  0.1085
  H  H51  1  0.875000  0.688600  0.061400  1.0  0.1136
  H  H52  1  0.375000  0.188600  0.561400  1.0  0.1104
  H  H53  1  0.625000  0.311400  0.561400  1.0  0.1079
  H  H54  1  0.125000  0.811400  0.061400  1.0  0.1087
  H  H55  1  0.375000  0.811400  0.938600  1.0  0.1069
  H  H56  1  0.875000  0.311400  0.438600  1.0  0.1097
  C  C57  1  0.514600  0.098500  0.277300  1.0  -0.0254
  C  C58  1  0.538500  0.054700  0.313600  1.0  0.6854
  C  C59  1  0.014600  0.598500  0.777300  1.0  -0.0254
  C  C60  1  0.038500  0.554700  0.813600  1.0  0.6854
  C  C61  1  0.985400  0.901500  0.777300  1.0  -0.0257
  C  C62  1  0.961500  0.945300  0.813600  1.0  0.6835
  C  C63  1  0.485400  0.401500  0.277300  1.0  -0.0257
  C  C64  1  0.461500  0.445300  0.313600  1.0  0.6835
  C  C65  1  0.485400  0.598500  0.222700  1.0  -0.0267
  C  C66  1  0.461500  0.554700  0.186400  1.0  0.6854
  C  C67  1  0.985400  0.098500  0.722700  1.0  -0.0267
  C  C68  1  0.961500  0.054700  0.686400  1.0  0.6854
  C  C69  1  0.014600  0.401500  0.722700  1.0  -0.0261
  C  C70  1  0.038500  0.445300  0.686400  1.0  0.6837
  C  C71  1  0.514600  0.901500  0.222700  1.0  -0.0261
  C  C72  1  0.538500  0.945300  0.186400  1.0  0.6837
  C  C73  1  0.277300  0.514600  0.098500  1.0  -0.0225
  C  C74  1  0.313600  0.538500  0.054700  1.0  0.6883
  C  C75  1  0.777300  0.014600  0.598500  1.0  -0.0225
  C  C76  1  0.813600  0.038500  0.554700  1.0  0.6883
  C  C77  1  0.777300  0.985400  0.901500  1.0  -0.0236
  C  C78  1  0.813600  0.961500  0.945300  1.0  0.688
  C  C79  1  0.277300  0.485400  0.401500  1.0  -0.0236
  C  C80  1  0.313600  0.461500  0.445300  1.0  0.688
  C  C81  1  0.222700  0.485400  0.598500  1.0  -0.0251
  C  C82  1  0.186400  0.461500  0.554700  1.0  0.6863
  C  C83  1  0.722700  0.985400  0.098500  1.0  -0.0251
  C  C84  1  0.686400  0.961500  0.054700  1.0  0.6863
  C  C85  1  0.722700  0.014600  0.401500  1.0  -0.0238
  C  C86  1  0.686400  0.038500  0.445300  1.0  0.6865
  C  C87  1  0.222700  0.514600  0.901500  1.0  -0.0238
  C  C88  1  0.186400  0.538500  0.945300  1.0  0.6865
  C  C89  1  0.098500  0.277300  0.514600  1.0  -0.0258
  C  C90  1  0.054700  0.313600  0.538500  1.0  0.6842
  C  C91  1  0.598500  0.777300  0.014600  1.0  -0.0258
  C  C92  1  0.554700  0.813600  0.038500  1.0  0.6842
  C  C93  1  0.901500  0.777300  0.985400  1.0  -0.0267
  C  C94  1  0.945300  0.813600  0.961500  1.0  0.6861
  C  C95  1  0.401500  0.277300  0.485400  1.0  -0.0267
  C  C96  1  0.445300  0.313600  0.461500  1.0  0.6861
  C  C97  1  0.598500  0.222700  0.485400  1.0  -0.026
  C  C98  1  0.554700  0.186400  0.461500  1.0  0.6848
  C  C99  1  0.098500  0.722700  0.985400  1.0  -0.026
  C  C100  1  0.054700  0.686400  0.961500  1.0  0.6848
  C  C101  1  0.401500  0.722700  0.014600  1.0  -0.0255
  C  C102  1  0.445300  0.686400  0.038500  1.0  0.6863
  C  C103  1  0.901500  0.222700  0.514600  1.0  -0.0255
  C  C104  1  0.945300  0.186400  0.538500  1.0  0.6863
  C  C105  1  0.848500  0.764600  0.972700  1.0  -0.0261
  C  C106  1  0.804700  0.788500  0.936400  1.0  0.6844
  C  C107  1  0.348500  0.264600  0.472700  1.0  -0.0261
  C  C108  1  0.304700  0.288500  0.436400  1.0  0.6844
  C  C109  1  0.651500  0.235400  0.472700  1.0  -0.0275
  C  C110  1  0.695300  0.211500  0.436400  1.0  0.6855
  C  C111  1  0.151500  0.735400  0.972700  1.0  -0.0275
  C  C112  1  0.195300  0.711500  0.936400  1.0  0.6855
  C  C113  1  0.348500  0.735400  0.027300  1.0  -0.0262
  C  C114  1  0.304700  0.711500  0.063600  1.0  0.684
  C  C115  1  0.848500  0.235400  0.527300  1.0  -0.0262
  C  C116  1  0.804700  0.211500  0.563600  1.0  0.684
  C  C117  1  0.151500  0.264600  0.527300  1.0  -0.0259
  C  C118  1  0.195300  0.288500  0.563600  1.0  0.6866
  C  C119  1  0.651500  0.764600  0.027300  1.0  -0.0259
  C  C120  1  0.695300  0.788500  0.063600  1.0  0.6866
  C  C121  1  0.264600  0.527300  0.151500  1.0  -0.0258
  C  C122  1  0.288500  0.563600  0.195300  1.0  0.6847
  C  C123  1  0.764600  0.027300  0.651500  1.0  -0.0258
  C  C124  1  0.788500  0.063600  0.695300  1.0  0.6847
  C  C125  1  0.735400  0.027300  0.348500  1.0  -0.0258
  C  C126  1  0.711500  0.063600  0.304700  1.0  0.6859
  C  C127  1  0.235400  0.527300  0.848500  1.0  -0.0258
  C  C128  1  0.211500  0.563600  0.804700  1.0  0.6859
  C  C129  1  0.235400  0.472700  0.651500  1.0  -0.0255
  C  C130  1  0.211500  0.436400  0.695300  1.0  0.6866
  C  C131  1  0.735400  0.972700  0.151500  1.0  -0.0255
  C  C132  1  0.711500  0.936400  0.195300  1.0  0.6866
  C  C133  1  0.764600  0.972700  0.848500  1.0  -0.0255
  C  C134  1  0.788500  0.936400  0.804700  1.0  0.6859
  C  C135  1  0.264600  0.472700  0.348500  1.0  -0.0255
  C  C136  1  0.288500  0.436400  0.304700  1.0  0.6859
  C  C137  1  0.027300  0.348500  0.735400  1.0  -0.0237
  C  C138  1  0.063600  0.304700  0.711500  1.0  0.6882
  C  C139  1  0.527300  0.848500  0.235400  1.0  -0.0237
  C  C140  1  0.563600  0.804700  0.211500  1.0  0.6882
  C  C141  1  0.527300  0.151500  0.264600  1.0  -0.0237
  C  C142  1  0.563600  0.195300  0.288500  1.0  0.6856
  C  C143  1  0.027300  0.651500  0.764600  1.0  -0.0237
  C  C144  1  0.063600  0.695300  0.788500  1.0  0.6856
  C  C145  1  0.972700  0.848500  0.764600  1.0  -0.0246
  C  C146  1  0.936400  0.804700  0.788500  1.0  0.6863
  C  C147  1  0.472700  0.348500  0.264600  1.0  -0.0246
  C  C148  1  0.436400  0.304700  0.288500  1.0  0.6863
  C  C149  1  0.472700  0.651500  0.235400  1.0  -0.0253
  C  C150  1  0.436400  0.695300  0.211500  1.0  0.6844
  C  C151  1  0.972700  0.151500  0.735400  1.0  -0.0253
  C  C152  1  0.936400  0.195300  0.711500  1.0  0.6844
  C  C153  1  0.465000  0.125000  0.215000  1.0  0.2452
  C  C154  1  0.965000  0.625000  0.715000  1.0  0.2452
  C  C155  1  0.035000  0.875000  0.715000  1.0  0.2436
  C  C156  1  0.535000  0.375000  0.215000  1.0  0.2436
  C  C157  1  0.535000  0.625000  0.285000  1.0  0.243
  C  C158  1  0.035000  0.125000  0.785000  1.0  0.243
  C  C159  1  0.965000  0.375000  0.785000  1.0  0.244
  C  C160  1  0.465000  0.875000  0.285000  1.0  0.244
  C  C161  1  0.215000  0.465000  0.125000  1.0  0.2452
  C  C162  1  0.715000  0.965000  0.625000  1.0  0.2452
  C  C163  1  0.715000  0.035000  0.875000  1.0  0.2434
  C  C164  1  0.215000  0.535000  0.375000  1.0  0.2434
  C  C165  1  0.285000  0.535000  0.625000  1.0  0.2429
  C  C166  1  0.785000  0.035000  0.125000  1.0  0.2429
  C  C167  1  0.785000  0.965000  0.375000  1.0  0.2434
  C  C168  1  0.285000  0.465000  0.875000  1.0  0.2434
  C  C169  1  0.125000  0.215000  0.465000  1.0  0.2402
  C  C170  1  0.625000  0.715000  0.965000  1.0  0.2402
  C  C171  1  0.875000  0.715000  0.035000  1.0  0.2392
  C  C172  1  0.375000  0.215000  0.535000  1.0  0.2392
  C  C173  1  0.625000  0.285000  0.535000  1.0  0.2369
  C  C174  1  0.125000  0.785000  0.035000  1.0  0.2369
  C  C175  1  0.375000  0.785000  0.965000  1.0  0.2391
  C  C176  1  0.875000  0.285000  0.465000  1.0  0.2391
  N  N177  1  0.474200  0.080200  0.243400  1.0  -0.4433
  N  N178  1  0.974200  0.580200  0.743400  1.0  -0.4433
  N  N179  1  0.025800  0.919800  0.743400  1.0  -0.4465
  N  N180  1  0.525800  0.419800  0.243400  1.0  -0.4465
  N  N181  1  0.525800  0.580200  0.256600  1.0  -0.4451
  N  N182  1  0.025800  0.080200  0.756600  1.0  -0.4451
  N  N183  1  0.974200  0.419800  0.756600  1.0  -0.4463
  N  N184  1  0.474200  0.919800  0.256600  1.0  -0.4463
  N  N185  1  0.243400  0.474200  0.080200  1.0  -0.4481
  N  N186  1  0.743400  0.974200  0.580200  1.0  -0.4481
  N  N187  1  0.743400  0.025800  0.919800  1.0  -0.4468
  N  N188  1  0.243400  0.525800  0.419800  1.0  -0.4468
  N  N189  1  0.256600  0.525800  0.580200  1.0  -0.4496
  N  N190  1  0.756600  0.025800  0.080200  1.0  -0.4496
  N  N191  1  0.756600  0.974200  0.419800  1.0  -0.4481
  N  N192  1  0.256600  0.474200  0.919800  1.0  -0.4481
  N  N193  1  0.080200  0.243400  0.474200  1.0  -0.4466
  N  N194  1  0.580200  0.743400  0.974200  1.0  -0.4466
  N  N195  1  0.919800  0.743400  0.025800  1.0  -0.4443
  N  N196  1  0.419800  0.243400  0.525800  1.0  -0.4443
  N  N197  1  0.580200  0.256600  0.525800  1.0  -0.444
  N  N198  1  0.080200  0.756600  0.025800  1.0  -0.444
  N  N199  1  0.419800  0.756600  0.974200  1.0  -0.4498
  N  N200  1  0.919800  0.256600  0.474200  1.0  -0.4498
  N  N201  1  0.830200  0.724200  0.006600  1.0  -0.4478
  N  N202  1  0.330200  0.224200  0.506600  1.0  -0.4478
  N  N203  1  0.669800  0.275800  0.506600  1.0  -0.4482
  N  N204  1  0.169800  0.775800  0.006600  1.0  -0.4482
  N  N205  1  0.330200  0.775800  0.993400  1.0  -0.4463
  N  N206  1  0.830200  0.275800  0.493400  1.0  -0.4463
  N  N207  1  0.169800  0.224200  0.493400  1.0  -0.4476
  N  N208  1  0.669800  0.724200  0.993400  1.0  -0.4476
  N  N209  1  0.224200  0.493400  0.169800  1.0  -0.4454
  N  N210  1  0.724200  0.993400  0.669800  1.0  -0.4454
  N  N211  1  0.775800  0.993400  0.330200  1.0  -0.449
  N  N212  1  0.275800  0.493400  0.830200  1.0  -0.449
  N  N213  1  0.275800  0.506600  0.669800  1.0  -0.4464
  N  N214  1  0.775800  0.006600  0.169800  1.0  -0.4464
  N  N215  1  0.724200  0.006600  0.830200  1.0  -0.4455
  N  N216  1  0.224200  0.506600  0.330200  1.0  -0.4455
  N  N217  1  0.993400  0.330200  0.775800  1.0  -0.4431
  N  N218  1  0.493400  0.830200  0.275800  1.0  -0.4431
  N  N219  1  0.493400  0.169800  0.224200  1.0  -0.4475
  N  N220  1  0.993400  0.669800  0.724200  1.0  -0.4475
  N  N221  1  0.006600  0.830200  0.724200  1.0  -0.4458
  N  N222  1  0.506600  0.330200  0.224200  1.0  -0.4458
  N  N223  1  0.506600  0.669800  0.275800  1.0  -0.4432
  N  N224  1  0.006600  0.169800  0.775800  1.0  -0.4432
  O  O225  1  0.577000  0.065400  0.346000  1.0  -0.7024
  O  O226  1  0.519500  0.010400  0.307000  1.0  -0.5388
  O  O227  1  0.077000  0.565400  0.846000  1.0  -0.7024
  O  O228  1  0.019500  0.510400  0.807000  1.0  -0.5388
  O  O229  1  0.923000  0.934600  0.846000  1.0  -0.7069
  O  O230  1  0.980500  0.989600  0.807000  1.0  -0.538
  O  O231  1  0.423000  0.434600  0.346000  1.0  -0.7069
  O  O232  1  0.480500  0.489600  0.307000  1.0  -0.538
  O  O233  1  0.423000  0.565400  0.154000  1.0  -0.7033
  O  O234  1  0.480500  0.510400  0.193000  1.0  -0.539
  O  O235  1  0.923000  0.065400  0.654000  1.0  -0.7033
  O  O236  1  0.980500  0.010400  0.693000  1.0  -0.539
  O  O237  1  0.077000  0.434600  0.654000  1.0  -0.7055
  O  O238  1  0.019500  0.489600  0.693000  1.0  -0.5387
  O  O239  1  0.577000  0.934600  0.154000  1.0  -0.7055
  O  O240  1  0.519500  0.989600  0.193000  1.0  -0.5387
  O  O241  1  0.346000  0.577000  0.065400  1.0  -0.7015
  O  O242  1  0.307000  0.519500  0.010400  1.0  -0.5415
  O  O243  1  0.846000  0.077000  0.565400  1.0  -0.7015
  O  O244  1  0.807000  0.019500  0.510400  1.0  -0.5415
  O  O245  1  0.846000  0.923000  0.934600  1.0  -0.7018
  O  O246  1  0.807000  0.980500  0.989600  1.0  -0.5415
  O  O247  1  0.346000  0.423000  0.434600  1.0  -0.7018
  O  O248  1  0.307000  0.480500  0.489600  1.0  -0.5415
  O  O249  1  0.154000  0.423000  0.565400  1.0  -0.7029
  O  O250  1  0.193000  0.480500  0.510400  1.0  -0.5406
  O  O251  1  0.654000  0.923000  0.065400  1.0  -0.7029
  O  O252  1  0.693000  0.980500  0.010400  1.0  -0.5406
  O  O253  1  0.654000  0.077000  0.434600  1.0  -0.7029
  O  O254  1  0.693000  0.019500  0.489600  1.0  -0.542
  O  O255  1  0.154000  0.577000  0.934600  1.0  -0.7029
  O  O256  1  0.193000  0.519500  0.989600  1.0  -0.542
  O  O257  1  0.065400  0.346000  0.577000  1.0  -0.7084
  O  O258  1  0.010400  0.307000  0.519500  1.0  -0.5427
  O  O259  1  0.565400  0.846000  0.077000  1.0  -0.7084
  O  O260  1  0.510400  0.807000  0.019500  1.0  -0.5427
  O  O261  1  0.934600  0.846000  0.923000  1.0  -0.7069
  O  O262  1  0.989600  0.807000  0.980500  1.0  -0.5405
  O  O263  1  0.434600  0.346000  0.423000  1.0  -0.7069
  O  O264  1  0.489600  0.307000  0.480500  1.0  -0.5405
  O  O265  1  0.565400  0.154000  0.423000  1.0  -0.7043
  O  O266  1  0.510400  0.193000  0.480500  1.0  -0.5422
  O  O267  1  0.065400  0.654000  0.923000  1.0  -0.7043
  O  O268  1  0.010400  0.693000  0.980500  1.0  -0.5422
  O  O269  1  0.434600  0.654000  0.077000  1.0  -0.7055
  O  O270  1  0.489600  0.693000  0.019500  1.0  -0.541
  O  O271  1  0.934600  0.154000  0.577000  1.0  -0.7055
  O  O272  1  0.989600  0.193000  0.519500  1.0  -0.541
  O  O273  1  0.815400  0.827000  0.904000  1.0  -0.702
  O  O274  1  0.760400  0.769500  0.943000  1.0  -0.5398
  O  O275  1  0.315400  0.327000  0.404000  1.0  -0.702
  O  O276  1  0.260400  0.269500  0.443000  1.0  -0.5398
  O  O277  1  0.684600  0.173000  0.404000  1.0  -0.7017
  O  O278  1  0.739600  0.230500  0.443000  1.0  -0.5385
  O  O279  1  0.184600  0.673000  0.904000  1.0  -0.7017
  O  O280  1  0.239600  0.730500  0.943000  1.0  -0.5385
  O  O281  1  0.315400  0.673000  0.096000  1.0  -0.703
  O  O282  1  0.260400  0.730500  0.057000  1.0  -0.539
  O  O283  1  0.815400  0.173000  0.596000  1.0  -0.703
  O  O284  1  0.760400  0.230500  0.557000  1.0  -0.539
  O  O285  1  0.184600  0.327000  0.596000  1.0  -0.7015
  O  O286  1  0.239600  0.269500  0.557000  1.0  -0.5387
  O  O287  1  0.684600  0.827000  0.096000  1.0  -0.7015
  O  O288  1  0.739600  0.769500  0.057000  1.0  -0.5387
  O  O289  1  0.327000  0.596000  0.184600  1.0  -0.7044
  O  O290  1  0.269500  0.557000  0.239600  1.0  -0.5414
  O  O291  1  0.827000  0.096000  0.684600  1.0  -0.7044
  O  O292  1  0.769500  0.057000  0.739600  1.0  -0.5414
  O  O293  1  0.673000  0.096000  0.315400  1.0  -0.7044
  O  O294  1  0.730500  0.057000  0.260400  1.0  -0.5407
  O  O295  1  0.173000  0.596000  0.815400  1.0  -0.7044
  O  O296  1  0.230500  0.557000  0.760400  1.0  -0.5407
  O  O297  1  0.173000  0.404000  0.684600  1.0  -0.7024
  O  O298  1  0.230500  0.443000  0.739600  1.0  -0.54
  O  O299  1  0.673000  0.904000  0.184600  1.0  -0.7024
  O  O300  1  0.730500  0.943000  0.239600  1.0  -0.54
  O  O301  1  0.827000  0.904000  0.815400  1.0  -0.7013
  O  O302  1  0.769500  0.943000  0.760400  1.0  -0.5408
  O  O303  1  0.327000  0.404000  0.315400  1.0  -0.7013
  O  O304  1  0.269500  0.443000  0.260400  1.0  -0.5408
  O  O305  1  0.096000  0.315400  0.673000  1.0  -0.7028
  O  O306  1  0.057000  0.260400  0.730500  1.0  -0.5422
  O  O307  1  0.596000  0.815400  0.173000  1.0  -0.7028
  O  O308  1  0.557000  0.760400  0.230500  1.0  -0.5422
  O  O309  1  0.596000  0.184600  0.327000  1.0  -0.7067
  O  O310  1  0.557000  0.239600  0.269500  1.0  -0.5409
  O  O311  1  0.096000  0.684600  0.827000  1.0  -0.7067
  O  O312  1  0.057000  0.739600  0.769500  1.0  -0.5409
  O  O313  1  0.904000  0.815400  0.827000  1.0  -0.7052
  O  O314  1  0.943000  0.760400  0.769500  1.0  -0.5424
  O  O315  1  0.404000  0.315400  0.327000  1.0  -0.7052
  O  O316  1  0.443000  0.260400  0.269500  1.0  -0.5424
  O  O317  1  0.404000  0.684600  0.173000  1.0  -0.7062
  O  O318  1  0.443000  0.739600  0.230500  1.0  -0.5433
  O  O319  1  0.904000  0.184600  0.673000  1.0  -0.7062
  O  O320  1  0.943000  0.239600  0.730500  1.0  -0.5433
