# generated using pymatgen
data_CuH9C17NO4
_symmetry_space_group_name_H-M   'P 1'
_cell_length_a   14.30260000
_cell_length_b   12.04210000
_cell_length_c   21.69870000
_cell_angle_alpha   90.00000000
_cell_angle_beta   90.00000000
_cell_angle_gamma   90.00000000
_symmetry_Int_Tables_number   1
_chemical_formula_structural   CuH9C17NO4
_chemical_formula_sum   'Cu8 H72 C136 N8 O32'
_cell_volume   3737.23956294
_cell_formula_units_Z   8
loop_
 _symmetry_equiv_pos_site_id
 _symmetry_equiv_pos_as_xyz
  1  'x, y, z'
loop_
 _atom_site_type_symbol
 _atom_site_label
 _atom_site_symmetry_multiplicity
 _atom_site_fract_x
 _atom_site_fract_y
 _atom_site_fract_z
 _atom_site_occupancy
 _atom_site_charge
  Cu  Cu1  1  0.949800  0.011420  0.052310  1.0  0.7983
  Cu  Cu2  1  0.550200  0.988580  0.552310  1.0  0.7966
  Cu  Cu3  1  0.050200  0.511420  0.447690  1.0  0.7967
  Cu  Cu4  1  0.449800  0.488580  0.947690  1.0  0.7987
  Cu  Cu5  1  0.050200  0.988580  0.947690  1.0  0.7967
  Cu  Cu6  1  0.449800  0.011420  0.447690  1.0  0.7986
  Cu  Cu7  1  0.949800  0.488580  0.552310  1.0  0.7985
  Cu  Cu8  1  0.550200  0.511420  0.052310  1.0  0.7964
  H  H9  1  0.499700  0.007200  0.681000  1.0  0.0816
  H  H10  1  0.533600  0.955200  0.782000  1.0  0.1304
  H  H11  1  0.738500  0.890900  0.563200  1.0  0.1197
  H  H12  1  0.870500  0.783500  0.578500  1.0  0.1149
  H  H13  1  0.907400  0.716800  0.677000  1.0  0.1192
  H  H14  1  0.817600  0.765300  0.761200  1.0  0.1185
  H  H15  1  0.563700  0.754200  0.839100  1.0  0.1128
  H  H16  1  0.720500  0.780900  0.994200  1.0  0.1156
  H  H17  1  0.803000  0.935000  0.837000  1.0  0.1233
  H  H18  1  0.000300  0.992800  0.181000  1.0  0.0823
  H  H19  1  0.966400  0.044800  0.282000  1.0  0.1303
  H  H20  1  0.761500  0.109100  0.063200  1.0  0.1195
  H  H21  1  0.629500  0.216500  0.078500  1.0  0.1141
  H  H22  1  0.592600  0.283200  0.177000  1.0  0.1187
  H  H23  1  0.682400  0.234700  0.261200  1.0  0.1184
  H  H24  1  0.936300  0.245800  0.339100  1.0  0.113
  H  H25  1  0.779500  0.219100  0.494200  1.0  0.1153
  H  H26  1  0.697000  0.065000  0.337000  1.0  0.1231
  H  H27  1  0.500300  0.507200  0.819000  1.0  0.0818
  H  H28  1  0.466400  0.455200  0.718000  1.0  0.1304
  H  H29  1  0.261500  0.390900  0.936800  1.0  0.1201
  H  H30  1  0.129500  0.283500  0.921500  1.0  0.1138
  H  H31  1  0.092600  0.216800  0.823000  1.0  0.1181
  H  H32  1  0.182400  0.265300  0.738800  1.0  0.1187
  H  H33  1  0.436300  0.254200  0.660900  1.0  0.113
  H  H34  1  0.279500  0.280900  0.505800  1.0  0.1151
  H  H35  1  0.197000  0.435000  0.663000  1.0  0.1231
  H  H36  1  0.999700  0.492800  0.319000  1.0  0.0818
  H  H37  1  0.033600  0.544800  0.218000  1.0  0.1301
  H  H38  1  0.238500  0.609100  0.436800  1.0  0.1199
  H  H39  1  0.370500  0.716500  0.421500  1.0  0.1141
  H  H40  1  0.407400  0.783200  0.323000  1.0  0.1179
  H  H41  1  0.317600  0.734700  0.238800  1.0  0.1188
  H  H42  1  0.063700  0.745800  0.160900  1.0  0.1127
  H  H43  1  0.220500  0.719100  0.005800  1.0  0.1151
  H  H44  1  0.303000  0.565000  0.163000  1.0  0.1233
  H  H45  1  0.500300  0.992800  0.319000  1.0  0.082
  H  H46  1  0.466400  0.044800  0.218000  1.0  0.13
  H  H47  1  0.261500  0.109100  0.436800  1.0  0.1206
  H  H48  1  0.129500  0.216500  0.421500  1.0  0.1124
  H  H49  1  0.092600  0.283200  0.323000  1.0  0.1178
  H  H50  1  0.182400  0.234700  0.238800  1.0  0.1188
  H  H51  1  0.436300  0.245800  0.160900  1.0  0.1129
  H  H52  1  0.279500  0.219100  0.005800  1.0  0.115
  H  H53  1  0.197000  0.065000  0.163000  1.0  0.1232
  H  H54  1  0.999700  0.007200  0.819000  1.0  0.0816
  H  H55  1  0.033600  0.955200  0.718000  1.0  0.1304
  H  H56  1  0.238500  0.890900  0.936800  1.0  0.1198
  H  H57  1  0.370500  0.783500  0.921500  1.0  0.1132
  H  H58  1  0.407400  0.716800  0.823000  1.0  0.1183
  H  H59  1  0.317600  0.765300  0.738800  1.0  0.1189
  H  H60  1  0.063700  0.754200  0.660900  1.0  0.1126
  H  H61  1  0.220500  0.780900  0.505800  1.0  0.1152
  H  H62  1  0.303000  0.935000  0.663000  1.0  0.1231
  H  H63  1  0.499700  0.492800  0.181000  1.0  0.0818
  H  H64  1  0.533600  0.544800  0.282000  1.0  0.1304
  H  H65  1  0.738500  0.609100  0.063200  1.0  0.1195
  H  H66  1  0.870500  0.716500  0.078500  1.0  0.1131
  H  H67  1  0.907400  0.783200  0.177000  1.0  0.118
  H  H68  1  0.817600  0.734700  0.261200  1.0  0.1185
  H  H69  1  0.563700  0.745800  0.339100  1.0  0.113
  H  H70  1  0.720500  0.719100  0.494200  1.0  0.1157
  H  H71  1  0.803000  0.565000  0.337000  1.0  0.1231
  H  H72  1  0.000300  0.507200  0.681000  1.0  0.0819
  H  H73  1  0.966400  0.455200  0.782000  1.0  0.1304
  H  H74  1  0.761500  0.390900  0.563200  1.0  0.1194
  H  H75  1  0.629500  0.283500  0.578500  1.0  0.1129
  H  H76  1  0.592600  0.216800  0.677000  1.0  0.1182
  H  H77  1  0.682400  0.265300  0.761200  1.0  0.1186
  H  H78  1  0.936300  0.254200  0.839100  1.0  0.1131
  H  H79  1  0.779500  0.280900  0.994200  1.0  0.1152
  H  H80  1  0.697000  0.435000  0.837000  1.0  0.1235
  C  C81  1  0.556770  0.969300  0.688920  1.0  0.1768
  C  C82  1  0.576640  0.938100  0.750020  1.0  -0.1923
  C  C83  1  0.658130  0.883060  0.763360  1.0  -0.0304
  C  C84  1  0.718630  0.855470  0.714050  1.0  0.0456
  C  C85  1  0.693670  0.890500  0.653400  1.0  0.1679
  C  C86  1  0.753020  0.864500  0.603320  1.0  -0.1792
  C  C87  1  0.831300  0.801300  0.612450  1.0  -0.1176
  C  C88  1  0.854050  0.762600  0.671500  1.0  -0.111
  C  C89  1  0.800140  0.790200  0.721340  1.0  -0.1171
  C  C90  1  0.679170  0.851630  0.828420  1.0  0.0584
  C  C91  1  0.617210  0.782470  0.859790  1.0  -0.0688
  C  C92  1  0.632960  0.754380  0.921260  1.0  -0.1287
  C  C93  1  0.710670  0.797410  0.951860  1.0  -0.0029
  C  C94  1  0.773530  0.864140  0.920530  1.0  -0.092
  C  C95  1  0.758850  0.890600  0.858570  1.0  -0.0528
  C  C96  1  0.570500  0.670770  0.952630  1.0  0.6804
  C  C97  1  0.858320  0.907590  0.953660  1.0  0.6983
  C  C98  1  0.943230  0.030700  0.188920  1.0  0.1769
  C  C99  1  0.923360  0.061900  0.250020  1.0  -0.1921
  C  C100  1  0.841870  0.116940  0.263360  1.0  -0.0296
  C  C101  1  0.781370  0.144530  0.214050  1.0  0.0454
  C  C102  1  0.806330  0.109500  0.153400  1.0  0.1681
  C  C103  1  0.746980  0.135500  0.103320  1.0  -0.1778
  C  C104  1  0.668700  0.198700  0.112450  1.0  -0.1171
  C  C105  1  0.645950  0.237400  0.171500  1.0  -0.1109
  C  C106  1  0.699860  0.209800  0.221340  1.0  -0.1184
  C  C107  1  0.820830  0.148370  0.328420  1.0  0.0594
  C  C108  1  0.882790  0.217530  0.359790  1.0  -0.0684
  C  C109  1  0.867040  0.245620  0.421260  1.0  -0.1282
  C  C110  1  0.789330  0.202590  0.451860  1.0  -0.0023
  C  C111  1  0.726470  0.135860  0.420530  1.0  -0.0926
  C  C112  1  0.741150  0.109400  0.358570  1.0  -0.0534
  C  C113  1  0.929500  0.329230  0.452630  1.0  0.68
  C  C114  1  0.641680  0.092410  0.453660  1.0  0.6991
  C  C115  1  0.443230  0.469300  0.811080  1.0  0.1763
  C  C116  1  0.423360  0.438100  0.749980  1.0  -0.1922
  C  C117  1  0.341870  0.383060  0.736640  1.0  -0.0291
  C  C118  1  0.281370  0.355470  0.785950  1.0  0.0457
  C  C119  1  0.306330  0.390500  0.846600  1.0  0.1679
  C  C120  1  0.246980  0.364500  0.896680  1.0  -0.1764
  C  C121  1  0.168700  0.301300  0.887550  1.0  -0.1172
  C  C122  1  0.145950  0.262600  0.828500  1.0  -0.1108
  C  C123  1  0.199860  0.290200  0.778660  1.0  -0.1169
  C  C124  1  0.320830  0.351630  0.671580  1.0  0.0584
  C  C125  1  0.382790  0.282470  0.640210  1.0  -0.0688
  C  C126  1  0.367040  0.254380  0.578740  1.0  -0.1279
  C  C127  1  0.289330  0.297410  0.548140  1.0  -0.0017
  C  C128  1  0.226470  0.364140  0.579470  1.0  -0.0924
  C  C129  1  0.241150  0.390600  0.641430  1.0  -0.0533
  C  C130  1  0.429500  0.170770  0.547370  1.0  0.6805
  C  C131  1  0.141680  0.407590  0.546340  1.0  0.6993
  C  C132  1  0.056770  0.530700  0.311080  1.0  0.1763
  C  C133  1  0.076640  0.561900  0.249980  1.0  -0.1918
  C  C134  1  0.158130  0.616940  0.236640  1.0  -0.0298
  C  C135  1  0.218630  0.644530  0.285950  1.0  0.0457
  C  C136  1  0.193670  0.609500  0.346600  1.0  0.1682
  C  C137  1  0.253020  0.635500  0.396680  1.0  -0.1777
  C  C138  1  0.331300  0.698700  0.387550  1.0  -0.1183
  C  C139  1  0.354050  0.737400  0.328500  1.0  -0.1104
  C  C140  1  0.300140  0.709800  0.278660  1.0  -0.1161
  C  C141  1  0.179170  0.648370  0.171580  1.0  0.0588
  C  C142  1  0.117210  0.717530  0.140210  1.0  -0.0685
  C  C143  1  0.132960  0.745620  0.078740  1.0  -0.1282
  C  C144  1  0.210670  0.702590  0.048140  1.0  -0.0026
  C  C145  1  0.273530  0.635860  0.079470  1.0  -0.092
  C  C146  1  0.258850  0.609400  0.141430  1.0  -0.053
  C  C147  1  0.070500  0.829230  0.047370  1.0  0.6806
  C  C148  1  0.358320  0.592410  0.046340  1.0  0.6986
  C  C149  1  0.443230  0.030700  0.311080  1.0  0.1765
  C  C150  1  0.423360  0.061900  0.249980  1.0  -0.1921
  C  C151  1  0.341870  0.116940  0.236640  1.0  -0.0291
  C  C152  1  0.281370  0.144530  0.285950  1.0  0.0456
  C  C153  1  0.306330  0.109500  0.346600  1.0  0.1681
  C  C154  1  0.246980  0.135500  0.396680  1.0  -0.1763
  C  C155  1  0.168700  0.198700  0.387550  1.0  -0.1171
  C  C156  1  0.145950  0.237400  0.328500  1.0  -0.1108
  C  C157  1  0.199860  0.209800  0.278660  1.0  -0.1168
  C  C158  1  0.320830  0.148370  0.171580  1.0  0.0591
  C  C159  1  0.382790  0.217530  0.140210  1.0  -0.0685
  C  C160  1  0.367040  0.245620  0.078740  1.0  -0.1278
  C  C161  1  0.289330  0.202590  0.048140  1.0  -0.0018
  C  C162  1  0.226470  0.135860  0.079470  1.0  -0.0926
  C  C163  1  0.241150  0.109400  0.141430  1.0  -0.0532
  C  C164  1  0.429500  0.329230  0.047370  1.0  0.6798
  C  C165  1  0.141680  0.092410  0.046340  1.0  0.6992
  C  C166  1  0.056770  0.969300  0.811080  1.0  0.1761
  C  C167  1  0.076640  0.938100  0.749980  1.0  -0.1921
  C  C168  1  0.158130  0.883060  0.736640  1.0  -0.0299
  C  C169  1  0.218630  0.855470  0.785950  1.0  0.0457
  C  C170  1  0.193670  0.890500  0.846600  1.0  0.168
  C  C171  1  0.253020  0.864500  0.896680  1.0  -0.1777
  C  C172  1  0.331300  0.801300  0.887550  1.0  -0.1181
  C  C173  1  0.354050  0.762600  0.828500  1.0  -0.1108
  C  C174  1  0.300140  0.790200  0.778660  1.0  -0.1162
  C  C175  1  0.179170  0.851630  0.671580  1.0  0.0582
  C  C176  1  0.117210  0.782470  0.640210  1.0  -0.0688
  C  C177  1  0.132960  0.754380  0.578740  1.0  -0.1282
  C  C178  1  0.210670  0.797410  0.548140  1.0  -0.0024
  C  C179  1  0.273530  0.864140  0.579470  1.0  -0.0918
  C  C180  1  0.258850  0.890600  0.641430  1.0  -0.0529
  C  C181  1  0.070500  0.670770  0.547370  1.0  0.6813
  C  C182  1  0.358320  0.907590  0.546340  1.0  0.6984
  C  C183  1  0.556770  0.530700  0.188920  1.0  0.1768
  C  C184  1  0.576640  0.561900  0.250020  1.0  -0.1915
  C  C185  1  0.658130  0.616940  0.263360  1.0  -0.0303
  C  C186  1  0.718630  0.644530  0.214050  1.0  0.0455
  C  C187  1  0.693670  0.609500  0.153400  1.0  0.1681
  C  C188  1  0.753020  0.635500  0.103320  1.0  -0.1791
  C  C189  1  0.831300  0.698700  0.112450  1.0  -0.1179
  C  C190  1  0.854050  0.737400  0.171500  1.0  -0.1107
  C  C191  1  0.800140  0.709800  0.221340  1.0  -0.1174
  C  C192  1  0.679170  0.648370  0.328420  1.0  0.0591
  C  C193  1  0.617210  0.717530  0.359790  1.0  -0.0683
  C  C194  1  0.632960  0.745620  0.421260  1.0  -0.1286
  C  C195  1  0.710670  0.702590  0.451860  1.0  -0.0026
  C  C196  1  0.773530  0.635860  0.420530  1.0  -0.0922
  C  C197  1  0.758850  0.609400  0.358570  1.0  -0.0533
  C  C198  1  0.570500  0.829230  0.452630  1.0  0.6804
  C  C199  1  0.858320  0.592410  0.453660  1.0  0.6985
  C  C200  1  0.943230  0.469300  0.688920  1.0  0.1769
  C  C201  1  0.923360  0.438100  0.750020  1.0  -0.1926
  C  C202  1  0.841870  0.383060  0.763360  1.0  -0.0296
  C  C203  1  0.781370  0.355470  0.714050  1.0  0.0455
  C  C204  1  0.806330  0.390500  0.653400  1.0  0.1678
  C  C205  1  0.746980  0.364500  0.603320  1.0  -0.1781
  C  C206  1  0.668700  0.301300  0.612450  1.0  -0.1171
  C  C207  1  0.645950  0.262600  0.671500  1.0  -0.1109
  C  C208  1  0.699860  0.290200  0.721340  1.0  -0.1179
  C  C209  1  0.820830  0.351630  0.828420  1.0  0.0587
  C  C210  1  0.882790  0.282470  0.859790  1.0  -0.0688
  C  C211  1  0.867040  0.254380  0.921260  1.0  -0.1284
  C  C212  1  0.789330  0.297410  0.951860  1.0  -0.0026
  C  C213  1  0.726470  0.364140  0.920530  1.0  -0.0925
  C  C214  1  0.741150  0.390600  0.858570  1.0  -0.0531
  C  C215  1  0.929500  0.170770  0.952630  1.0  0.68
  C  C216  1  0.641680  0.407590  0.953660  1.0  0.6993
  N  N217  1  0.613090  0.948870  0.641610  1.0  -0.3202
  N  N218  1  0.886910  0.051130  0.141610  1.0  -0.3213
  N  N219  1  0.386910  0.448870  0.858390  1.0  -0.3199
  N  N220  1  0.113090  0.551130  0.358390  1.0  -0.3199
  N  N221  1  0.386910  0.051130  0.358390  1.0  -0.3202
  N  N222  1  0.113090  0.948870  0.858390  1.0  -0.3196
  N  N223  1  0.613090  0.551130  0.141610  1.0  -0.3211
  N  N224  1  0.886910  0.448870  0.641610  1.0  -0.3203
  O  O225  1  0.506120  0.629210  0.920490  1.0  -0.5486
  O  O226  1  0.590610  0.645880  0.007150  1.0  -0.57
  O  O227  1  0.931020  0.919000  0.921760  1.0  -0.5783
  O  O228  1  0.849070  0.930600  0.009970  1.0  -0.5528
  O  O229  1  0.993880  0.370790  0.420490  1.0  -0.5491
  O  O230  1  0.909390  0.354120  0.507150  1.0  -0.5707
  O  O231  1  0.568980  0.081000  0.421760  1.0  -0.577
  O  O232  1  0.650930  0.069400  0.509970  1.0  -0.5526
  O  O233  1  0.493880  0.129210  0.579510  1.0  -0.5492
  O  O234  1  0.409390  0.145880  0.492850  1.0  -0.571
  O  O235  1  0.068980  0.419000  0.578240  1.0  -0.578
  O  O236  1  0.150930  0.430600  0.490030  1.0  -0.5521
  O  O237  1  0.006120  0.870790  0.079510  1.0  -0.5489
  O  O238  1  0.090610  0.854120  0.992850  1.0  -0.5709
  O  O239  1  0.431020  0.581000  0.078240  1.0  -0.5769
  O  O240  1  0.349070  0.569400  0.990030  1.0  -0.5523
  O  O241  1  0.493880  0.370790  0.079510  1.0  -0.5491
  O  O242  1  0.409390  0.354120  0.992850  1.0  -0.5712
  O  O243  1  0.068980  0.081000  0.078240  1.0  -0.5767
  O  O244  1  0.150930  0.069400  0.990030  1.0  -0.5523
  O  O245  1  0.006120  0.629210  0.579510  1.0  -0.5488
  O  O246  1  0.090610  0.645880  0.492850  1.0  -0.5709
  O  O247  1  0.431020  0.919000  0.578240  1.0  -0.578
  O  O248  1  0.349070  0.930600  0.490030  1.0  -0.5523
  O  O249  1  0.506120  0.870790  0.420490  1.0  -0.5487
  O  O250  1  0.590610  0.854120  0.507150  1.0  -0.57
  O  O251  1  0.931020  0.581000  0.421760  1.0  -0.5771
  O  O252  1  0.849070  0.569400  0.509970  1.0  -0.553
  O  O253  1  0.993880  0.129210  0.920490  1.0  -0.549
  O  O254  1  0.909390  0.145880  0.007150  1.0  -0.5707
  O  O255  1  0.568980  0.419000  0.921760  1.0  -0.5783
  O  O256  1  0.650930  0.430600  0.009970  1.0  -0.5523
