# generated using pymatgen
data_H4PbC10N3O4
_symmetry_space_group_name_H-M   'P 1'
_cell_length_a   16.41660000
_cell_length_b   16.41660000
_cell_length_c   16.41660000
_cell_angle_alpha   96.06430000
_cell_angle_beta   116.56300000
_cell_angle_gamma   116.56300000
_symmetry_Int_Tables_number   1
_chemical_formula_structural   H4PbC10N3O4
_chemical_formula_sum   'H32 Pb8 C80 N24 O32'
_cell_volume   3271.16347695
_cell_formula_units_Z   8
loop_
 _symmetry_equiv_pos_site_id
 _symmetry_equiv_pos_as_xyz
  1  'x, y, z'
loop_
 _atom_site_type_symbol
 _atom_site_label
 _atom_site_symmetry_multiplicity
 _atom_site_fract_x
 _atom_site_fract_y
 _atom_site_fract_z
 _atom_site_occupancy
 _atom_site_charge
  H  H1  1  0.504600  0.461500  0.197700  1.0  0.1196
  H  H2  1  0.442800  0.474200  0.302000  1.0  0.116
  H  H3  1  0.532000  0.626900  0.421300  1.0  0.1357
  H  H4  1  0.681200  0.759100  0.442300  1.0  0.0698
  H  H5  1  0.995400  0.193100  0.956900  1.0  0.1201
  H  H6  1  0.057200  0.359200  0.031400  1.0  0.1162
  H  H7  1  0.968000  0.389300  0.094900  1.0  0.1362
  H  H8  1  0.818800  0.261100  0.077900  1.0  0.0704
  H  H9  1  0.736200  0.197700  0.193100  1.0  0.1198
  H  H10  1  0.827800  0.302000  0.359200  1.0  0.1157
  H  H11  1  0.794400  0.421300  0.389300  1.0  0.1362
  H  H12  1  0.683200  0.442300  0.261100  1.0  0.0705
  H  H13  1  0.763800  0.956900  0.461500  1.0  0.1207
  H  H14  1  0.672200  0.031400  0.474200  1.0  0.115
  H  H15  1  0.705600  0.094900  0.626900  1.0  0.1346
  H  H16  1  0.816800  0.077900  0.759100  1.0  0.0695
  H  H17  1  0.495400  0.538500  0.802300  1.0  0.1194
  H  H18  1  0.557200  0.525800  0.698000  1.0  0.1158
  H  H19  1  0.468000  0.373100  0.578700  1.0  0.135
  H  H20  1  0.318800  0.240900  0.557700  1.0  0.0699
  H  H21  1  0.004600  0.806900  0.043100  1.0  0.1201
  H  H22  1  0.942800  0.640800  0.968600  1.0  0.116
  H  H23  1  0.032000  0.610700  0.905100  1.0  0.137
  H  H24  1  0.181200  0.738900  0.922100  1.0  0.0698
  H  H25  1  0.263800  0.802300  0.806900  1.0  0.1188
  H  H26  1  0.172200  0.698000  0.640800  1.0  0.1154
  H  H27  1  0.205600  0.578700  0.610700  1.0  0.1341
  H  H28  1  0.316800  0.557700  0.738900  1.0  0.0696
  H  H29  1  0.236200  0.043100  0.538500  1.0  0.1204
  H  H30  1  0.327800  0.968600  0.525800  1.0  0.1155
  H  H31  1  0.294400  0.905100  0.373100  1.0  0.1336
  H  H32  1  0.183200  0.922100  0.240900  1.0  0.0697
  Pb  Pb33  1  0.825080  0.846580  0.331060  1.0  1.0265
  Pb  Pb34  1  0.674920  0.005980  0.021500  1.0  1.0267
  Pb  Pb35  1  0.484480  0.331060  0.005980  1.0  1.028
  Pb  Pb36  1  0.015520  0.021500  0.846580  1.0  1.0256
  Pb  Pb37  1  0.174920  0.153420  0.668940  1.0  1.0261
  Pb  Pb38  1  0.325080  0.994020  0.978500  1.0  1.0249
  Pb  Pb39  1  0.515520  0.668940  0.994020  1.0  1.0264
  Pb  Pb40  1  0.984480  0.978500  0.153420  1.0  1.026
  C  C41  1  0.684300  0.516400  0.005900  1.0  0.5801
  C  C42  1  0.697500  0.575100  0.091000  1.0  0.0282
  C  C43  1  0.768500  0.675200  0.145900  1.0  -0.0142
  C  C44  1  0.670100  0.608500  0.201000  1.0  0.2998
  C  C45  1  0.847100  0.759600  0.139300  1.0  0.6086
  C  C46  1  0.629200  0.605400  0.263600  1.0  0.1531
  C  C47  1  0.539500  0.521300  0.247400  1.0  -0.1342
  C  C48  1  0.502300  0.529200  0.309500  1.0  0.0237
  C  C49  1  0.556000  0.619800  0.381000  1.0  -0.1959
  C  C50  1  0.644800  0.699100  0.392300  1.0  0.1873
  C  C51  1  0.815700  0.821600  0.832100  1.0  0.5751
  C  C52  1  0.802500  0.893500  0.877600  1.0  0.0278
  C  C53  1  0.731500  0.877400  0.906700  1.0  -0.0146
  C  C54  1  0.829900  0.030900  0.938400  1.0  0.2992
  C  C55  1  0.652900  0.792200  0.912500  1.0  0.6082
  C  C56  1  0.870800  0.134400  0.976200  1.0  0.1544
  C  C57  1  0.960500  0.207900  0.981800  1.0  -0.1348
  C  C58  1  0.997700  0.307200  0.026900  1.0  0.0242
  C  C59  1  0.944000  0.325000  0.063800  1.0  -0.1958
  C  C60  1  0.855200  0.247500  0.054300  1.0  0.1878
  C  C61  1  0.489500  0.005900  0.821600  1.0  0.5758
  C  C62  1  0.515900  0.091000  0.893500  1.0  0.0275
  C  C63  1  0.470700  0.145900  0.877400  1.0  -0.0126
  C  C64  1  0.592500  0.201000  0.030900  1.0  0.2997
  C  C65  1  0.379700  0.139300  0.792200  1.0  0.6036
  C  C66  1  0.658200  0.263600  0.134400  1.0  0.1548
  C  C67  1  0.726100  0.247400  0.207900  1.0  -0.1348
  C  C68  1  0.780300  0.309500  0.307200  1.0  0.0204
  C  C69  1  0.761200  0.381000  0.325000  1.0  -0.1943
  C  C70  1  0.693200  0.392300  0.247500  1.0  0.1882
  C  C71  1  0.010500  0.832100  0.516400  1.0  0.5775
  C  C72  1  0.984100  0.877600  0.575100  1.0  0.0287
  C  C73  1  0.029300  0.906700  0.675200  1.0  -0.0143
  C  C74  1  0.907500  0.938400  0.608500  1.0  0.2993
  C  C75  1  0.120300  0.912500  0.759600  1.0  0.607
  C  C76  1  0.841800  0.976200  0.605400  1.0  0.1541
  C  C77  1  0.773900  0.981800  0.521300  1.0  -0.1344
  C  C78  1  0.719700  0.026900  0.529200  1.0  0.0239
  C  C79  1  0.738800  0.063800  0.619800  1.0  -0.196
  C  C80  1  0.806800  0.054300  0.699100  1.0  0.19
  C  C81  1  0.315700  0.483600  0.994100  1.0  0.58
  C  C82  1  0.302500  0.424900  0.909000  1.0  0.0283
  C  C83  1  0.231500  0.324800  0.854100  1.0  -0.0149
  C  C84  1  0.329900  0.391500  0.799000  1.0  0.3
  C  C85  1  0.152900  0.240400  0.860700  1.0  0.6087
  C  C86  1  0.370800  0.394600  0.736400  1.0  0.1525
  C  C87  1  0.460500  0.478700  0.752600  1.0  -0.1338
  C  C88  1  0.497700  0.470800  0.690500  1.0  0.0226
  C  C89  1  0.444000  0.380200  0.619000  1.0  -0.1957
  C  C90  1  0.355200  0.300900  0.607700  1.0  0.1875
  C  C91  1  0.184300  0.178400  0.167900  1.0  0.5749
  C  C92  1  0.197500  0.106500  0.122400  1.0  0.027
  C  C93  1  0.268500  0.122600  0.093300  1.0  -0.014
  C  C94  1  0.170100  0.969100  0.061600  1.0  0.2992
  C  C95  1  0.347100  0.207800  0.087500  1.0  0.6055
  C  C96  1  0.129200  0.865600  0.023800  1.0  0.1545
  C  C97  1  0.039500  0.792100  0.018200  1.0  -0.1349
  C  C98  1  0.002300  0.692800  0.973100  1.0  0.0235
  C  C99  1  0.056000  0.675000  0.936200  1.0  -0.1956
  C  C100  1  0.144800  0.752500  0.945700  1.0  0.187
  C  C101  1  0.510500  0.994100  0.178400  1.0  0.5758
  C  C102  1  0.484100  0.909000  0.106500  1.0  0.0269
  C  C103  1  0.529300  0.854100  0.122600  1.0  -0.0119
  C  C104  1  0.407500  0.799000  0.969100  1.0  0.2997
  C  C105  1  0.620300  0.860700  0.207800  1.0  0.6063
  C  C106  1  0.341800  0.736400  0.865600  1.0  0.1553
  C  C107  1  0.273900  0.752600  0.792100  1.0  -0.1367
  C  C108  1  0.219700  0.690500  0.692800  1.0  0.0214
  C  C109  1  0.238800  0.619000  0.675000  1.0  -0.1955
  C  C110  1  0.306800  0.607700  0.752500  1.0  0.1893
  C  C111  1  0.989500  0.167900  0.483600  1.0  0.577
  C  C112  1  0.015900  0.122400  0.424900  1.0  0.0275
  C  C113  1  0.970700  0.093300  0.324800  1.0  -0.0145
  C  C114  1  0.092500  0.061600  0.391500  1.0  0.3001
  C  C115  1  0.879700  0.087500  0.240400  1.0  0.6032
  C  C116  1  0.158200  0.023800  0.394600  1.0  0.1544
  C  C117  1  0.226100  0.018200  0.478700  1.0  -0.1358
  C  C118  1  0.280300  0.973100  0.470800  1.0  0.0257
  C  C119  1  0.261200  0.936200  0.380200  1.0  -0.1945
  C  C120  1  0.193200  0.945700  0.300900  1.0  0.1894
  N  N121  1  0.635300  0.533000  0.125100  1.0  -0.4591
  N  N122  1  0.750700  0.694700  0.216600  1.0  -0.3503
  N  N123  1  0.682000  0.695400  0.336400  1.0  -0.3481
  N  N124  1  0.864700  0.989800  0.897700  1.0  -0.4552
  N  N125  1  0.749300  0.965900  0.944000  1.0  -0.3486
  N  N126  1  0.818000  0.154400  0.013400  1.0  -0.3478
  N  N127  1  0.592100  0.125100  0.989800  1.0  -0.457
  N  N128  1  0.521900  0.216600  0.965900  1.0  -0.3504
  N  N129  1  0.641000  0.336400  0.154400  1.0  -0.3455
  N  N130  1  0.907900  0.897700  0.533000  1.0  -0.4543
  N  N131  1  0.978100  0.944000  0.694700  1.0  -0.3489
  N  N132  1  0.859000  0.013400  0.695400  1.0  -0.3515
  N  N133  1  0.364700  0.467000  0.874900  1.0  -0.4595
  N  N134  1  0.249300  0.305300  0.783400  1.0  -0.3509
  N  N135  1  0.318000  0.304600  0.663600  1.0  -0.3485
  N  N136  1  0.135300  0.010200  0.102300  1.0  -0.4573
  N  N137  1  0.250700  0.034100  0.056000  1.0  -0.3502
  N  N138  1  0.182000  0.845600  0.986600  1.0  -0.3459
  N  N139  1  0.407900  0.874900  0.010200  1.0  -0.4583
  N  N140  1  0.478100  0.783400  0.034100  1.0  -0.3507
  N  N141  1  0.359000  0.663600  0.845600  1.0  -0.349
  N  N142  1  0.092100  0.102300  0.467000  1.0  -0.4567
  N  N143  1  0.021900  0.056000  0.305300  1.0  -0.3506
  N  N144  1  0.141000  0.986600  0.304600  1.0  -0.3456
  O  O145  1  0.619700  0.427900  0.966400  1.0  -0.5064
  O  O146  1  0.745300  0.564500  0.975000  1.0  -0.343
  O  O147  1  0.864400  0.745200  0.074200  1.0  -0.4196
  O  O148  1  0.891100  0.843100  0.200800  1.0  -0.5789
  O  O149  1  0.880300  0.846700  0.808200  1.0  -0.5043
  O  O150  1  0.754700  0.729700  0.819200  1.0  -0.3341
  O  O151  1  0.635600  0.709800  0.880800  1.0  -0.417
  O  O152  1  0.608900  0.809700  0.952000  1.0  -0.5751
  O  O153  1  0.538500  0.966400  0.846700  1.0  -0.5062
  O  O154  1  0.410500  0.975000  0.729700  1.0  -0.3488
  O  O155  1  0.329000  0.074200  0.709800  1.0  -0.4226
  O  O156  1  0.357700  0.200800  0.809700  1.0  -0.5772
  O  O157  1  0.961500  0.808200  0.427900  1.0  -0.5082
  O  O158  1  0.089500  0.819200  0.564500  1.0  -0.3385
  O  O159  1  0.171000  0.880800  0.745200  1.0  -0.4189
  O  O160  1  0.142300  0.952000  0.843100  1.0  -0.5742
  O  O161  1  0.380300  0.572100  0.033600  1.0  -0.5073
  O  O162  1  0.254700  0.435500  0.025000  1.0  -0.344
  O  O163  1  0.135600  0.254800  0.925800  1.0  -0.4196
  O  O164  1  0.108900  0.156900  0.799200  1.0  -0.5785
  O  O165  1  0.119700  0.153300  0.191800  1.0  -0.5057
  O  O166  1  0.245300  0.270300  0.180800  1.0  -0.3349
  O  O167  1  0.364400  0.290200  0.119200  1.0  -0.4183
  O  O168  1  0.391100  0.190300  0.048000  1.0  -0.5741
  O  O169  1  0.461500  0.033600  0.153300  1.0  -0.5094
  O  O170  1  0.589500  0.025000  0.270300  1.0  -0.341
  O  O171  1  0.671000  0.925800  0.290200  1.0  -0.4234
  O  O172  1  0.642300  0.799200  0.190300  1.0  -0.578
  O  O173  1  0.038500  0.191800  0.572100  1.0  -0.5147
  O  O174  1  0.910500  0.180800  0.435500  1.0  -0.3395
  O  O175  1  0.829000  0.119200  0.254800  1.0  -0.4186
  O  O176  1  0.857700  0.048000  0.156900  1.0  -0.5732
