# generated using pymatgen
data_Bi(C3O2)3
_symmetry_space_group_name_H-M   'P 1'
_cell_length_a   9.89050000
_cell_length_b   16.88090000
_cell_length_c   7.20310000
_cell_angle_alpha   90.00000000
_cell_angle_beta   70.71430000
_cell_angle_gamma   90.00000000
_symmetry_Int_Tables_number   1
_chemical_formula_structural   Bi(C3O2)3
_chemical_formula_sum   'Bi4 C36 O24'
_cell_volume   1135.14578962
_cell_formula_units_Z   4
loop_
 _symmetry_equiv_pos_site_id
 _symmetry_equiv_pos_as_xyz
  1  'x, y, z'
loop_
 _atom_site_type_symbol
 _atom_site_label
 _atom_site_symmetry_multiplicity
 _atom_site_fract_x
 _atom_site_fract_y
 _atom_site_fract_z
 _atom_site_occupancy
 _atom_site_charge
  Bi  Bi1  1  0.221580  0.959280  0.473560  1.0  1.3611
  Bi  Bi2  1  0.778420  0.459280  0.026440  1.0  1.3615
  Bi  Bi3  1  0.778420  0.040720  0.526440  1.0  1.3618
  Bi  Bi4  1  0.221580  0.540720  0.973560  1.0  1.3617
  C  C5  1  0.839870  0.765130  0.819670  1.0  0.1226
  C  C6  1  0.735300  0.716770  0.951030  1.0  -0.0231
  C  C7  1  0.611250  0.753880  0.082090  1.0  0.1037
  C  C8  1  0.600720  0.837780  0.091810  1.0  -0.0575
  C  C9  1  0.715260  0.882870  0.978790  1.0  0.1619
  C  C10  1  0.829910  0.848540  0.832290  1.0  0.0324
  C  C11  1  0.937620  0.897540  0.692350  1.0  0.4542
  C  C12  1  0.474030  0.877170  0.230770  1.0  0.7047
  C  C13  1  0.745330  0.628110  0.940780  1.0  0.6622
  C  C14  1  0.160130  0.265130  0.680330  1.0  0.1205
  C  C15  1  0.264700  0.216770  0.548970  1.0  -0.0233
  C  C16  1  0.388750  0.253880  0.417910  1.0  0.1051
  C  C17  1  0.399280  0.337780  0.408190  1.0  -0.0599
  C  C18  1  0.284740  0.382870  0.521210  1.0  0.1618
  C  C19  1  0.170090  0.348540  0.667710  1.0  0.0322
  C  C20  1  0.062380  0.397540  0.807650  1.0  0.4537
  C  C21  1  0.525970  0.377170  0.269230  1.0  0.703
  C  C22  1  0.254670  0.128110  0.559220  1.0  0.662
  C  C23  1  0.160130  0.234870  0.180330  1.0  0.122
  C  C24  1  0.264700  0.283230  0.048970  1.0  -0.0231
  C  C25  1  0.388750  0.246120  0.917910  1.0  0.1039
  C  C26  1  0.399280  0.162220  0.908190  1.0  -0.0593
  C  C27  1  0.284740  0.117130  0.021210  1.0  0.1618
  C  C28  1  0.170090  0.151460  0.167710  1.0  0.0326
  C  C29  1  0.062380  0.102460  0.307650  1.0  0.4533
  C  C30  1  0.525970  0.122830  0.769230  1.0  0.7074
  C  C31  1  0.254670  0.371890  0.059220  1.0  0.6626
  C  C32  1  0.839870  0.734870  0.319670  1.0  0.1229
  C  C33  1  0.735300  0.783230  0.451030  1.0  -0.0229
  C  C34  1  0.611250  0.746120  0.582090  1.0  0.1042
  C  C35  1  0.600720  0.662220  0.591810  1.0  -0.0571
  C  C36  1  0.715260  0.617130  0.478790  1.0  0.1622
  C  C37  1  0.829910  0.651460  0.332290  1.0  0.0332
  C  C38  1  0.937620  0.602460  0.192350  1.0  0.454
  C  C39  1  0.474030  0.622830  0.730770  1.0  0.7087
  C  C40  1  0.745330  0.871890  0.440780  1.0  0.6629
  O  O41  1  0.066500  0.874800  0.690700  1.0  -0.5651
  O  O42  1  0.896900  0.978000  0.694100  1.0  -0.6241
  O  O43  1  0.847800  0.581700  0.844500  1.0  -0.5604
  O  O44  1  0.652000  0.584000  0.066700  1.0  -0.5859
  O  O45  1  0.387000  0.842000  0.379700  1.0  -0.612
  O  O46  1  0.457600  0.953600  0.211100  1.0  -0.573
  O  O47  1  0.933500  0.374800  0.809300  1.0  -0.5661
  O  O48  1  0.103100  0.478000  0.805900  1.0  -0.6242
  O  O49  1  0.152200  0.081700  0.655500  1.0  -0.5591
  O  O50  1  0.348000  0.084000  0.433300  1.0  -0.5867
  O  O51  1  0.613000  0.342000  0.120300  1.0  -0.6144
  O  O52  1  0.542400  0.453600  0.288900  1.0  -0.5718
  O  O53  1  0.933500  0.125200  0.309300  1.0  -0.5673
  O  O54  1  0.103100  0.022000  0.305900  1.0  -0.6242
  O  O55  1  0.152200  0.418300  0.155500  1.0  -0.5594
  O  O56  1  0.348000  0.416000  0.933300  1.0  -0.5873
  O  O57  1  0.613000  0.158000  0.620300  1.0  -0.6153
  O  O58  1  0.542400  0.046400  0.788900  1.0  -0.5724
  O  O59  1  0.066500  0.625200  0.190700  1.0  -0.566
  O  O60  1  0.896900  0.522000  0.194100  1.0  -0.6232
  O  O61  1  0.847800  0.918300  0.344500  1.0  -0.5594
  O  O62  1  0.652000  0.916000  0.566700  1.0  -0.5863
  O  O63  1  0.387000  0.658000  0.879700  1.0  -0.6139
  O  O64  1  0.457600  0.546400  0.711100  1.0  -0.574
