# generated using pymatgen
data_Bi6H6C18O17
_symmetry_space_group_name_H-M   'P 1'
_cell_length_a   10.62800000
_cell_length_b   12.12700000
_cell_length_c   25.05500000
_cell_angle_alpha   90.00000000
_cell_angle_beta   90.00000000
_cell_angle_gamma   90.23000000
_symmetry_Int_Tables_number   1
_chemical_formula_structural   Bi6H6C18O17
_chemical_formula_sum   'Bi24 H24 C72 O68'
_cell_volume   3229.20659827
_cell_formula_units_Z   4
loop_
 _symmetry_equiv_pos_site_id
 _symmetry_equiv_pos_as_xyz
  1  'x, y, z'
loop_
 _atom_site_type_symbol
 _atom_site_label
 _atom_site_symmetry_multiplicity
 _atom_site_fract_x
 _atom_site_fract_y
 _atom_site_fract_z
 _atom_site_occupancy
 _atom_site_charge
  Bi  Bi1  1  0.860000  0.078030  0.005660  1.0  0.9767
  Bi  Bi2  1  0.149370  0.265760  0.985640  1.0  1.4218
  Bi  Bi3  1  0.860220  0.415910  0.013840  1.0  1.3871
  Bi  Bi4  1  0.014310  0.096810  0.871300  1.0  1.296
  Bi  Bi5  1  0.977820  0.267760  0.127220  1.0  0.9856
  Bi  Bi6  1  0.024190  0.407900  0.866930  1.0  1.59
  Bi  Bi7  1  0.640000  0.921970  0.505660  1.0  0.9779
  Bi  Bi8  1  0.350630  0.734240  0.485640  1.0  1.4222
  Bi  Bi9  1  0.639780  0.584090  0.513840  1.0  1.3873
  Bi  Bi10  1  0.485690  0.903190  0.371300  1.0  1.2968
  Bi  Bi11  1  0.522180  0.732240  0.627220  1.0  0.982
  Bi  Bi12  1  0.475810  0.592100  0.366930  1.0  1.591
  Bi  Bi13  1  0.140000  0.921970  0.994340  1.0  0.9777
  Bi  Bi14  1  0.850630  0.734240  0.014360  1.0  1.422
  Bi  Bi15  1  0.139780  0.584090  0.986160  1.0  1.387
  Bi  Bi16  1  0.985690  0.903190  0.128700  1.0  1.2976
  Bi  Bi17  1  0.022180  0.732240  0.872780  1.0  0.9833
  Bi  Bi18  1  0.975810  0.592100  0.133070  1.0  1.5909
  Bi  Bi19  1  0.360000  0.078030  0.494340  1.0  0.9765
  Bi  Bi20  1  0.649370  0.265760  0.514360  1.0  1.4221
  Bi  Bi21  1  0.360220  0.415910  0.486160  1.0  1.3869
  Bi  Bi22  1  0.514310  0.096810  0.628700  1.0  1.2968
  Bi  Bi23  1  0.477820  0.267760  0.372780  1.0  0.9898
  Bi  Bi24  1  0.524190  0.407900  0.633070  1.0  1.5899
  H  H25  1  0.287700  0.349300  0.195900  1.0  0.119
  H  H26  1  0.627200  0.480100  0.217400  1.0  0.0976
  H  H27  1  0.478900  0.483300  0.070200  1.0  0.1181
  H  H28  1  0.529800  0.143900  0.931900  1.0  0.1209
  H  H29  1  0.671300  0.312400  0.805100  1.0  0.1145
  H  H30  1  0.336700  0.163700  0.793900  1.0  0.1111
  H  H31  1  0.212300  0.650700  0.695900  1.0  0.1212
  H  H32  1  0.872800  0.519900  0.717400  1.0  0.0974
  H  H33  1  0.021100  0.516700  0.570200  1.0  0.1173
  H  H34  1  0.970200  0.856100  0.431900  1.0  0.1209
  H  H35  1  0.828700  0.687600  0.305100  1.0  0.1129
  H  H36  1  0.163300  0.836300  0.293900  1.0  0.111
  H  H37  1  0.712300  0.650700  0.804100  1.0  0.1213
  H  H38  1  0.372800  0.519900  0.782600  1.0  0.0979
  H  H39  1  0.521100  0.516700  0.929800  1.0  0.1171
  H  H40  1  0.470200  0.856100  0.068100  1.0  0.1203
  H  H41  1  0.328700  0.687600  0.194900  1.0  0.1123
  H  H42  1  0.663300  0.836300  0.206100  1.0  0.1118
  H  H43  1  0.787700  0.349300  0.304100  1.0  0.119
  H  H44  1  0.127200  0.480100  0.282600  1.0  0.0976
  H  H45  1  0.978900  0.483300  0.429800  1.0  0.118
  H  H46  1  0.029800  0.143900  0.568100  1.0  0.1205
  H  H47  1  0.171300  0.312400  0.694900  1.0  0.1141
  H  H48  1  0.836700  0.163700  0.706100  1.0  0.1119
  C  C49  1  0.264000  0.379300  0.089500  1.0  0.6768
  C  C50  1  0.366000  0.415000  0.127900  1.0  -0.1594
  C  C51  1  0.358000  0.384800  0.182300  1.0  0.0426
  C  C52  1  0.459400  0.409600  0.214100  1.0  -0.1452
  C  C53  1  0.562000  0.461900  0.194400  1.0  0.0435
  C  C54  1  0.474000  0.466000  0.106300  1.0  -0.0102
  C  C55  1  0.573000  0.489300  0.140700  1.0  -0.1735
  C  C56  1  0.454000  0.372100  0.271400  1.0  0.6463
  C  C57  1  0.690000  0.537700  0.118300  1.0  0.6609
  C  C58  1  0.625000  0.224800  0.871400  1.0  -0.1252
  C  C59  1  0.524000  0.166900  0.896600  1.0  -0.038
  C  C60  1  0.747000  0.244500  0.901700  1.0  0.7
  C  C61  1  0.610000  0.266800  0.819700  1.0  0.0165
  C  C62  1  0.506900  0.241800  0.791400  1.0  -0.1549
  C  C63  1  0.415000  0.146100  0.865700  1.0  -0.1556
  C  C64  1  0.408000  0.180600  0.814100  1.0  0.0199
  C  C65  1  0.492000  0.278200  0.734100  1.0  0.6672
  C  C66  1  0.307900  0.090500  0.892600  1.0  0.6871
  C  C67  1  0.236000  0.620700  0.589500  1.0  0.6781
  C  C68  1  0.134000  0.585000  0.627900  1.0  -0.1581
  C  C69  1  0.142000  0.615200  0.682300  1.0  0.0415
  C  C70  1  0.040600  0.590400  0.714100  1.0  -0.1465
  C  C71  1  0.938000  0.538100  0.694400  1.0  0.0428
  C  C72  1  0.026000  0.534000  0.606300  1.0  -0.006
  C  C73  1  0.927000  0.510700  0.640700  1.0  -0.1741
  C  C74  1  0.046000  0.627900  0.771400  1.0  0.6441
  C  C75  1  0.810000  0.462300  0.618300  1.0  0.6613
  C  C76  1  0.875000  0.775200  0.371400  1.0  -0.1236
  C  C77  1  0.976000  0.833100  0.396600  1.0  -0.0391
  C  C78  1  0.753000  0.755500  0.401700  1.0  0.7008
  C  C79  1  0.890000  0.733200  0.319700  1.0  0.0143
  C  C80  1  0.993100  0.758200  0.291400  1.0  -0.1537
  C  C81  1  0.085000  0.853900  0.365700  1.0  -0.1563
  C  C82  1  0.092000  0.819400  0.314100  1.0  0.0196
  C  C83  1  0.008000  0.721800  0.234100  1.0  0.6673
  C  C84  1  0.192100  0.909500  0.392600  1.0  0.6881
  C  C85  1  0.736000  0.620700  0.910500  1.0  0.6755
  C  C86  1  0.634000  0.585000  0.872100  1.0  -0.1583
  C  C87  1  0.642000  0.615200  0.817700  1.0  0.0405
  C  C88  1  0.540600  0.590400  0.785900  1.0  -0.1462
  C  C89  1  0.438000  0.538100  0.805600  1.0  0.0417
  C  C90  1  0.526000  0.534000  0.893700  1.0  0.0012
  C  C91  1  0.427000  0.510700  0.859300  1.0  -0.174
  C  C92  1  0.546000  0.627900  0.728600  1.0  0.6448
  C  C93  1  0.310000  0.462300  0.881700  1.0  0.6602
  C  C94  1  0.375000  0.775200  0.128600  1.0  -0.1242
  C  C95  1  0.476000  0.833100  0.103400  1.0  -0.0374
  C  C96  1  0.253000  0.755500  0.098300  1.0  0.6993
  C  C97  1  0.390000  0.733200  0.180300  1.0  0.0144
  C  C98  1  0.493100  0.758200  0.208600  1.0  -0.1548
  C  C99  1  0.585000  0.853900  0.134300  1.0  -0.1564
  C  C100  1  0.592000  0.819400  0.185900  1.0  0.02
  C  C101  1  0.508000  0.721800  0.265900  1.0  0.6669
  C  C102  1  0.692100  0.909500  0.107400  1.0  0.6908
  C  C103  1  0.764000  0.379300  0.410500  1.0  0.6739
  C  C104  1  0.866000  0.415000  0.372100  1.0  -0.1591
  C  C105  1  0.858000  0.384800  0.317700  1.0  0.0417
  C  C106  1  0.959400  0.409600  0.285900  1.0  -0.1451
  C  C107  1  0.062000  0.461900  0.305600  1.0  0.0429
  C  C108  1  0.974000  0.466000  0.393700  1.0  -0.0016
  C  C109  1  0.073000  0.489300  0.359300  1.0  -0.174
  C  C110  1  0.954000  0.372100  0.228600  1.0  0.6447
  C  C111  1  0.190000  0.537700  0.381700  1.0  0.6596
  C  C112  1  0.125000  0.224800  0.628600  1.0  -0.1252
  C  C113  1  0.024000  0.166900  0.603400  1.0  -0.0378
  C  C114  1  0.247000  0.244500  0.598300  1.0  0.6985
  C  C115  1  0.110000  0.266800  0.680300  1.0  0.0164
  C  C116  1  0.006900  0.241800  0.708600  1.0  -0.1553
  C  C117  1  0.915000  0.146100  0.634300  1.0  -0.156
  C  C118  1  0.908000  0.180600  0.685900  1.0  0.0202
  C  C119  1  0.992000  0.278200  0.765900  1.0  0.6667
  C  C120  1  0.807900  0.090500  0.607400  1.0  0.689
  O  O121  1  0.050600  0.417900  0.973600  1.0  -0.8286
  O  O122  1  0.974000  0.229500  0.025500  1.0  -0.9131
  O  O123  1  0.083700  0.251400  0.901700  1.0  -0.8569
  O  O124  1  0.217900  0.058000  0.861300  1.0  -0.6522
  O  O125  1  0.023600  0.049600  0.954500  1.0  -0.7651
  O  O126  1  0.188400  0.302500  0.104700  1.0  -0.6407
  O  O127  1  0.261000  0.416900  0.042900  1.0  -0.6119
  O  O128  1  0.542400  0.404100  0.303900  1.0  -0.5865
  O  O129  1  0.367000  0.308600  0.287900  1.0  -0.5611
  O  O130  1  0.704000  0.553400  0.068200  1.0  -0.6286
  O  O131  1  0.776900  0.560400  0.152800  1.0  -0.5511
  O  O132  1  0.804500  0.158400  0.916500  1.0  -0.6582
  O  O133  1  0.787600  0.340800  0.906400  1.0  -0.6524
  O  O134  1  0.419000  0.236100  0.703000  1.0  -0.6224
  O  O135  1  0.571000  0.352300  0.718600  1.0  -0.59
  O  O136  1  0.304000  0.073500  0.940800  1.0  -0.6109
  O  O137  1  0.932000  0.415400  0.092900  1.0  -0.8084
  O  O138  1  0.449400  0.582100  0.473600  1.0  -0.8285
  O  O139  1  0.526000  0.770500  0.525500  1.0  -0.9124
  O  O140  1  0.416300  0.748600  0.401700  1.0  -0.857
  O  O141  1  0.282100  0.942000  0.361300  1.0  -0.6548
  O  O142  1  0.476400  0.950400  0.454500  1.0  -0.7652
  O  O143  1  0.311600  0.697500  0.604700  1.0  -0.6398
  O  O144  1  0.239000  0.583100  0.542900  1.0  -0.6116
  O  O145  1  0.957600  0.595900  0.803900  1.0  -0.5889
  O  O146  1  0.133000  0.691400  0.787900  1.0  -0.5625
  O  O147  1  0.796000  0.446600  0.568200  1.0  -0.6286
  O  O148  1  0.723100  0.439600  0.652800  1.0  -0.5499
  O  O149  1  0.695500  0.841600  0.416500  1.0  -0.6576
  O  O150  1  0.712400  0.659200  0.406400  1.0  -0.6535
  O  O151  1  0.081000  0.763900  0.203000  1.0  -0.6193
  O  O152  1  0.929000  0.647700  0.218600  1.0  -0.591
  O  O153  1  0.196000  0.926500  0.440800  1.0  -0.6121
  O  O154  1  0.568000  0.584600  0.592900  1.0  -0.8093
  O  O155  1  0.949400  0.582100  0.026400  1.0  -0.8284
  O  O156  1  0.026000  0.770500  0.974500  1.0  -0.9131
  O  O157  1  0.916300  0.748600  0.098300  1.0  -0.8571
  O  O158  1  0.782100  0.942000  0.138700  1.0  -0.6537
  O  O159  1  0.976400  0.950400  0.045500  1.0  -0.7655
  O  O160  1  0.811600  0.697500  0.895300  1.0  -0.6381
  O  O161  1  0.739000  0.583100  0.957100  1.0  -0.6124
  O  O162  1  0.457600  0.595900  0.696100  1.0  -0.5882
  O  O163  1  0.633000  0.691400  0.712100  1.0  -0.5635
  O  O164  1  0.296000  0.446600  0.931800  1.0  -0.6307
  O  O165  1  0.223100  0.439600  0.847200  1.0  -0.5517
  O  O166  1  0.195500  0.841600  0.083500  1.0  -0.6586
  O  O167  1  0.212400  0.659200  0.093600  1.0  -0.6549
  O  O168  1  0.581000  0.763900  0.297000  1.0  -0.6195
  O  O169  1  0.429000  0.647700  0.281400  1.0  -0.5913
  O  O170  1  0.696000  0.926500  0.059200  1.0  -0.6113
  O  O171  1  0.068000  0.584600  0.907100  1.0  -0.8096
  O  O172  1  0.550600  0.417900  0.526400  1.0  -0.8285
  O  O173  1  0.474000  0.229500  0.474500  1.0  -0.9139
  O  O174  1  0.583700  0.251400  0.598300  1.0  -0.8571
  O  O175  1  0.717900  0.058000  0.638700  1.0  -0.6523
  O  O176  1  0.523600  0.049600  0.545500  1.0  -0.7656
  O  O177  1  0.688400  0.302500  0.395300  1.0  -0.6388
  O  O178  1  0.761000  0.416900  0.457100  1.0  -0.6117
  O  O179  1  0.042400  0.404100  0.196100  1.0  -0.5868
  O  O180  1  0.867000  0.308600  0.212100  1.0  -0.5608
  O  O181  1  0.204000  0.553400  0.431800  1.0  -0.6287
  O  O182  1  0.276900  0.560400  0.347200  1.0  -0.5506
  O  O183  1  0.304500  0.158400  0.583500  1.0  -0.6571
  O  O184  1  0.287600  0.340800  0.593600  1.0  -0.6532
  O  O185  1  0.919000  0.236100  0.797000  1.0  -0.6198
  O  O186  1  0.071000  0.352300  0.781400  1.0  -0.5902
  O  O187  1  0.804000  0.073500  0.559200  1.0  -0.6107
  O  O188  1  0.432000  0.415400  0.407100  1.0  -0.8087
