# generated using pymatgen
data_Co8H9C27N18O17
_symmetry_space_group_name_H-M   'P 1'
_cell_length_a   13.73900000
_cell_length_b   15.17900000
_cell_length_c   24.30100000
_cell_angle_alpha   90.00000000
_cell_angle_beta   90.00000000
_cell_angle_gamma   90.00000000
_symmetry_Int_Tables_number   1
_chemical_formula_structural   Co8H9C27N18O17
_chemical_formula_sum   'Co32 H36 C108 N72 O68'
_cell_volume   5067.83457258
_cell_formula_units_Z   4
loop_
 _symmetry_equiv_pos_site_id
 _symmetry_equiv_pos_as_xyz
  1  'x, y, z'
loop_
 _atom_site_type_symbol
 _atom_site_label
 _atom_site_symmetry_multiplicity
 _atom_site_fract_x
 _atom_site_fract_y
 _atom_site_fract_z
 _atom_site_occupancy
 _atom_site_charge
  Co  Co1  1  0.616520  0.792090  0.752110  1.0  1.0324
  Co  Co2  1  0.774960  0.699050  0.843360  1.0  1.1452
  Co  Co3  1  0.193560  0.495380  0.590000  1.0  1.042
  Co  Co4  1  0.644600  0.676800  0.458310  1.0  1.0454
  Co  Co5  1  0.883480  0.292090  0.747890  1.0  1.0293
  Co  Co6  1  0.725040  0.199050  0.656640  1.0  1.1461
  Co  Co7  1  0.306440  0.995380  0.910000  1.0  1.0394
  Co  Co8  1  0.855400  0.176800  0.041690  1.0  1.045
  Co  Co9  1  0.383480  0.707910  0.752110  1.0  1.0338
  Co  Co10  1  0.225040  0.800950  0.843360  1.0  1.1474
  Co  Co11  1  0.806440  0.004620  0.590000  1.0  1.0418
  Co  Co12  1  0.355400  0.823200  0.458310  1.0  1.0453
  Co  Co13  1  0.116520  0.207910  0.747890  1.0  1.0284
  Co  Co14  1  0.274960  0.300950  0.656640  1.0  1.1457
  Co  Co15  1  0.693560  0.504620  0.910000  1.0  1.0395
  Co  Co16  1  0.144600  0.323200  0.041690  1.0  1.047
  Co  Co17  1  0.383480  0.207910  0.247890  1.0  1.0296
  Co  Co18  1  0.225040  0.300950  0.156640  1.0  1.1469
  Co  Co19  1  0.806440  0.504620  0.410000  1.0  1.0397
  Co  Co20  1  0.355400  0.323200  0.541690  1.0  1.0457
  Co  Co21  1  0.116520  0.707910  0.252110  1.0  1.0326
  Co  Co22  1  0.274960  0.800950  0.343360  1.0  1.146
  Co  Co23  1  0.693560  0.004620  0.090000  1.0  1.0414
  Co  Co24  1  0.144600  0.823200  0.958310  1.0  1.0454
  Co  Co25  1  0.616520  0.292090  0.247890  1.0  1.0287
  Co  Co26  1  0.774960  0.199050  0.156640  1.0  1.1448
  Co  Co27  1  0.193560  0.995380  0.410000  1.0  1.0404
  Co  Co28  1  0.644600  0.176800  0.541690  1.0  1.0471
  Co  Co29  1  0.883480  0.792090  0.252110  1.0  1.0332
  Co  Co30  1  0.725040  0.699050  0.343360  1.0  1.1466
  Co  Co31  1  0.306440  0.495380  0.090000  1.0  1.0417
  Co  Co32  1  0.855400  0.676800  0.958310  1.0  1.0448
  H  H33  1  0.905500  0.525900  0.726300  1.0  0.131
  H  H34  1  0.749800  0.662700  0.614600  1.0  0.1078
  H  H35  1  0.936700  0.473800  0.564200  1.0  0.1264
  H  H36  1  0.903800  0.848000  0.746100  1.0  0.1108
  H  H37  1  0.594500  0.025900  0.773700  1.0  0.1314
  H  H38  1  0.750200  0.162700  0.885400  1.0  0.1072
  H  H39  1  0.563300  0.973800  0.935800  1.0  0.1266
  H  H40  1  0.596200  0.348000  0.753900  1.0  0.1107
  H  H41  1  0.094500  0.974100  0.726300  1.0  0.1311
  H  H42  1  0.250200  0.837300  0.614600  1.0  0.1081
  H  H43  1  0.063300  0.026200  0.564200  1.0  0.1261
  H  H44  1  0.096200  0.652000  0.746100  1.0  0.1112
  H  H45  1  0.405500  0.474100  0.773700  1.0  0.1315
  H  H46  1  0.249800  0.337300  0.885400  1.0  0.1078
  H  H47  1  0.436700  0.526200  0.935800  1.0  0.1263
  H  H48  1  0.403800  0.152000  0.753900  1.0  0.1104
  H  H49  1  0.094500  0.474100  0.273700  1.0  0.1312
  H  H50  1  0.250200  0.337300  0.385400  1.0  0.1076
  H  H51  1  0.063300  0.526200  0.435800  1.0  0.1268
  H  H52  1  0.096200  0.152000  0.253900  1.0  0.1105
  H  H53  1  0.405500  0.974100  0.226300  1.0  0.1314
  H  H54  1  0.249800  0.837300  0.114600  1.0  0.1078
  H  H55  1  0.436700  0.026200  0.064200  1.0  0.1261
  H  H56  1  0.403800  0.652000  0.246100  1.0  0.1111
  H  H57  1  0.905500  0.025900  0.273700  1.0  0.1317
  H  H58  1  0.749800  0.162700  0.385400  1.0  0.1076
  H  H59  1  0.936700  0.973800  0.435800  1.0  0.1263
  H  H60  1  0.903800  0.348000  0.253900  1.0  0.1107
  H  H61  1  0.594500  0.525900  0.226300  1.0  0.1307
  H  H62  1  0.750200  0.662700  0.114600  1.0  0.1079
  H  H63  1  0.563300  0.473800  0.064200  1.0  0.1262
  H  H64  1  0.596200  0.848000  0.246100  1.0  0.1108
  H  H65  1  0.000000  0.750000  0.602000  1.0  0.1255
  H  H66  1  0.500000  0.250000  0.898000  1.0  0.1248
  H  H67  1  0.000000  0.250000  0.398000  1.0  0.1248
  H  H68  1  0.500000  0.750000  0.102000  1.0  0.1255
  C  C69  1  0.004800  0.422100  0.661200  1.0  0.3546
  C  C70  1  0.929700  0.491000  0.647400  1.0  -0.0586
  C  C71  1  0.888300  0.537400  0.689900  1.0  -0.0866
  C  C72  1  0.819000  0.602700  0.677200  1.0  -0.1457
  C  C73  1  0.794700  0.618700  0.622600  1.0  0.0347
  C  C74  1  0.835000  0.571500  0.580200  1.0  -0.1396
  C  C75  1  0.906700  0.505600  0.592100  1.0  -0.0567
  C  C76  1  0.773500  0.656200  0.722600  1.0  0.699
  C  C77  1  0.805200  0.583900  0.521100  1.0  0.7476
  C  C78  1  0.942600  0.808300  0.726900  1.0  -0.0483
  C  C79  1  0.942200  0.808400  0.668900  1.0  -0.1527
  C  C80  1  0.883700  0.875800  0.637000  1.0  0.6652
  C  C81  1  0.495200  0.922100  0.838800  1.0  0.3547
  C  C82  1  0.570300  0.991000  0.852600  1.0  -0.0585
  C  C83  1  0.611700  0.037400  0.810100  1.0  -0.0874
  C  C84  1  0.681000  0.102700  0.822800  1.0  -0.1456
  C  C85  1  0.705300  0.118700  0.877400  1.0  0.0356
  C  C86  1  0.665000  0.071500  0.919800  1.0  -0.1397
  C  C87  1  0.593300  0.005600  0.907900  1.0  -0.0551
  C  C88  1  0.726500  0.156200  0.777400  1.0  0.6988
  C  C89  1  0.694800  0.083900  0.978900  1.0  0.7494
  C  C90  1  0.557400  0.308300  0.773100  1.0  -0.0489
  C  C91  1  0.557800  0.308400  0.831100  1.0  -0.154
  C  C92  1  0.616300  0.375800  0.863000  1.0  0.6652
  C  C93  1  0.995200  0.077900  0.661200  1.0  0.3543
  C  C94  1  0.070300  0.009000  0.647400  1.0  -0.0579
  C  C95  1  0.111700  0.962600  0.689900  1.0  -0.0884
  C  C96  1  0.181000  0.897300  0.677200  1.0  -0.1471
  C  C97  1  0.205300  0.881300  0.622600  1.0  0.0358
  C  C98  1  0.165000  0.928500  0.580200  1.0  -0.1404
  C  C99  1  0.093300  0.994400  0.592100  1.0  -0.0561
  C  C100  1  0.226500  0.843800  0.722600  1.0  0.6993
  C  C101  1  0.194800  0.916100  0.521100  1.0  0.7479
  C  C102  1  0.057400  0.691700  0.726900  1.0  -0.046
  C  C103  1  0.057800  0.691600  0.668900  1.0  -0.1534
  C  C104  1  0.116300  0.624200  0.637000  1.0  0.6648
  C  C105  1  0.504800  0.577900  0.838800  1.0  0.3543
  C  C106  1  0.429700  0.509000  0.852600  1.0  -0.0585
  C  C107  1  0.388300  0.462600  0.810100  1.0  -0.0862
  C  C108  1  0.319000  0.397300  0.822800  1.0  -0.1485
  C  C109  1  0.294700  0.381300  0.877400  1.0  0.0352
  C  C110  1  0.335000  0.428500  0.919800  1.0  -0.139
  C  C111  1  0.406700  0.494400  0.907900  1.0  -0.055
  C  C112  1  0.273500  0.343800  0.777400  1.0  0.699
  C  C113  1  0.305200  0.416100  0.978900  1.0  0.7472
  C  C114  1  0.442600  0.191700  0.773100  1.0  -0.047
  C  C115  1  0.442200  0.191600  0.831100  1.0  -0.153
  C  C116  1  0.383700  0.124200  0.863000  1.0  0.6648
  C  C117  1  0.995200  0.577900  0.338800  1.0  0.3542
  C  C118  1  0.070300  0.509000  0.352600  1.0  -0.058
  C  C119  1  0.111700  0.462600  0.310100  1.0  -0.0885
  C  C120  1  0.181000  0.397300  0.322800  1.0  -0.1459
  C  C121  1  0.205300  0.381300  0.377400  1.0  0.0357
  C  C122  1  0.165000  0.428500  0.419800  1.0  -0.1399
  C  C123  1  0.093300  0.494400  0.407900  1.0  -0.0556
  C  C124  1  0.226500  0.343800  0.277400  1.0  0.6985
  C  C125  1  0.194800  0.416100  0.478900  1.0  0.7493
  C  C126  1  0.057400  0.191700  0.273100  1.0  -0.0478
  C  C127  1  0.057800  0.191600  0.331100  1.0  -0.1533
  C  C128  1  0.116300  0.124200  0.363000  1.0  0.6652
  C  C129  1  0.504800  0.077900  0.161200  1.0  0.3545
  C  C130  1  0.429700  0.009000  0.147400  1.0  -0.0584
  C  C131  1  0.388300  0.962600  0.189900  1.0  -0.0865
  C  C132  1  0.319000  0.897300  0.177200  1.0  -0.1457
  C  C133  1  0.294700  0.881300  0.122600  1.0  0.0348
  C  C134  1  0.335000  0.928500  0.080200  1.0  -0.1395
  C  C135  1  0.406700  0.994400  0.092100  1.0  -0.0553
  C  C136  1  0.273500  0.843800  0.222600  1.0  0.6988
  C  C137  1  0.305200  0.916100  0.021100  1.0  0.7473
  C  C138  1  0.442600  0.691700  0.226900  1.0  -0.0464
  C  C139  1  0.442200  0.691600  0.168900  1.0  -0.1542
  C  C140  1  0.383700  0.624200  0.137000  1.0  0.6652
  C  C141  1  0.004800  0.922100  0.338800  1.0  0.3545
  C  C142  1  0.929700  0.991000  0.352600  1.0  -0.0587
  C  C143  1  0.888300  0.037400  0.310100  1.0  -0.0855
  C  C144  1  0.819000  0.102700  0.322800  1.0  -0.1486
  C  C145  1  0.794700  0.118700  0.377400  1.0  0.0348
  C  C146  1  0.835000  0.071500  0.419800  1.0  -0.1386
  C  C147  1  0.906700  0.005600  0.407900  1.0  -0.0549
  C  C148  1  0.773500  0.156200  0.277400  1.0  0.6995
  C  C149  1  0.805200  0.083900  0.478900  1.0  0.7472
  C  C150  1  0.942600  0.308300  0.273100  1.0  -0.0482
  C  C151  1  0.942200  0.308400  0.331100  1.0  -0.1528
  C  C152  1  0.883700  0.375800  0.363000  1.0  0.6649
  C  C153  1  0.495200  0.422100  0.161200  1.0  0.3548
  C  C154  1  0.570300  0.491000  0.147400  1.0  -0.0585
  C  C155  1  0.611700  0.537400  0.189900  1.0  -0.0886
  C  C156  1  0.681000  0.602700  0.177200  1.0  -0.1467
  C  C157  1  0.705300  0.618700  0.122600  1.0  0.0357
  C  C158  1  0.665000  0.571500  0.080200  1.0  -0.1404
  C  C159  1  0.593300  0.505600  0.092100  1.0  -0.0569
  C  C160  1  0.726500  0.656200  0.222600  1.0  0.6992
  C  C161  1  0.694800  0.583900  0.021100  1.0  0.7482
  C  C162  1  0.557400  0.808300  0.226900  1.0  -0.048
  C  C163  1  0.557800  0.808400  0.168900  1.0  -0.153
  C  C164  1  0.616300  0.875800  0.137000  1.0  0.665
  C  C165  1  0.000000  0.750000  0.816800  1.0  0.2982
  C  C166  1  0.000000  0.750000  0.754900  1.0  -0.0259
  C  C167  1  0.000000  0.750000  0.640300  1.0  0.0274
  C  C168  1  0.500000  0.250000  0.683200  1.0  0.2955
  C  C169  1  0.500000  0.250000  0.745100  1.0  -0.0256
  C  C170  1  0.500000  0.250000  0.859700  1.0  0.0256
  C  C171  1  0.000000  0.250000  0.183200  1.0  0.2955
  C  C172  1  0.000000  0.250000  0.245100  1.0  -0.0256
  C  C173  1  0.000000  0.250000  0.359700  1.0  0.0256
  C  C174  1  0.500000  0.750000  0.316800  1.0  0.2982
  C  C175  1  0.500000  0.750000  0.254900  1.0  -0.0259
  C  C176  1  0.500000  0.750000  0.140300  1.0  0.0274
  N  N177  1  0.090200  0.414100  0.634800  1.0  -0.3285
  N  N178  1  0.134600  0.344400  0.660100  1.0  -0.0888
  N  N179  1  0.077400  0.315900  0.699000  1.0  -0.0372
  N  N180  1  0.994900  0.362500  0.699900  1.0  -0.258
  N  N181  1  0.920700  0.738000  0.848900  1.0  -0.2967
  N  N182  1  0.953300  0.742400  0.900700  1.0  -0.1437
  N  N183  1  0.728400  0.816100  0.809700  1.0  -0.5222
  N  N184  1  0.774700  0.879100  0.818600  1.0  0.5517
  N  N185  1  0.823900  0.942800  0.825800  1.0  -0.4014
  N  N186  1  0.409800  0.914100  0.865200  1.0  -0.3281
  N  N187  1  0.365400  0.844400  0.839900  1.0  -0.0879
  N  N188  1  0.422600  0.815900  0.801000  1.0  -0.0382
  N  N189  1  0.505100  0.862500  0.800100  1.0  -0.2585
  N  N190  1  0.579300  0.238000  0.651100  1.0  -0.2969
  N  N191  1  0.546700  0.242400  0.599300  1.0  -0.1423
  N  N192  1  0.771600  0.316100  0.690300  1.0  -0.5229
  N  N193  1  0.725300  0.379100  0.681400  1.0  0.5517
  N  N194  1  0.676100  0.442800  0.674200  1.0  -0.4009
  N  N195  1  0.909800  0.085900  0.634800  1.0  -0.3278
  N  N196  1  0.865400  0.155600  0.660100  1.0  -0.0864
  N  N197  1  0.922600  0.184100  0.699000  1.0  -0.0372
  N  N198  1  0.005100  0.137500  0.699900  1.0  -0.2591
  N  N199  1  0.079300  0.762000  0.848900  1.0  -0.2972
  N  N200  1  0.046700  0.757600  0.900700  1.0  -0.1427
  N  N201  1  0.271600  0.683900  0.809700  1.0  -0.5237
  N  N202  1  0.225300  0.620900  0.818600  1.0  0.5538
  N  N203  1  0.176100  0.557200  0.825800  1.0  -0.3993
  N  N204  1  0.590200  0.585900  0.865200  1.0  -0.3283
  N  N205  1  0.634600  0.655600  0.839900  1.0  -0.0884
  N  N206  1  0.577400  0.684100  0.801000  1.0  -0.0371
  N  N207  1  0.494900  0.637500  0.800100  1.0  -0.2569
  N  N208  1  0.420700  0.262000  0.651100  1.0  -0.296
  N  N209  1  0.453300  0.257600  0.599300  1.0  -0.1414
  N  N210  1  0.228400  0.183900  0.690300  1.0  -0.5217
  N  N211  1  0.274700  0.120900  0.681400  1.0  0.553
  N  N212  1  0.323900  0.057200  0.674200  1.0  -0.3999
  N  N213  1  0.909800  0.585900  0.365200  1.0  -0.3278
  N  N214  1  0.865400  0.655600  0.339900  1.0  -0.088
  N  N215  1  0.922600  0.684100  0.301000  1.0  -0.0372
  N  N216  1  0.005100  0.637500  0.300100  1.0  -0.2581
  N  N217  1  0.079300  0.262000  0.151100  1.0  -0.2966
  N  N218  1  0.046700  0.257600  0.099300  1.0  -0.1417
  N  N219  1  0.271600  0.183900  0.190300  1.0  -0.5229
  N  N220  1  0.225300  0.120900  0.181400  1.0  0.5533
  N  N221  1  0.176100  0.057200  0.174200  1.0  -0.4005
  N  N222  1  0.590200  0.085900  0.134800  1.0  -0.3286
  N  N223  1  0.634600  0.155600  0.160100  1.0  -0.0881
  N  N224  1  0.577400  0.184100  0.199000  1.0  -0.0373
  N  N225  1  0.494900  0.137500  0.199900  1.0  -0.2583
  N  N226  1  0.420700  0.762000  0.348900  1.0  -0.2972
  N  N227  1  0.453300  0.757600  0.400700  1.0  -0.1439
  N  N228  1  0.228400  0.683900  0.309700  1.0  -0.5223
  N  N229  1  0.274700  0.620900  0.318600  1.0  0.5535
  N  N230  1  0.323900  0.557200  0.325800  1.0  -0.4
  N  N231  1  0.090200  0.914100  0.365200  1.0  -0.3283
  N  N232  1  0.134600  0.844400  0.339900  1.0  -0.0883
  N  N233  1  0.077400  0.815900  0.301000  1.0  -0.038
  N  N234  1  0.994900  0.862500  0.300100  1.0  -0.2572
  N  N235  1  0.920700  0.238000  0.151100  1.0  -0.2962
  N  N236  1  0.953300  0.242400  0.099300  1.0  -0.1419
  N  N237  1  0.728400  0.316100  0.190300  1.0  -0.5217
  N  N238  1  0.774700  0.379100  0.181400  1.0  0.5515
  N  N239  1  0.823900  0.442800  0.174200  1.0  -0.4013
  N  N240  1  0.409800  0.414100  0.134800  1.0  -0.3279
  N  N241  1  0.365400  0.344400  0.160100  1.0  -0.0872
  N  N242  1  0.422600  0.315900  0.199000  1.0  -0.0373
  N  N243  1  0.505100  0.362500  0.199900  1.0  -0.259
  N  N244  1  0.579300  0.738000  0.348900  1.0  -0.2966
  N  N245  1  0.546700  0.742400  0.400700  1.0  -0.1427
  N  N246  1  0.771600  0.816100  0.309700  1.0  -0.5236
  N  N247  1  0.725300  0.879100  0.318600  1.0  0.5518
  N  N248  1  0.676100  0.942800  0.325800  1.0  -0.4002
  O  O249  1  0.710400  0.712400  0.708100  1.0  -0.6144
  O  O250  1  0.802400  0.640600  0.770700  1.0  -0.5947
  O  O251  1  0.738000  0.638700  0.513100  1.0  -0.6861
  O  O252  1  0.845800  0.541900  0.485400  1.0  -0.5845
  O  O253  1  0.897000  0.888400  0.588300  1.0  -0.5276
  O  O254  1  0.822700  0.924300  0.663600  1.0  -0.5702
  O  O255  1  0.808500  0.588100  0.888200  1.0  -0.7748
  O  O256  1  0.751300  0.759400  0.923100  1.0  -0.5824
  O  O257  1  0.789600  0.212400  0.791900  1.0  -0.6154
  O  O258  1  0.697600  0.140600  0.729300  1.0  -0.5939
  O  O259  1  0.762000  0.138700  0.986900  1.0  -0.6859
  O  O260  1  0.654200  0.041900  0.014600  1.0  -0.5835
  O  O261  1  0.603000  0.388400  0.911700  1.0  -0.5279
  O  O262  1  0.677300  0.424300  0.836400  1.0  -0.5686
  O  O263  1  0.691500  0.088100  0.611800  1.0  -0.775
  O  O264  1  0.748700  0.259400  0.576900  1.0  -0.587
  O  O265  1  0.289600  0.787600  0.708100  1.0  -0.6137
  O  O266  1  0.197600  0.859400  0.770700  1.0  -0.5952
  O  O267  1  0.262000  0.861300  0.513100  1.0  -0.6839
  O  O268  1  0.154200  0.958100  0.485400  1.0  -0.5825
  O  O269  1  0.103000  0.611600  0.588300  1.0  -0.5261
  O  O270  1  0.177300  0.575700  0.663600  1.0  -0.5686
  O  O271  1  0.191500  0.911900  0.888200  1.0  -0.7788
  O  O272  1  0.248700  0.740600  0.923100  1.0  -0.5834
  O  O273  1  0.210400  0.287600  0.791900  1.0  -0.6137
  O  O274  1  0.302400  0.359400  0.729300  1.0  -0.5952
  O  O275  1  0.238000  0.361300  0.986900  1.0  -0.6858
  O  O276  1  0.345800  0.458100  0.014600  1.0  -0.5846
  O  O277  1  0.397000  0.111600  0.911700  1.0  -0.528
  O  O278  1  0.322700  0.075700  0.836400  1.0  -0.572
  O  O279  1  0.308500  0.411900  0.611800  1.0  -0.7763
  O  O280  1  0.251300  0.240600  0.576900  1.0  -0.5852
  O  O281  1  0.289600  0.287600  0.291900  1.0  -0.6151
  O  O282  1  0.197600  0.359400  0.229300  1.0  -0.5947
  O  O283  1  0.262000  0.361300  0.486900  1.0  -0.6843
  O  O284  1  0.154200  0.458100  0.514600  1.0  -0.5833
  O  O285  1  0.103000  0.111600  0.411700  1.0  -0.5271
  O  O286  1  0.177300  0.075700  0.336400  1.0  -0.5692
  O  O287  1  0.191500  0.411900  0.111800  1.0  -0.7773
  O  O288  1  0.248700  0.240600  0.076900  1.0  -0.5858
  O  O289  1  0.210400  0.787600  0.208100  1.0  -0.6144
  O  O290  1  0.302400  0.859400  0.270700  1.0  -0.5957
  O  O291  1  0.238000  0.861300  0.013100  1.0  -0.6855
  O  O292  1  0.345800  0.958100  0.985400  1.0  -0.5842
  O  O293  1  0.397000  0.611600  0.088300  1.0  -0.5278
  O  O294  1  0.322700  0.575700  0.163600  1.0  -0.5707
  O  O295  1  0.308500  0.911900  0.388200  1.0  -0.7754
  O  O296  1  0.251300  0.740600  0.423100  1.0  -0.5821
  O  O297  1  0.710400  0.212400  0.291900  1.0  -0.614
  O  O298  1  0.802400  0.140600  0.229300  1.0  -0.5943
  O  O299  1  0.738000  0.138700  0.486900  1.0  -0.6864
  O  O300  1  0.845800  0.041900  0.514600  1.0  -0.5848
  O  O301  1  0.897000  0.388400  0.411700  1.0  -0.5287
  O  O302  1  0.822700  0.424300  0.336400  1.0  -0.5709
  O  O303  1  0.808500  0.088100  0.111800  1.0  -0.7744
  O  O304  1  0.751300  0.259400  0.076900  1.0  -0.5851
  O  O305  1  0.789600  0.712400  0.208100  1.0  -0.6142
  O  O306  1  0.697600  0.640600  0.270700  1.0  -0.5942
  O  O307  1  0.762000  0.638700  0.013100  1.0  -0.6856
  O  O308  1  0.654200  0.541900  0.985400  1.0  -0.5828
  O  O309  1  0.603000  0.888400  0.088300  1.0  -0.5262
  O  O310  1  0.677300  0.924300  0.163600  1.0  -0.5688
  O  O311  1  0.691500  0.588100  0.388200  1.0  -0.7771
  O  O312  1  0.748700  0.759400  0.423100  1.0  -0.5824
  O  O313  1  0.500000  0.750000  0.699000  1.0  -0.6151
  O  O314  1  0.000000  0.250000  0.801000  1.0  -0.6129
  O  O315  1  0.500000  0.250000  0.301000  1.0  -0.6129
  O  O316  1  0.000000  0.750000  0.199000  1.0  -0.6151
