# generated using pymatgen
data_ZnPH4C7O5
_symmetry_space_group_name_H-M   'P 1'
_cell_length_a   10.48100000
_cell_length_b   23.98600000
_cell_length_c   23.98600000
_cell_angle_alpha   90.00000000
_cell_angle_beta   90.00000000
_cell_angle_gamma   90.00000000
_symmetry_Int_Tables_number   1
_chemical_formula_structural   ZnPH4C7O5
_chemical_formula_sum   'Zn16 P16 H64 C112 O80'
_cell_volume   6030.01482228
_cell_formula_units_Z   16
loop_
 _symmetry_equiv_pos_site_id
 _symmetry_equiv_pos_as_xyz
  1  'x, y, z'
loop_
 _atom_site_type_symbol
 _atom_site_label
 _atom_site_symmetry_multiplicity
 _atom_site_fract_x
 _atom_site_fract_y
 _atom_site_fract_z
 _atom_site_occupancy
 _atom_site_charge
  Zn  Zn1  1  0.389510  0.420850  0.979650  1.0  1.1529
  Zn  Zn2  1  0.389510  0.079150  0.520350  1.0  1.1537
  Zn  Zn3  1  0.389510  0.520350  0.420850  1.0  1.1534
  Zn  Zn4  1  0.389510  0.979650  0.079150  1.0  1.1532
  Zn  Zn5  1  0.110490  0.079150  0.979650  1.0  1.1524
  Zn  Zn6  1  0.110490  0.420850  0.520350  1.0  1.1522
  Zn  Zn7  1  0.110490  0.979650  0.420850  1.0  1.152
  Zn  Zn8  1  0.110490  0.520350  0.079150  1.0  1.1519
  Zn  Zn9  1  0.610490  0.579150  0.020350  1.0  1.1525
  Zn  Zn10  1  0.610490  0.920850  0.479650  1.0  1.1526
  Zn  Zn11  1  0.610490  0.479650  0.579150  1.0  1.1505
  Zn  Zn12  1  0.610490  0.020350  0.920850  1.0  1.1503
  Zn  Zn13  1  0.889510  0.920850  0.020350  1.0  1.1533
  Zn  Zn14  1  0.889510  0.579150  0.479650  1.0  1.153
  Zn  Zn15  1  0.889510  0.020350  0.579150  1.0  1.1521
  Zn  Zn16  1  0.889510  0.479650  0.920850  1.0  1.1517
  P  P17  1  0.589000  0.489270  0.915010  1.0  1.5665
  P  P18  1  0.589000  0.010730  0.584990  1.0  1.5652
  P  P19  1  0.589000  0.584990  0.489270  1.0  1.5662
  P  P20  1  0.589000  0.915010  0.010730  1.0  1.5662
  P  P21  1  0.911000  0.010730  0.915010  1.0  1.5678
  P  P22  1  0.911000  0.489270  0.584990  1.0  1.5659
  P  P23  1  0.911000  0.915010  0.489270  1.0  1.5669
  P  P24  1  0.911000  0.584990  0.010730  1.0  1.5681
  P  P25  1  0.411000  0.510730  0.084990  1.0  1.5662
  P  P26  1  0.411000  0.989270  0.415010  1.0  1.5676
  P  P27  1  0.411000  0.415010  0.510730  1.0  1.5673
  P  P28  1  0.411000  0.084990  0.989270  1.0  1.5671
  P  P29  1  0.089000  0.989270  0.084990  1.0  1.5649
  P  P30  1  0.089000  0.510730  0.415010  1.0  1.5668
  P  P31  1  0.089000  0.084990  0.510730  1.0  1.5671
  P  P32  1  0.089000  0.415010  0.989270  1.0  1.5659
  H  H33  1  0.594800  0.602000  0.877100  1.0  0.1056
  H  H34  1  0.591800  0.646000  0.792000  1.0  0.1193
  H  H35  1  0.572300  0.594200  0.711400  1.0  0.1063
  H  H36  1  0.583500  0.454600  0.801700  1.0  0.1166
  H  H37  1  0.594800  0.898000  0.622900  1.0  0.1054
  H  H38  1  0.591800  0.854000  0.708000  1.0  0.1189
  H  H39  1  0.572300  0.905800  0.788600  1.0  0.1064
  H  H40  1  0.583500  0.045400  0.698300  1.0  0.1168
  H  H41  1  0.594800  0.622900  0.602000  1.0  0.1044
  H  H42  1  0.591800  0.708000  0.646000  1.0  0.1207
  H  H43  1  0.572300  0.788600  0.594200  1.0  0.1059
  H  H44  1  0.583500  0.698300  0.454600  1.0  0.1187
  H  H45  1  0.594800  0.877100  0.898000  1.0  0.1045
  H  H46  1  0.591800  0.792000  0.854000  1.0  0.1199
  H  H47  1  0.572300  0.711400  0.905800  1.0  0.106
  H  H48  1  0.583500  0.801700  0.045400  1.0  0.1192
  H  H49  1  0.905200  0.898000  0.877100  1.0  0.1057
  H  H50  1  0.908200  0.854000  0.792000  1.0  0.1183
  H  H51  1  0.927700  0.905800  0.711400  1.0  0.1069
  H  H52  1  0.916500  0.045400  0.801700  1.0  0.1162
  H  H53  1  0.905200  0.602000  0.622900  1.0  0.1054
  H  H54  1  0.908200  0.646000  0.708000  1.0  0.1189
  H  H55  1  0.927700  0.594200  0.788600  1.0  0.1058
  H  H56  1  0.916500  0.454600  0.698300  1.0  0.1166
  H  H57  1  0.905200  0.877100  0.602000  1.0  0.1041
  H  H58  1  0.908200  0.792000  0.646000  1.0  0.1201
  H  H59  1  0.927700  0.711400  0.594200  1.0  0.1057
  H  H60  1  0.916500  0.801700  0.454600  1.0  0.1192
  H  H61  1  0.905200  0.622900  0.898000  1.0  0.1041
  H  H62  1  0.908200  0.708000  0.854000  1.0  0.1209
  H  H63  1  0.927700  0.788600  0.905800  1.0  0.1065
  H  H64  1  0.916500  0.698300  0.045400  1.0  0.118
  H  H65  1  0.405200  0.398000  0.122900  1.0  0.1056
  H  H66  1  0.408200  0.354000  0.208000  1.0  0.1185
  H  H67  1  0.427700  0.405800  0.288600  1.0  0.1057
  H  H68  1  0.416500  0.545400  0.198300  1.0  0.1164
  H  H69  1  0.405200  0.102000  0.377100  1.0  0.1052
  H  H70  1  0.408200  0.146000  0.292000  1.0  0.1193
  H  H71  1  0.427700  0.094200  0.211400  1.0  0.1071
  H  H72  1  0.416500  0.954600  0.301700  1.0  0.1165
  H  H73  1  0.405200  0.377100  0.398000  1.0  0.1045
  H  H74  1  0.408200  0.292000  0.354000  1.0  0.1209
  H  H75  1  0.427700  0.211400  0.405800  1.0  0.1064
  H  H76  1  0.416500  0.301700  0.545400  1.0  0.118
  H  H77  1  0.405200  0.122900  0.102000  1.0  0.1043
  H  H78  1  0.408200  0.208000  0.146000  1.0  0.12
  H  H79  1  0.427700  0.288600  0.094200  1.0  0.1057
  H  H80  1  0.416500  0.198300  0.954600  1.0  0.1191
  H  H81  1  0.094800  0.102000  0.122900  1.0  0.1054
  H  H82  1  0.091800  0.146000  0.208000  1.0  0.1194
  H  H83  1  0.072300  0.094200  0.288600  1.0  0.106
  H  H84  1  0.083500  0.954600  0.198300  1.0  0.1162
  H  H85  1  0.094800  0.398000  0.377100  1.0  0.1061
  H  H86  1  0.091800  0.354000  0.292000  1.0  0.1182
  H  H87  1  0.072300  0.405800  0.211400  1.0  0.1066
  H  H88  1  0.083500  0.545400  0.301700  1.0  0.1167
  H  H89  1  0.094800  0.122900  0.398000  1.0  0.1038
  H  H90  1  0.091800  0.208000  0.354000  1.0  0.1198
  H  H91  1  0.072300  0.288600  0.405800  1.0  0.106
  H  H92  1  0.083500  0.198300  0.545400  1.0  0.1193
  H  H93  1  0.094800  0.377100  0.102000  1.0  0.1047
  H  H94  1  0.091800  0.292000  0.146000  1.0  0.121
  H  H95  1  0.072300  0.211400  0.094200  1.0  0.1063
  H  H96  1  0.083500  0.301700  0.954600  1.0  0.1189
  C  C97  1  0.588600  0.523600  0.848000  1.0  -0.1824
  C  C98  1  0.591000  0.580900  0.844600  1.0  -0.0174
  C  C99  1  0.587900  0.607300  0.793800  1.0  -0.1219
  C  C100  1  0.578900  0.576200  0.745600  1.0  -0.0234
  C  C101  1  0.579700  0.519500  0.747400  1.0  -0.1846
  C  C102  1  0.583900  0.493400  0.799800  1.0  0.003
  C  C103  1  0.577100  0.485800  0.694600  1.0  0.7513
  C  C104  1  0.588600  0.976400  0.652000  1.0  -0.1821
  C  C105  1  0.591000  0.919100  0.655400  1.0  -0.0156
  C  C106  1  0.587900  0.892700  0.706200  1.0  -0.1227
  C  C107  1  0.578900  0.923800  0.754400  1.0  -0.0243
  C  C108  1  0.579700  0.980500  0.752600  1.0  -0.1823
  C  C109  1  0.583900  0.006600  0.700200  1.0  0.0038
  C  C110  1  0.577100  0.014200  0.805400  1.0  0.753
  C  C111  1  0.588600  0.652000  0.523600  1.0  -0.1816
  C  C112  1  0.591000  0.655400  0.580900  1.0  -0.0214
  C  C113  1  0.587900  0.706200  0.607300  1.0  -0.1187
  C  C114  1  0.578900  0.754400  0.576200  1.0  -0.0231
  C  C115  1  0.579700  0.752600  0.519500  1.0  -0.181
  C  C116  1  0.583900  0.700200  0.493400  1.0  0.0066
  C  C117  1  0.577100  0.805400  0.485800  1.0  0.7597
  C  C118  1  0.588600  0.848000  0.976400  1.0  -0.1808
  C  C119  1  0.591000  0.844600  0.919100  1.0  -0.0204
  C  C120  1  0.587900  0.793800  0.892700  1.0  -0.1192
  C  C121  1  0.578900  0.745600  0.923800  1.0  -0.0225
  C  C122  1  0.579700  0.747400  0.980500  1.0  -0.1816
  C  C123  1  0.583900  0.799800  0.006600  1.0  0.0073
  C  C124  1  0.577100  0.694600  0.014200  1.0  0.7577
  C  C125  1  0.911400  0.976400  0.848000  1.0  -0.1834
  C  C126  1  0.909000  0.919100  0.844600  1.0  -0.0182
  C  C127  1  0.912100  0.892700  0.793800  1.0  -0.1223
  C  C128  1  0.921100  0.923800  0.745600  1.0  -0.025
  C  C129  1  0.920300  0.980500  0.747400  1.0  -0.185
  C  C130  1  0.916100  0.006600  0.799800  1.0  0.0027
  C  C131  1  0.922900  0.014200  0.694600  1.0  0.7536
  C  C132  1  0.911400  0.523600  0.652000  1.0  -0.1828
  C  C133  1  0.909000  0.580900  0.655400  1.0  -0.0182
  C  C134  1  0.912100  0.607300  0.706200  1.0  -0.1227
  C  C135  1  0.921100  0.576200  0.754400  1.0  -0.0244
  C  C136  1  0.920300  0.519500  0.752600  1.0  -0.1855
  C  C137  1  0.916100  0.493400  0.700200  1.0  0.0028
  C  C138  1  0.922900  0.485800  0.805400  1.0  0.7533
  C  C139  1  0.911400  0.848000  0.523600  1.0  -0.1809
  C  C140  1  0.909000  0.844600  0.580900  1.0  -0.0225
  C  C141  1  0.912100  0.793800  0.607300  1.0  -0.1196
  C  C142  1  0.921100  0.745600  0.576200  1.0  -0.0236
  C  C143  1  0.920300  0.747400  0.519500  1.0  -0.1839
  C  C144  1  0.916100  0.799800  0.493400  1.0  0.0041
  C  C145  1  0.922900  0.694600  0.485800  1.0  0.7592
  C  C146  1  0.911400  0.652000  0.976400  1.0  -0.1819
  C  C147  1  0.909000  0.655400  0.919100  1.0  -0.0229
  C  C148  1  0.912100  0.706200  0.892700  1.0  -0.1205
  C  C149  1  0.921100  0.754400  0.923800  1.0  -0.0231
  C  C150  1  0.920300  0.752600  0.980500  1.0  -0.185
  C  C151  1  0.916100  0.700200  0.006600  1.0  0.0055
  C  C152  1  0.922900  0.805400  0.014200  1.0  0.758
  C  C153  1  0.411400  0.476400  0.152000  1.0  -0.1829
  C  C154  1  0.409000  0.419100  0.155400  1.0  -0.0177
  C  C155  1  0.412100  0.392700  0.206200  1.0  -0.1225
  C  C156  1  0.421100  0.423800  0.254400  1.0  -0.0245
  C  C157  1  0.420300  0.480500  0.252600  1.0  -0.1856
  C  C158  1  0.416100  0.506600  0.200200  1.0  0.0025
  C  C159  1  0.422900  0.514200  0.305400  1.0  0.7531
  C  C160  1  0.411400  0.023600  0.348000  1.0  -0.1826
  C  C161  1  0.409000  0.080900  0.344600  1.0  -0.0187
  C  C162  1  0.412100  0.107300  0.293800  1.0  -0.1228
  C  C163  1  0.421100  0.076200  0.245600  1.0  -0.0238
  C  C164  1  0.420300  0.019500  0.247400  1.0  -0.1856
  C  C165  1  0.416100  0.993400  0.299800  1.0  0.0027
  C  C166  1  0.422900  0.985800  0.194600  1.0  0.752
  C  C167  1  0.411400  0.348000  0.476400  1.0  -0.1822
  C  C168  1  0.409000  0.344600  0.419100  1.0  -0.0219
  C  C169  1  0.412100  0.293800  0.392700  1.0  -0.1203
  C  C170  1  0.421100  0.245600  0.423800  1.0  -0.0233
  C  C171  1  0.420300  0.247400  0.480500  1.0  -0.1847
  C  C172  1  0.416100  0.299800  0.506600  1.0  0.0056
  C  C173  1  0.422900  0.194600  0.514200  1.0  0.7586
  C  C174  1  0.411400  0.152000  0.023600  1.0  -0.1815
  C  C175  1  0.409000  0.155400  0.080900  1.0  -0.0239
  C  C176  1  0.412100  0.206200  0.107300  1.0  -0.1195
  C  C177  1  0.421100  0.254400  0.076200  1.0  -0.0226
  C  C178  1  0.420300  0.252600  0.019500  1.0  -0.183
  C  C179  1  0.416100  0.200200  0.993400  1.0  0.0045
  C  C180  1  0.422900  0.305400  0.985800  1.0  0.7591
  C  C181  1  0.088600  0.023600  0.152000  1.0  -0.1824
  C  C182  1  0.091000  0.080900  0.155400  1.0  -0.0168
  C  C183  1  0.087900  0.107300  0.206200  1.0  -0.122
  C  C184  1  0.078900  0.076200  0.254400  1.0  -0.0242
  C  C185  1  0.079700  0.019500  0.252600  1.0  -0.1831
  C  C186  1  0.083900  0.993400  0.200200  1.0  0.0032
  C  C187  1  0.077100  0.985800  0.305400  1.0  0.7515
  C  C188  1  0.088600  0.476400  0.348000  1.0  -0.1828
  C  C189  1  0.091000  0.419100  0.344600  1.0  -0.0161
  C  C190  1  0.087900  0.392700  0.293800  1.0  -0.1224
  C  C191  1  0.078900  0.423800  0.245600  1.0  -0.0245
  C  C192  1  0.079700  0.480500  0.247400  1.0  -0.1828
  C  C193  1  0.083900  0.506600  0.299800  1.0  0.0039
  C  C194  1  0.077100  0.514200  0.194600  1.0  0.7542
  C  C195  1  0.088600  0.152000  0.476400  1.0  -0.1812
  C  C196  1  0.091000  0.155400  0.419100  1.0  -0.0201
  C  C197  1  0.087900  0.206200  0.392700  1.0  -0.1191
  C  C198  1  0.078900  0.254400  0.423800  1.0  -0.0232
  C  C199  1  0.079700  0.252600  0.480500  1.0  -0.1808
  C  C200  1  0.083900  0.200200  0.506600  1.0  0.007
  C  C201  1  0.077100  0.305400  0.514200  1.0  0.7569
  C  C202  1  0.088600  0.348000  0.023600  1.0  -0.1803
  C  C203  1  0.091000  0.344600  0.080900  1.0  -0.0212
  C  C204  1  0.087900  0.293800  0.107300  1.0  -0.1186
  C  C205  1  0.078900  0.245600  0.076200  1.0  -0.0228
  C  C206  1  0.079700  0.247400  0.019500  1.0  -0.1831
  C  C207  1  0.083900  0.299800  0.993400  1.0  0.0061
  C  C208  1  0.077100  0.194600  0.985800  1.0  0.76
  O  O209  1  0.479400  0.448000  0.915000  1.0  -0.7438
  O  O210  1  0.712500  0.457000  0.920800  1.0  -0.7449
  O  O211  1  0.574000  0.534100  0.957200  1.0  -0.8439
  O  O212  1  0.584900  0.434800  0.697100  1.0  -0.4815
  O  O213  1  0.564000  0.512400  0.650700  1.0  -0.5869
  O  O214  1  0.479400  0.052000  0.585000  1.0  -0.7428
  O  O215  1  0.712500  0.043000  0.579200  1.0  -0.7447
  O  O216  1  0.574000  0.965900  0.542800  1.0  -0.8436
  O  O217  1  0.584900  0.065200  0.802900  1.0  -0.481
  O  O218  1  0.564000  0.987600  0.849300  1.0  -0.5879
  O  O219  1  0.479400  0.585000  0.448000  1.0  -0.742
  O  O220  1  0.712500  0.579200  0.457000  1.0  -0.74
  O  O221  1  0.574000  0.542800  0.534100  1.0  -0.8434
  O  O222  1  0.584900  0.802900  0.434800  1.0  -0.4819
  O  O223  1  0.564000  0.849300  0.512400  1.0  -0.5902
  O  O224  1  0.479400  0.915000  0.052000  1.0  -0.742
  O  O225  1  0.712500  0.920800  0.043000  1.0  -0.7394
  O  O226  1  0.574000  0.957200  0.965900  1.0  -0.844
  O  O227  1  0.584900  0.697100  0.065200  1.0  -0.4786
  O  O228  1  0.564000  0.650700  0.987600  1.0  -0.5893
  O  O229  1  0.020600  0.052000  0.915000  1.0  -0.7422
  O  O230  1  0.787500  0.043000  0.920800  1.0  -0.744
  O  O231  1  0.926000  0.965900  0.957200  1.0  -0.8428
  O  O232  1  0.915100  0.065200  0.697100  1.0  -0.4816
  O  O233  1  0.936000  0.987600  0.650700  1.0  -0.5864
  O  O234  1  0.020600  0.448000  0.585000  1.0  -0.7426
  O  O235  1  0.787500  0.457000  0.579200  1.0  -0.7448
  O  O236  1  0.926000  0.534100  0.542800  1.0  -0.8446
  O  O237  1  0.915100  0.434800  0.802900  1.0  -0.4818
  O  O238  1  0.936000  0.512400  0.849300  1.0  -0.5883
  O  O239  1  0.020600  0.915000  0.448000  1.0  -0.7421
  O  O240  1  0.787500  0.920800  0.457000  1.0  -0.7409
  O  O241  1  0.926000  0.957200  0.534100  1.0  -0.8449
  O  O242  1  0.915100  0.697100  0.434800  1.0  -0.4787
  O  O243  1  0.936000  0.650700  0.512400  1.0  -0.5885
  O  O244  1  0.020600  0.585000  0.052000  1.0  -0.7411
  O  O245  1  0.787500  0.579200  0.043000  1.0  -0.7419
  O  O246  1  0.926000  0.542800  0.965900  1.0  -0.8434
  O  O247  1  0.915100  0.802900  0.065200  1.0  -0.4803
  O  O248  1  0.936000  0.849300  0.987600  1.0  -0.5903
  O  O249  1  0.520600  0.552000  0.085000  1.0  -0.7419
  O  O250  1  0.287500  0.543000  0.079200  1.0  -0.7452
  O  O251  1  0.426000  0.465900  0.042800  1.0  -0.8436
  O  O252  1  0.415100  0.565200  0.302900  1.0  -0.4809
  O  O253  1  0.436000  0.487600  0.349300  1.0  -0.5884
  O  O254  1  0.520600  0.948000  0.415000  1.0  -0.7441
  O  O255  1  0.287500  0.957000  0.420800  1.0  -0.7449
  O  O256  1  0.426000  0.034100  0.457200  1.0  -0.8443
  O  O257  1  0.415100  0.934800  0.197100  1.0  -0.4817
  O  O258  1  0.436000  0.012400  0.150700  1.0  -0.5867
  O  O259  1  0.520600  0.415000  0.552000  1.0  -0.7411
  O  O260  1  0.287500  0.420800  0.543000  1.0  -0.7409
  O  O261  1  0.426000  0.457200  0.465900  1.0  -0.844
  O  O262  1  0.415100  0.197100  0.565200  1.0  -0.4798
  O  O263  1  0.436000  0.150700  0.487600  1.0  -0.5888
  O  O264  1  0.520600  0.085000  0.948000  1.0  -0.7416
  O  O265  1  0.287500  0.079200  0.957000  1.0  -0.7402
  O  O266  1  0.426000  0.042800  0.034100  1.0  -0.8437
  O  O267  1  0.415100  0.302900  0.934800  1.0  -0.4787
  O  O268  1  0.436000  0.349300  0.012400  1.0  -0.5902
  O  O269  1  0.979400  0.948000  0.085000  1.0  -0.743
  O  O270  1  0.212500  0.957000  0.079200  1.0  -0.7444
  O  O271  1  0.074000  0.034100  0.042800  1.0  -0.8445
  O  O272  1  0.084900  0.934800  0.302900  1.0  -0.4816
  O  O273  1  0.064000  0.012400  0.349300  1.0  -0.5881
  O  O274  1  0.979400  0.552000  0.415000  1.0  -0.7428
  O  O275  1  0.212500  0.543000  0.420800  1.0  -0.7434
  O  O276  1  0.074000  0.465900  0.457200  1.0  -0.8425
  O  O277  1  0.084900  0.565200  0.197100  1.0  -0.4816
  O  O278  1  0.064000  0.487600  0.150700  1.0  -0.5863
  O  O279  1  0.979400  0.085000  0.552000  1.0  -0.7423
  O  O280  1  0.212500  0.079200  0.543000  1.0  -0.7404
  O  O281  1  0.074000  0.042800  0.465900  1.0  -0.8435
  O  O282  1  0.084900  0.302900  0.565200  1.0  -0.4791
  O  O283  1  0.064000  0.349300  0.487600  1.0  -0.591
  O  O284  1  0.979400  0.415000  0.948000  1.0  -0.7421
  O  O285  1  0.212500  0.420800  0.957000  1.0  -0.7405
  O  O286  1  0.074000  0.457200  0.034100  1.0  -0.8445
  O  O287  1  0.084900  0.197100  0.934800  1.0  -0.4819
  O  O288  1  0.064000  0.150700  0.012400  1.0  -0.5879
