# generated using pymatgen
data_Ag3H8(C3O2)6
_symmetry_space_group_name_H-M   'P 1'
_cell_length_a   14.87750000
_cell_length_b   25.92610000
_cell_length_c   36.37770000
_cell_angle_alpha   90.00000000
_cell_angle_beta   90.00000000
_cell_angle_gamma   90.00000000
_symmetry_Int_Tables_number   1
_chemical_formula_structural   Ag3H8(C3O2)6
_chemical_formula_sum   'Ag48 H128 C288 O192'
_cell_volume   14031.44466327
_cell_formula_units_Z   16
loop_
 _symmetry_equiv_pos_site_id
 _symmetry_equiv_pos_as_xyz
  1  'x, y, z'
loop_
 _atom_site_type_symbol
 _atom_site_label
 _atom_site_symmetry_multiplicity
 _atom_site_fract_x
 _atom_site_fract_y
 _atom_site_fract_z
 _atom_site_occupancy
 _atom_site_charge
  Ag  Ag1  1  0.682340  0.908640  0.408350  1.0  0.4304
  Ag  Ag2  1  0.682340  0.408640  0.908350  1.0  0.4304
  Ag  Ag3  1  0.182340  0.908640  0.908350  1.0  0.4304
  Ag  Ag4  1  0.182340  0.408640  0.408350  1.0  0.4304
  Ag  Ag5  1  0.067660  0.841360  0.408350  1.0  0.431
  Ag  Ag6  1  0.067660  0.341360  0.908350  1.0  0.431
  Ag  Ag7  1  0.567660  0.841360  0.908350  1.0  0.431
  Ag  Ag8  1  0.567660  0.341360  0.408350  1.0  0.431
  Ag  Ag9  1  0.067660  0.908640  0.341650  1.0  0.4314
  Ag  Ag10  1  0.067660  0.408640  0.841650  1.0  0.4314
  Ag  Ag11  1  0.567660  0.908640  0.841650  1.0  0.4314
  Ag  Ag12  1  0.567660  0.408640  0.341650  1.0  0.4314
  Ag  Ag13  1  0.682340  0.841360  0.341650  1.0  0.4281
  Ag  Ag14  1  0.682340  0.341360  0.841650  1.0  0.4281
  Ag  Ag15  1  0.182340  0.841360  0.841650  1.0  0.4281
  Ag  Ag16  1  0.182340  0.341360  0.341650  1.0  0.4281
  Ag  Ag17  1  0.317660  0.091360  0.591650  1.0  0.4279
  Ag  Ag18  1  0.317660  0.591360  0.091650  1.0  0.4279
  Ag  Ag19  1  0.817660  0.091360  0.091650  1.0  0.4279
  Ag  Ag20  1  0.817660  0.591360  0.591650  1.0  0.4279
  Ag  Ag21  1  0.932340  0.158640  0.591650  1.0  0.4276
  Ag  Ag22  1  0.932340  0.658640  0.091650  1.0  0.4276
  Ag  Ag23  1  0.432340  0.158640  0.091650  1.0  0.4276
  Ag  Ag24  1  0.432340  0.658640  0.591650  1.0  0.4276
  Ag  Ag25  1  0.932340  0.091360  0.658350  1.0  0.426
  Ag  Ag26  1  0.932340  0.591360  0.158350  1.0  0.426
  Ag  Ag27  1  0.432340  0.091360  0.158350  1.0  0.426
  Ag  Ag28  1  0.432340  0.591360  0.658350  1.0  0.426
  Ag  Ag29  1  0.317660  0.158640  0.658350  1.0  0.429
  Ag  Ag30  1  0.317660  0.658640  0.158350  1.0  0.429
  Ag  Ag31  1  0.817660  0.158640  0.158350  1.0  0.429
  Ag  Ag32  1  0.817660  0.658640  0.658350  1.0  0.429
  Ag  Ag33  1  0.875000  0.934620  0.375000  1.0  0.3745
  Ag  Ag34  1  0.875000  0.434620  0.875000  1.0  0.3745
  Ag  Ag35  1  0.375000  0.934620  0.875000  1.0  0.3745
  Ag  Ag36  1  0.375000  0.434620  0.375000  1.0  0.3745
  Ag  Ag37  1  0.875000  0.815380  0.375000  1.0  0.3748
  Ag  Ag38  1  0.875000  0.315380  0.875000  1.0  0.3748
  Ag  Ag39  1  0.375000  0.815380  0.875000  1.0  0.3748
  Ag  Ag40  1  0.375000  0.315380  0.375000  1.0  0.3748
  Ag  Ag41  1  0.125000  0.065380  0.625000  1.0  0.3748
  Ag  Ag42  1  0.125000  0.565380  0.125000  1.0  0.3748
  Ag  Ag43  1  0.625000  0.065380  0.125000  1.0  0.3748
  Ag  Ag44  1  0.625000  0.565380  0.625000  1.0  0.3748
  Ag  Ag45  1  0.125000  0.184620  0.625000  1.0  0.3745
  Ag  Ag46  1  0.125000  0.684620  0.125000  1.0  0.3745
  Ag  Ag47  1  0.625000  0.184620  0.125000  1.0  0.3745
  Ag  Ag48  1  0.625000  0.684620  0.625000  1.0  0.3745
  H  H49  1  0.781200  0.899500  0.489900  1.0  0.1367
  H  H50  1  0.810300  0.957800  0.592000  1.0  0.1551
  H  H51  1  0.916000  0.031700  0.505400  1.0  0.1369
  H  H52  1  0.692000  0.814000  0.548000  1.0  0.3823
  H  H53  1  0.781200  0.399500  0.989900  1.0  0.1367
  H  H54  1  0.810300  0.457800  0.092000  1.0  0.1551
  H  H55  1  0.916000  0.531700  0.005400  1.0  0.1369
  H  H56  1  0.692000  0.314000  0.048000  1.0  0.3823
  H  H57  1  0.281200  0.899500  0.989900  1.0  0.1367
  H  H58  1  0.310300  0.957800  0.092000  1.0  0.1551
  H  H59  1  0.416000  0.031700  0.005400  1.0  0.1369
  H  H60  1  0.192000  0.814000  0.048000  1.0  0.3823
  H  H61  1  0.281200  0.399500  0.489900  1.0  0.1367
  H  H62  1  0.310300  0.457800  0.592000  1.0  0.1551
  H  H63  1  0.416000  0.531700  0.505400  1.0  0.1369
  H  H64  1  0.192000  0.314000  0.548000  1.0  0.3823
  H  H65  1  0.968800  0.850500  0.489900  1.0  0.1365
  H  H66  1  0.939700  0.792200  0.592000  1.0  0.1541
  H  H67  1  0.834000  0.718300  0.505400  1.0  0.1378
  H  H68  1  0.058000  0.936000  0.548000  1.0  0.3835
  H  H69  1  0.968800  0.350500  0.989900  1.0  0.1365
  H  H70  1  0.939700  0.292200  0.092000  1.0  0.1541
  H  H71  1  0.834000  0.218300  0.005400  1.0  0.137
  H  H72  1  0.058000  0.436000  0.048000  1.0  0.3835
  H  H73  1  0.468800  0.850500  0.989900  1.0  0.1365
  H  H74  1  0.439700  0.792200  0.092000  1.0  0.1541
  H  H75  1  0.334000  0.718300  0.005400  1.0  0.1378
  H  H76  1  0.558000  0.936000  0.048000  1.0  0.3835
  H  H77  1  0.468800  0.350500  0.489900  1.0  0.1365
  H  H78  1  0.439700  0.292200  0.592000  1.0  0.1541
  H  H79  1  0.334000  0.218300  0.505400  1.0  0.1378
  H  H80  1  0.558000  0.436000  0.548000  1.0  0.3835
  H  H81  1  0.968800  0.899500  0.260100  1.0  0.1362
  H  H82  1  0.939700  0.957800  0.158000  1.0  0.1529
  H  H83  1  0.834000  0.031700  0.244600  1.0  0.1369
  H  H84  1  0.058000  0.814000  0.202000  1.0  0.3834
  H  H85  1  0.968800  0.399500  0.760100  1.0  0.1362
  H  H86  1  0.939700  0.457800  0.658000  1.0  0.1529
  H  H87  1  0.834000  0.531700  0.744600  1.0  0.1369
  H  H88  1  0.058000  0.314000  0.702000  1.0  0.3834
  H  H89  1  0.468800  0.899500  0.760100  1.0  0.1362
  H  H90  1  0.439700  0.957800  0.658000  1.0  0.1529
  H  H91  1  0.334000  0.031700  0.744600  1.0  0.1369
  H  H92  1  0.558000  0.814000  0.702000  1.0  0.3834
  H  H93  1  0.468800  0.399500  0.260100  1.0  0.1362
  H  H94  1  0.439700  0.457800  0.158000  1.0  0.1529
  H  H95  1  0.334000  0.531700  0.244600  1.0  0.1369
  H  H96  1  0.558000  0.314000  0.202000  1.0  0.3834
  H  H97  1  0.781200  0.850500  0.260100  1.0  0.1375
  H  H98  1  0.810300  0.792200  0.158000  1.0  0.1527
  H  H99  1  0.916000  0.718300  0.244600  1.0  0.1375
  H  H100  1  0.692000  0.936000  0.202000  1.0  0.382
  H  H101  1  0.781200  0.350500  0.760100  1.0  0.1375
  H  H102  1  0.810300  0.292200  0.658000  1.0  0.1527
  H  H103  1  0.916000  0.218300  0.744600  1.0  0.1375
  H  H104  1  0.692000  0.436000  0.702000  1.0  0.382
  H  H105  1  0.281200  0.850500  0.760100  1.0  0.1375
  H  H106  1  0.310300  0.792200  0.658000  1.0  0.1527
  H  H107  1  0.416000  0.718300  0.744600  1.0  0.1375
  H  H108  1  0.192000  0.936000  0.702000  1.0  0.382
  H  H109  1  0.281200  0.350500  0.260100  1.0  0.1375
  H  H110  1  0.310300  0.292200  0.158000  1.0  0.1527
  H  H111  1  0.416000  0.218300  0.244600  1.0  0.1375
  H  H112  1  0.192000  0.436000  0.202000  1.0  0.382
  H  H113  1  0.218800  0.100500  0.510100  1.0  0.1363
  H  H114  1  0.189700  0.042200  0.408000  1.0  0.1529
  H  H115  1  0.084000  0.968300  0.494600  1.0  0.1377
  H  H116  1  0.308000  0.186000  0.452000  1.0  0.3834
  H  H117  1  0.218800  0.600500  0.010100  1.0  0.1363
  H  H118  1  0.189700  0.542200  0.908000  1.0  0.1529
  H  H119  1  0.084000  0.468300  0.994600  1.0  0.1377
  H  H120  1  0.308000  0.686000  0.952000  1.0  0.3834
  H  H121  1  0.718800  0.100500  0.010100  1.0  0.1363
  H  H122  1  0.689700  0.042200  0.908000  1.0  0.1529
  H  H123  1  0.584000  0.968300  0.994600  1.0  0.1377
  H  H124  1  0.808000  0.186000  0.952000  1.0  0.3834
  H  H125  1  0.718800  0.600500  0.510100  1.0  0.1363
  H  H126  1  0.689700  0.542200  0.408000  1.0  0.1529
  H  H127  1  0.584000  0.468300  0.494600  1.0  0.1377
  H  H128  1  0.808000  0.686000  0.452000  1.0  0.3834
  H  H129  1  0.031200  0.149500  0.510100  1.0  0.1367
  H  H130  1  0.060300  0.207800  0.408000  1.0  0.1527
  H  H131  1  0.166000  0.281700  0.494600  1.0  0.1369
  H  H132  1  0.942000  0.064000  0.452000  1.0  0.3812
  H  H133  1  0.031200  0.649500  0.010100  1.0  0.1367
  H  H134  1  0.060300  0.707800  0.908000  1.0  0.1527
  H  H135  1  0.166000  0.781700  0.994600  1.0  0.1368
  H  H136  1  0.942000  0.564000  0.952000  1.0  0.3812
  H  H137  1  0.531200  0.149500  0.010100  1.0  0.1367
  H  H138  1  0.560300  0.207800  0.908000  1.0  0.1527
  H  H139  1  0.666000  0.281700  0.994600  1.0  0.1369
  H  H140  1  0.442000  0.064000  0.952000  1.0  0.3812
  H  H141  1  0.531200  0.649500  0.510100  1.0  0.1367
  H  H142  1  0.560300  0.707800  0.408000  1.0  0.1527
  H  H143  1  0.666000  0.781700  0.494600  1.0  0.1369
  H  H144  1  0.442000  0.564000  0.452000  1.0  0.3812
  H  H145  1  0.031200  0.100500  0.739900  1.0  0.1372
  H  H146  1  0.060300  0.042200  0.842000  1.0  0.155
  H  H147  1  0.166000  0.968300  0.755400  1.0  0.1371
  H  H148  1  0.942000  0.186000  0.798000  1.0  0.3825
  H  H149  1  0.031200  0.600500  0.239900  1.0  0.1372
  H  H150  1  0.060300  0.542200  0.342000  1.0  0.155
  H  H151  1  0.166000  0.468300  0.255400  1.0  0.1371
  H  H152  1  0.942000  0.686000  0.298000  1.0  0.3825
  H  H153  1  0.531200  0.100500  0.239900  1.0  0.1372
  H  H154  1  0.560300  0.042200  0.342000  1.0  0.155
  H  H155  1  0.666000  0.968300  0.255400  1.0  0.1371
  H  H156  1  0.442000  0.186000  0.298000  1.0  0.3825
  H  H157  1  0.531200  0.600500  0.739900  1.0  0.1372
  H  H158  1  0.560300  0.542200  0.842000  1.0  0.155
  H  H159  1  0.666000  0.468300  0.755400  1.0  0.1371
  H  H160  1  0.442000  0.686000  0.798000  1.0  0.3825
  H  H161  1  0.218800  0.149500  0.739900  1.0  0.1366
  H  H162  1  0.189700  0.207800  0.842000  1.0  0.154
  H  H163  1  0.084000  0.281700  0.755400  1.0  0.1376
  H  H164  1  0.308000  0.064000  0.798000  1.0  0.3847
  H  H165  1  0.218800  0.649500  0.239900  1.0  0.1366
  H  H166  1  0.189700  0.707800  0.342000  1.0  0.154
  H  H167  1  0.084000  0.781700  0.255400  1.0  0.1376
  H  H168  1  0.308000  0.564000  0.298000  1.0  0.3847
  H  H169  1  0.718800  0.149500  0.239900  1.0  0.1366
  H  H170  1  0.689700  0.207800  0.342000  1.0  0.154
  H  H171  1  0.584000  0.281700  0.255400  1.0  0.1376
  H  H172  1  0.808000  0.064000  0.298000  1.0  0.3847
  H  H173  1  0.718800  0.649500  0.739900  1.0  0.1366
  H  H174  1  0.689700  0.707800  0.842000  1.0  0.154
  H  H175  1  0.584000  0.781700  0.755400  1.0  0.1376
  H  H176  1  0.808000  0.564000  0.798000  1.0  0.3847
  C  C177  1  0.850800  0.966300  0.490830  1.0  -0.0982
  C  C178  1  0.803200  0.925100  0.505370  1.0  0.0293
  C  C179  1  0.863700  0.970000  0.449760  1.0  0.7498
  C  C180  1  0.788100  0.921900  0.543240  1.0  -0.1408
  C  C181  1  0.736000  0.878000  0.559250  1.0  0.7069
  C  C182  1  0.820600  0.959900  0.566790  1.0  0.0265
  C  C183  1  0.869300  0.001300  0.551840  1.0  -0.1343
  C  C184  1  0.903900  0.043800  0.576450  1.0  0.7598
  C  C185  1  0.883700  0.004000  0.514860  1.0  -0.0214
  C  C186  1  0.850800  0.466300  0.990830  1.0  -0.0982
  C  C187  1  0.803200  0.425100  0.005370  1.0  0.0293
  C  C188  1  0.863700  0.470000  0.949760  1.0  0.7498
  C  C189  1  0.788100  0.421900  0.043240  1.0  -0.1408
  C  C190  1  0.736000  0.378000  0.059250  1.0  0.7069
  C  C191  1  0.820600  0.459900  0.066790  1.0  0.0265
  C  C192  1  0.869300  0.501300  0.051840  1.0  -0.1343
  C  C193  1  0.903900  0.543800  0.076450  1.0  0.7598
  C  C194  1  0.883700  0.504000  0.014860  1.0  -0.0214
  C  C195  1  0.350800  0.966300  0.990830  1.0  -0.0982
  C  C196  1  0.303200  0.925100  0.005370  1.0  0.0293
  C  C197  1  0.363700  0.970000  0.949760  1.0  0.7498
  C  C198  1  0.288100  0.921900  0.043240  1.0  -0.1408
  C  C199  1  0.236000  0.878000  0.059250  1.0  0.7069
  C  C200  1  0.320600  0.959900  0.066790  1.0  0.0265
  C  C201  1  0.369300  0.001300  0.051840  1.0  -0.1343
  C  C202  1  0.403900  0.043800  0.076450  1.0  0.7598
  C  C203  1  0.383700  0.004000  0.014860  1.0  -0.0214
  C  C204  1  0.350800  0.466300  0.490830  1.0  -0.0982
  C  C205  1  0.303200  0.425100  0.505370  1.0  0.0293
  C  C206  1  0.363700  0.470000  0.449760  1.0  0.7498
  C  C207  1  0.288100  0.421900  0.543240  1.0  -0.1408
  C  C208  1  0.236000  0.378000  0.559250  1.0  0.7069
  C  C209  1  0.320600  0.459900  0.566790  1.0  0.0265
  C  C210  1  0.369300  0.501300  0.551840  1.0  -0.1343
  C  C211  1  0.403900  0.543800  0.576450  1.0  0.7598
  C  C212  1  0.383700  0.504000  0.514860  1.0  -0.0214
  C  C213  1  0.899200  0.783700  0.490830  1.0  -0.099
  C  C214  1  0.946800  0.824900  0.505370  1.0  0.0288
  C  C215  1  0.886300  0.780000  0.449760  1.0  0.7484
  C  C216  1  0.961900  0.828100  0.543240  1.0  -0.141
  C  C217  1  0.014000  0.872000  0.559250  1.0  0.7102
  C  C218  1  0.929400  0.790100  0.566790  1.0  0.0272
  C  C219  1  0.880700  0.748700  0.551840  1.0  -0.1341
  C  C220  1  0.846100  0.706200  0.576450  1.0  0.76
  C  C221  1  0.866300  0.746000  0.514860  1.0  -0.0231
  C  C222  1  0.899200  0.283700  0.990830  1.0  -0.099
  C  C223  1  0.946800  0.324900  0.005370  1.0  0.0288
  C  C224  1  0.886300  0.280000  0.949760  1.0  0.7484
  C  C225  1  0.961900  0.328100  0.043240  1.0  -0.141
  C  C226  1  0.014000  0.372000  0.059250  1.0  0.7102
  C  C227  1  0.929400  0.290100  0.066790  1.0  0.0272
  C  C228  1  0.880700  0.248700  0.051840  1.0  -0.1341
  C  C229  1  0.846100  0.206200  0.076450  1.0  0.76
  C  C230  1  0.866300  0.246000  0.014860  1.0  -0.0346
  C  C231  1  0.399200  0.783700  0.990830  1.0  -0.099
  C  C232  1  0.446800  0.824900  0.005370  1.0  0.0288
  C  C233  1  0.386300  0.780000  0.949760  1.0  0.7484
  C  C234  1  0.461900  0.828100  0.043240  1.0  -0.141
  C  C235  1  0.514000  0.872000  0.059250  1.0  0.7102
  C  C236  1  0.429400  0.790100  0.066790  1.0  0.0272
  C  C237  1  0.380700  0.748700  0.051840  1.0  -0.1341
  C  C238  1  0.346100  0.706200  0.076450  1.0  0.76
  C  C239  1  0.366300  0.746000  0.014860  1.0  -0.0231
  C  C240  1  0.399200  0.283700  0.490830  1.0  -0.099
  C  C241  1  0.446800  0.324900  0.505370  1.0  0.0288
  C  C242  1  0.386300  0.280000  0.449760  1.0  0.7484
  C  C243  1  0.461900  0.328100  0.543240  1.0  -0.141
  C  C244  1  0.514000  0.372000  0.559250  1.0  0.7102
  C  C245  1  0.429400  0.290100  0.566790  1.0  0.0272
  C  C246  1  0.380700  0.248700  0.551840  1.0  -0.1341
  C  C247  1  0.346100  0.206200  0.576450  1.0  0.76
  C  C248  1  0.366300  0.246000  0.514860  1.0  -0.0231
  C  C249  1  0.899200  0.966300  0.259170  1.0  -0.0999
  C  C250  1  0.946800  0.925100  0.244630  1.0  0.0298
  C  C251  1  0.886300  0.970000  0.300240  1.0  0.7504
  C  C252  1  0.961900  0.921900  0.206760  1.0  -0.1403
  C  C253  1  0.014000  0.878000  0.190750  1.0  0.7076
  C  C254  1  0.929400  0.959900  0.183210  1.0  0.0254
  C  C255  1  0.880700  0.001300  0.198160  1.0  -0.1362
  C  C256  1  0.846100  0.043800  0.173550  1.0  0.7601
  C  C257  1  0.866300  0.004000  0.235140  1.0  -0.023
  C  C258  1  0.899200  0.466300  0.759170  1.0  -0.0999
  C  C259  1  0.946800  0.425100  0.744630  1.0  0.0298
  C  C260  1  0.886300  0.470000  0.800240  1.0  0.7504
  C  C261  1  0.961900  0.421900  0.706760  1.0  -0.1403
  C  C262  1  0.014000  0.378000  0.690750  1.0  0.7076
  C  C263  1  0.929400  0.459900  0.683210  1.0  0.0254
  C  C264  1  0.880700  0.501300  0.698160  1.0  -0.1362
  C  C265  1  0.846100  0.543800  0.673550  1.0  0.7601
  C  C266  1  0.866300  0.504000  0.735140  1.0  -0.023
  C  C267  1  0.399200  0.966300  0.759170  1.0  -0.0999
  C  C268  1  0.446800  0.925100  0.744630  1.0  0.0298
  C  C269  1  0.386300  0.970000  0.800240  1.0  0.7504
  C  C270  1  0.461900  0.921900  0.706760  1.0  -0.1403
  C  C271  1  0.514000  0.878000  0.690750  1.0  0.7076
  C  C272  1  0.429400  0.959900  0.683210  1.0  0.0254
  C  C273  1  0.380700  0.001300  0.698160  1.0  -0.1362
  C  C274  1  0.346100  0.043800  0.673550  1.0  0.7601
  C  C275  1  0.366300  0.004000  0.735140  1.0  -0.023
  C  C276  1  0.399200  0.466300  0.259170  1.0  -0.0999
  C  C277  1  0.446800  0.425100  0.244630  1.0  0.0298
  C  C278  1  0.386300  0.470000  0.300240  1.0  0.7504
  C  C279  1  0.461900  0.421900  0.206760  1.0  -0.1403
  C  C280  1  0.514000  0.378000  0.190750  1.0  0.7076
  C  C281  1  0.429400  0.459900  0.183210  1.0  0.0254
  C  C282  1  0.380700  0.501300  0.198160  1.0  -0.1362
  C  C283  1  0.346100  0.543800  0.173550  1.0  0.7601
  C  C284  1  0.366300  0.504000  0.235140  1.0  -0.023
  C  C285  1  0.850800  0.783700  0.259170  1.0  -0.0977
  C  C286  1  0.803200  0.824900  0.244630  1.0  0.0289
  C  C287  1  0.863700  0.780000  0.300240  1.0  0.7491
  C  C288  1  0.788100  0.828100  0.206760  1.0  -0.1423
  C  C289  1  0.736000  0.872000  0.190750  1.0  0.7073
  C  C290  1  0.820600  0.790100  0.183210  1.0  0.0271
  C  C291  1  0.869300  0.748700  0.198160  1.0  -0.1353
  C  C292  1  0.903900  0.706200  0.173550  1.0  0.7581
  C  C293  1  0.883700  0.746000  0.235140  1.0  -0.0208
  C  C294  1  0.850800  0.283700  0.759170  1.0  -0.0977
  C  C295  1  0.803200  0.324900  0.744630  1.0  0.0289
  C  C296  1  0.863700  0.280000  0.800240  1.0  0.7491
  C  C297  1  0.788100  0.328100  0.706760  1.0  -0.1423
  C  C298  1  0.736000  0.372000  0.690750  1.0  0.7073
  C  C299  1  0.820600  0.290100  0.683210  1.0  0.0271
  C  C300  1  0.869300  0.248700  0.698160  1.0  -0.1353
  C  C301  1  0.903900  0.206200  0.673550  1.0  0.7581
  C  C302  1  0.883700  0.246000  0.735140  1.0  -0.0208
  C  C303  1  0.350800  0.783700  0.759170  1.0  -0.0977
  C  C304  1  0.303200  0.824900  0.744630  1.0  0.0289
  C  C305  1  0.363700  0.780000  0.800240  1.0  0.7491
  C  C306  1  0.288100  0.828100  0.706760  1.0  -0.1423
  C  C307  1  0.236000  0.872000  0.690750  1.0  0.7073
  C  C308  1  0.320600  0.790100  0.683210  1.0  0.0271
  C  C309  1  0.369300  0.748700  0.698160  1.0  -0.1353
  C  C310  1  0.403900  0.706200  0.673550  1.0  0.7581
  C  C311  1  0.383700  0.746000  0.735140  1.0  -0.0208
  C  C312  1  0.350800  0.283700  0.259170  1.0  -0.0977
  C  C313  1  0.303200  0.324900  0.244630  1.0  0.0289
  C  C314  1  0.363700  0.280000  0.300240  1.0  0.7491
  C  C315  1  0.288100  0.328100  0.206760  1.0  -0.1423
  C  C316  1  0.236000  0.372000  0.190750  1.0  0.7073
  C  C317  1  0.320600  0.290100  0.183210  1.0  0.0271
  C  C318  1  0.369300  0.248700  0.198160  1.0  -0.1353
  C  C319  1  0.403900  0.206200  0.173550  1.0  0.7581
  C  C320  1  0.383700  0.246000  0.235140  1.0  -0.0208
  C  C321  1  0.149200  0.033700  0.509170  1.0  -0.0997
  C  C322  1  0.196800  0.074900  0.494630  1.0  0.0293
  C  C323  1  0.136300  0.030000  0.550240  1.0  0.7499
  C  C324  1  0.211900  0.078100  0.456760  1.0  -0.1407
  C  C325  1  0.264000  0.122000  0.440750  1.0  0.7078
  C  C326  1  0.179400  0.040100  0.433210  1.0  0.025
  C  C327  1  0.130700  0.998700  0.448160  1.0  -0.135
  C  C328  1  0.096100  0.956200  0.423550  1.0  0.7588
  C  C329  1  0.116300  0.996000  0.485140  1.0  -0.0224
  C  C330  1  0.149200  0.533700  0.009170  1.0  -0.0997
  C  C331  1  0.196800  0.574900  0.994630  1.0  0.0293
  C  C332  1  0.136300  0.530000  0.050240  1.0  0.7499
  C  C333  1  0.211900  0.578100  0.956760  1.0  -0.1407
  C  C334  1  0.264000  0.622000  0.940750  1.0  0.7078
  C  C335  1  0.179400  0.540100  0.933210  1.0  0.025
  C  C336  1  0.130700  0.498700  0.948160  1.0  -0.135
  C  C337  1  0.096100  0.456200  0.923550  1.0  0.7588
  C  C338  1  0.116300  0.496000  0.985140  1.0  -0.0224
  C  C339  1  0.649200  0.033700  0.009170  1.0  -0.0997
  C  C340  1  0.696800  0.074900  0.994630  1.0  0.0293
  C  C341  1  0.636300  0.030000  0.050240  1.0  0.7499
  C  C342  1  0.711900  0.078100  0.956760  1.0  -0.1407
  C  C343  1  0.764000  0.122000  0.940750  1.0  0.7078
  C  C344  1  0.679400  0.040100  0.933210  1.0  0.025
  C  C345  1  0.630700  0.998700  0.948160  1.0  -0.135
  C  C346  1  0.596100  0.956200  0.923550  1.0  0.7588
  C  C347  1  0.616300  0.996000  0.985140  1.0  -0.0224
  C  C348  1  0.649200  0.533700  0.509170  1.0  -0.0997
  C  C349  1  0.696800  0.574900  0.494630  1.0  0.0293
  C  C350  1  0.636300  0.530000  0.550240  1.0  0.7499
  C  C351  1  0.711900  0.578100  0.456760  1.0  -0.1407
  C  C352  1  0.764000  0.622000  0.440750  1.0  0.7078
  C  C353  1  0.679400  0.540100  0.433210  1.0  0.025
  C  C354  1  0.630700  0.498700  0.448160  1.0  -0.135
  C  C355  1  0.596100  0.456200  0.423550  1.0  0.7588
  C  C356  1  0.616300  0.496000  0.485140  1.0  -0.0224
  C  C357  1  0.100800  0.216300  0.509170  1.0  -0.0977
  C  C358  1  0.053200  0.175100  0.494630  1.0  0.0295
  C  C359  1  0.113700  0.220000  0.550240  1.0  0.7489
  C  C360  1  0.038100  0.171900  0.456760  1.0  -0.1424
  C  C361  1  0.986000  0.128000  0.440750  1.0  0.7077
  C  C362  1  0.070600  0.209900  0.433210  1.0  0.0267
  C  C363  1  0.119300  0.251300  0.448160  1.0  -0.1361
  C  C364  1  0.153900  0.293800  0.423550  1.0  0.7607
  C  C365  1  0.133700  0.254000  0.485140  1.0  -0.0208
  C  C366  1  0.100800  0.716300  0.009170  1.0  -0.0977
  C  C367  1  0.053200  0.675100  0.994630  1.0  0.0295
  C  C368  1  0.113700  0.720000  0.050240  1.0  0.7489
  C  C369  1  0.038100  0.671900  0.956760  1.0  -0.1424
  C  C370  1  0.986000  0.628000  0.940750  1.0  0.7077
  C  C371  1  0.070600  0.709900  0.933210  1.0  0.0267
  C  C372  1  0.119300  0.751300  0.948160  1.0  -0.1361
  C  C373  1  0.153900  0.793800  0.923550  1.0  0.7607
  C  C374  1  0.133700  0.754000  0.985140  1.0  -0.0315
  C  C375  1  0.600800  0.216300  0.009170  1.0  -0.0977
  C  C376  1  0.553200  0.175100  0.994630  1.0  0.0295
  C  C377  1  0.613700  0.220000  0.050240  1.0  0.7489
  C  C378  1  0.538100  0.171900  0.956760  1.0  -0.1424
  C  C379  1  0.486000  0.128000  0.940750  1.0  0.7077
  C  C380  1  0.570600  0.209900  0.933210  1.0  0.0267
  C  C381  1  0.619300  0.251300  0.948160  1.0  -0.1361
  C  C382  1  0.653900  0.293800  0.923550  1.0  0.7607
  C  C383  1  0.633700  0.254000  0.985140  1.0  -0.0208
  C  C384  1  0.600800  0.716300  0.509170  1.0  -0.0977
  C  C385  1  0.553200  0.675100  0.494630  1.0  0.0295
  C  C386  1  0.613700  0.720000  0.550240  1.0  0.7489
  C  C387  1  0.538100  0.671900  0.456760  1.0  -0.1424
  C  C388  1  0.486000  0.628000  0.440750  1.0  0.7077
  C  C389  1  0.570600  0.709900  0.433210  1.0  0.0267
  C  C390  1  0.619300  0.751300  0.448160  1.0  -0.1361
  C  C391  1  0.653900  0.793800  0.423550  1.0  0.7607
  C  C392  1  0.633700  0.754000  0.485140  1.0  -0.0208
  C  C393  1  0.100800  0.033700  0.740830  1.0  -0.0992
  C  C394  1  0.053200  0.074900  0.755370  1.0  0.0287
  C  C395  1  0.113700  0.030000  0.699760  1.0  0.7496
  C  C396  1  0.038100  0.078100  0.793240  1.0  -0.1409
  C  C397  1  0.986000  0.122000  0.809250  1.0  0.7078
  C  C398  1  0.070600  0.040100  0.816790  1.0  0.027
  C  C399  1  0.119300  0.998700  0.801840  1.0  -0.1323
  C  C400  1  0.153900  0.956200  0.826450  1.0  0.7588
  C  C401  1  0.133700  0.996000  0.764860  1.0  -0.0209
  C  C402  1  0.100800  0.533700  0.240830  1.0  -0.0992
  C  C403  1  0.053200  0.574900  0.255370  1.0  0.0287
  C  C404  1  0.113700  0.530000  0.199760  1.0  0.7496
  C  C405  1  0.038100  0.578100  0.293240  1.0  -0.1409
  C  C406  1  0.986000  0.622000  0.309250  1.0  0.7078
  C  C407  1  0.070600  0.540100  0.316790  1.0  0.027
  C  C408  1  0.119300  0.498700  0.301840  1.0  -0.1323
  C  C409  1  0.153900  0.456200  0.326450  1.0  0.7588
  C  C410  1  0.133700  0.496000  0.264860  1.0  -0.0209
  C  C411  1  0.600800  0.033700  0.240830  1.0  -0.0992
  C  C412  1  0.553200  0.074900  0.255370  1.0  0.0287
  C  C413  1  0.613700  0.030000  0.199760  1.0  0.7496
  C  C414  1  0.538100  0.078100  0.293240  1.0  -0.1409
  C  C415  1  0.486000  0.122000  0.309250  1.0  0.7078
  C  C416  1  0.570600  0.040100  0.316790  1.0  0.027
  C  C417  1  0.619300  0.998700  0.301840  1.0  -0.1323
  C  C418  1  0.653900  0.956200  0.326450  1.0  0.7588
  C  C419  1  0.633700  0.996000  0.264860  1.0  -0.0209
  C  C420  1  0.600800  0.533700  0.740830  1.0  -0.0992
  C  C421  1  0.553200  0.574900  0.755370  1.0  0.0287
  C  C422  1  0.613700  0.530000  0.699760  1.0  0.7496
  C  C423  1  0.538100  0.578100  0.793240  1.0  -0.1409
  C  C424  1  0.486000  0.622000  0.809250  1.0  0.7078
  C  C425  1  0.570600  0.540100  0.816790  1.0  0.027
  C  C426  1  0.619300  0.498700  0.801840  1.0  -0.1323
  C  C427  1  0.653900  0.456200  0.826450  1.0  0.7588
  C  C428  1  0.633700  0.496000  0.764860  1.0  -0.0209
  C  C429  1  0.149200  0.216300  0.740830  1.0  -0.098
  C  C430  1  0.196800  0.175100  0.755370  1.0  0.0294
  C  C431  1  0.136300  0.220000  0.699760  1.0  0.7487
  C  C432  1  0.211900  0.171900  0.793240  1.0  -0.1404
  C  C433  1  0.264000  0.128000  0.809250  1.0  0.7098
  C  C434  1  0.179400  0.209900  0.816790  1.0  0.0278
  C  C435  1  0.130700  0.251300  0.801840  1.0  -0.136
  C  C436  1  0.096100  0.293800  0.826450  1.0  0.7601
  C  C437  1  0.116300  0.254000  0.764860  1.0  -0.024
  C  C438  1  0.149200  0.716300  0.240830  1.0  -0.098
  C  C439  1  0.196800  0.675100  0.255370  1.0  0.0294
  C  C440  1  0.136300  0.720000  0.199760  1.0  0.7487
  C  C441  1  0.211900  0.671900  0.293240  1.0  -0.1404
  C  C442  1  0.264000  0.628000  0.309250  1.0  0.7098
  C  C443  1  0.179400  0.709900  0.316790  1.0  0.0278
  C  C444  1  0.130700  0.751300  0.301840  1.0  -0.136
  C  C445  1  0.096100  0.793800  0.326450  1.0  0.7601
  C  C446  1  0.116300  0.754000  0.264860  1.0  -0.024
  C  C447  1  0.649200  0.216300  0.240830  1.0  -0.098
  C  C448  1  0.696800  0.175100  0.255370  1.0  0.0294
  C  C449  1  0.636300  0.220000  0.199760  1.0  0.7487
  C  C450  1  0.711900  0.171900  0.293240  1.0  -0.1404
  C  C451  1  0.764000  0.128000  0.309250  1.0  0.7098
  C  C452  1  0.679400  0.209900  0.316790  1.0  0.0278
  C  C453  1  0.630700  0.251300  0.301840  1.0  -0.136
  C  C454  1  0.596100  0.293800  0.326450  1.0  0.7601
  C  C455  1  0.616300  0.254000  0.264860  1.0  -0.024
  C  C456  1  0.649200  0.716300  0.740830  1.0  -0.098
  C  C457  1  0.696800  0.675100  0.755370  1.0  0.0294
  C  C458  1  0.636300  0.720000  0.699760  1.0  0.7487
  C  C459  1  0.711900  0.671900  0.793240  1.0  -0.1404
  C  C460  1  0.764000  0.628000  0.809250  1.0  0.7098
  C  C461  1  0.679400  0.709900  0.816790  1.0  0.0278
  C  C462  1  0.630700  0.751300  0.801840  1.0  -0.136
  C  C463  1  0.596100  0.793800  0.826450  1.0  0.7601
  C  C464  1  0.616300  0.754000  0.764860  1.0  -0.024
  O  O465  1  0.895400  0.010580  0.435600  1.0  -0.5819
  O  O466  1  0.840400  0.931180  0.431140  1.0  -0.6177
  O  O467  1  0.712600  0.876540  0.591640  1.0  -0.4459
  O  O468  1  0.719200  0.841500  0.535950  1.0  -0.4487
  O  O469  1  0.897300  0.037930  0.611290  1.0  -0.6304
  O  O470  1  0.933400  0.083870  0.561560  1.0  -0.5782
  O  O471  1  0.895400  0.510580  0.935600  1.0  -0.5819
  O  O472  1  0.840400  0.431180  0.931140  1.0  -0.6177
  O  O473  1  0.712600  0.376540  0.091640  1.0  -0.4459
  O  O474  1  0.719200  0.341500  0.035950  1.0  -0.4487
  O  O475  1  0.897300  0.537930  0.111290  1.0  -0.6304
  O  O476  1  0.933400  0.583870  0.061560  1.0  -0.5782
  O  O477  1  0.395400  0.010580  0.935600  1.0  -0.5819
  O  O478  1  0.340400  0.931180  0.931140  1.0  -0.6177
  O  O479  1  0.212600  0.876540  0.091640  1.0  -0.4459
  O  O480  1  0.219200  0.841500  0.035950  1.0  -0.4487
  O  O481  1  0.397300  0.037930  0.111290  1.0  -0.6304
  O  O482  1  0.433400  0.083870  0.061560  1.0  -0.5782
  O  O483  1  0.395400  0.510580  0.435600  1.0  -0.5819
  O  O484  1  0.340400  0.431180  0.431140  1.0  -0.6177
  O  O485  1  0.212600  0.376540  0.591640  1.0  -0.4459
  O  O486  1  0.219200  0.341500  0.535950  1.0  -0.4487
  O  O487  1  0.397300  0.537930  0.611290  1.0  -0.6304
  O  O488  1  0.433400  0.583870  0.561560  1.0  -0.5782
  O  O489  1  0.854600  0.739420  0.435600  1.0  -0.5822
  O  O490  1  0.909600  0.818820  0.431140  1.0  -0.6163
  O  O491  1  0.037400  0.873460  0.591640  1.0  -0.448
  O  O492  1  0.030800  0.908500  0.535950  1.0  -0.4491
  O  O493  1  0.852700  0.712070  0.611290  1.0  -0.6295
  O  O494  1  0.816600  0.666130  0.561560  1.0  -0.5761
  O  O495  1  0.854600  0.239420  0.935600  1.0  -0.5822
  O  O496  1  0.909600  0.318820  0.931140  1.0  -0.6163
  O  O497  1  0.037400  0.373460  0.091640  1.0  -0.448
  O  O498  1  0.030800  0.408500  0.035950  1.0  -0.4491
  O  O499  1  0.852700  0.212070  0.111290  1.0  -0.6295
  O  O500  1  0.816600  0.166130  0.061560  1.0  -0.5761
  O  O501  1  0.354600  0.739420  0.935600  1.0  -0.5822
  O  O502  1  0.409600  0.818820  0.931140  1.0  -0.6163
  O  O503  1  0.537400  0.873460  0.091640  1.0  -0.448
  O  O504  1  0.530800  0.908500  0.035950  1.0  -0.4491
  O  O505  1  0.352700  0.712070  0.111290  1.0  -0.6295
  O  O506  1  0.316600  0.666130  0.061560  1.0  -0.5761
  O  O507  1  0.354600  0.239420  0.435600  1.0  -0.5822
  O  O508  1  0.409600  0.318820  0.431140  1.0  -0.6163
  O  O509  1  0.537400  0.373460  0.591640  1.0  -0.448
  O  O510  1  0.530800  0.408500  0.535950  1.0  -0.4491
  O  O511  1  0.352700  0.212070  0.611290  1.0  -0.6295
  O  O512  1  0.316600  0.166130  0.561560  1.0  -0.5761
  O  O513  1  0.854600  0.010580  0.314400  1.0  -0.5838
  O  O514  1  0.909600  0.931180  0.318860  1.0  -0.6164
  O  O515  1  0.037400  0.876540  0.158360  1.0  -0.4467
  O  O516  1  0.030800  0.841500  0.214050  1.0  -0.4479
  O  O517  1  0.852700  0.037930  0.138710  1.0  -0.6286
  O  O518  1  0.816600  0.083870  0.188440  1.0  -0.5763
  O  O519  1  0.854600  0.510580  0.814400  1.0  -0.5838
  O  O520  1  0.909600  0.431180  0.818860  1.0  -0.6164
  O  O521  1  0.037400  0.376540  0.658360  1.0  -0.4467
  O  O522  1  0.030800  0.341500  0.714050  1.0  -0.4479
  O  O523  1  0.852700  0.537930  0.638710  1.0  -0.6286
  O  O524  1  0.816600  0.583870  0.688440  1.0  -0.5763
  O  O525  1  0.354600  0.010580  0.814400  1.0  -0.5838
  O  O526  1  0.409600  0.931180  0.818860  1.0  -0.6164
  O  O527  1  0.537400  0.876540  0.658360  1.0  -0.4467
  O  O528  1  0.530800  0.841500  0.714050  1.0  -0.4479
  O  O529  1  0.352700  0.037930  0.638710  1.0  -0.6286
  O  O530  1  0.316600  0.083870  0.688440  1.0  -0.5763
  O  O531  1  0.354600  0.510580  0.314400  1.0  -0.5838
  O  O532  1  0.409600  0.431180  0.318860  1.0  -0.6164
  O  O533  1  0.537400  0.376540  0.158360  1.0  -0.4467
  O  O534  1  0.530800  0.341500  0.214050  1.0  -0.4479
  O  O535  1  0.352700  0.537930  0.138710  1.0  -0.6286
  O  O536  1  0.316600  0.583870  0.188440  1.0  -0.5763
  O  O537  1  0.895400  0.739420  0.314400  1.0  -0.5821
  O  O538  1  0.840400  0.818820  0.318860  1.0  -0.617
  O  O539  1  0.712600  0.873460  0.158360  1.0  -0.4481
  O  O540  1  0.719200  0.908500  0.214050  1.0  -0.451
  O  O541  1  0.897300  0.712070  0.138710  1.0  -0.6299
  O  O542  1  0.933400  0.666130  0.188440  1.0  -0.5768
  O  O543  1  0.895400  0.239420  0.814400  1.0  -0.5821
  O  O544  1  0.840400  0.318820  0.818860  1.0  -0.617
  O  O545  1  0.712600  0.373460  0.658360  1.0  -0.4481
  O  O546  1  0.719200  0.408500  0.714050  1.0  -0.451
  O  O547  1  0.897300  0.212070  0.638710  1.0  -0.6299
  O  O548  1  0.933400  0.166130  0.688440  1.0  -0.5768
  O  O549  1  0.395400  0.739420  0.814400  1.0  -0.5821
  O  O550  1  0.340400  0.818820  0.818860  1.0  -0.617
  O  O551  1  0.212600  0.873460  0.658360  1.0  -0.4481
  O  O552  1  0.219200  0.908500  0.714050  1.0  -0.451
  O  O553  1  0.397300  0.712070  0.638710  1.0  -0.6299
  O  O554  1  0.433400  0.666130  0.688440  1.0  -0.5768
  O  O555  1  0.395400  0.239420  0.314400  1.0  -0.5821
  O  O556  1  0.340400  0.318820  0.318860  1.0  -0.617
  O  O557  1  0.212600  0.373460  0.158360  1.0  -0.4481
  O  O558  1  0.219200  0.408500  0.214050  1.0  -0.451
  O  O559  1  0.397300  0.212070  0.138710  1.0  -0.6299
  O  O560  1  0.433400  0.166130  0.188440  1.0  -0.5768
  O  O561  1  0.104600  0.989420  0.564400  1.0  -0.583
  O  O562  1  0.159600  0.068820  0.568860  1.0  -0.6157
  O  O563  1  0.287400  0.123460  0.408360  1.0  -0.4465
  O  O564  1  0.280800  0.158500  0.464050  1.0  -0.45
  O  O565  1  0.102700  0.962070  0.388710  1.0  -0.6281
  O  O566  1  0.066600  0.916130  0.438440  1.0  -0.5757
  O  O567  1  0.104600  0.489420  0.064400  1.0  -0.583
  O  O568  1  0.159600  0.568820  0.068860  1.0  -0.6157
  O  O569  1  0.287400  0.623460  0.908360  1.0  -0.4465
  O  O570  1  0.280800  0.658500  0.964050  1.0  -0.45
  O  O571  1  0.102700  0.462070  0.888710  1.0  -0.6281
  O  O572  1  0.066600  0.416130  0.938440  1.0  -0.5757
  O  O573  1  0.604600  0.989420  0.064400  1.0  -0.583
  O  O574  1  0.659600  0.068820  0.068860  1.0  -0.6157
  O  O575  1  0.787400  0.123460  0.908360  1.0  -0.4465
  O  O576  1  0.780800  0.158500  0.964050  1.0  -0.45
  O  O577  1  0.602700  0.962070  0.888710  1.0  -0.6281
  O  O578  1  0.566600  0.916130  0.938440  1.0  -0.5757
  O  O579  1  0.604600  0.489420  0.564400  1.0  -0.583
  O  O580  1  0.659600  0.568820  0.568860  1.0  -0.6157
  O  O581  1  0.787400  0.623460  0.408360  1.0  -0.4465
  O  O582  1  0.780800  0.658500  0.464050  1.0  -0.45
  O  O583  1  0.602700  0.462070  0.388710  1.0  -0.6281
  O  O584  1  0.566600  0.416130  0.438440  1.0  -0.5757
  O  O585  1  0.145400  0.260580  0.564400  1.0  -0.5834
  O  O586  1  0.090400  0.181180  0.568860  1.0  -0.6177
  O  O587  1  0.962600  0.126540  0.408360  1.0  -0.4479
  O  O588  1  0.969200  0.091500  0.464050  1.0  -0.4488
  O  O589  1  0.147300  0.287930  0.388710  1.0  -0.6303
  O  O590  1  0.183400  0.333870  0.438440  1.0  -0.578
  O  O591  1  0.145400  0.760580  0.064400  1.0  -0.5834
  O  O592  1  0.090400  0.681180  0.068860  1.0  -0.6177
  O  O593  1  0.962600  0.626540  0.908360  1.0  -0.4479
  O  O594  1  0.969200  0.591500  0.964050  1.0  -0.4488
  O  O595  1  0.147300  0.787930  0.888710  1.0  -0.6303
  O  O596  1  0.183400  0.833870  0.938440  1.0  -0.578
  O  O597  1  0.645400  0.260580  0.064400  1.0  -0.5834
  O  O598  1  0.590400  0.181180  0.068860  1.0  -0.6177
  O  O599  1  0.462600  0.126540  0.908360  1.0  -0.4479
  O  O600  1  0.469200  0.091500  0.964050  1.0  -0.4488
  O  O601  1  0.647300  0.287930  0.888710  1.0  -0.6303
  O  O602  1  0.683400  0.333870  0.938440  1.0  -0.578
  O  O603  1  0.645400  0.760580  0.564400  1.0  -0.5834
  O  O604  1  0.590400  0.681180  0.568860  1.0  -0.6177
  O  O605  1  0.462600  0.626540  0.408360  1.0  -0.4479
  O  O606  1  0.469200  0.591500  0.464050  1.0  -0.4488
  O  O607  1  0.647300  0.787930  0.388710  1.0  -0.6303
  O  O608  1  0.683400  0.833870  0.438440  1.0  -0.578
  O  O609  1  0.145400  0.989420  0.685600  1.0  -0.5819
  O  O610  1  0.090400  0.068820  0.681140  1.0  -0.6173
  O  O611  1  0.962600  0.123460  0.841640  1.0  -0.4462
  O  O612  1  0.969200  0.158500  0.785950  1.0  -0.4509
  O  O613  1  0.147300  0.962070  0.861290  1.0  -0.6306
  O  O614  1  0.183400  0.916130  0.811560  1.0  -0.5779
  O  O615  1  0.145400  0.489420  0.185600  1.0  -0.5819
  O  O616  1  0.090400  0.568820  0.181140  1.0  -0.6173
  O  O617  1  0.962600  0.623460  0.341640  1.0  -0.4462
  O  O618  1  0.969200  0.658500  0.285950  1.0  -0.4509
  O  O619  1  0.147300  0.462070  0.361290  1.0  -0.6306
  O  O620  1  0.183400  0.416130  0.311560  1.0  -0.5779
  O  O621  1  0.645400  0.989420  0.185600  1.0  -0.5819
  O  O622  1  0.590400  0.068820  0.181140  1.0  -0.6173
  O  O623  1  0.462600  0.123460  0.341640  1.0  -0.4462
  O  O624  1  0.469200  0.158500  0.285950  1.0  -0.4509
  O  O625  1  0.647300  0.962070  0.361290  1.0  -0.6306
  O  O626  1  0.683400  0.916130  0.311560  1.0  -0.5779
  O  O627  1  0.645400  0.489420  0.685600  1.0  -0.5819
  O  O628  1  0.590400  0.568820  0.681140  1.0  -0.6173
  O  O629  1  0.462600  0.623460  0.841640  1.0  -0.4462
  O  O630  1  0.469200  0.658500  0.785950  1.0  -0.4509
  O  O631  1  0.647300  0.462070  0.861290  1.0  -0.6306
  O  O632  1  0.683400  0.416130  0.811560  1.0  -0.5779
  O  O633  1  0.104600  0.260580  0.685600  1.0  -0.582
  O  O634  1  0.159600  0.181180  0.681140  1.0  -0.6166
  O  O635  1  0.287400  0.126540  0.841640  1.0  -0.4476
  O  O636  1  0.280800  0.091500  0.785950  1.0  -0.4466
  O  O637  1  0.102700  0.287930  0.861290  1.0  -0.6299
  O  O638  1  0.066600  0.333870  0.811560  1.0  -0.5763
  O  O639  1  0.104600  0.760580  0.185600  1.0  -0.582
  O  O640  1  0.159600  0.681180  0.181140  1.0  -0.6166
  O  O641  1  0.287400  0.626540  0.341640  1.0  -0.4476
  O  O642  1  0.280800  0.591500  0.285950  1.0  -0.4466
  O  O643  1  0.102700  0.787930  0.361290  1.0  -0.6299
  O  O644  1  0.066600  0.833870  0.311560  1.0  -0.5763
  O  O645  1  0.604600  0.260580  0.185600  1.0  -0.582
  O  O646  1  0.659600  0.181180  0.181140  1.0  -0.6166
  O  O647  1  0.787400  0.126540  0.341640  1.0  -0.4476
  O  O648  1  0.780800  0.091500  0.285950  1.0  -0.4466
  O  O649  1  0.602700  0.287930  0.361290  1.0  -0.6299
  O  O650  1  0.566600  0.333870  0.311560  1.0  -0.5763
  O  O651  1  0.604600  0.760580  0.685600  1.0  -0.582
  O  O652  1  0.659600  0.681180  0.681140  1.0  -0.6166
  O  O653  1  0.787400  0.626540  0.841640  1.0  -0.4476
  O  O654  1  0.780800  0.591500  0.785950  1.0  -0.4466
  O  O655  1  0.602700  0.787930  0.861290  1.0  -0.6299
  O  O656  1  0.566600  0.833870  0.811560  1.0  -0.5763
