# generated using pymatgen
data_Ag3H8(C3O2)6
_symmetry_space_group_name_H-M   'P 1'
_cell_length_a   14.62480000
_cell_length_b   25.90120000
_cell_length_c   36.31620000
_cell_angle_alpha   90.00000000
_cell_angle_beta   90.00000000
_cell_angle_gamma   90.00000000
_symmetry_Int_Tables_number   1
_chemical_formula_structural   Ag3H8(C3O2)6
_chemical_formula_sum   'Ag48 H128 C288 O192'
_cell_volume   13756.57183018
_cell_formula_units_Z   16
loop_
 _symmetry_equiv_pos_site_id
 _symmetry_equiv_pos_as_xyz
  1  'x, y, z'
loop_
 _atom_site_type_symbol
 _atom_site_label
 _atom_site_symmetry_multiplicity
 _atom_site_fract_x
 _atom_site_fract_y
 _atom_site_fract_z
 _atom_site_occupancy
 _atom_site_charge
  Ag  Ag1  1  0.932970  0.658430  0.092110  1.0  0.4176
  Ag  Ag2  1  0.932970  0.158430  0.592110  1.0  0.4176
  Ag  Ag3  1  0.432970  0.658430  0.592110  1.0  0.4176
  Ag  Ag4  1  0.432970  0.158430  0.092110  1.0  0.4176
  Ag  Ag5  1  0.817030  0.091570  0.092110  1.0  0.4179
  Ag  Ag6  1  0.817030  0.591570  0.592110  1.0  0.4179
  Ag  Ag7  1  0.317030  0.091570  0.592110  1.0  0.4179
  Ag  Ag8  1  0.317030  0.591570  0.092110  1.0  0.4179
  Ag  Ag9  1  0.817030  0.658430  0.657890  1.0  0.4171
  Ag  Ag10  1  0.817030  0.158430  0.157890  1.0  0.4171
  Ag  Ag11  1  0.317030  0.658430  0.157890  1.0  0.4171
  Ag  Ag12  1  0.317030  0.158430  0.657890  1.0  0.4171
  Ag  Ag13  1  0.932970  0.091570  0.657890  1.0  0.415
  Ag  Ag14  1  0.932970  0.591570  0.157890  1.0  0.415
  Ag  Ag15  1  0.432970  0.091570  0.157890  1.0  0.415
  Ag  Ag16  1  0.432970  0.591570  0.657890  1.0  0.415
  Ag  Ag17  1  0.067030  0.341570  0.907890  1.0  0.4185
  Ag  Ag18  1  0.067030  0.841570  0.407890  1.0  0.4185
  Ag  Ag19  1  0.567030  0.341570  0.407890  1.0  0.4185
  Ag  Ag20  1  0.567030  0.841570  0.907890  1.0  0.4185
  Ag  Ag21  1  0.182970  0.908430  0.907890  1.0  0.418
  Ag  Ag22  1  0.182970  0.408430  0.407890  1.0  0.418
  Ag  Ag23  1  0.682970  0.908430  0.407890  1.0  0.418
  Ag  Ag24  1  0.682970  0.408430  0.907890  1.0  0.418
  Ag  Ag25  1  0.182970  0.341570  0.342110  1.0  0.4176
  Ag  Ag26  1  0.182970  0.841570  0.842110  1.0  0.4176
  Ag  Ag27  1  0.682970  0.341570  0.842110  1.0  0.4176
  Ag  Ag28  1  0.682970  0.841570  0.342110  1.0  0.4176
  Ag  Ag29  1  0.067030  0.908430  0.342110  1.0  0.4191
  Ag  Ag30  1  0.067030  0.408430  0.842110  1.0  0.4191
  Ag  Ag31  1  0.567030  0.908430  0.842110  1.0  0.4191
  Ag  Ag32  1  0.567030  0.408430  0.342110  1.0  0.4191
  Ag  Ag33  1  0.875000  0.433770  0.875000  1.0  0.3858
  Ag  Ag34  1  0.875000  0.933770  0.375000  1.0  0.3858
  Ag  Ag35  1  0.375000  0.433770  0.375000  1.0  0.3858
  Ag  Ag36  1  0.375000  0.933770  0.875000  1.0  0.3858
  Ag  Ag37  1  0.875000  0.316230  0.875000  1.0  0.3858
  Ag  Ag38  1  0.875000  0.816230  0.375000  1.0  0.3858
  Ag  Ag39  1  0.375000  0.316230  0.375000  1.0  0.3858
  Ag  Ag40  1  0.375000  0.816230  0.875000  1.0  0.3858
  Ag  Ag41  1  0.125000  0.566230  0.125000  1.0  0.3858
  Ag  Ag42  1  0.125000  0.066230  0.625000  1.0  0.3858
  Ag  Ag43  1  0.625000  0.566230  0.625000  1.0  0.3858
  Ag  Ag44  1  0.625000  0.066230  0.125000  1.0  0.3858
  Ag  Ag45  1  0.125000  0.683770  0.125000  1.0  0.3858
  Ag  Ag46  1  0.125000  0.183770  0.625000  1.0  0.3858
  Ag  Ag47  1  0.625000  0.683770  0.625000  1.0  0.3858
  Ag  Ag48  1  0.625000  0.183770  0.125000  1.0  0.3858
  H  H49  1  0.689100  0.318200  0.042400  1.0  0.4017
  H  H50  1  0.809000  0.458200  0.092200  1.0  0.1538
  H  H51  1  0.781100  0.398500  0.990000  1.0  0.139
  H  H52  1  0.917000  0.531800  0.004600  1.0  0.152
  H  H53  1  0.689100  0.818200  0.542400  1.0  0.4017
  H  H54  1  0.809000  0.958200  0.592200  1.0  0.1538
  H  H55  1  0.781100  0.898500  0.490000  1.0  0.139
  H  H56  1  0.917000  0.031800  0.504600  1.0  0.152
  H  H57  1  0.189100  0.318200  0.542400  1.0  0.4017
  H  H58  1  0.309000  0.458200  0.592200  1.0  0.1538
  H  H59  1  0.281100  0.398500  0.490000  1.0  0.139
  H  H60  1  0.417000  0.531800  0.504600  1.0  0.152
  H  H61  1  0.189100  0.818200  0.042400  1.0  0.4017
  H  H62  1  0.309000  0.958200  0.092200  1.0  0.1538
  H  H63  1  0.281100  0.898500  0.990000  1.0  0.139
  H  H64  1  0.417000  0.031800  0.004600  1.0  0.152
  H  H65  1  0.060900  0.431800  0.042400  1.0  0.402
  H  H66  1  0.941000  0.291800  0.092200  1.0  0.153
  H  H67  1  0.968900  0.351500  0.990000  1.0  0.139
  H  H68  1  0.833000  0.218200  0.004600  1.0  0.1517
  H  H69  1  0.060900  0.931800  0.542400  1.0  0.402
  H  H70  1  0.941000  0.791800  0.592200  1.0  0.153
  H  H71  1  0.968900  0.851500  0.490000  1.0  0.139
  H  H72  1  0.833000  0.718200  0.504600  1.0  0.1517
  H  H73  1  0.560900  0.431800  0.542400  1.0  0.402
  H  H74  1  0.441000  0.291800  0.592200  1.0  0.153
  H  H75  1  0.468900  0.351500  0.490000  1.0  0.139
  H  H76  1  0.333000  0.218200  0.504600  1.0  0.1517
  H  H77  1  0.560900  0.931800  0.042400  1.0  0.402
  H  H78  1  0.441000  0.791800  0.092200  1.0  0.153
  H  H79  1  0.468900  0.851500  0.990000  1.0  0.139
  H  H80  1  0.333000  0.718200  0.004600  1.0  0.1517
  H  H81  1  0.060900  0.318200  0.707600  1.0  0.4022
  H  H82  1  0.941000  0.458200  0.657800  1.0  0.1525
  H  H83  1  0.968900  0.398500  0.760000  1.0  0.1386
  H  H84  1  0.833000  0.531800  0.745400  1.0  0.1529
  H  H85  1  0.060900  0.818200  0.207600  1.0  0.4022
  H  H86  1  0.941000  0.958200  0.157800  1.0  0.1525
  H  H87  1  0.968900  0.898500  0.260000  1.0  0.1386
  H  H88  1  0.833000  0.031800  0.245400  1.0  0.1529
  H  H89  1  0.560900  0.318200  0.207600  1.0  0.4022
  H  H90  1  0.441000  0.458200  0.157800  1.0  0.1525
  H  H91  1  0.468900  0.398500  0.260000  1.0  0.1386
  H  H92  1  0.333000  0.531800  0.245400  1.0  0.1529
  H  H93  1  0.560900  0.818200  0.707600  1.0  0.4022
  H  H94  1  0.441000  0.958200  0.657800  1.0  0.1525
  H  H95  1  0.468900  0.898500  0.760000  1.0  0.1386
  H  H96  1  0.333000  0.031800  0.745400  1.0  0.1529
  H  H97  1  0.689100  0.431800  0.707600  1.0  0.4026
  H  H98  1  0.809000  0.291800  0.657800  1.0  0.1524
  H  H99  1  0.781100  0.351500  0.760000  1.0  0.1393
  H  H100  1  0.917000  0.218200  0.745400  1.0  0.1512
  H  H101  1  0.689100  0.931800  0.207600  1.0  0.4026
  H  H102  1  0.809000  0.791800  0.157800  1.0  0.1524
  H  H103  1  0.781100  0.851500  0.260000  1.0  0.1393
  H  H104  1  0.917000  0.718200  0.245400  1.0  0.1512
  H  H105  1  0.189100  0.431800  0.207600  1.0  0.4026
  H  H106  1  0.309000  0.291800  0.157800  1.0  0.1524
  H  H107  1  0.281100  0.351500  0.260000  1.0  0.1393
  H  H108  1  0.417000  0.218200  0.245400  1.0  0.1512
  H  H109  1  0.189100  0.931800  0.707600  1.0  0.4026
  H  H110  1  0.309000  0.791800  0.657800  1.0  0.1524
  H  H111  1  0.281100  0.851500  0.760000  1.0  0.1393
  H  H112  1  0.417000  0.718200  0.745400  1.0  0.1512
  H  H113  1  0.310900  0.681800  0.957600  1.0  0.4025
  H  H114  1  0.191000  0.541800  0.907800  1.0  0.1525
  H  H115  1  0.218900  0.601500  0.010000  1.0  0.1385
  H  H116  1  0.083000  0.468200  0.995400  1.0  0.1513
  H  H117  1  0.310900  0.181800  0.457600  1.0  0.4025
  H  H118  1  0.191000  0.041800  0.407800  1.0  0.1525
  H  H119  1  0.218900  0.101500  0.510000  1.0  0.1385
  H  H120  1  0.083000  0.968200  0.495400  1.0  0.1513
  H  H121  1  0.810900  0.681800  0.457600  1.0  0.4025
  H  H122  1  0.691000  0.541800  0.407800  1.0  0.1525
  H  H123  1  0.718900  0.601500  0.510000  1.0  0.1385
  H  H124  1  0.583000  0.468200  0.495400  1.0  0.1513
  H  H125  1  0.810900  0.181800  0.957600  1.0  0.4025
  H  H126  1  0.691000  0.041800  0.907800  1.0  0.1525
  H  H127  1  0.718900  0.101500  0.010000  1.0  0.1385
  H  H128  1  0.583000  0.968200  0.995400  1.0  0.1513
  H  H129  1  0.939100  0.568200  0.957600  1.0  0.4012
  H  H130  1  0.059000  0.708200  0.907800  1.0  0.1524
  H  H131  1  0.031100  0.648500  0.010000  1.0  0.139
  H  H132  1  0.167000  0.781800  0.995400  1.0  0.1519
  H  H133  1  0.939100  0.068200  0.457600  1.0  0.4012
  H  H134  1  0.059000  0.208200  0.407800  1.0  0.1524
  H  H135  1  0.031100  0.148500  0.510000  1.0  0.139
  H  H136  1  0.167000  0.281800  0.495400  1.0  0.1519
  H  H137  1  0.439100  0.568200  0.457600  1.0  0.4012
  H  H138  1  0.559000  0.708200  0.407800  1.0  0.1524
  H  H139  1  0.531100  0.648500  0.510000  1.0  0.139
  H  H140  1  0.667000  0.781800  0.495400  1.0  0.1519
  H  H141  1  0.439100  0.068200  0.957600  1.0  0.4012
  H  H142  1  0.559000  0.208200  0.907800  1.0  0.1524
  H  H143  1  0.531100  0.148500  0.010000  1.0  0.139
  H  H144  1  0.667000  0.281800  0.995400  1.0  0.1519
  H  H145  1  0.939100  0.681800  0.292400  1.0  0.4015
  H  H146  1  0.059000  0.541800  0.342200  1.0  0.1538
  H  H147  1  0.031100  0.601500  0.240000  1.0  0.1394
  H  H148  1  0.167000  0.468200  0.254600  1.0  0.1512
  H  H149  1  0.939100  0.181800  0.792400  1.0  0.4015
  H  H150  1  0.059000  0.041800  0.842200  1.0  0.1538
  H  H151  1  0.031100  0.101500  0.740000  1.0  0.1394
  H  H152  1  0.167000  0.968200  0.754600  1.0  0.1512
  H  H153  1  0.439100  0.681800  0.792400  1.0  0.4015
  H  H154  1  0.559000  0.541800  0.842200  1.0  0.1538
  H  H155  1  0.531100  0.601500  0.740000  1.0  0.1394
  H  H156  1  0.667000  0.468200  0.754600  1.0  0.1512
  H  H157  1  0.439100  0.181800  0.292400  1.0  0.4015
  H  H158  1  0.559000  0.041800  0.342200  1.0  0.1538
  H  H159  1  0.531100  0.101500  0.240000  1.0  0.1394
  H  H160  1  0.667000  0.968200  0.254600  1.0  0.1512
  H  H161  1  0.310900  0.568200  0.292400  1.0  0.4013
  H  H162  1  0.191000  0.708200  0.342200  1.0  0.1528
  H  H163  1  0.218900  0.648500  0.240000  1.0  0.1393
  H  H164  1  0.083000  0.781800  0.254600  1.0  0.1531
  H  H165  1  0.310900  0.068200  0.792400  1.0  0.4013
  H  H166  1  0.191000  0.208200  0.842200  1.0  0.1528
  H  H167  1  0.218900  0.148500  0.740000  1.0  0.1393
  H  H168  1  0.083000  0.281800  0.754600  1.0  0.1531
  H  H169  1  0.810900  0.568200  0.792400  1.0  0.4013
  H  H170  1  0.691000  0.708200  0.842200  1.0  0.1528
  H  H171  1  0.718900  0.648500  0.740000  1.0  0.1393
  H  H172  1  0.583000  0.781800  0.754600  1.0  0.1531
  H  H173  1  0.810900  0.068200  0.292400  1.0  0.4013
  H  H174  1  0.691000  0.208200  0.342200  1.0  0.1528
  H  H175  1  0.718900  0.148500  0.240000  1.0  0.1393
  H  H176  1  0.583000  0.281800  0.254600  1.0  0.1531
  C  C177  1  0.869730  0.501040  0.052060  1.0  -0.122
  C  C178  1  0.820100  0.459890  0.066990  1.0  0.0513
  C  C179  1  0.787410  0.421430  0.043490  1.0  -0.1401
  C  C180  1  0.802800  0.424350  0.005430  1.0  0.0202
  C  C181  1  0.850660  0.465980  0.990770  1.0  -0.0922
  C  C182  1  0.884400  0.504120  0.014310  1.0  -0.0334
  C  C183  1  0.903850  0.544190  0.076140  1.0  0.7782
  C  C184  1  0.735600  0.377450  0.059700  1.0  0.6828
  C  C185  1  0.863860  0.469510  0.949850  1.0  0.7442
  C  C186  1  0.869730  0.001040  0.552060  1.0  -0.122
  C  C187  1  0.820100  0.959890  0.566990  1.0  0.0513
  C  C188  1  0.787410  0.921430  0.543490  1.0  -0.1401
  C  C189  1  0.802800  0.924350  0.505430  1.0  0.0202
  C  C190  1  0.850660  0.965980  0.490770  1.0  -0.0922
  C  C191  1  0.884400  0.004120  0.514310  1.0  -0.0334
  C  C192  1  0.903850  0.044190  0.576140  1.0  0.7782
  C  C193  1  0.735600  0.877450  0.559700  1.0  0.6828
  C  C194  1  0.863860  0.969510  0.449850  1.0  0.7442
  C  C195  1  0.369730  0.501040  0.552060  1.0  -0.122
  C  C196  1  0.320100  0.459890  0.566990  1.0  0.0513
  C  C197  1  0.287410  0.421430  0.543490  1.0  -0.1401
  C  C198  1  0.302800  0.424350  0.505430  1.0  0.0202
  C  C199  1  0.350660  0.465980  0.490770  1.0  -0.0922
  C  C200  1  0.384400  0.504120  0.514310  1.0  -0.0334
  C  C201  1  0.403850  0.544190  0.576140  1.0  0.7782
  C  C202  1  0.235600  0.377450  0.559700  1.0  0.6828
  C  C203  1  0.363860  0.469510  0.449850  1.0  0.7442
  C  C204  1  0.369730  0.001040  0.052060  1.0  -0.122
  C  C205  1  0.320100  0.959890  0.066990  1.0  0.0513
  C  C206  1  0.287410  0.921430  0.043490  1.0  -0.1401
  C  C207  1  0.302800  0.924350  0.005430  1.0  0.0202
  C  C208  1  0.350660  0.965980  0.990770  1.0  -0.0922
  C  C209  1  0.384400  0.004120  0.014310  1.0  -0.0334
  C  C210  1  0.403850  0.044190  0.076140  1.0  0.7782
  C  C211  1  0.235600  0.877450  0.059700  1.0  0.6828
  C  C212  1  0.363860  0.969510  0.949850  1.0  0.7442
  C  C213  1  0.880270  0.248960  0.052060  1.0  -0.1221
  C  C214  1  0.929900  0.290110  0.066990  1.0  0.0528
  C  C215  1  0.962590  0.328570  0.043490  1.0  -0.139
  C  C216  1  0.947200  0.325650  0.005430  1.0  0.0191
  C  C217  1  0.899340  0.284020  0.990770  1.0  -0.093
  C  C218  1  0.865600  0.245880  0.014310  1.0  -0.034
  C  C219  1  0.846150  0.205810  0.076140  1.0  0.7826
  C  C220  1  0.014400  0.372550  0.059700  1.0  0.6855
  C  C221  1  0.886140  0.280490  0.949850  1.0  0.7431
  C  C222  1  0.880270  0.748960  0.552060  1.0  -0.1221
  C  C223  1  0.929900  0.790110  0.566990  1.0  0.0528
  C  C224  1  0.962590  0.828570  0.543490  1.0  -0.139
  C  C225  1  0.947200  0.825650  0.505430  1.0  0.0191
  C  C226  1  0.899340  0.784020  0.490770  1.0  -0.093
  C  C227  1  0.865600  0.745880  0.514310  1.0  -0.034
  C  C228  1  0.846150  0.705810  0.576140  1.0  0.7826
  C  C229  1  0.014400  0.872550  0.559700  1.0  0.6855
  C  C230  1  0.886140  0.780490  0.449850  1.0  0.7431
  C  C231  1  0.380270  0.248960  0.552060  1.0  -0.1221
  C  C232  1  0.429900  0.290110  0.566990  1.0  0.0528
  C  C233  1  0.462590  0.328570  0.543490  1.0  -0.139
  C  C234  1  0.447200  0.325650  0.505430  1.0  0.0191
  C  C235  1  0.399340  0.284020  0.490770  1.0  -0.093
  C  C236  1  0.365600  0.245880  0.514310  1.0  -0.034
  C  C237  1  0.346150  0.205810  0.576140  1.0  0.7826
  C  C238  1  0.514400  0.372550  0.559700  1.0  0.6855
  C  C239  1  0.386140  0.280490  0.449850  1.0  0.7431
  C  C240  1  0.380270  0.748960  0.052060  1.0  -0.1221
  C  C241  1  0.429900  0.790110  0.066990  1.0  0.0528
  C  C242  1  0.462590  0.828570  0.043490  1.0  -0.139
  C  C243  1  0.447200  0.825650  0.005430  1.0  0.0191
  C  C244  1  0.399340  0.784020  0.990770  1.0  -0.093
  C  C245  1  0.365600  0.745880  0.014310  1.0  -0.034
  C  C246  1  0.346150  0.705810  0.076140  1.0  0.7826
  C  C247  1  0.514400  0.872550  0.059700  1.0  0.6855
  C  C248  1  0.386140  0.780490  0.949850  1.0  0.7431
  C  C249  1  0.880270  0.501040  0.697940  1.0  -0.1209
  C  C250  1  0.929900  0.459890  0.683010  1.0  0.0496
  C  C251  1  0.962590  0.421430  0.706510  1.0  -0.1393
  C  C252  1  0.947200  0.424350  0.744570  1.0  0.0202
  C  C253  1  0.899340  0.465980  0.759230  1.0  -0.0953
  C  C254  1  0.865600  0.504120  0.735690  1.0  -0.0342
  C  C255  1  0.846150  0.544190  0.673860  1.0  0.7778
  C  C256  1  0.014400  0.377450  0.690300  1.0  0.6854
  C  C257  1  0.886140  0.469510  0.800150  1.0  0.743
  C  C258  1  0.880270  0.001040  0.197940  1.0  -0.1209
  C  C259  1  0.929900  0.959890  0.183010  1.0  0.0496
  C  C260  1  0.962590  0.921430  0.206510  1.0  -0.1393
  C  C261  1  0.947200  0.924350  0.244570  1.0  0.0202
  C  C262  1  0.899340  0.965980  0.259230  1.0  -0.0953
  C  C263  1  0.865600  0.004120  0.235690  1.0  -0.0342
  C  C264  1  0.846150  0.044190  0.173860  1.0  0.7778
  C  C265  1  0.014400  0.877450  0.190300  1.0  0.6854
  C  C266  1  0.886140  0.969510  0.300150  1.0  0.743
  C  C267  1  0.380270  0.501040  0.197940  1.0  -0.1209
  C  C268  1  0.429900  0.459890  0.183010  1.0  0.0496
  C  C269  1  0.462590  0.421430  0.206510  1.0  -0.1393
  C  C270  1  0.447200  0.424350  0.244570  1.0  0.0202
  C  C271  1  0.399340  0.465980  0.259230  1.0  -0.0953
  C  C272  1  0.365600  0.504120  0.235690  1.0  -0.0342
  C  C273  1  0.346150  0.544190  0.173860  1.0  0.7778
  C  C274  1  0.514400  0.377450  0.190300  1.0  0.6854
  C  C275  1  0.386140  0.469510  0.300150  1.0  0.743
  C  C276  1  0.380270  0.001040  0.697940  1.0  -0.1209
  C  C277  1  0.429900  0.959890  0.683010  1.0  0.0496
  C  C278  1  0.462590  0.921430  0.706510  1.0  -0.1393
  C  C279  1  0.447200  0.924350  0.744570  1.0  0.0202
  C  C280  1  0.399340  0.965980  0.759230  1.0  -0.0953
  C  C281  1  0.365600  0.004120  0.735690  1.0  -0.0342
  C  C282  1  0.346150  0.044190  0.673860  1.0  0.7778
  C  C283  1  0.514400  0.877450  0.690300  1.0  0.6854
  C  C284  1  0.386140  0.969510  0.800150  1.0  0.743
  C  C285  1  0.869730  0.248960  0.697940  1.0  -0.1229
  C  C286  1  0.820100  0.290110  0.683010  1.0  0.051
  C  C287  1  0.787410  0.328570  0.706510  1.0  -0.1412
  C  C288  1  0.802800  0.325650  0.744570  1.0  0.0195
  C  C289  1  0.850660  0.284020  0.759230  1.0  -0.0923
  C  C290  1  0.884400  0.245880  0.735690  1.0  -0.0341
  C  C291  1  0.903850  0.205810  0.673860  1.0  0.777
  C  C292  1  0.735600  0.372550  0.690300  1.0  0.6826
  C  C293  1  0.863860  0.280490  0.800150  1.0  0.7405
  C  C294  1  0.869730  0.748960  0.197940  1.0  -0.1229
  C  C295  1  0.820100  0.790110  0.183010  1.0  0.051
  C  C296  1  0.787410  0.828570  0.206510  1.0  -0.1412
  C  C297  1  0.802800  0.825650  0.244570  1.0  0.0195
  C  C298  1  0.850660  0.784020  0.259230  1.0  -0.0923
  C  C299  1  0.884400  0.745880  0.235690  1.0  -0.0341
  C  C300  1  0.903850  0.705810  0.173860  1.0  0.777
  C  C301  1  0.735600  0.872550  0.190300  1.0  0.6826
  C  C302  1  0.863860  0.780490  0.300150  1.0  0.7405
  C  C303  1  0.369730  0.248960  0.197940  1.0  -0.1229
  C  C304  1  0.320100  0.290110  0.183010  1.0  0.051
  C  C305  1  0.287410  0.328570  0.206510  1.0  -0.1412
  C  C306  1  0.302800  0.325650  0.244570  1.0  0.0195
  C  C307  1  0.350660  0.284020  0.259230  1.0  -0.0923
  C  C308  1  0.384400  0.245880  0.235690  1.0  -0.0341
  C  C309  1  0.403850  0.205810  0.173860  1.0  0.777
  C  C310  1  0.235600  0.372550  0.190300  1.0  0.6826
  C  C311  1  0.363860  0.280490  0.300150  1.0  0.7405
  C  C312  1  0.369730  0.748960  0.697940  1.0  -0.1229
  C  C313  1  0.320100  0.790110  0.683010  1.0  0.051
  C  C314  1  0.287410  0.828570  0.706510  1.0  -0.1412
  C  C315  1  0.302800  0.825650  0.744570  1.0  0.0195
  C  C316  1  0.350660  0.784020  0.759230  1.0  -0.0923
  C  C317  1  0.384400  0.745880  0.735690  1.0  -0.0341
  C  C318  1  0.403850  0.705810  0.673860  1.0  0.777
  C  C319  1  0.235600  0.872550  0.690300  1.0  0.6826
  C  C320  1  0.363860  0.780490  0.800150  1.0  0.7405
  C  C321  1  0.130270  0.498960  0.947940  1.0  -0.1226
  C  C322  1  0.179900  0.540110  0.933010  1.0  0.0495
  C  C323  1  0.212590  0.578570  0.956510  1.0  -0.1392
  C  C324  1  0.197200  0.575650  0.994570  1.0  0.0199
  C  C325  1  0.149340  0.534020  0.009230  1.0  -0.0949
  C  C326  1  0.115600  0.495880  0.985690  1.0  -0.0342
  C  C327  1  0.096150  0.455810  0.923860  1.0  0.7794
  C  C328  1  0.264400  0.622550  0.940300  1.0  0.6851
  C  C329  1  0.136140  0.530490  0.050150  1.0  0.7422
  C  C330  1  0.130270  0.998960  0.447940  1.0  -0.1226
  C  C331  1  0.179900  0.040110  0.433010  1.0  0.0495
  C  C332  1  0.212590  0.078570  0.456510  1.0  -0.1392
  C  C333  1  0.197200  0.075650  0.494570  1.0  0.0199
  C  C334  1  0.149340  0.034020  0.509230  1.0  -0.0949
  C  C335  1  0.115600  0.995880  0.485690  1.0  -0.0342
  C  C336  1  0.096150  0.955810  0.423860  1.0  0.7794
  C  C337  1  0.264400  0.122550  0.440300  1.0  0.6851
  C  C338  1  0.136140  0.030490  0.550150  1.0  0.7422
  C  C339  1  0.630270  0.498960  0.447940  1.0  -0.1226
  C  C340  1  0.679900  0.540110  0.433010  1.0  0.0495
  C  C341  1  0.712590  0.578570  0.456510  1.0  -0.1392
  C  C342  1  0.697200  0.575650  0.494570  1.0  0.0199
  C  C343  1  0.649340  0.534020  0.509230  1.0  -0.0949
  C  C344  1  0.615600  0.495880  0.485690  1.0  -0.0342
  C  C345  1  0.596150  0.455810  0.423860  1.0  0.7794
  C  C346  1  0.764400  0.622550  0.440300  1.0  0.6851
  C  C347  1  0.636140  0.530490  0.550150  1.0  0.7422
  C  C348  1  0.630270  0.998960  0.947940  1.0  -0.1226
  C  C349  1  0.679900  0.040110  0.933010  1.0  0.0495
  C  C350  1  0.712590  0.078570  0.956510  1.0  -0.1392
  C  C351  1  0.697200  0.075650  0.994570  1.0  0.0199
  C  C352  1  0.649340  0.034020  0.009230  1.0  -0.0949
  C  C353  1  0.615600  0.995880  0.985690  1.0  -0.0342
  C  C354  1  0.596150  0.955810  0.923860  1.0  0.7794
  C  C355  1  0.764400  0.122550  0.940300  1.0  0.6851
  C  C356  1  0.636140  0.030490  0.050150  1.0  0.7422
  C  C357  1  0.119730  0.751040  0.947940  1.0  -0.1214
  C  C358  1  0.070100  0.709890  0.933010  1.0  0.0505
  C  C359  1  0.037410  0.671430  0.956510  1.0  -0.1418
  C  C360  1  0.052800  0.674350  0.994570  1.0  0.0201
  C  C361  1  0.100660  0.715980  0.009230  1.0  -0.0925
  C  C362  1  0.134400  0.754120  0.985690  1.0  -0.0334
  C  C363  1  0.153850  0.794190  0.923860  1.0  0.7769
  C  C364  1  0.985600  0.627450  0.940300  1.0  0.6834
  C  C365  1  0.113860  0.719510  0.050150  1.0  0.7403
  C  C366  1  0.119730  0.251040  0.447940  1.0  -0.1214
  C  C367  1  0.070100  0.209890  0.433010  1.0  0.0505
  C  C368  1  0.037410  0.171430  0.456510  1.0  -0.1418
  C  C369  1  0.052800  0.174350  0.494570  1.0  0.0201
  C  C370  1  0.100660  0.215980  0.509230  1.0  -0.0925
  C  C371  1  0.134400  0.254120  0.485690  1.0  -0.0334
  C  C372  1  0.153850  0.294190  0.423860  1.0  0.7769
  C  C373  1  0.985600  0.127450  0.440300  1.0  0.6834
  C  C374  1  0.113860  0.219510  0.550150  1.0  0.7403
  C  C375  1  0.619730  0.751040  0.447940  1.0  -0.1214
  C  C376  1  0.570100  0.709890  0.433010  1.0  0.0505
  C  C377  1  0.537410  0.671430  0.456510  1.0  -0.1418
  C  C378  1  0.552800  0.674350  0.494570  1.0  0.0201
  C  C379  1  0.600660  0.715980  0.509230  1.0  -0.0925
  C  C380  1  0.634400  0.754120  0.485690  1.0  -0.0334
  C  C381  1  0.653850  0.794190  0.423860  1.0  0.7769
  C  C382  1  0.485600  0.627450  0.440300  1.0  0.6834
  C  C383  1  0.613860  0.719510  0.550150  1.0  0.7403
  C  C384  1  0.619730  0.251040  0.947940  1.0  -0.1214
  C  C385  1  0.570100  0.209890  0.933010  1.0  0.0505
  C  C386  1  0.537410  0.171430  0.956510  1.0  -0.1418
  C  C387  1  0.552800  0.174350  0.994570  1.0  0.0201
  C  C388  1  0.600660  0.215980  0.009230  1.0  -0.0925
  C  C389  1  0.634400  0.254120  0.985690  1.0  -0.0334
  C  C390  1  0.653850  0.294190  0.923860  1.0  0.7769
  C  C391  1  0.485600  0.127450  0.940300  1.0  0.6834
  C  C392  1  0.613860  0.219510  0.050150  1.0  0.7403
  C  C393  1  0.119730  0.498960  0.302060  1.0  -0.1213
  C  C394  1  0.070100  0.540110  0.316990  1.0  0.0516
  C  C395  1  0.037410  0.578570  0.293490  1.0  -0.1399
  C  C396  1  0.052800  0.575650  0.255430  1.0  0.0188
  C  C397  1  0.100660  0.534020  0.240770  1.0  -0.093
  C  C398  1  0.134400  0.495880  0.264310  1.0  -0.0338
  C  C399  1  0.153850  0.455810  0.326140  1.0  0.7796
  C  C400  1  0.985600  0.622550  0.309700  1.0  0.6822
  C  C401  1  0.113860  0.530490  0.199850  1.0  0.7442
  C  C402  1  0.119730  0.998960  0.802060  1.0  -0.1213
  C  C403  1  0.070100  0.040110  0.816990  1.0  0.0516
  C  C404  1  0.037410  0.078570  0.793490  1.0  -0.1399
  C  C405  1  0.052800  0.075650  0.755430  1.0  0.0188
  C  C406  1  0.100660  0.034020  0.740770  1.0  -0.093
  C  C407  1  0.134400  0.995880  0.764310  1.0  -0.0338
  C  C408  1  0.153850  0.955810  0.826140  1.0  0.7796
  C  C409  1  0.985600  0.122550  0.809700  1.0  0.6822
  C  C410  1  0.113860  0.030490  0.699850  1.0  0.7442
  C  C411  1  0.619730  0.498960  0.802060  1.0  -0.1213
  C  C412  1  0.570100  0.540110  0.816990  1.0  0.0516
  C  C413  1  0.537410  0.578570  0.793490  1.0  -0.1399
  C  C414  1  0.552800  0.575650  0.755430  1.0  0.0188
  C  C415  1  0.600660  0.534020  0.740770  1.0  -0.093
  C  C416  1  0.634400  0.495880  0.764310  1.0  -0.0338
  C  C417  1  0.653850  0.455810  0.826140  1.0  0.7796
  C  C418  1  0.485600  0.622550  0.809700  1.0  0.6822
  C  C419  1  0.613860  0.530490  0.699850  1.0  0.7442
  C  C420  1  0.619730  0.998960  0.302060  1.0  -0.1213
  C  C421  1  0.570100  0.040110  0.316990  1.0  0.0516
  C  C422  1  0.537410  0.078570  0.293490  1.0  -0.1399
  C  C423  1  0.552800  0.075650  0.255430  1.0  0.0188
  C  C424  1  0.600660  0.034020  0.240770  1.0  -0.093
  C  C425  1  0.634400  0.995880  0.264310  1.0  -0.0338
  C  C426  1  0.653850  0.955810  0.326140  1.0  0.7796
  C  C427  1  0.485600  0.122550  0.309700  1.0  0.6822
  C  C428  1  0.613860  0.030490  0.199850  1.0  0.7442
  C  C429  1  0.130270  0.751040  0.302060  1.0  -0.1222
  C  C430  1  0.179900  0.709890  0.316990  1.0  0.0534
  C  C431  1  0.212590  0.671430  0.293490  1.0  -0.1389
  C  C432  1  0.197200  0.674350  0.255430  1.0  0.0201
  C  C433  1  0.149340  0.715980  0.240770  1.0  -0.0925
  C  C434  1  0.115600  0.754120  0.264310  1.0  -0.0346
  C  C435  1  0.096150  0.794190  0.326140  1.0  0.78
  C  C436  1  0.264400  0.627450  0.309700  1.0  0.6857
  C  C437  1  0.136140  0.719510  0.199850  1.0  0.7432
  C  C438  1  0.130270  0.251040  0.802060  1.0  -0.1222
  C  C439  1  0.179900  0.209890  0.816990  1.0  0.0534
  C  C440  1  0.212590  0.171430  0.793490  1.0  -0.1389
  C  C441  1  0.197200  0.174350  0.755430  1.0  0.0201
  C  C442  1  0.149340  0.215980  0.740770  1.0  -0.0925
  C  C443  1  0.115600  0.254120  0.764310  1.0  -0.0346
  C  C444  1  0.096150  0.294190  0.826140  1.0  0.78
  C  C445  1  0.264400  0.127450  0.809700  1.0  0.6857
  C  C446  1  0.136140  0.219510  0.699850  1.0  0.7432
  C  C447  1  0.630270  0.751040  0.802060  1.0  -0.1222
  C  C448  1  0.679900  0.709890  0.816990  1.0  0.0534
  C  C449  1  0.712590  0.671430  0.793490  1.0  -0.1389
  C  C450  1  0.697200  0.674350  0.755430  1.0  0.0201
  C  C451  1  0.649340  0.715980  0.740770  1.0  -0.0925
  C  C452  1  0.615600  0.754120  0.764310  1.0  -0.0346
  C  C453  1  0.596150  0.794190  0.826140  1.0  0.78
  C  C454  1  0.764400  0.627450  0.809700  1.0  0.6857
  C  C455  1  0.636140  0.719510  0.699850  1.0  0.7432
  C  C456  1  0.630270  0.251040  0.302060  1.0  -0.1222
  C  C457  1  0.679900  0.209890  0.316990  1.0  0.0534
  C  C458  1  0.712590  0.171430  0.293490  1.0  -0.1389
  C  C459  1  0.697200  0.174350  0.255430  1.0  0.0201
  C  C460  1  0.649340  0.215980  0.240770  1.0  -0.0925
  C  C461  1  0.615600  0.254120  0.264310  1.0  -0.0346
  C  C462  1  0.596150  0.294190  0.326140  1.0  0.78
  C  C463  1  0.764400  0.127450  0.309700  1.0  0.6857
  C  C464  1  0.636140  0.219510  0.199850  1.0  0.7432
  O  O465  1  0.933580  0.583930  0.061380  1.0  -0.5568
  O  O466  1  0.896840  0.537660  0.111320  1.0  -0.6334
  O  O467  1  0.712050  0.375940  0.092070  1.0  -0.4681
  O  O468  1  0.718600  0.340880  0.035760  1.0  -0.4898
  O  O469  1  0.841000  0.430080  0.931340  1.0  -0.606
  O  O470  1  0.896010  0.510110  0.935460  1.0  -0.5907
  O  O471  1  0.933580  0.083930  0.561380  1.0  -0.5568
  O  O472  1  0.896840  0.037660  0.611320  1.0  -0.6334
  O  O473  1  0.712050  0.875940  0.592070  1.0  -0.4681
  O  O474  1  0.718600  0.840880  0.535760  1.0  -0.4898
  O  O475  1  0.841000  0.930080  0.431340  1.0  -0.606
  O  O476  1  0.896010  0.010110  0.435460  1.0  -0.5907
  O  O477  1  0.433580  0.583930  0.561380  1.0  -0.5568
  O  O478  1  0.396840  0.537660  0.611320  1.0  -0.6334
  O  O479  1  0.212050  0.375940  0.592070  1.0  -0.4681
  O  O480  1  0.218600  0.340880  0.535760  1.0  -0.4898
  O  O481  1  0.341000  0.430080  0.431340  1.0  -0.606
  O  O482  1  0.396010  0.510110  0.435460  1.0  -0.5907
  O  O483  1  0.433580  0.083930  0.061380  1.0  -0.5568
  O  O484  1  0.396840  0.037660  0.111320  1.0  -0.6334
  O  O485  1  0.212050  0.875940  0.092070  1.0  -0.4681
  O  O486  1  0.218600  0.840880  0.035760  1.0  -0.4898
  O  O487  1  0.341000  0.930080  0.931340  1.0  -0.606
  O  O488  1  0.396010  0.010110  0.935460  1.0  -0.5907
  O  O489  1  0.816420  0.166070  0.061380  1.0  -0.5555
  O  O490  1  0.853160  0.212340  0.111320  1.0  -0.6342
  O  O491  1  0.037950  0.374060  0.092070  1.0  -0.4699
  O  O492  1  0.031400  0.409120  0.035760  1.0  -0.4898
  O  O493  1  0.909000  0.319920  0.931340  1.0  -0.6045
  O  O494  1  0.853990  0.239890  0.935460  1.0  -0.5891
  O  O495  1  0.816420  0.666070  0.561380  1.0  -0.5555
  O  O496  1  0.853160  0.712340  0.611320  1.0  -0.6342
  O  O497  1  0.037950  0.874060  0.592070  1.0  -0.4699
  O  O498  1  0.031400  0.909120  0.535760  1.0  -0.4898
  O  O499  1  0.909000  0.819920  0.431340  1.0  -0.6045
  O  O500  1  0.853990  0.739890  0.435460  1.0  -0.5891
  O  O501  1  0.316420  0.166070  0.561380  1.0  -0.5555
  O  O502  1  0.353160  0.212340  0.611320  1.0  -0.6342
  O  O503  1  0.537950  0.374060  0.592070  1.0  -0.4699
  O  O504  1  0.531400  0.409120  0.535760  1.0  -0.4898
  O  O505  1  0.409000  0.319920  0.431340  1.0  -0.6045
  O  O506  1  0.353990  0.239890  0.435460  1.0  -0.5891
  O  O507  1  0.316420  0.666070  0.061380  1.0  -0.5555
  O  O508  1  0.353160  0.712340  0.111320  1.0  -0.6342
  O  O509  1  0.537950  0.874060  0.092070  1.0  -0.4699
  O  O510  1  0.531400  0.909120  0.035760  1.0  -0.4898
  O  O511  1  0.409000  0.819920  0.931340  1.0  -0.6045
  O  O512  1  0.353990  0.739890  0.935460  1.0  -0.5891
  O  O513  1  0.816420  0.583930  0.688620  1.0  -0.5564
  O  O514  1  0.853160  0.537660  0.638680  1.0  -0.6327
  O  O515  1  0.037950  0.375940  0.657930  1.0  -0.4706
  O  O516  1  0.031400  0.340880  0.714240  1.0  -0.4908
  O  O517  1  0.909000  0.430080  0.818660  1.0  -0.6034
  O  O518  1  0.853990  0.510110  0.814540  1.0  -0.5891
  O  O519  1  0.816420  0.083930  0.188620  1.0  -0.5564
  O  O520  1  0.853160  0.037660  0.138680  1.0  -0.6327
  O  O521  1  0.037950  0.875940  0.157930  1.0  -0.4706
  O  O522  1  0.031400  0.840880  0.214240  1.0  -0.4908
  O  O523  1  0.909000  0.930080  0.318660  1.0  -0.6034
  O  O524  1  0.853990  0.010110  0.314540  1.0  -0.5891
  O  O525  1  0.316420  0.583930  0.188620  1.0  -0.5564
  O  O526  1  0.353160  0.537660  0.138680  1.0  -0.6327
  O  O527  1  0.537950  0.375940  0.157930  1.0  -0.4706
  O  O528  1  0.531400  0.340880  0.214240  1.0  -0.4908
  O  O529  1  0.409000  0.430080  0.318660  1.0  -0.6034
  O  O530  1  0.353990  0.510110  0.314540  1.0  -0.5891
  O  O531  1  0.316420  0.083930  0.688620  1.0  -0.5564
  O  O532  1  0.353160  0.037660  0.638680  1.0  -0.6327
  O  O533  1  0.537950  0.875940  0.657930  1.0  -0.4706
  O  O534  1  0.531400  0.840880  0.714240  1.0  -0.4908
  O  O535  1  0.409000  0.930080  0.818660  1.0  -0.6034
  O  O536  1  0.353990  0.010110  0.814540  1.0  -0.5891
  O  O537  1  0.933580  0.166070  0.688620  1.0  -0.5569
  O  O538  1  0.896840  0.212340  0.638680  1.0  -0.6309
  O  O539  1  0.712050  0.374060  0.657930  1.0  -0.4724
  O  O540  1  0.718600  0.409120  0.714240  1.0  -0.4907
  O  O541  1  0.841000  0.319920  0.818660  1.0  -0.6044
  O  O542  1  0.896010  0.239890  0.814540  1.0  -0.589
  O  O543  1  0.933580  0.666070  0.188620  1.0  -0.5569
  O  O544  1  0.896840  0.712340  0.138680  1.0  -0.6309
  O  O545  1  0.712050  0.874060  0.157930  1.0  -0.4724
  O  O546  1  0.718600  0.909120  0.214240  1.0  -0.4907
  O  O547  1  0.841000  0.819920  0.318660  1.0  -0.6044
  O  O548  1  0.896010  0.739890  0.314540  1.0  -0.589
  O  O549  1  0.433580  0.166070  0.188620  1.0  -0.5569
  O  O550  1  0.396840  0.212340  0.138680  1.0  -0.6309
  O  O551  1  0.212050  0.374060  0.157930  1.0  -0.4724
  O  O552  1  0.218600  0.409120  0.214240  1.0  -0.4907
  O  O553  1  0.341000  0.319920  0.318660  1.0  -0.6044
  O  O554  1  0.396010  0.239890  0.314540  1.0  -0.589
  O  O555  1  0.433580  0.666070  0.688620  1.0  -0.5569
  O  O556  1  0.396840  0.712340  0.638680  1.0  -0.6309
  O  O557  1  0.212050  0.874060  0.657930  1.0  -0.4724
  O  O558  1  0.218600  0.909120  0.714240  1.0  -0.4907
  O  O559  1  0.341000  0.819920  0.818660  1.0  -0.6044
  O  O560  1  0.396010  0.739890  0.814540  1.0  -0.589
  O  O561  1  0.066420  0.416070  0.938620  1.0  -0.5561
  O  O562  1  0.103160  0.462340  0.888680  1.0  -0.6324
  O  O563  1  0.287950  0.624060  0.907930  1.0  -0.4703
  O  O564  1  0.281400  0.659120  0.964240  1.0  -0.4911
  O  O565  1  0.159000  0.569920  0.068660  1.0  -0.6023
  O  O566  1  0.103990  0.489890  0.064540  1.0  -0.5888
  O  O567  1  0.066420  0.916070  0.438620  1.0  -0.5561
  O  O568  1  0.103160  0.962340  0.388680  1.0  -0.6324
  O  O569  1  0.287950  0.124060  0.407930  1.0  -0.4703
  O  O570  1  0.281400  0.159120  0.464240  1.0  -0.4911
  O  O571  1  0.159000  0.069920  0.568660  1.0  -0.6023
  O  O572  1  0.103990  0.989890  0.564540  1.0  -0.5888
  O  O573  1  0.566420  0.416070  0.438620  1.0  -0.5561
  O  O574  1  0.603160  0.462340  0.388680  1.0  -0.6324
  O  O575  1  0.787950  0.624060  0.407930  1.0  -0.4703
  O  O576  1  0.781400  0.659120  0.464240  1.0  -0.4911
  O  O577  1  0.659000  0.569920  0.568660  1.0  -0.6023
  O  O578  1  0.603990  0.489890  0.564540  1.0  -0.5888
  O  O579  1  0.566420  0.916070  0.938620  1.0  -0.5561
  O  O580  1  0.603160  0.962340  0.888680  1.0  -0.6324
  O  O581  1  0.787950  0.124060  0.907930  1.0  -0.4703
  O  O582  1  0.781400  0.159120  0.964240  1.0  -0.4911
  O  O583  1  0.659000  0.069920  0.068660  1.0  -0.6023
  O  O584  1  0.603990  0.989890  0.064540  1.0  -0.5888
  O  O585  1  0.183580  0.833930  0.938620  1.0  -0.5577
  O  O586  1  0.146840  0.787660  0.888680  1.0  -0.6317
  O  O587  1  0.962050  0.625940  0.907930  1.0  -0.4726
  O  O588  1  0.968600  0.590880  0.964240  1.0  -0.4903
  O  O589  1  0.091000  0.680080  0.068660  1.0  -0.6049
  O  O590  1  0.146010  0.760110  0.064540  1.0  -0.5892
  O  O591  1  0.183580  0.333930  0.438620  1.0  -0.5577
  O  O592  1  0.146840  0.287660  0.388680  1.0  -0.6317
  O  O593  1  0.962050  0.125940  0.407930  1.0  -0.4726
  O  O594  1  0.968600  0.090880  0.464240  1.0  -0.4903
  O  O595  1  0.091000  0.180080  0.568660  1.0  -0.6049
  O  O596  1  0.146010  0.260110  0.564540  1.0  -0.5892
  O  O597  1  0.683580  0.833930  0.438620  1.0  -0.5577
  O  O598  1  0.646840  0.787660  0.388680  1.0  -0.6317
  O  O599  1  0.462050  0.625940  0.407930  1.0  -0.4726
  O  O600  1  0.468600  0.590880  0.464240  1.0  -0.4903
  O  O601  1  0.591000  0.680080  0.568660  1.0  -0.6049
  O  O602  1  0.646010  0.760110  0.564540  1.0  -0.5892
  O  O603  1  0.683580  0.333930  0.938620  1.0  -0.5577
  O  O604  1  0.646840  0.287660  0.888680  1.0  -0.6317
  O  O605  1  0.462050  0.125940  0.907930  1.0  -0.4726
  O  O606  1  0.468600  0.090880  0.964240  1.0  -0.4903
  O  O607  1  0.591000  0.180080  0.068660  1.0  -0.6049
  O  O608  1  0.646010  0.260110  0.064540  1.0  -0.5892
  O  O609  1  0.183580  0.416070  0.311380  1.0  -0.5569
  O  O610  1  0.146840  0.462340  0.361320  1.0  -0.6328
  O  O611  1  0.962050  0.624060  0.342070  1.0  -0.4678
  O  O612  1  0.968600  0.659120  0.285760  1.0  -0.4899
  O  O613  1  0.091000  0.569920  0.181340  1.0  -0.6052
  O  O614  1  0.146010  0.489890  0.185460  1.0  -0.5909
  O  O615  1  0.183580  0.916070  0.811380  1.0  -0.5569
  O  O616  1  0.146840  0.962340  0.861320  1.0  -0.6328
  O  O617  1  0.962050  0.124060  0.842070  1.0  -0.4678
  O  O618  1  0.968600  0.159120  0.785760  1.0  -0.4899
  O  O619  1  0.091000  0.069920  0.681340  1.0  -0.6052
  O  O620  1  0.146010  0.989890  0.685460  1.0  -0.5909
  O  O621  1  0.683580  0.416070  0.811380  1.0  -0.5569
  O  O622  1  0.646840  0.462340  0.861320  1.0  -0.6328
  O  O623  1  0.462050  0.624060  0.842070  1.0  -0.4678
  O  O624  1  0.468600  0.659120  0.785760  1.0  -0.4899
  O  O625  1  0.591000  0.569920  0.681340  1.0  -0.6052
  O  O626  1  0.646010  0.489890  0.685460  1.0  -0.5909
  O  O627  1  0.683580  0.916070  0.311380  1.0  -0.5569
  O  O628  1  0.646840  0.962340  0.361320  1.0  -0.6328
  O  O629  1  0.462050  0.124060  0.342070  1.0  -0.4678
  O  O630  1  0.468600  0.159120  0.285760  1.0  -0.4899
  O  O631  1  0.591000  0.069920  0.181340  1.0  -0.6052
  O  O632  1  0.646010  0.989890  0.185460  1.0  -0.5909
  O  O633  1  0.066420  0.833930  0.311380  1.0  -0.5558
  O  O634  1  0.103160  0.787660  0.361320  1.0  -0.6341
  O  O635  1  0.287950  0.625940  0.342070  1.0  -0.4699
  O  O636  1  0.281400  0.590880  0.285760  1.0  -0.4892
  O  O637  1  0.159000  0.680080  0.181340  1.0  -0.6056
  O  O638  1  0.103990  0.760110  0.185460  1.0  -0.5897
  O  O639  1  0.066420  0.333930  0.811380  1.0  -0.5558
  O  O640  1  0.103160  0.287660  0.861320  1.0  -0.6341
  O  O641  1  0.287950  0.125940  0.842070  1.0  -0.4699
  O  O642  1  0.281400  0.090880  0.785760  1.0  -0.4892
  O  O643  1  0.159000  0.180080  0.681340  1.0  -0.6056
  O  O644  1  0.103990  0.260110  0.685460  1.0  -0.5897
  O  O645  1  0.566420  0.833930  0.811380  1.0  -0.5558
  O  O646  1  0.603160  0.787660  0.861320  1.0  -0.6341
  O  O647  1  0.787950  0.625940  0.842070  1.0  -0.4699
  O  O648  1  0.781400  0.590880  0.785760  1.0  -0.4892
  O  O649  1  0.659000  0.680080  0.681340  1.0  -0.6056
  O  O650  1  0.603990  0.760110  0.685460  1.0  -0.5897
  O  O651  1  0.566420  0.333930  0.311380  1.0  -0.5558
  O  O652  1  0.603160  0.287660  0.361320  1.0  -0.6341
  O  O653  1  0.787950  0.125940  0.342070  1.0  -0.4699
  O  O654  1  0.781400  0.090880  0.285760  1.0  -0.4892
  O  O655  1  0.659000  0.180080  0.181340  1.0  -0.6056
  O  O656  1  0.603990  0.260110  0.185460  1.0  -0.5897
