# generated using pymatgen
data_Ag3H8(C3O2)6
_symmetry_space_group_name_H-M   'P 1'
_cell_length_a   14.65500000
_cell_length_b   25.89600000
_cell_length_c   36.31700000
_cell_angle_alpha   90.00000000
_cell_angle_beta   90.00000000
_cell_angle_gamma   90.00000000
_symmetry_Int_Tables_number   1
_chemical_formula_structural   Ag3H8(C3O2)6
_chemical_formula_sum   'Ag48 H128 C288 O192'
_cell_volume   13782.51504396
_cell_formula_units_Z   16
loop_
 _symmetry_equiv_pos_site_id
 _symmetry_equiv_pos_as_xyz
  1  'x, y, z'
loop_
 _atom_site_type_symbol
 _atom_site_label
 _atom_site_symmetry_multiplicity
 _atom_site_fract_x
 _atom_site_fract_y
 _atom_site_fract_z
 _atom_site_occupancy
 _atom_site_charge
  Ag  Ag1  1  0.067010  0.341570  0.907930  1.0  0.4213
  Ag  Ag2  1  0.067010  0.841570  0.407930  1.0  0.4213
  Ag  Ag3  1  0.567010  0.341570  0.407930  1.0  0.4213
  Ag  Ag4  1  0.567010  0.841570  0.907930  1.0  0.4213
  Ag  Ag5  1  0.682990  0.408430  0.907930  1.0  0.4207
  Ag  Ag6  1  0.682990  0.908430  0.407930  1.0  0.4207
  Ag  Ag7  1  0.182990  0.408430  0.407930  1.0  0.4207
  Ag  Ag8  1  0.182990  0.908430  0.907930  1.0  0.4207
  Ag  Ag9  1  0.682990  0.341570  0.842070  1.0  0.4198
  Ag  Ag10  1  0.682990  0.841570  0.342070  1.0  0.4198
  Ag  Ag11  1  0.182990  0.341570  0.342070  1.0  0.4198
  Ag  Ag12  1  0.182990  0.841570  0.842070  1.0  0.4198
  Ag  Ag13  1  0.067010  0.408430  0.842070  1.0  0.4229
  Ag  Ag14  1  0.067010  0.908430  0.342070  1.0  0.4229
  Ag  Ag15  1  0.567010  0.408430  0.342070  1.0  0.4229
  Ag  Ag16  1  0.567010  0.908430  0.842070  1.0  0.4229
  Ag  Ag17  1  0.932990  0.658430  0.092070  1.0  0.4208
  Ag  Ag18  1  0.932990  0.158430  0.592070  1.0  0.4208
  Ag  Ag19  1  0.432990  0.658430  0.592070  1.0  0.4208
  Ag  Ag20  1  0.432990  0.158430  0.092070  1.0  0.4208
  Ag  Ag21  1  0.317010  0.591570  0.092070  1.0  0.4218
  Ag  Ag22  1  0.317010  0.091570  0.592070  1.0  0.4218
  Ag  Ag23  1  0.817010  0.591570  0.592070  1.0  0.4218
  Ag  Ag24  1  0.817010  0.091570  0.092070  1.0  0.4218
  Ag  Ag25  1  0.317010  0.658430  0.157930  1.0  0.4227
  Ag  Ag26  1  0.317010  0.158430  0.657930  1.0  0.4227
  Ag  Ag27  1  0.817010  0.658430  0.657930  1.0  0.4227
  Ag  Ag28  1  0.817010  0.158430  0.157930  1.0  0.4227
  Ag  Ag29  1  0.932990  0.591570  0.157930  1.0  0.4196
  Ag  Ag30  1  0.932990  0.091570  0.657930  1.0  0.4196
  Ag  Ag31  1  0.432990  0.591570  0.657930  1.0  0.4196
  Ag  Ag32  1  0.432990  0.091570  0.157930  1.0  0.4196
  Ag  Ag33  1  0.875000  0.316050  0.875000  1.0  0.38
  Ag  Ag34  1  0.875000  0.816050  0.375000  1.0  0.38
  Ag  Ag35  1  0.375000  0.316050  0.375000  1.0  0.38
  Ag  Ag36  1  0.375000  0.816050  0.875000  1.0  0.38
  Ag  Ag37  1  0.875000  0.433950  0.875000  1.0  0.3801
  Ag  Ag38  1  0.875000  0.933950  0.375000  1.0  0.3801
  Ag  Ag39  1  0.375000  0.433950  0.375000  1.0  0.3801
  Ag  Ag40  1  0.375000  0.933950  0.875000  1.0  0.3801
  Ag  Ag41  1  0.125000  0.683950  0.125000  1.0  0.3801
  Ag  Ag42  1  0.125000  0.183950  0.625000  1.0  0.3801
  Ag  Ag43  1  0.625000  0.683950  0.625000  1.0  0.3801
  Ag  Ag44  1  0.625000  0.183950  0.125000  1.0  0.3801
  Ag  Ag45  1  0.125000  0.566050  0.125000  1.0  0.38
  Ag  Ag46  1  0.125000  0.066050  0.625000  1.0  0.38
  Ag  Ag47  1  0.625000  0.566050  0.625000  1.0  0.38
  Ag  Ag48  1  0.625000  0.066050  0.125000  1.0  0.38
  H  H49  1  0.946500  0.290200  0.091200  1.0  0.1414
  H  H50  1  0.837600  0.218000  0.006600  1.0  0.3236
  H  H51  1  0.970900  0.354100  0.989900  1.0  0.1353
  H  H52  1  0.055100  0.435800  0.041200  1.0  0.3932
  H  H53  1  0.946500  0.790200  0.591200  1.0  0.1414
  H  H54  1  0.837600  0.718000  0.506600  1.0  0.3236
  H  H55  1  0.970900  0.854100  0.489900  1.0  0.1353
  H  H56  1  0.055100  0.935800  0.541200  1.0  0.3932
  H  H57  1  0.446500  0.290200  0.591200  1.0  0.1414
  H  H58  1  0.337600  0.218000  0.506600  1.0  0.3236
  H  H59  1  0.470900  0.354100  0.489900  1.0  0.1353
  H  H60  1  0.555100  0.435800  0.541200  1.0  0.3932
  H  H61  1  0.446500  0.790200  0.091200  1.0  0.1414
  H  H62  1  0.337600  0.718000  0.006600  1.0  0.3236
  H  H63  1  0.470900  0.854100  0.989900  1.0  0.1353
  H  H64  1  0.555100  0.935800  0.041200  1.0  0.3932
  H  H65  1  0.803500  0.459800  0.091200  1.0  0.1416
  H  H66  1  0.912400  0.532000  0.006600  1.0  0.3221
  H  H67  1  0.779100  0.395900  0.989900  1.0  0.1362
  H  H68  1  0.694900  0.314200  0.041200  1.0  0.3935
  H  H69  1  0.803500  0.959800  0.591200  1.0  0.1416
  H  H70  1  0.912400  0.032000  0.506600  1.0  0.3221
  H  H71  1  0.779100  0.895900  0.489900  1.0  0.1362
  H  H72  1  0.694900  0.814200  0.541200  1.0  0.3935
  H  H73  1  0.303500  0.459800  0.591200  1.0  0.1416
  H  H74  1  0.412400  0.532000  0.506600  1.0  0.3221
  H  H75  1  0.279100  0.395900  0.489900  1.0  0.1362
  H  H76  1  0.194900  0.314200  0.541200  1.0  0.3935
  H  H77  1  0.303500  0.959800  0.091200  1.0  0.1416
  H  H78  1  0.412400  0.032000  0.006600  1.0  0.3221
  H  H79  1  0.279100  0.895900  0.989900  1.0  0.1362
  H  H80  1  0.194900  0.814200  0.041200  1.0  0.3935
  H  H81  1  0.803500  0.290200  0.658800  1.0  0.141
  H  H82  1  0.912400  0.218000  0.743400  1.0  0.3235
  H  H83  1  0.779100  0.354100  0.760100  1.0  0.1354
  H  H84  1  0.694900  0.435800  0.708800  1.0  0.3938
  H  H85  1  0.803500  0.790200  0.158800  1.0  0.141
  H  H86  1  0.912400  0.718000  0.243400  1.0  0.3235
  H  H87  1  0.779100  0.854100  0.260100  1.0  0.1354
  H  H88  1  0.694900  0.935800  0.208800  1.0  0.3938
  H  H89  1  0.303500  0.290200  0.158800  1.0  0.141
  H  H90  1  0.412400  0.218000  0.243400  1.0  0.3235
  H  H91  1  0.279100  0.354100  0.260100  1.0  0.1354
  H  H92  1  0.194900  0.435800  0.208800  1.0  0.3938
  H  H93  1  0.303500  0.790200  0.658800  1.0  0.141
  H  H94  1  0.412400  0.718000  0.743400  1.0  0.3235
  H  H95  1  0.279100  0.854100  0.760100  1.0  0.1354
  H  H96  1  0.194900  0.935800  0.708800  1.0  0.3938
  H  H97  1  0.946500  0.459800  0.658800  1.0  0.141
  H  H98  1  0.837600  0.532000  0.743400  1.0  0.3218
  H  H99  1  0.970900  0.395900  0.760100  1.0  0.1362
  H  H100  1  0.055100  0.314200  0.708800  1.0  0.3937
  H  H101  1  0.946500  0.959800  0.158800  1.0  0.141
  H  H102  1  0.837600  0.032000  0.243400  1.0  0.3218
  H  H103  1  0.970900  0.895900  0.260100  1.0  0.1362
  H  H104  1  0.055100  0.814200  0.208800  1.0  0.3937
  H  H105  1  0.446500  0.459800  0.158800  1.0  0.141
  H  H106  1  0.337600  0.532000  0.243400  1.0  0.3218
  H  H107  1  0.470900  0.395900  0.260100  1.0  0.1362
  H  H108  1  0.555100  0.314200  0.208800  1.0  0.3937
  H  H109  1  0.446500  0.959800  0.658800  1.0  0.141
  H  H110  1  0.337600  0.032000  0.743400  1.0  0.3218
  H  H111  1  0.470900  0.895900  0.760100  1.0  0.1362
  H  H112  1  0.555100  0.814200  0.708800  1.0  0.3937
  H  H113  1  0.053500  0.709800  0.908800  1.0  0.1409
  H  H114  1  0.162400  0.782000  0.993400  1.0  0.3221
  H  H115  1  0.029100  0.645900  0.010100  1.0  0.1362
  H  H116  1  0.944900  0.564200  0.958800  1.0  0.3931
  H  H117  1  0.053500  0.209800  0.408800  1.0  0.1409
  H  H118  1  0.162400  0.282000  0.493400  1.0  0.3221
  H  H119  1  0.029100  0.145900  0.510100  1.0  0.1362
  H  H120  1  0.944900  0.064200  0.458800  1.0  0.3931
  H  H121  1  0.553500  0.709800  0.408800  1.0  0.1409
  H  H122  1  0.662400  0.782000  0.493400  1.0  0.3221
  H  H123  1  0.529100  0.645900  0.510100  1.0  0.1362
  H  H124  1  0.444900  0.564200  0.458800  1.0  0.3931
  H  H125  1  0.553500  0.209800  0.908800  1.0  0.1409
  H  H126  1  0.662400  0.282000  0.993400  1.0  0.3221
  H  H127  1  0.529100  0.145900  0.010100  1.0  0.1362
  H  H128  1  0.444900  0.064200  0.958800  1.0  0.3931
  H  H129  1  0.196500  0.540200  0.908800  1.0  0.1412
  H  H130  1  0.087600  0.468000  0.993400  1.0  0.3234
  H  H131  1  0.220900  0.604100  0.010100  1.0  0.1354
  H  H132  1  0.305100  0.685800  0.958800  1.0  0.3942
  H  H133  1  0.196500  0.040200  0.408800  1.0  0.1412
  H  H134  1  0.087600  0.968000  0.493400  1.0  0.3234
  H  H135  1  0.220900  0.104100  0.510100  1.0  0.1354
  H  H136  1  0.305100  0.185800  0.458800  1.0  0.3942
  H  H137  1  0.696500  0.540200  0.408800  1.0  0.1412
  H  H138  1  0.587600  0.468000  0.493400  1.0  0.3234
  H  H139  1  0.720900  0.604100  0.510100  1.0  0.1354
  H  H140  1  0.805100  0.685800  0.458800  1.0  0.3942
  H  H141  1  0.696500  0.040200  0.908800  1.0  0.1412
  H  H142  1  0.587600  0.968000  0.993400  1.0  0.3234
  H  H143  1  0.720900  0.104100  0.010100  1.0  0.1354
  H  H144  1  0.805100  0.185800  0.958800  1.0  0.3942
  H  H145  1  0.196500  0.709800  0.341200  1.0  0.1413
  H  H146  1  0.087600  0.782000  0.256600  1.0  0.3215
  H  H147  1  0.220900  0.645900  0.239900  1.0  0.1371
  H  H148  1  0.305100  0.564200  0.291200  1.0  0.3933
  H  H149  1  0.196500  0.209800  0.841200  1.0  0.1413
  H  H150  1  0.087600  0.282000  0.756600  1.0  0.3215
  H  H151  1  0.220900  0.145900  0.739900  1.0  0.1371
  H  H152  1  0.305100  0.064200  0.791200  1.0  0.3933
  H  H153  1  0.696500  0.709800  0.841200  1.0  0.1413
  H  H154  1  0.587600  0.782000  0.756600  1.0  0.3215
  H  H155  1  0.720900  0.645900  0.739900  1.0  0.1371
  H  H156  1  0.805100  0.564200  0.791200  1.0  0.3933
  H  H157  1  0.696500  0.209800  0.341200  1.0  0.1413
  H  H158  1  0.587600  0.282000  0.256600  1.0  0.3215
  H  H159  1  0.720900  0.145900  0.239900  1.0  0.1371
  H  H160  1  0.805100  0.064200  0.291200  1.0  0.3933
  H  H161  1  0.053500  0.540200  0.341200  1.0  0.1419
  H  H162  1  0.162400  0.468000  0.256600  1.0  0.3237
  H  H163  1  0.029100  0.604100  0.239900  1.0  0.1357
  H  H164  1  0.944900  0.685800  0.291200  1.0  0.3935
  H  H165  1  0.053500  0.040200  0.841200  1.0  0.1419
  H  H166  1  0.162400  0.968000  0.756600  1.0  0.3237
  H  H167  1  0.029100  0.104100  0.739900  1.0  0.1357
  H  H168  1  0.944900  0.185800  0.791200  1.0  0.3935
  H  H169  1  0.553500  0.540200  0.841200  1.0  0.1419
  H  H170  1  0.662400  0.468000  0.756600  1.0  0.3237
  H  H171  1  0.529100  0.604100  0.739900  1.0  0.1357
  H  H172  1  0.444900  0.685800  0.791200  1.0  0.3935
  H  H173  1  0.553500  0.040200  0.341200  1.0  0.1419
  H  H174  1  0.662400  0.968000  0.256600  1.0  0.3237
  H  H175  1  0.529100  0.104100  0.239900  1.0  0.1357
  H  H176  1  0.444900  0.185800  0.291200  1.0  0.3935
  C  C177  1  0.962300  0.328600  0.043410  1.0  -0.1524
  C  C178  1  0.929600  0.290000  0.067060  1.0  0.0404
  C  C179  1  0.880100  0.249100  0.052180  1.0  -0.1836
  C  C180  1  0.865600  0.246100  0.014320  1.0  -0.028
  C  C181  1  0.899300  0.284200  0.990850  1.0  -0.0608
  C  C182  1  0.947100  0.325700  0.005580  1.0  -0.0128
  C  C183  1  0.014200  0.372500  0.059740  1.0  0.6975
  C  C184  1  0.886100  0.280500  0.949910  1.0  0.7296
  C  C185  1  0.846200  0.205800  0.076200  1.0  0.7748
  C  C186  1  0.962300  0.828600  0.543410  1.0  -0.1524
  C  C187  1  0.929600  0.790000  0.567060  1.0  0.0404
  C  C188  1  0.880100  0.749100  0.552180  1.0  -0.1836
  C  C189  1  0.865600  0.746100  0.514320  1.0  -0.028
  C  C190  1  0.899300  0.784200  0.490850  1.0  -0.0608
  C  C191  1  0.947100  0.825700  0.505580  1.0  -0.0128
  C  C192  1  0.014200  0.872500  0.559740  1.0  0.6975
  C  C193  1  0.886100  0.780500  0.449910  1.0  0.7296
  C  C194  1  0.846200  0.705800  0.576200  1.0  0.7748
  C  C195  1  0.462300  0.328600  0.543410  1.0  -0.1524
  C  C196  1  0.429600  0.290000  0.567060  1.0  0.0404
  C  C197  1  0.380100  0.249100  0.552180  1.0  -0.1836
  C  C198  1  0.365600  0.246100  0.514320  1.0  -0.028
  C  C199  1  0.399300  0.284200  0.490850  1.0  -0.0608
  C  C200  1  0.447100  0.325700  0.505580  1.0  -0.0128
  C  C201  1  0.514200  0.372500  0.559740  1.0  0.6975
  C  C202  1  0.386100  0.280500  0.449910  1.0  0.7296
  C  C203  1  0.346200  0.205800  0.576200  1.0  0.7748
  C  C204  1  0.462300  0.828600  0.043410  1.0  -0.1524
  C  C205  1  0.429600  0.790000  0.067060  1.0  0.0404
  C  C206  1  0.380100  0.749100  0.052180  1.0  -0.1836
  C  C207  1  0.365600  0.746100  0.014320  1.0  -0.028
  C  C208  1  0.399300  0.784200  0.990850  1.0  -0.0608
  C  C209  1  0.447100  0.825700  0.005580  1.0  -0.0128
  C  C210  1  0.514200  0.872500  0.059740  1.0  0.6975
  C  C211  1  0.386100  0.780500  0.949910  1.0  0.7296
  C  C212  1  0.346200  0.705800  0.076200  1.0  0.7748
  C  C213  1  0.787700  0.421400  0.043410  1.0  -0.1537
  C  C214  1  0.820400  0.460000  0.067060  1.0  0.0401
  C  C215  1  0.869900  0.500900  0.052180  1.0  -0.1818
  C  C216  1  0.884400  0.503900  0.014320  1.0  -0.0306
  C  C217  1  0.850700  0.465800  0.990850  1.0  -0.0623
  C  C218  1  0.802900  0.424300  0.005580  1.0  -0.0165
  C  C219  1  0.735800  0.377500  0.059740  1.0  0.6931
  C  C220  1  0.863900  0.469500  0.949910  1.0  0.7305
  C  C221  1  0.903800  0.544200  0.076200  1.0  0.773
  C  C222  1  0.787700  0.921400  0.543410  1.0  -0.1537
  C  C223  1  0.820400  0.960000  0.567060  1.0  0.0401
  C  C224  1  0.869900  0.000900  0.552180  1.0  -0.1818
  C  C225  1  0.884400  0.003900  0.514320  1.0  -0.0306
  C  C226  1  0.850700  0.965800  0.490850  1.0  -0.0623
  C  C227  1  0.802900  0.924300  0.505580  1.0  -0.0165
  C  C228  1  0.735800  0.877500  0.559740  1.0  0.6931
  C  C229  1  0.863900  0.969500  0.449910  1.0  0.7305
  C  C230  1  0.903800  0.044200  0.576200  1.0  0.773
  C  C231  1  0.287700  0.421400  0.543410  1.0  -0.1537
  C  C232  1  0.320400  0.460000  0.567060  1.0  0.0401
  C  C233  1  0.369900  0.500900  0.552180  1.0  -0.1818
  C  C234  1  0.384400  0.503900  0.514320  1.0  -0.0306
  C  C235  1  0.350700  0.465800  0.490850  1.0  -0.0623
  C  C236  1  0.302900  0.424300  0.505580  1.0  -0.0165
  C  C237  1  0.235800  0.377500  0.559740  1.0  0.6931
  C  C238  1  0.363900  0.469500  0.449910  1.0  0.7305
  C  C239  1  0.403800  0.544200  0.576200  1.0  0.773
  C  C240  1  0.287700  0.921400  0.043410  1.0  -0.1537
  C  C241  1  0.320400  0.960000  0.067060  1.0  0.0401
  C  C242  1  0.369900  0.000900  0.052180  1.0  -0.1818
  C  C243  1  0.384400  0.003900  0.014320  1.0  -0.0306
  C  C244  1  0.350700  0.965800  0.990850  1.0  -0.0623
  C  C245  1  0.302900  0.924300  0.005580  1.0  -0.0165
  C  C246  1  0.235800  0.877500  0.059740  1.0  0.6931
  C  C247  1  0.363900  0.969500  0.949910  1.0  0.7305
  C  C248  1  0.403800  0.044200  0.076200  1.0  0.773
  C  C249  1  0.787700  0.328600  0.706590  1.0  -0.1556
  C  C250  1  0.820400  0.290000  0.682940  1.0  0.0387
  C  C251  1  0.869900  0.249100  0.697820  1.0  -0.1831
  C  C252  1  0.884400  0.246100  0.735680  1.0  -0.0298
  C  C253  1  0.850700  0.284200  0.759150  1.0  -0.0606
  C  C254  1  0.802900  0.325700  0.744420  1.0  -0.0153
  C  C255  1  0.735800  0.372500  0.690260  1.0  0.6943
  C  C256  1  0.863900  0.280500  0.800090  1.0  0.7284
  C  C257  1  0.903800  0.205800  0.673800  1.0  0.7723
  C  C258  1  0.787700  0.828600  0.206590  1.0  -0.1556
  C  C259  1  0.820400  0.790000  0.182940  1.0  0.0387
  C  C260  1  0.869900  0.749100  0.197820  1.0  -0.1831
  C  C261  1  0.884400  0.746100  0.235680  1.0  -0.0298
  C  C262  1  0.850700  0.784200  0.259150  1.0  -0.0606
  C  C263  1  0.802900  0.825700  0.244420  1.0  -0.0153
  C  C264  1  0.735800  0.872500  0.190260  1.0  0.6943
  C  C265  1  0.863900  0.780500  0.300090  1.0  0.7284
  C  C266  1  0.903800  0.705800  0.173800  1.0  0.7723
  C  C267  1  0.287700  0.328600  0.206590  1.0  -0.1556
  C  C268  1  0.320400  0.290000  0.182940  1.0  0.0387
  C  C269  1  0.369900  0.249100  0.197820  1.0  -0.1831
  C  C270  1  0.384400  0.246100  0.235680  1.0  -0.0298
  C  C271  1  0.350700  0.284200  0.259150  1.0  -0.0606
  C  C272  1  0.302900  0.325700  0.244420  1.0  -0.0153
  C  C273  1  0.235800  0.372500  0.190260  1.0  0.6943
  C  C274  1  0.363900  0.280500  0.300090  1.0  0.7284
  C  C275  1  0.403800  0.205800  0.173800  1.0  0.7723
  C  C276  1  0.287700  0.828600  0.706590  1.0  -0.1556
  C  C277  1  0.320400  0.790000  0.682940  1.0  0.0387
  C  C278  1  0.369900  0.749100  0.697820  1.0  -0.1831
  C  C279  1  0.384400  0.746100  0.735680  1.0  -0.0298
  C  C280  1  0.350700  0.784200  0.759150  1.0  -0.0606
  C  C281  1  0.302900  0.825700  0.744420  1.0  -0.0153
  C  C282  1  0.235800  0.872500  0.690260  1.0  0.6943
  C  C283  1  0.363900  0.780500  0.800090  1.0  0.7284
  C  C284  1  0.403800  0.705800  0.673800  1.0  0.7723
  C  C285  1  0.962300  0.421400  0.706590  1.0  -0.1527
  C  C286  1  0.929600  0.460000  0.682940  1.0  0.0383
  C  C287  1  0.880100  0.500900  0.697820  1.0  -0.1824
  C  C288  1  0.865600  0.503900  0.735680  1.0  -0.0303
  C  C289  1  0.899300  0.465800  0.759150  1.0  -0.0623
  C  C290  1  0.947100  0.424300  0.744420  1.0  -0.0136
  C  C291  1  0.014200  0.377500  0.690260  1.0  0.696
  C  C292  1  0.886100  0.469500  0.800090  1.0  0.7307
  C  C293  1  0.846200  0.544200  0.673800  1.0  0.7724
  C  C294  1  0.962300  0.921400  0.206590  1.0  -0.1527
  C  C295  1  0.929600  0.960000  0.182940  1.0  0.0383
  C  C296  1  0.880100  0.000900  0.197820  1.0  -0.1824
  C  C297  1  0.865600  0.003900  0.235680  1.0  -0.0303
  C  C298  1  0.899300  0.965800  0.259150  1.0  -0.0623
  C  C299  1  0.947100  0.924300  0.244420  1.0  -0.0136
  C  C300  1  0.014200  0.877500  0.190260  1.0  0.696
  C  C301  1  0.886100  0.969500  0.300090  1.0  0.7307
  C  C302  1  0.846200  0.044200  0.173800  1.0  0.7724
  C  C303  1  0.462300  0.421400  0.206590  1.0  -0.1527
  C  C304  1  0.429600  0.460000  0.182940  1.0  0.0383
  C  C305  1  0.380100  0.500900  0.197820  1.0  -0.1824
  C  C306  1  0.365600  0.503900  0.235680  1.0  -0.0303
  C  C307  1  0.399300  0.465800  0.259150  1.0  -0.0623
  C  C308  1  0.447100  0.424300  0.244420  1.0  -0.0136
  C  C309  1  0.514200  0.377500  0.190260  1.0  0.696
  C  C310  1  0.386100  0.469500  0.300090  1.0  0.7307
  C  C311  1  0.346200  0.544200  0.173800  1.0  0.7724
  C  C312  1  0.462300  0.921400  0.706590  1.0  -0.1527
  C  C313  1  0.429600  0.960000  0.682940  1.0  0.0383
  C  C314  1  0.380100  0.000900  0.697820  1.0  -0.1824
  C  C315  1  0.365600  0.003900  0.735680  1.0  -0.0303
  C  C316  1  0.399300  0.965800  0.759150  1.0  -0.0623
  C  C317  1  0.447100  0.924300  0.744420  1.0  -0.0136
  C  C318  1  0.514200  0.877500  0.690260  1.0  0.696
  C  C319  1  0.386100  0.969500  0.800090  1.0  0.7307
  C  C320  1  0.346200  0.044200  0.673800  1.0  0.7724
  C  C321  1  0.037700  0.671400  0.956590  1.0  -0.156
  C  C322  1  0.070400  0.710000  0.932940  1.0  0.0376
  C  C323  1  0.119900  0.750900  0.947820  1.0  -0.1817
  C  C324  1  0.134400  0.753900  0.985680  1.0  -0.0308
  C  C325  1  0.100700  0.715800  0.009150  1.0  -0.061
  C  C326  1  0.052900  0.674300  0.994420  1.0  -0.0155
  C  C327  1  0.985800  0.627500  0.940260  1.0  0.6941
  C  C328  1  0.113900  0.719500  0.050090  1.0  0.7283
  C  C329  1  0.153800  0.794200  0.923800  1.0  0.7723
  C  C330  1  0.037700  0.171400  0.456590  1.0  -0.156
  C  C331  1  0.070400  0.210000  0.432940  1.0  0.0376
  C  C332  1  0.119900  0.250900  0.447820  1.0  -0.1817
  C  C333  1  0.134400  0.253900  0.485680  1.0  -0.0308
  C  C334  1  0.100700  0.215800  0.509150  1.0  -0.061
  C  C335  1  0.052900  0.174300  0.494420  1.0  -0.0155
  C  C336  1  0.985800  0.127500  0.440260  1.0  0.6941
  C  C337  1  0.113900  0.219500  0.550090  1.0  0.7283
  C  C338  1  0.153800  0.294200  0.423800  1.0  0.7723
  C  C339  1  0.537700  0.671400  0.456590  1.0  -0.156
  C  C340  1  0.570400  0.710000  0.432940  1.0  0.0376
  C  C341  1  0.619900  0.750900  0.447820  1.0  -0.1817
  C  C342  1  0.634400  0.753900  0.485680  1.0  -0.0308
  C  C343  1  0.600700  0.715800  0.509150  1.0  -0.061
  C  C344  1  0.552900  0.674300  0.494420  1.0  -0.0155
  C  C345  1  0.485800  0.627500  0.440260  1.0  0.6941
  C  C346  1  0.613900  0.719500  0.550090  1.0  0.7283
  C  C347  1  0.653800  0.794200  0.423800  1.0  0.7723
  C  C348  1  0.537700  0.171400  0.956590  1.0  -0.156
  C  C349  1  0.570400  0.210000  0.932940  1.0  0.0376
  C  C350  1  0.619900  0.250900  0.947820  1.0  -0.1817
  C  C351  1  0.634400  0.253900  0.985680  1.0  -0.0308
  C  C352  1  0.600700  0.215800  0.009150  1.0  -0.061
  C  C353  1  0.552900  0.174300  0.994420  1.0  -0.0155
  C  C354  1  0.485800  0.127500  0.940260  1.0  0.6941
  C  C355  1  0.613900  0.219500  0.050090  1.0  0.7283
  C  C356  1  0.653800  0.294200  0.923800  1.0  0.7723
  C  C357  1  0.212300  0.578600  0.956590  1.0  -0.1524
  C  C358  1  0.179600  0.540000  0.932940  1.0  0.0381
  C  C359  1  0.130100  0.499100  0.947820  1.0  -0.1842
  C  C360  1  0.115600  0.496100  0.985680  1.0  -0.0286
  C  C361  1  0.149300  0.534200  0.009150  1.0  -0.0619
  C  C362  1  0.197100  0.575700  0.994420  1.0  -0.0128
  C  C363  1  0.264200  0.622500  0.940260  1.0  0.6969
  C  C364  1  0.136100  0.530500  0.050090  1.0  0.7298
  C  C365  1  0.096200  0.455800  0.923800  1.0  0.7736
  C  C366  1  0.212300  0.078600  0.456590  1.0  -0.1524
  C  C367  1  0.179600  0.040000  0.432940  1.0  0.0381
  C  C368  1  0.130100  0.999100  0.447820  1.0  -0.1842
  C  C369  1  0.115600  0.996100  0.485680  1.0  -0.0286
  C  C370  1  0.149300  0.034200  0.509150  1.0  -0.0619
  C  C371  1  0.197100  0.075700  0.494420  1.0  -0.0128
  C  C372  1  0.264200  0.122500  0.440260  1.0  0.6969
  C  C373  1  0.136100  0.030500  0.550090  1.0  0.7298
  C  C374  1  0.096200  0.955800  0.423800  1.0  0.7736
  C  C375  1  0.712300  0.578600  0.456590  1.0  -0.1524
  C  C376  1  0.679600  0.540000  0.432940  1.0  0.0381
  C  C377  1  0.630100  0.499100  0.447820  1.0  -0.1842
  C  C378  1  0.615600  0.496100  0.485680  1.0  -0.0286
  C  C379  1  0.649300  0.534200  0.509150  1.0  -0.0619
  C  C380  1  0.697100  0.575700  0.494420  1.0  -0.0128
  C  C381  1  0.764200  0.622500  0.440260  1.0  0.6969
  C  C382  1  0.636100  0.530500  0.550090  1.0  0.7298
  C  C383  1  0.596200  0.455800  0.423800  1.0  0.7736
  C  C384  1  0.712300  0.078600  0.956590  1.0  -0.1524
  C  C385  1  0.679600  0.040000  0.932940  1.0  0.0381
  C  C386  1  0.630100  0.999100  0.947820  1.0  -0.1842
  C  C387  1  0.615600  0.996100  0.985680  1.0  -0.0286
  C  C388  1  0.649300  0.034200  0.009150  1.0  -0.0619
  C  C389  1  0.697100  0.075700  0.994420  1.0  -0.0128
  C  C390  1  0.764200  0.122500  0.940260  1.0  0.6969
  C  C391  1  0.636100  0.030500  0.050090  1.0  0.7298
  C  C392  1  0.596200  0.955800  0.923800  1.0  0.7736
  C  C393  1  0.212300  0.671400  0.293410  1.0  -0.1522
  C  C394  1  0.179600  0.710000  0.317060  1.0  0.0411
  C  C395  1  0.130100  0.750900  0.302180  1.0  -0.1846
  C  C396  1  0.115600  0.753900  0.264320  1.0  -0.0303
  C  C397  1  0.149300  0.715800  0.240850  1.0  -0.0601
  C  C398  1  0.197100  0.674300  0.255580  1.0  -0.0139
  C  C399  1  0.264200  0.627500  0.309740  1.0  0.6962
  C  C400  1  0.136100  0.719500  0.199910  1.0  0.7298
  C  C401  1  0.096200  0.794200  0.326200  1.0  0.7732
  C  C402  1  0.212300  0.171400  0.793410  1.0  -0.1522
  C  C403  1  0.179600  0.210000  0.817060  1.0  0.0411
  C  C404  1  0.130100  0.250900  0.802180  1.0  -0.1846
  C  C405  1  0.115600  0.253900  0.764320  1.0  -0.0303
  C  C406  1  0.149300  0.215800  0.740850  1.0  -0.0601
  C  C407  1  0.197100  0.174300  0.755580  1.0  -0.0139
  C  C408  1  0.264200  0.127500  0.809740  1.0  0.6962
  C  C409  1  0.136100  0.219500  0.699910  1.0  0.7298
  C  C410  1  0.096200  0.294200  0.826200  1.0  0.7732
  C  C411  1  0.712300  0.671400  0.793410  1.0  -0.1522
  C  C412  1  0.679600  0.710000  0.817060  1.0  0.0411
  C  C413  1  0.630100  0.750900  0.802180  1.0  -0.1846
  C  C414  1  0.615600  0.753900  0.764320  1.0  -0.0303
  C  C415  1  0.649300  0.715800  0.740850  1.0  -0.0601
  C  C416  1  0.697100  0.674300  0.755580  1.0  -0.0139
  C  C417  1  0.764200  0.627500  0.809740  1.0  0.6962
  C  C418  1  0.636100  0.719500  0.699910  1.0  0.7298
  C  C419  1  0.596200  0.794200  0.826200  1.0  0.7732
  C  C420  1  0.712300  0.171400  0.293410  1.0  -0.1522
  C  C421  1  0.679600  0.210000  0.317060  1.0  0.0411
  C  C422  1  0.630100  0.250900  0.302180  1.0  -0.1846
  C  C423  1  0.615600  0.253900  0.264320  1.0  -0.0303
  C  C424  1  0.649300  0.215800  0.240850  1.0  -0.0601
  C  C425  1  0.697100  0.174300  0.255580  1.0  -0.0139
  C  C426  1  0.764200  0.127500  0.309740  1.0  0.6962
  C  C427  1  0.636100  0.219500  0.199910  1.0  0.7298
  C  C428  1  0.596200  0.294200  0.326200  1.0  0.7732
  C  C429  1  0.037700  0.578600  0.293410  1.0  -0.154
  C  C430  1  0.070400  0.540000  0.317060  1.0  0.0395
  C  C431  1  0.119900  0.499100  0.302180  1.0  -0.1806
  C  C432  1  0.134400  0.496100  0.264320  1.0  -0.0294
  C  C433  1  0.100700  0.534200  0.240850  1.0  -0.0626
  C  C434  1  0.052900  0.575700  0.255580  1.0  -0.0161
  C  C435  1  0.985800  0.622500  0.309740  1.0  0.6943
  C  C436  1  0.113900  0.530500  0.199910  1.0  0.7305
  C  C437  1  0.153800  0.455800  0.326200  1.0  0.7738
  C  C438  1  0.037700  0.078600  0.793410  1.0  -0.154
  C  C439  1  0.070400  0.040000  0.817060  1.0  0.0395
  C  C440  1  0.119900  0.999100  0.802180  1.0  -0.1806
  C  C441  1  0.134400  0.996100  0.764320  1.0  -0.0294
  C  C442  1  0.100700  0.034200  0.740850  1.0  -0.0626
  C  C443  1  0.052900  0.075700  0.755580  1.0  -0.0161
  C  C444  1  0.985800  0.122500  0.809740  1.0  0.6943
  C  C445  1  0.113900  0.030500  0.699910  1.0  0.7305
  C  C446  1  0.153800  0.955800  0.826200  1.0  0.7738
  C  C447  1  0.537700  0.578600  0.793410  1.0  -0.154
  C  C448  1  0.570400  0.540000  0.817060  1.0  0.0395
  C  C449  1  0.619900  0.499100  0.802180  1.0  -0.1806
  C  C450  1  0.634400  0.496100  0.764320  1.0  -0.0294
  C  C451  1  0.600700  0.534200  0.740850  1.0  -0.0626
  C  C452  1  0.552900  0.575700  0.755580  1.0  -0.0161
  C  C453  1  0.485800  0.622500  0.809740  1.0  0.6943
  C  C454  1  0.613900  0.530500  0.699910  1.0  0.7305
  C  C455  1  0.653800  0.455800  0.826200  1.0  0.7738
  C  C456  1  0.537700  0.078600  0.293410  1.0  -0.154
  C  C457  1  0.570400  0.040000  0.317060  1.0  0.0395
  C  C458  1  0.619900  0.999100  0.302180  1.0  -0.1806
  C  C459  1  0.634400  0.996100  0.264320  1.0  -0.0294
  C  C460  1  0.600700  0.034200  0.240850  1.0  -0.0626
  C  C461  1  0.552900  0.075700  0.255580  1.0  -0.0161
  C  C462  1  0.485800  0.122500  0.309740  1.0  0.6943
  C  C463  1  0.613900  0.030500  0.199910  1.0  0.7305
  C  C464  1  0.653800  0.955800  0.326200  1.0  0.7738
  O  O465  1  0.038300  0.373890  0.092040  1.0  -0.4792
  O  O466  1  0.031400  0.409180  0.035830  1.0  -0.4912
  O  O467  1  0.853900  0.239930  0.935480  1.0  -0.5935
  O  O468  1  0.908900  0.319760  0.931430  1.0  -0.6051
  O  O469  1  0.853100  0.212250  0.111330  1.0  -0.6598
  O  O470  1  0.816200  0.166100  0.061340  1.0  -0.5711
  O  O471  1  0.038300  0.873890  0.592040  1.0  -0.4792
  O  O472  1  0.031400  0.909180  0.535830  1.0  -0.4912
  O  O473  1  0.853900  0.739930  0.435480  1.0  -0.5935
  O  O474  1  0.908900  0.819760  0.431430  1.0  -0.6051
  O  O475  1  0.853100  0.712250  0.611330  1.0  -0.6598
  O  O476  1  0.816200  0.666100  0.561340  1.0  -0.5711
  O  O477  1  0.538300  0.373890  0.592040  1.0  -0.4792
  O  O478  1  0.531400  0.409180  0.535830  1.0  -0.4912
  O  O479  1  0.353900  0.239930  0.435480  1.0  -0.5935
  O  O480  1  0.408900  0.319760  0.431430  1.0  -0.6051
  O  O481  1  0.353100  0.212250  0.611330  1.0  -0.6598
  O  O482  1  0.316200  0.166100  0.561340  1.0  -0.5711
  O  O483  1  0.538300  0.873890  0.092040  1.0  -0.4792
  O  O484  1  0.531400  0.909180  0.035830  1.0  -0.4912
  O  O485  1  0.353900  0.739930  0.935480  1.0  -0.5935
  O  O486  1  0.408900  0.819760  0.931430  1.0  -0.6051
  O  O487  1  0.353100  0.712250  0.111330  1.0  -0.6598
  O  O488  1  0.316200  0.666100  0.061340  1.0  -0.5711
  O  O489  1  0.711700  0.376110  0.092040  1.0  -0.4773
  O  O490  1  0.718600  0.340820  0.035830  1.0  -0.493
  O  O491  1  0.896100  0.510070  0.935480  1.0  -0.5941
  O  O492  1  0.841100  0.430240  0.931430  1.0  -0.605
  O  O493  1  0.896900  0.537750  0.111330  1.0  -0.6587
  O  O494  1  0.933800  0.583900  0.061340  1.0  -0.5727
  O  O495  1  0.711700  0.876110  0.592040  1.0  -0.4773
  O  O496  1  0.718600  0.840820  0.535830  1.0  -0.493
  O  O497  1  0.896100  0.010070  0.435480  1.0  -0.5941
  O  O498  1  0.841100  0.930240  0.431430  1.0  -0.605
  O  O499  1  0.896900  0.037750  0.611330  1.0  -0.6587
  O  O500  1  0.933800  0.083900  0.561340  1.0  -0.5727
  O  O501  1  0.211700  0.376110  0.592040  1.0  -0.4773
  O  O502  1  0.218600  0.340820  0.535830  1.0  -0.493
  O  O503  1  0.396100  0.510070  0.435480  1.0  -0.5941
  O  O504  1  0.341100  0.430240  0.431430  1.0  -0.605
  O  O505  1  0.396900  0.537750  0.611330  1.0  -0.6587
  O  O506  1  0.433800  0.583900  0.561340  1.0  -0.5727
  O  O507  1  0.211700  0.876110  0.092040  1.0  -0.4773
  O  O508  1  0.218600  0.840820  0.035830  1.0  -0.493
  O  O509  1  0.396100  0.010070  0.935480  1.0  -0.5941
  O  O510  1  0.341100  0.930240  0.931430  1.0  -0.605
  O  O511  1  0.396900  0.037750  0.111330  1.0  -0.6587
  O  O512  1  0.433800  0.083900  0.061340  1.0  -0.5727
  O  O513  1  0.711700  0.373890  0.657960  1.0  -0.4797
  O  O514  1  0.718600  0.409180  0.714170  1.0  -0.4927
  O  O515  1  0.896100  0.239930  0.814520  1.0  -0.5945
  O  O516  1  0.841100  0.319760  0.818570  1.0  -0.6046
  O  O517  1  0.896900  0.212250  0.638670  1.0  -0.6582
  O  O518  1  0.933800  0.166100  0.688660  1.0  -0.5719
  O  O519  1  0.711700  0.873890  0.157960  1.0  -0.4797
  O  O520  1  0.718600  0.909180  0.214170  1.0  -0.4927
  O  O521  1  0.896100  0.739930  0.314520  1.0  -0.5945
  O  O522  1  0.841100  0.819760  0.318570  1.0  -0.6046
  O  O523  1  0.896900  0.712250  0.138670  1.0  -0.6582
  O  O524  1  0.933800  0.666100  0.188660  1.0  -0.5719
  O  O525  1  0.211700  0.373890  0.157960  1.0  -0.4797
  O  O526  1  0.218600  0.409180  0.214170  1.0  -0.4927
  O  O527  1  0.396100  0.239930  0.314520  1.0  -0.5945
  O  O528  1  0.341100  0.319760  0.318570  1.0  -0.6046
  O  O529  1  0.396900  0.212250  0.138670  1.0  -0.6582
  O  O530  1  0.433800  0.166100  0.188660  1.0  -0.5719
  O  O531  1  0.211700  0.873890  0.657960  1.0  -0.4797
  O  O532  1  0.218600  0.909180  0.714170  1.0  -0.4927
  O  O533  1  0.396100  0.739930  0.814520  1.0  -0.5945
  O  O534  1  0.341100  0.819760  0.818570  1.0  -0.6046
  O  O535  1  0.396900  0.712250  0.638670  1.0  -0.6582
  O  O536  1  0.433800  0.666100  0.688660  1.0  -0.5719
  O  O537  1  0.038300  0.376110  0.657960  1.0  -0.478
  O  O538  1  0.031400  0.340820  0.714170  1.0  -0.4903
  O  O539  1  0.853900  0.510070  0.814520  1.0  -0.5944
  O  O540  1  0.908900  0.430240  0.818570  1.0  -0.6031
  O  O541  1  0.853100  0.537750  0.638670  1.0  -0.6592
  O  O542  1  0.816200  0.583900  0.688660  1.0  -0.5726
  O  O543  1  0.038300  0.876110  0.157960  1.0  -0.478
  O  O544  1  0.031400  0.840820  0.214170  1.0  -0.4903
  O  O545  1  0.853900  0.010070  0.314520  1.0  -0.5944
  O  O546  1  0.908900  0.930240  0.318570  1.0  -0.6031
  O  O547  1  0.853100  0.037750  0.138670  1.0  -0.6592
  O  O548  1  0.816200  0.083900  0.188660  1.0  -0.5726
  O  O549  1  0.538300  0.376110  0.157960  1.0  -0.478
  O  O550  1  0.531400  0.340820  0.214170  1.0  -0.4903
  O  O551  1  0.353900  0.510070  0.314520  1.0  -0.5944
  O  O552  1  0.408900  0.430240  0.318570  1.0  -0.6031
  O  O553  1  0.353100  0.537750  0.138670  1.0  -0.6592
  O  O554  1  0.316200  0.583900  0.188660  1.0  -0.5726
  O  O555  1  0.538300  0.876110  0.657960  1.0  -0.478
  O  O556  1  0.531400  0.840820  0.714170  1.0  -0.4903
  O  O557  1  0.353900  0.010070  0.814520  1.0  -0.5944
  O  O558  1  0.408900  0.930240  0.818570  1.0  -0.6031
  O  O559  1  0.353100  0.037750  0.638670  1.0  -0.6592
  O  O560  1  0.316200  0.083900  0.688660  1.0  -0.5726
  O  O561  1  0.961700  0.626110  0.907960  1.0  -0.4795
  O  O562  1  0.968600  0.590820  0.964170  1.0  -0.493
  O  O563  1  0.146100  0.760070  0.064520  1.0  -0.5934
  O  O564  1  0.091100  0.680240  0.068570  1.0  -0.6046
  O  O565  1  0.146900  0.787750  0.888670  1.0  -0.6587
  O  O566  1  0.183800  0.833900  0.938660  1.0  -0.5737
  O  O567  1  0.961700  0.126110  0.407960  1.0  -0.4795
  O  O568  1  0.968600  0.090820  0.464170  1.0  -0.493
  O  O569  1  0.146100  0.260070  0.564520  1.0  -0.5934
  O  O570  1  0.091100  0.180240  0.568570  1.0  -0.6046
  O  O571  1  0.146900  0.287750  0.388670  1.0  -0.6587
  O  O572  1  0.183800  0.333900  0.438660  1.0  -0.5737
  O  O573  1  0.461700  0.626110  0.407960  1.0  -0.4795
  O  O574  1  0.468600  0.590820  0.464170  1.0  -0.493
  O  O575  1  0.646100  0.760070  0.564520  1.0  -0.5934
  O  O576  1  0.591100  0.680240  0.568570  1.0  -0.6046
  O  O577  1  0.646900  0.787750  0.388670  1.0  -0.6587
  O  O578  1  0.683800  0.833900  0.438660  1.0  -0.5737
  O  O579  1  0.461700  0.126110  0.907960  1.0  -0.4795
  O  O580  1  0.468600  0.090820  0.964170  1.0  -0.493
  O  O581  1  0.646100  0.260070  0.064520  1.0  -0.5934
  O  O582  1  0.591100  0.180240  0.068570  1.0  -0.6046
  O  O583  1  0.646900  0.287750  0.888670  1.0  -0.6587
  O  O584  1  0.683800  0.333900  0.938660  1.0  -0.5737
  O  O585  1  0.288300  0.623890  0.907960  1.0  -0.478
  O  O586  1  0.281400  0.659180  0.964170  1.0  -0.4901
  O  O587  1  0.103900  0.489930  0.064520  1.0  -0.5948
  O  O588  1  0.158900  0.569760  0.068570  1.0  -0.6027
  O  O589  1  0.103100  0.462250  0.888670  1.0  -0.6589
  O  O590  1  0.066200  0.416100  0.938660  1.0  -0.5718
  O  O591  1  0.288300  0.123890  0.407960  1.0  -0.478
  O  O592  1  0.281400  0.159180  0.464170  1.0  -0.4901
  O  O593  1  0.103900  0.989930  0.564520  1.0  -0.5948
  O  O594  1  0.158900  0.069760  0.568570  1.0  -0.6027
  O  O595  1  0.103100  0.962250  0.388670  1.0  -0.6589
  O  O596  1  0.066200  0.916100  0.438660  1.0  -0.5718
  O  O597  1  0.788300  0.623890  0.407960  1.0  -0.478
  O  O598  1  0.781400  0.659180  0.464170  1.0  -0.4901
  O  O599  1  0.603900  0.489930  0.564520  1.0  -0.5948
  O  O600  1  0.658900  0.569760  0.568570  1.0  -0.6027
  O  O601  1  0.603100  0.462250  0.388670  1.0  -0.6589
  O  O602  1  0.566200  0.416100  0.438660  1.0  -0.5718
  O  O603  1  0.788300  0.123890  0.907960  1.0  -0.478
  O  O604  1  0.781400  0.159180  0.964170  1.0  -0.4901
  O  O605  1  0.603900  0.989930  0.064520  1.0  -0.5948
  O  O606  1  0.658900  0.069760  0.068570  1.0  -0.6027
  O  O607  1  0.603100  0.962250  0.888670  1.0  -0.6589
  O  O608  1  0.566200  0.916100  0.938660  1.0  -0.5718
  O  O609  1  0.288300  0.626110  0.342040  1.0  -0.4789
  O  O610  1  0.281400  0.590820  0.285830  1.0  -0.4901
  O  O611  1  0.103900  0.760070  0.185480  1.0  -0.5939
  O  O612  1  0.158900  0.680240  0.181430  1.0  -0.6052
  O  O613  1  0.103100  0.787750  0.361330  1.0  -0.6603
  O  O614  1  0.066200  0.833900  0.311340  1.0  -0.5718
  O  O615  1  0.288300  0.126110  0.842040  1.0  -0.4789
  O  O616  1  0.281400  0.090820  0.785830  1.0  -0.4901
  O  O617  1  0.103900  0.260070  0.685480  1.0  -0.5939
  O  O618  1  0.158900  0.180240  0.681430  1.0  -0.6052
  O  O619  1  0.103100  0.287750  0.861330  1.0  -0.6603
  O  O620  1  0.066200  0.333900  0.811340  1.0  -0.5718
  O  O621  1  0.788300  0.626110  0.842040  1.0  -0.4789
  O  O622  1  0.781400  0.590820  0.785830  1.0  -0.4901
  O  O623  1  0.603900  0.760070  0.685480  1.0  -0.5939
  O  O624  1  0.658900  0.680240  0.681430  1.0  -0.6052
  O  O625  1  0.603100  0.787750  0.861330  1.0  -0.6603
  O  O626  1  0.566200  0.833900  0.811340  1.0  -0.5718
  O  O627  1  0.788300  0.126110  0.342040  1.0  -0.4789
  O  O628  1  0.781400  0.090820  0.285830  1.0  -0.4901
  O  O629  1  0.603900  0.260070  0.185480  1.0  -0.5939
  O  O630  1  0.658900  0.180240  0.181430  1.0  -0.6052
  O  O631  1  0.603100  0.287750  0.361330  1.0  -0.6603
  O  O632  1  0.566200  0.333900  0.311340  1.0  -0.5718
  O  O633  1  0.961700  0.623890  0.342040  1.0  -0.4774
  O  O634  1  0.968600  0.659180  0.285830  1.0  -0.4939
  O  O635  1  0.146100  0.489930  0.185480  1.0  -0.5946
  O  O636  1  0.091100  0.569760  0.181430  1.0  -0.6051
  O  O637  1  0.146900  0.462250  0.361330  1.0  -0.6579
  O  O638  1  0.183800  0.416100  0.311340  1.0  -0.572
  O  O639  1  0.961700  0.123890  0.842040  1.0  -0.4774
  O  O640  1  0.968600  0.159180  0.785830  1.0  -0.4939
  O  O641  1  0.146100  0.989930  0.685480  1.0  -0.5946
  O  O642  1  0.091100  0.069760  0.681430  1.0  -0.6051
  O  O643  1  0.146900  0.962250  0.861330  1.0  -0.6579
  O  O644  1  0.183800  0.916100  0.811340  1.0  -0.572
  O  O645  1  0.461700  0.623890  0.842040  1.0  -0.4774
  O  O646  1  0.468600  0.659180  0.785830  1.0  -0.4939
  O  O647  1  0.646100  0.489930  0.685480  1.0  -0.5946
  O  O648  1  0.591100  0.569760  0.681430  1.0  -0.6051
  O  O649  1  0.646900  0.462250  0.861330  1.0  -0.6579
  O  O650  1  0.683800  0.416100  0.811340  1.0  -0.572
  O  O651  1  0.461700  0.123890  0.342040  1.0  -0.4774
  O  O652  1  0.468600  0.159180  0.285830  1.0  -0.4939
  O  O653  1  0.646100  0.989930  0.185480  1.0  -0.5946
  O  O654  1  0.591100  0.069760  0.181430  1.0  -0.6051
  O  O655  1  0.646900  0.962250  0.361330  1.0  -0.6579
  O  O656  1  0.683800  0.916100  0.311340  1.0  -0.572
