# generated using pymatgen
data_Cd5H19C35N11O17
_symmetry_space_group_name_H-M   'P 1'
_cell_length_a   11.31970000
_cell_length_b   11.31970000
_cell_length_c   37.35400000
_cell_angle_alpha   90.00000000
_cell_angle_beta   90.00000000
_cell_angle_gamma   94.47070000
_symmetry_Int_Tables_number   1
_chemical_formula_structural   Cd5H19C35N11O17
_chemical_formula_sum   'Cd20 H76 C140 N44 O68'
_cell_volume   4771.81411776
_cell_formula_units_Z   4
loop_
 _symmetry_equiv_pos_site_id
 _symmetry_equiv_pos_as_xyz
  1  'x, y, z'
loop_
 _atom_site_type_symbol
 _atom_site_label
 _atom_site_symmetry_multiplicity
 _atom_site_fract_x
 _atom_site_fract_y
 _atom_site_fract_z
 _atom_site_occupancy
 _atom_site_charge
  Cd  Cd1  1  0.098020  0.693220  0.352100  1.0  1.0449
  Cd  Cd2  1  0.382210  0.979350  0.335690  1.0  1.019
  Cd  Cd3  1  0.401980  0.806780  0.852100  1.0  1.0449
  Cd  Cd4  1  0.117790  0.520650  0.835690  1.0  1.0184
  Cd  Cd5  1  0.193220  0.598020  0.147900  1.0  1.0437
  Cd  Cd6  1  0.479350  0.882210  0.164310  1.0  1.0186
  Cd  Cd7  1  0.306780  0.901980  0.647900  1.0  1.0444
  Cd  Cd8  1  0.020650  0.617790  0.664310  1.0  1.0183
  Cd  Cd9  1  0.901980  0.306780  0.647900  1.0  1.0449
  Cd  Cd10  1  0.617790  0.020650  0.664310  1.0  1.0183
  Cd  Cd11  1  0.598020  0.193220  0.147900  1.0  1.0447
  Cd  Cd12  1  0.882210  0.479350  0.164310  1.0  1.0188
  Cd  Cd13  1  0.806780  0.401980  0.852100  1.0  1.0445
  Cd  Cd14  1  0.520650  0.117790  0.835690  1.0  1.0185
  Cd  Cd15  1  0.693220  0.098020  0.352100  1.0  1.0439
  Cd  Cd16  1  0.979350  0.382210  0.335690  1.0  1.0188
  Cd  Cd17  1  0.538420  0.538420  0.348860  1.0  1.1485
  Cd  Cd18  1  0.961580  0.961580  0.848860  1.0  1.1481
  Cd  Cd19  1  0.038420  0.038420  0.151140  1.0  1.1489
  Cd  Cd20  1  0.461580  0.461580  0.651140  1.0  1.1483
  H  H21  1  0.243900  0.582900  0.420200  1.0  0.1092
  H  H22  1  0.979400  0.784800  0.421000  1.0  0.071
  H  H23  1  0.227000  0.559000  0.482300  1.0  0.1216
  H  H24  1  0.962900  0.769700  0.483100  1.0  0.1346
  H  H25  1  0.210900  0.562300  0.600400  1.0  0.097
  H  H26  1  0.225300  0.560900  0.538300  1.0  0.1307
  H  H27  1  0.920100  0.728100  0.593500  1.0  0.0825
  H  H28  1  0.934100  0.734500  0.532300  1.0  0.1233
  H  H29  1  0.256100  0.917100  0.920200  1.0  0.1096
  H  H30  1  0.520600  0.715200  0.921000  1.0  0.071
  H  H31  1  0.273000  0.941000  0.982300  1.0  0.1222
  H  H32  1  0.537100  0.730300  0.983100  1.0  0.1347
  H  H33  1  0.289100  0.937700  0.100400  1.0  0.0969
  H  H34  1  0.274700  0.939100  0.038300  1.0  0.1314
  H  H35  1  0.579900  0.771900  0.093500  1.0  0.0827
  H  H36  1  0.565900  0.765500  0.032300  1.0  0.1232
  H  H37  1  0.082900  0.743900  0.079800  1.0  0.1091
  H  H38  1  0.284800  0.479400  0.079000  1.0  0.0714
  H  H39  1  0.059000  0.727000  0.017700  1.0  0.1224
  H  H40  1  0.269700  0.462900  0.016900  1.0  0.1339
  H  H41  1  0.062300  0.710900  0.899600  1.0  0.0968
  H  H42  1  0.060900  0.725300  0.961700  1.0  0.1308
  H  H43  1  0.228100  0.420100  0.906500  1.0  0.0828
  H  H44  1  0.234500  0.434100  0.967700  1.0  0.1238
  H  H45  1  0.417100  0.756100  0.579800  1.0  0.1095
  H  H46  1  0.215200  0.020600  0.579000  1.0  0.0709
  H  H47  1  0.441000  0.773000  0.517700  1.0  0.1211
  H  H48  1  0.230300  0.037100  0.516900  1.0  0.1342
  H  H49  1  0.437700  0.789100  0.399600  1.0  0.0965
  H  H50  1  0.439100  0.774700  0.461700  1.0  0.1305
  H  H51  1  0.271900  0.079900  0.406500  1.0  0.0826
  H  H52  1  0.265500  0.065900  0.467700  1.0  0.1237
  H  H53  1  0.756100  0.417100  0.579800  1.0  0.1092
  H  H54  1  0.020600  0.215200  0.579000  1.0  0.0715
  H  H55  1  0.773000  0.441000  0.517700  1.0  0.1226
  H  H56  1  0.037100  0.230300  0.516900  1.0  0.1344
  H  H57  1  0.789100  0.437700  0.399600  1.0  0.097
  H  H58  1  0.774700  0.439100  0.461700  1.0  0.131
  H  H59  1  0.079900  0.271900  0.406500  1.0  0.0827
  H  H60  1  0.065900  0.265500  0.467700  1.0  0.1235
  H  H61  1  0.743900  0.082900  0.079800  1.0  0.1092
  H  H62  1  0.479400  0.284800  0.079000  1.0  0.0712
  H  H63  1  0.727000  0.059000  0.017700  1.0  0.1217
  H  H64  1  0.462900  0.269700  0.016900  1.0  0.1346
  H  H65  1  0.710900  0.062300  0.899600  1.0  0.0969
  H  H66  1  0.725300  0.060900  0.961700  1.0  0.1304
  H  H67  1  0.420100  0.228100  0.906500  1.0  0.0826
  H  H68  1  0.434100  0.234500  0.967700  1.0  0.1235
  H  H69  1  0.917100  0.256100  0.920200  1.0  0.1095
  H  H70  1  0.715200  0.520600  0.921000  1.0  0.0708
  H  H71  1  0.941000  0.273000  0.982300  1.0  0.121
  H  H72  1  0.730300  0.537100  0.983100  1.0  0.1345
  H  H73  1  0.937700  0.289100  0.100400  1.0  0.0966
  H  H74  1  0.939100  0.274700  0.038300  1.0  0.1306
  H  H75  1  0.771900  0.579900  0.093500  1.0  0.0825
  H  H76  1  0.765500  0.565900  0.032300  1.0  0.1236
  H  H77  1  0.582900  0.243900  0.420200  1.0  0.1095
  H  H78  1  0.784800  0.979400  0.421000  1.0  0.071
  H  H79  1  0.559000  0.227000  0.482300  1.0  0.1222
  H  H80  1  0.769700  0.962900  0.483100  1.0  0.134
  H  H81  1  0.562300  0.210900  0.600400  1.0  0.0965
  H  H82  1  0.560900  0.225300  0.538300  1.0  0.1313
  H  H83  1  0.728100  0.920100  0.593500  1.0  0.0828
  H  H84  1  0.734500  0.934100  0.532300  1.0  0.1234
  H  H85  1  0.515200  0.015200  0.250000  1.0  0.1003
  H  H86  1  0.984800  0.484800  0.750000  1.0  0.0996
  H  H87  1  0.484800  0.984800  0.750000  1.0  0.0996
  H  H88  1  0.015200  0.515200  0.250000  1.0  0.1003
  H  H89  1  0.983600  0.983600  0.357200  1.0  0.1081
  H  H90  1  0.101100  0.101100  0.325200  1.0  0.1177
  H  H91  1  0.516400  0.516400  0.857200  1.0  0.1076
  H  H92  1  0.398900  0.398900  0.825200  1.0  0.1188
  H  H93  1  0.483600  0.483600  0.142800  1.0  0.108
  H  H94  1  0.601100  0.601100  0.174800  1.0  0.1177
  H  H95  1  0.016400  0.016400  0.642800  1.0  0.1077
  H  H96  1  0.898900  0.898900  0.674800  1.0  0.1182
  C  C97  1  0.224200  0.779000  0.294900  1.0  0.6863
  C  C98  1  0.307900  0.830900  0.267200  1.0  0.0637
  C  C99  1  0.822800  0.614400  0.343400  1.0  0.6951
  C  C100  1  0.830800  0.743000  0.347700  1.0  0.0511
  C  C101  1  0.461700  0.251700  0.353000  1.0  0.6345
  C  C102  1  0.334500  0.249500  0.345400  1.0  0.0832
  C  C103  1  0.184700  0.620900  0.432800  1.0  0.1467
  C  C104  1  0.032700  0.738100  0.433200  1.0  0.2
  C  C105  1  0.096500  0.660900  0.488900  1.0  0.0469
  C  C106  1  0.083200  0.653200  0.528800  1.0  0.0128
  C  C107  1  0.175100  0.607700  0.470200  1.0  -0.1302
  C  C108  1  0.020900  0.729100  0.470700  1.0  -0.2083
  C  C109  1  0.152000  0.596800  0.586700  1.0  0.1575
  C  C110  1  0.162500  0.598300  0.549400  1.0  -0.1449
  C  C111  1  0.984700  0.693300  0.582600  1.0  0.1783
  C  C112  1  0.992900  0.698500  0.545700  1.0  -0.1857
  C  C113  1  0.275800  0.721000  0.794900  1.0  0.6877
  C  C114  1  0.192100  0.669100  0.767200  1.0  0.0638
  C  C115  1  0.677200  0.885600  0.843400  1.0  0.6949
  C  C116  1  0.669200  0.757000  0.847700  1.0  0.0509
  C  C117  1  0.038300  0.248300  0.853000  1.0  0.6347
  C  C118  1  0.165500  0.250500  0.845400  1.0  0.0824
  C  C119  1  0.315300  0.879100  0.932800  1.0  0.1458
  C  C120  1  0.467300  0.761900  0.933200  1.0  0.1988
  C  C121  1  0.403500  0.839100  0.988900  1.0  0.0473
  C  C122  1  0.416800  0.846800  0.028800  1.0  0.0129
  C  C123  1  0.324900  0.892300  0.970200  1.0  -0.1317
  C  C124  1  0.479100  0.770900  0.970700  1.0  -0.2069
  C  C125  1  0.348000  0.903200  0.086700  1.0  0.1575
  C  C126  1  0.337500  0.901700  0.049400  1.0  -0.1457
  C  C127  1  0.515300  0.806700  0.082600  1.0  0.1778
  C  C128  1  0.507100  0.801500  0.045700  1.0  -0.1849
  C  C129  1  0.279000  0.724200  0.205100  1.0  0.6861
  C  C130  1  0.330900  0.807900  0.232800  1.0  0.0638
  C  C131  1  0.114400  0.322800  0.156600  1.0  0.6931
  C  C132  1  0.243000  0.330800  0.152300  1.0  0.0503
  C  C133  1  0.751700  0.961700  0.147000  1.0  0.6315
  C  C134  1  0.749500  0.834500  0.154600  1.0  0.0827
  C  C135  1  0.120900  0.684700  0.067200  1.0  0.1435
  C  C136  1  0.238100  0.532700  0.066800  1.0  0.1994
  C  C137  1  0.160900  0.596500  0.011100  1.0  0.0462
  C  C138  1  0.153200  0.583200  0.971200  1.0  0.0132
  C  C139  1  0.107700  0.675100  0.029800  1.0  -0.1311
  C  C140  1  0.229100  0.520900  0.029300  1.0  -0.2078
  C  C141  1  0.096800  0.652000  0.913300  1.0  0.1578
  C  C142  1  0.098300  0.662500  0.950600  1.0  -0.1464
  C  C143  1  0.193300  0.484700  0.917400  1.0  0.176
  C  C144  1  0.198500  0.492900  0.954300  1.0  -0.1864
  C  C145  1  0.221000  0.775800  0.705100  1.0  0.6866
  C  C146  1  0.169100  0.692100  0.732800  1.0  0.0647
  C  C147  1  0.385600  0.177200  0.656600  1.0  0.6941
  C  C148  1  0.257000  0.169200  0.652300  1.0  0.0511
  C  C149  1  0.748300  0.538300  0.647000  1.0  0.6324
  C  C150  1  0.750500  0.665500  0.654600  1.0  0.083
  C  C151  1  0.379100  0.815300  0.567200  1.0  0.144
  C  C152  1  0.261900  0.967300  0.566800  1.0  0.2001
  C  C153  1  0.339100  0.903500  0.511100  1.0  0.0465
  C  C154  1  0.346800  0.916800  0.471200  1.0  0.0133
  C  C155  1  0.392300  0.824900  0.529800  1.0  -0.1308
  C  C156  1  0.270900  0.979100  0.529300  1.0  -0.2089
  C  C157  1  0.403200  0.848000  0.413300  1.0  0.1582
  C  C158  1  0.401700  0.837500  0.450600  1.0  -0.1453
  C  C159  1  0.306700  0.015300  0.417400  1.0  0.1775
  C  C160  1  0.301500  0.007100  0.454300  1.0  -0.1869
  C  C161  1  0.775800  0.221000  0.705100  1.0  0.6864
  C  C162  1  0.692100  0.169100  0.732800  1.0  0.0632
  C  C163  1  0.177200  0.385600  0.656600  1.0  0.6944
  C  C164  1  0.169200  0.257000  0.652300  1.0  0.0505
  C  C165  1  0.538300  0.748300  0.647000  1.0  0.6331
  C  C166  1  0.665500  0.750500  0.654600  1.0  0.0824
  C  C167  1  0.815300  0.379100  0.567200  1.0  0.1453
  C  C168  1  0.967300  0.261900  0.566800  1.0  0.1993
  C  C169  1  0.903500  0.339100  0.511100  1.0  0.0471
  C  C170  1  0.916800  0.346800  0.471200  1.0  0.0134
  C  C171  1  0.824900  0.392300  0.529800  1.0  -0.1316
  C  C172  1  0.979100  0.270900  0.529300  1.0  -0.207
  C  C173  1  0.848000  0.403200  0.413300  1.0  0.158
  C  C174  1  0.837500  0.401700  0.450600  1.0  -0.1451
  C  C175  1  0.015300  0.306700  0.417400  1.0  0.1773
  C  C176  1  0.007100  0.301500  0.454300  1.0  -0.1849
  C  C177  1  0.724200  0.279000  0.205100  1.0  0.6844
  C  C178  1  0.807900  0.330900  0.232800  1.0  0.063
  C  C179  1  0.322800  0.114400  0.156600  1.0  0.6942
  C  C180  1  0.330800  0.243000  0.152300  1.0  0.051
  C  C181  1  0.961700  0.751700  0.147000  1.0  0.6329
  C  C182  1  0.834500  0.749500  0.154600  1.0  0.0827
  C  C183  1  0.684700  0.120900  0.067200  1.0  0.1463
  C  C184  1  0.532700  0.238100  0.066800  1.0  0.1996
  C  C185  1  0.596500  0.160900  0.011100  1.0  0.047
  C  C186  1  0.583200  0.153200  0.971200  1.0  0.0132
  C  C187  1  0.675100  0.107700  0.029800  1.0  -0.1306
  C  C188  1  0.520900  0.229100  0.029300  1.0  -0.2083
  C  C189  1  0.652000  0.096800  0.913300  1.0  0.1576
  C  C190  1  0.662500  0.098300  0.950600  1.0  -0.1442
  C  C191  1  0.484700  0.193300  0.917400  1.0  0.1782
  C  C192  1  0.492900  0.198500  0.954300  1.0  -0.1855
  C  C193  1  0.721000  0.275800  0.794900  1.0  0.6879
  C  C194  1  0.669100  0.192100  0.767200  1.0  0.065
  C  C195  1  0.885600  0.677200  0.843400  1.0  0.6948
  C  C196  1  0.757000  0.669200  0.847700  1.0  0.052
  C  C197  1  0.248300  0.038300  0.853000  1.0  0.634
  C  C198  1  0.250500  0.165500  0.845400  1.0  0.0826
  C  C199  1  0.879100  0.315300  0.932800  1.0  0.1442
  C  C200  1  0.761900  0.467300  0.933200  1.0  0.2003
  C  C201  1  0.839100  0.403500  0.988900  1.0  0.0466
  C  C202  1  0.846800  0.416800  0.028800  1.0  0.0129
  C  C203  1  0.892300  0.324900  0.970200  1.0  -0.1304
  C  C204  1  0.770900  0.479100  0.970700  1.0  -0.2088
  C  C205  1  0.903200  0.348000  0.086700  1.0  0.1582
  C  C206  1  0.901700  0.337500  0.049400  1.0  -0.1458
  C  C207  1  0.806700  0.515300  0.082600  1.0  0.1777
  C  C208  1  0.801500  0.507100  0.045700  1.0  -0.1867
  C  C209  1  0.779000  0.224200  0.294900  1.0  0.6878
  C  C210  1  0.830900  0.307900  0.267200  1.0  0.0644
  C  C211  1  0.614400  0.822800  0.343400  1.0  0.6934
  C  C212  1  0.743000  0.830800  0.347700  1.0  0.0507
  C  C213  1  0.251700  0.461700  0.353000  1.0  0.6329
  C  C214  1  0.249500  0.334500  0.345400  1.0  0.083
  C  C215  1  0.620900  0.184700  0.432800  1.0  0.144
  C  C216  1  0.738100  0.032700  0.433200  1.0  0.1994
  C  C217  1  0.660900  0.096500  0.488900  1.0  0.0462
  C  C218  1  0.653200  0.083200  0.528800  1.0  0.0127
  C  C219  1  0.607700  0.175100  0.470200  1.0  -0.131
  C  C220  1  0.729100  0.020900  0.470700  1.0  -0.2076
  C  C221  1  0.596800  0.152000  0.586700  1.0  0.1573
  C  C222  1  0.598300  0.162500  0.549400  1.0  -0.1468
  C  C223  1  0.693300  0.984700  0.582600  1.0  0.1765
  C  C224  1  0.698500  0.992900  0.545700  1.0  -0.1864
  C  C225  1  0.453400  0.953400  0.250000  1.0  0.318
  C  C226  1  0.046600  0.546600  0.750000  1.0  0.3192
  C  C227  1  0.546600  0.046600  0.750000  1.0  0.3192
  C  C228  1  0.953400  0.453400  0.250000  1.0  0.318
  C  C229  1  0.922200  0.922200  0.354200  1.0  0.2582
  C  C230  1  0.161200  0.161200  0.331100  1.0  0.2887
  C  C231  1  0.577800  0.577800  0.854200  1.0  0.2592
  C  C232  1  0.338800  0.338800  0.831100  1.0  0.2885
  C  C233  1  0.422200  0.422200  0.145800  1.0  0.2589
  C  C234  1  0.661200  0.661200  0.168900  1.0  0.2888
  C  C235  1  0.077800  0.077800  0.645800  1.0  0.2594
  C  C236  1  0.838800  0.838800  0.668900  1.0  0.2895
  N  N237  1  0.386100  0.924700  0.279200  1.0  -0.447
  N  N238  1  0.939600  0.804400  0.351800  1.0  -0.3361
  N  N239  1  0.277000  0.146200  0.336100  1.0  -0.3093
  N  N240  1  0.108600  0.688400  0.414300  1.0  -0.3444
  N  N241  1  0.060400  0.643000  0.603900  1.0  -0.3509
  N  N242  1  0.113900  0.575300  0.779200  1.0  -0.4465
  N  N243  1  0.560400  0.695600  0.851800  1.0  -0.3393
  N  N244  1  0.223000  0.353800  0.836100  1.0  -0.3128
  N  N245  1  0.391400  0.811600  0.914300  1.0  -0.3445
  N  N246  1  0.439600  0.857000  0.103900  1.0  -0.351
  N  N247  1  0.424700  0.886100  0.220800  1.0  -0.4467
  N  N248  1  0.304400  0.439600  0.148200  1.0  -0.3373
  N  N249  1  0.646200  0.777000  0.163900  1.0  -0.3118
  N  N250  1  0.188400  0.608600  0.085700  1.0  -0.3503
  N  N251  1  0.143000  0.560400  0.896100  1.0  -0.351
  N  N252  1  0.075300  0.613900  0.720800  1.0  -0.446
  N  N253  1  0.195600  0.060400  0.648200  1.0  -0.3363
  N  N254  1  0.853800  0.723000  0.663900  1.0  -0.3106
  N  N255  1  0.311600  0.891400  0.585700  1.0  -0.3485
  N  N256  1  0.357000  0.939600  0.396100  1.0  -0.3505
  N  N257  1  0.613900  0.075300  0.720800  1.0  -0.4466
  N  N258  1  0.060400  0.195600  0.648200  1.0  -0.3403
  N  N259  1  0.723000  0.853800  0.663900  1.0  -0.3124
  N  N260  1  0.891400  0.311600  0.585700  1.0  -0.3487
  N  N261  1  0.939600  0.357000  0.396100  1.0  -0.3497
  N  N262  1  0.886100  0.424700  0.220800  1.0  -0.4478
  N  N263  1  0.439600  0.304400  0.148200  1.0  -0.3364
  N  N264  1  0.777000  0.646200  0.163900  1.0  -0.3092
  N  N265  1  0.608600  0.188400  0.085700  1.0  -0.3485
  N  N266  1  0.560400  0.143000  0.896100  1.0  -0.35
  N  N267  1  0.575300  0.113900  0.779200  1.0  -0.4465
  N  N268  1  0.695600  0.560400  0.851800  1.0  -0.3357
  N  N269  1  0.353800  0.223000  0.836100  1.0  -0.3112
  N  N270  1  0.811600  0.391400  0.914300  1.0  -0.3458
  N  N271  1  0.857000  0.439600  0.103900  1.0  -0.3521
  N  N272  1  0.924700  0.386100  0.279200  1.0  -0.4461
  N  N273  1  0.804400  0.939600  0.351800  1.0  -0.3371
  N  N274  1  0.146200  0.277000  0.336100  1.0  -0.311
  N  N275  1  0.688400  0.108600  0.414300  1.0  -0.3461
  N  N276  1  0.643000  0.060400  0.603900  1.0  -0.3518
  N  N277  1  0.700000  0.700000  0.480700  1.0  0.7464
  N  N278  1  0.800000  0.800000  0.980700  1.0  0.7473
  N  N279  1  0.200000  0.200000  0.019300  1.0  0.747
  N  N280  1  0.300000  0.300000  0.519300  1.0  0.7479
  O  O281  1  0.236500  0.821500  0.327000  1.0  -0.6374
  O  O282  1  0.151000  0.694200  0.288200  1.0  -0.6136
  O  O283  1  0.927600  0.579400  0.343900  1.0  -0.6739
  O  O284  1  0.731500  0.548300  0.339800  1.0  -0.6888
  O  O285  1  0.526700  0.343900  0.361300  1.0  -0.6786
  O  O286  1  0.515500  0.147300  0.351500  1.0  -0.6834
  O  O287  1  0.263500  0.678500  0.827000  1.0  -0.6369
  O  O288  1  0.349000  0.805800  0.788200  1.0  -0.6115
  O  O289  1  0.572400  0.920600  0.843900  1.0  -0.6744
  O  O290  1  0.768500  0.951700  0.839800  1.0  -0.6891
  O  O291  1  0.973300  0.156100  0.861300  1.0  -0.6784
  O  O292  1  0.984500  0.352700  0.851500  1.0  -0.6847
  O  O293  1  0.321500  0.736500  0.173000  1.0  -0.6381
  O  O294  1  0.194200  0.651000  0.211800  1.0  -0.6117
  O  O295  1  0.079400  0.427600  0.156100  1.0  -0.6746
  O  O296  1  0.048300  0.231500  0.160200  1.0  -0.685
  O  O297  1  0.843900  0.026700  0.138700  1.0  -0.6794
  O  O298  1  0.647300  0.015500  0.148500  1.0  -0.6854
  O  O299  1  0.178500  0.763500  0.673000  1.0  -0.6368
  O  O300  1  0.305800  0.849000  0.711800  1.0  -0.6116
  O  O301  1  0.420600  0.072400  0.656100  1.0  -0.6749
  O  O302  1  0.451700  0.268500  0.660200  1.0  -0.6859
  O  O303  1  0.656100  0.473300  0.638700  1.0  -0.6799
  O  O304  1  0.852700  0.484500  0.648500  1.0  -0.6865
  O  O305  1  0.763500  0.178500  0.673000  1.0  -0.6385
  O  O306  1  0.849000  0.305800  0.711800  1.0  -0.6108
  O  O307  1  0.072400  0.420600  0.656100  1.0  -0.6761
  O  O308  1  0.268500  0.451700  0.660200  1.0  -0.6888
  O  O309  1  0.473300  0.656100  0.638700  1.0  -0.6776
  O  O310  1  0.484500  0.852700  0.648500  1.0  -0.6841
  O  O311  1  0.736500  0.321500  0.173000  1.0  -0.6385
  O  O312  1  0.651000  0.194200  0.211800  1.0  -0.6122
  O  O313  1  0.427600  0.079400  0.156100  1.0  -0.6749
  O  O314  1  0.231500  0.048300  0.160200  1.0  -0.6887
  O  O315  1  0.026700  0.843900  0.138700  1.0  -0.6782
  O  O316  1  0.015500  0.647300  0.148500  1.0  -0.6831
  O  O317  1  0.678500  0.263500  0.827000  1.0  -0.6355
  O  O318  1  0.805800  0.349000  0.788200  1.0  -0.6124
  O  O319  1  0.920600  0.572400  0.843900  1.0  -0.6755
  O  O320  1  0.951700  0.768500  0.839800  1.0  -0.6861
  O  O321  1  0.156100  0.973300  0.861300  1.0  -0.6802
  O  O322  1  0.352700  0.984500  0.851500  1.0  -0.6853
  O  O323  1  0.821500  0.236500  0.327000  1.0  -0.6364
  O  O324  1  0.694200  0.151000  0.288200  1.0  -0.6131
  O  O325  1  0.579400  0.927600  0.343900  1.0  -0.6747
  O  O326  1  0.548300  0.731500  0.339800  1.0  -0.6859
  O  O327  1  0.343900  0.526700  0.361300  1.0  -0.6799
  O  O328  1  0.147300  0.515500  0.351500  1.0  -0.6843
  O  O329  1  0.570000  0.570000  0.407500  1.0  -0.2151
  O  O330  1  0.496700  0.496700  0.290500  1.0  -0.2184
  O  O331  1  0.930000  0.930000  0.907500  1.0  -0.2143
  O  O332  1  0.003300  0.003300  0.790500  1.0  -0.2181
  O  O333  1  0.070000  0.070000  0.092500  1.0  -0.2156
  O  O334  1  0.996700  0.996700  0.209500  1.0  -0.2196
  O  O335  1  0.430000  0.430000  0.592500  1.0  -0.2143
  O  O336  1  0.503300  0.503300  0.709500  1.0  -0.2195
  O  O337  1  0.616000  0.616000  0.486200  1.0  -0.5523
  O  O338  1  0.746100  0.746100  0.505500  1.0  -0.5087
  O  O339  1  0.728300  0.728300  0.447700  1.0  -0.4837
  O  O340  1  0.884000  0.884000  0.986200  1.0  -0.5532
  O  O341  1  0.753900  0.753900  0.005500  1.0  -0.5084
  O  O342  1  0.771700  0.771700  0.947700  1.0  -0.4842
  O  O343  1  0.116000  0.116000  0.013800  1.0  -0.554
  O  O344  1  0.246100  0.246100  0.994500  1.0  -0.5108
  O  O345  1  0.228300  0.228300  0.052300  1.0  -0.4844
  O  O346  1  0.384000  0.384000  0.513800  1.0  -0.5535
  O  O347  1  0.253900  0.253900  0.494500  1.0  -0.5097
  O  O348  1  0.271700  0.271700  0.552300  1.0  -0.4853
