# generated using pymatgen
data_Cd8H37C65(N9O10)2
_symmetry_space_group_name_H-M   'P 1'
_cell_length_a   19.37400000
_cell_length_b   14.88740000
_cell_length_c   15.37210000
_cell_angle_alpha   90.00000000
_cell_angle_beta   111.75300000
_cell_angle_gamma   90.00000000
_symmetry_Int_Tables_number   1
_chemical_formula_structural   Cd8H37C65(N9O10)2
_chemical_formula_sum   'Cd16 H74 C130 N36 O40'
_cell_volume   4118.02476783
_cell_formula_units_Z   2
loop_
 _symmetry_equiv_pos_site_id
 _symmetry_equiv_pos_as_xyz
  1  'x, y, z'
loop_
 _atom_site_type_symbol
 _atom_site_label
 _atom_site_symmetry_multiplicity
 _atom_site_fract_x
 _atom_site_fract_y
 _atom_site_fract_z
 _atom_site_occupancy
 _atom_site_charge
  Cd  Cd1  1  0.818090  0.086630  0.178340  1.0  1.0205
  Cd  Cd2  1  0.819360  0.316360  0.544570  1.0  1.0133
  Cd  Cd3  1  0.180330  0.181170  0.745320  1.0  1.0266
  Cd  Cd4  1  0.815540  0.419390  0.113640  1.0  1.0191
  Cd  Cd5  1  0.181910  0.086630  0.321660  1.0  1.0203
  Cd  Cd6  1  0.180640  0.316360  0.955430  1.0  1.0095
  Cd  Cd7  1  0.819670  0.181170  0.754680  1.0  1.0289
  Cd  Cd8  1  0.184460  0.419390  0.386360  1.0  1.0186
  Cd  Cd9  1  0.181910  0.913370  0.821660  1.0  1.0201
  Cd  Cd10  1  0.180640  0.683640  0.455430  1.0  1.0095
  Cd  Cd11  1  0.819670  0.818830  0.254680  1.0  1.029
  Cd  Cd12  1  0.184460  0.580610  0.886360  1.0  1.0189
  Cd  Cd13  1  0.818090  0.913370  0.678340  1.0  1.0202
  Cd  Cd14  1  0.819360  0.683640  0.044570  1.0  1.0133
  Cd  Cd15  1  0.180330  0.818830  0.245320  1.0  1.0267
  Cd  Cd16  1  0.815540  0.580610  0.613640  1.0  1.0189
  H  H17  1  0.803200  0.273700  0.316800  1.0  0.075
  H  H18  1  0.811200  0.227000  0.970000  1.0  0.0862
  H  H19  1  0.694700  0.384500  0.620400  1.0  0.0701
  H  H20  1  0.570500  0.413000  0.585600  1.0  0.1262
  H  H21  1  0.526300  0.296400  0.337000  1.0  0.1189
  H  H22  1  0.654300  0.282100  0.374500  1.0  0.0864
  H  H23  1  0.461000  0.356600  0.571600  1.0  0.1326
  H  H24  1  0.333600  0.375700  0.536800  1.0  0.0822
  H  H25  1  0.296700  0.412800  0.270300  1.0  0.0909
  H  H26  1  0.420700  0.397600  0.294500  1.0  0.1299
  H  H27  1  0.345000  0.226500  0.732900  1.0  0.0714
  H  H28  1  0.473000  0.205100  0.807100  1.0  0.1307
  H  H29  1  0.429300  0.083000  0.015000  1.0  0.1057
  H  H30  1  0.304500  0.099000  0.931600  1.0  0.1072
  H  H31  1  0.579800  0.108400  0.869400  1.0  0.0883
  H  H32  1  0.702500  0.088400  0.955400  1.0  0.1066
  H  H33  1  0.665200  0.130900  0.186300  1.0  0.0787
  H  H34  1  0.541500  0.147800  0.104900  1.0  0.1238
  H  H35  1  0.196800  0.273700  0.183200  1.0  0.0746
  H  H36  1  0.188800  0.227000  0.530000  1.0  0.086
  H  H37  1  0.305300  0.384500  0.879600  1.0  0.0702
  H  H38  1  0.429500  0.413000  0.914400  1.0  0.1261
  H  H39  1  0.473700  0.296400  0.163000  1.0  0.1197
  H  H40  1  0.345700  0.282100  0.125500  1.0  0.0872
  H  H41  1  0.539000  0.356600  0.928400  1.0  0.1326
  H  H42  1  0.666400  0.375700  0.963200  1.0  0.0827
  H  H43  1  0.703300  0.412800  0.229700  1.0  0.0909
  H  H44  1  0.579300  0.397600  0.205500  1.0  0.1298
  H  H45  1  0.655000  0.226500  0.767100  1.0  0.0712
  H  H46  1  0.527000  0.205100  0.692900  1.0  0.1308
  H  H47  1  0.570700  0.083000  0.485000  1.0  0.1061
  H  H48  1  0.695500  0.099000  0.568400  1.0  0.1061
  H  H49  1  0.420200  0.108400  0.630600  1.0  0.0876
  H  H50  1  0.297500  0.088400  0.544600  1.0  0.1069
  H  H51  1  0.334800  0.130900  0.313700  1.0  0.0796
  H  H52  1  0.458500  0.147800  0.395100  1.0  0.1237
  H  H53  1  0.196800  0.726300  0.683200  1.0  0.0749
  H  H54  1  0.188800  0.773000  0.030000  1.0  0.0862
  H  H55  1  0.305300  0.615500  0.379600  1.0  0.0698
  H  H56  1  0.429500  0.587000  0.414400  1.0  0.1261
  H  H57  1  0.473700  0.703600  0.663000  1.0  0.1196
  H  H58  1  0.345700  0.717900  0.625500  1.0  0.087
  H  H59  1  0.539000  0.643400  0.428400  1.0  0.1326
  H  H60  1  0.666400  0.624300  0.463200  1.0  0.0827
  H  H61  1  0.703300  0.587200  0.729700  1.0  0.091
  H  H62  1  0.579300  0.602400  0.705500  1.0  0.1297
  H  H63  1  0.655000  0.773500  0.267100  1.0  0.0714
  H  H64  1  0.527000  0.794900  0.192900  1.0  0.1308
  H  H65  1  0.570700  0.917000  0.985000  1.0  0.1059
  H  H66  1  0.695500  0.901000  0.068400  1.0  0.1064
  H  H67  1  0.420200  0.891600  0.130600  1.0  0.0877
  H  H68  1  0.297500  0.911600  0.044600  1.0  0.1068
  H  H69  1  0.334800  0.869100  0.813700  1.0  0.0797
  H  H70  1  0.458500  0.852200  0.895100  1.0  0.1236
  H  H71  1  0.803200  0.726300  0.816800  1.0  0.0745
  H  H72  1  0.811200  0.773000  0.470000  1.0  0.0864
  H  H73  1  0.694700  0.615500  0.120400  1.0  0.0703
  H  H74  1  0.570500  0.587000  0.085600  1.0  0.1264
  H  H75  1  0.526300  0.703600  0.837000  1.0  0.1191
  H  H76  1  0.654300  0.717900  0.874500  1.0  0.0862
  H  H77  1  0.461000  0.643400  0.071600  1.0  0.1328
  H  H78  1  0.333600  0.624300  0.036800  1.0  0.0818
  H  H79  1  0.296700  0.587200  0.770300  1.0  0.0909
  H  H80  1  0.420700  0.602400  0.794500  1.0  0.1296
  H  H81  1  0.345000  0.773500  0.232900  1.0  0.0714
  H  H82  1  0.473000  0.794900  0.307100  1.0  0.1306
  H  H83  1  0.429300  0.917000  0.515000  1.0  0.1054
  H  H84  1  0.304500  0.901000  0.431600  1.0  0.107
  H  H85  1  0.579800  0.891600  0.369400  1.0  0.0883
  H  H86  1  0.702500  0.911600  0.455400  1.0  0.1064
  H  H87  1  0.665200  0.869100  0.686300  1.0  0.0788
  H  H88  1  0.541500  0.852200  0.604900  1.0  0.1236
  H  H89  1  0.000000  0.004100  0.250000  1.0  0.1321
  H  H90  1  0.000000  0.995900  0.750000  1.0  0.134
  C  C91  1  0.825200  0.099500  0.556000  1.0  0.7218
  C  C92  1  0.819600  0.123500  0.461900  1.0  -0.0236
  C  C93  1  0.813800  0.077500  0.381400  1.0  0.0373
  C  C94  1  0.816800  0.981000  0.357900  1.0  0.6242
  C  C95  1  0.807600  0.218700  0.349900  1.0  0.2901
  C  C96  1  0.828800  0.398800  0.747500  1.0  0.7266
  C  C97  1  0.823200  0.374700  0.837200  1.0  -0.0093
  C  C98  1  0.820500  0.423500  0.913900  1.0  -0.0014
  C  C99  1  0.822400  0.519700  0.936700  1.0  0.6486
  C  C100  1  0.813900  0.281700  0.939400  1.0  0.2953
  C  C101  1  0.904900  0.272300  0.195100  1.0  0.6489
  C  C102  1  0.959400  0.205400  0.227800  1.0  0.122
  C  C103  1  0.660600  0.369200  0.559600  1.0  0.2012
  C  C104  1  0.586400  0.385000  0.540700  1.0  -0.201
  C  C105  1  0.536900  0.359400  0.456200  1.0  0.043
  C  C106  1  0.560500  0.318400  0.395000  1.0  -0.19
  C  C107  1  0.637100  0.308800  0.418900  1.0  0.1642
  C  C108  1  0.455300  0.372200  0.434600  1.0  0.0456
  C  C109  1  0.428200  0.367700  0.509100  1.0  -0.1893
  C  C110  1  0.351900  0.380300  0.487500  1.0  0.1761
  C  C111  1  0.331100  0.402200  0.332100  1.0  0.1623
  C  C112  1  0.404700  0.391600  0.345500  1.0  -0.2064
  C  C113  1  0.362700  0.195700  0.791200  1.0  0.1824
  C  C114  1  0.439800  0.184500  0.835200  1.0  -0.21
  C  C115  1  0.465200  0.142400  0.921200  1.0  0.0766
  C  C116  1  0.413000  0.112100  0.955800  1.0  -0.1572
  C  C117  1  0.339000  0.122900  0.907000  1.0  0.1472
  C  C118  1  0.546300  0.131400  0.974500  1.0  0.1182
  C  C119  1  0.596400  0.113200  0.935700  1.0  -0.1465
  C  C120  1  0.669600  0.101500  0.986700  1.0  0.1352
  C  C121  1  0.647300  0.125700  0.120000  1.0  0.1781
  C  C122  1  0.574000  0.136600  0.072500  1.0  -0.2069
  C  C123  1  0.174800  0.099500  0.944000  1.0  0.7209
  C  C124  1  0.180400  0.123500  0.038100  1.0  -0.0218
  C  C125  1  0.186200  0.077500  0.118600  1.0  0.038
  C  C126  1  0.183200  0.981000  0.142100  1.0  0.6247
  C  C127  1  0.192400  0.218700  0.150100  1.0  0.2912
  C  C128  1  0.171200  0.398800  0.752500  1.0  0.7273
  C  C129  1  0.176800  0.374700  0.662800  1.0  -0.0091
  C  C130  1  0.179500  0.423500  0.586100  1.0  -0.0007
  C  C131  1  0.177600  0.519700  0.563300  1.0  0.6476
  C  C132  1  0.186100  0.281700  0.560600  1.0  0.2951
  C  C133  1  0.095100  0.272300  0.304900  1.0  0.6477
  C  C134  1  0.040600  0.205400  0.272200  1.0  0.1217
  C  C135  1  0.339400  0.369200  0.940400  1.0  0.2016
  C  C136  1  0.413600  0.385000  0.959300  1.0  -0.1994
  C  C137  1  0.463100  0.359400  0.043800  1.0  0.0436
  C  C138  1  0.439500  0.318400  0.105000  1.0  -0.1903
  C  C139  1  0.362900  0.308800  0.081100  1.0  0.163
  C  C140  1  0.544700  0.372200  0.065400  1.0  0.0463
  C  C141  1  0.571800  0.367700  0.990900  1.0  -0.1885
  C  C142  1  0.648100  0.380300  0.012500  1.0  0.1764
  C  C143  1  0.668900  0.402200  0.167900  1.0  0.1629
  C  C144  1  0.595300  0.391600  0.154500  1.0  -0.2066
  C  C145  1  0.637300  0.195700  0.708800  1.0  0.184
  C  C146  1  0.560200  0.184500  0.664800  1.0  -0.2094
  C  C147  1  0.534800  0.142400  0.578800  1.0  0.0777
  C  C148  1  0.587000  0.112100  0.544200  1.0  -0.1576
  C  C149  1  0.661000  0.122900  0.593000  1.0  0.1465
  C  C150  1  0.453700  0.131400  0.525500  1.0  0.1184
  C  C151  1  0.403600  0.113200  0.564300  1.0  -0.1435
  C  C152  1  0.330400  0.101500  0.513300  1.0  0.1345
  C  C153  1  0.352700  0.125700  0.380000  1.0  0.1771
  C  C154  1  0.426000  0.136600  0.427500  1.0  -0.2052
  C  C155  1  0.174800  0.900500  0.444000  1.0  0.7209
  C  C156  1  0.180400  0.876500  0.538100  1.0  -0.0219
  C  C157  1  0.186200  0.922500  0.618600  1.0  0.0382
  C  C158  1  0.183200  0.019000  0.642100  1.0  0.6236
  C  C159  1  0.192400  0.781300  0.650100  1.0  0.2905
  C  C160  1  0.171200  0.601200  0.252500  1.0  0.7272
  C  C161  1  0.176800  0.625300  0.162800  1.0  -0.0087
  C  C162  1  0.179500  0.576500  0.086100  1.0  -0.0011
  C  C163  1  0.177600  0.480300  0.063300  1.0  0.6472
  C  C164  1  0.186100  0.718300  0.060600  1.0  0.2949
  C  C165  1  0.095100  0.727700  0.804900  1.0  0.6474
  C  C166  1  0.040600  0.794600  0.772200  1.0  0.1219
  C  C167  1  0.339400  0.630800  0.440400  1.0  0.202
  C  C168  1  0.413600  0.615000  0.459300  1.0  -0.1993
  C  C169  1  0.463100  0.640600  0.543800  1.0  0.0437
  C  C170  1  0.439500  0.681600  0.605000  1.0  -0.1907
  C  C171  1  0.362900  0.691200  0.581100  1.0  0.1629
  C  C172  1  0.544700  0.627800  0.565400  1.0  0.0463
  C  C173  1  0.571800  0.632300  0.490900  1.0  -0.1885
  C  C174  1  0.648100  0.619700  0.512500  1.0  0.1764
  C  C175  1  0.668900  0.597800  0.667900  1.0  0.1629
  C  C176  1  0.595300  0.608400  0.654500  1.0  -0.2063
  C  C177  1  0.637300  0.804300  0.208800  1.0  0.184
  C  C178  1  0.560200  0.815500  0.164800  1.0  -0.2092
  C  C179  1  0.534800  0.857600  0.078800  1.0  0.0778
  C  C180  1  0.587000  0.887900  0.044200  1.0  -0.1577
  C  C181  1  0.661000  0.877100  0.093000  1.0  0.1466
  C  C182  1  0.453700  0.868600  0.025500  1.0  0.1184
  C  C183  1  0.403600  0.886800  0.064300  1.0  -0.1439
  C  C184  1  0.330400  0.898500  0.013300  1.0  0.1343
  C  C185  1  0.352700  0.874300  0.880000  1.0  0.1775
  C  C186  1  0.426000  0.863400  0.927500  1.0  -0.2053
  C  C187  1  0.825200  0.900500  0.056000  1.0  0.7213
  C  C188  1  0.819600  0.876500  0.961900  1.0  -0.0241
  C  C189  1  0.813800  0.922500  0.881400  1.0  0.0363
  C  C190  1  0.816800  0.019000  0.857900  1.0  0.6229
  C  C191  1  0.807600  0.781300  0.849900  1.0  0.2897
  C  C192  1  0.828800  0.601200  0.247500  1.0  0.7264
  C  C193  1  0.823200  0.625300  0.337200  1.0  -0.0087
  C  C194  1  0.820500  0.576500  0.413900  1.0  -0.0011
  C  C195  1  0.822400  0.480300  0.436700  1.0  0.6487
  C  C196  1  0.813900  0.718300  0.439400  1.0  0.2946
  C  C197  1  0.904900  0.727700  0.695100  1.0  0.6488
  C  C198  1  0.959400  0.794600  0.727800  1.0  0.1224
  C  C199  1  0.660600  0.630800  0.059600  1.0  0.2017
  C  C200  1  0.586400  0.615000  0.040700  1.0  -0.2006
  C  C201  1  0.536900  0.640600  0.956200  1.0  0.0429
  C  C202  1  0.560500  0.681600  0.895000  1.0  -0.1904
  C  C203  1  0.637100  0.691200  0.918900  1.0  0.1644
  C  C204  1  0.455300  0.627800  0.934600  1.0  0.0457
  C  C205  1  0.428200  0.632300  0.009100  1.0  -0.1891
  C  C206  1  0.351900  0.619700  0.987500  1.0  0.1763
  C  C207  1  0.331100  0.597800  0.832100  1.0  0.1619
  C  C208  1  0.404700  0.608400  0.845500  1.0  -0.206
  C  C209  1  0.362700  0.804300  0.291200  1.0  0.1826
  C  C210  1  0.439800  0.815500  0.335200  1.0  -0.2101
  C  C211  1  0.465200  0.857600  0.421200  1.0  0.0765
  C  C212  1  0.413000  0.887900  0.455800  1.0  -0.1576
  C  C213  1  0.339000  0.877100  0.407000  1.0  0.1471
  C  C214  1  0.546300  0.868600  0.474500  1.0  0.1182
  C  C215  1  0.596400  0.886800  0.435700  1.0  -0.1469
  C  C216  1  0.669600  0.898500  0.486700  1.0  0.135
  C  C217  1  0.647300  0.874300  0.620000  1.0  0.1785
  C  C218  1  0.574000  0.863400  0.572500  1.0  -0.2069
  C  C219  1  0.000000  0.067900  0.250000  1.0  0.2889
  C  C220  1  0.000000  0.932100  0.750000  1.0  0.2882
  N  N221  1  0.814700  0.215800  0.437900  1.0  -0.4569
  N  N222  1  0.806900  0.139400  0.309900  1.0  -0.4364
  N  N223  1  0.818500  0.285100  0.856200  1.0  -0.4381
  N  N224  1  0.813400  0.363900  0.977300  1.0  -0.4535
  N  N225  1  0.936400  0.120900  0.216500  1.0  -0.3924
  N  N226  1  0.687800  0.335400  0.501700  1.0  -0.3322
  N  N227  1  0.304600  0.398200  0.402900  1.0  -0.3503
  N  N228  1  0.313500  0.167200  0.823900  1.0  -0.3572
  N  N229  1  0.696800  0.108000  0.080500  1.0  -0.3562
  N  N230  1  0.185300  0.215800  0.062100  1.0  -0.4583
  N  N231  1  0.193100  0.139400  0.190100  1.0  -0.4355
  N  N232  1  0.181500  0.285100  0.643800  1.0  -0.4348
  N  N233  1  0.186600  0.363900  0.522700  1.0  -0.4525
  N  N234  1  0.063600  0.120900  0.283500  1.0  -0.3931
  N  N235  1  0.312200  0.335400  0.998300  1.0  -0.3299
  N  N236  1  0.695400  0.398200  0.097100  1.0  -0.3508
  N  N237  1  0.686500  0.167200  0.676100  1.0  -0.3593
  N  N238  1  0.303200  0.108000  0.419500  1.0  -0.3563
  N  N239  1  0.185300  0.784200  0.562100  1.0  -0.4581
  N  N240  1  0.193100  0.860600  0.690100  1.0  -0.4355
  N  N241  1  0.181500  0.714900  0.143800  1.0  -0.4332
  N  N242  1  0.186600  0.636100  0.022700  1.0  -0.4524
  N  N243  1  0.063600  0.879100  0.783500  1.0  -0.3944
  N  N244  1  0.312200  0.664600  0.498300  1.0  -0.3298
  N  N245  1  0.695400  0.601800  0.597100  1.0  -0.3506
  N  N246  1  0.686500  0.832800  0.176100  1.0  -0.3588
  N  N247  1  0.303200  0.892000  0.919500  1.0  -0.3561
  N  N248  1  0.814700  0.784200  0.937900  1.0  -0.4572
  N  N249  1  0.806900  0.860600  0.809900  1.0  -0.4365
  N  N250  1  0.818500  0.714900  0.356200  1.0  -0.4367
  N  N251  1  0.813400  0.636100  0.477300  1.0  -0.4535
  N  N252  1  0.936400  0.879100  0.716500  1.0  -0.3939
  N  N253  1  0.687800  0.664600  0.001700  1.0  -0.332
  N  N254  1  0.304600  0.601800  0.902900  1.0  -0.3506
  N  N255  1  0.313500  0.832800  0.323900  1.0  -0.3574
  N  N256  1  0.696800  0.892000  0.580500  1.0  -0.3561
  O  O257  1  0.828300  0.019200  0.577800  1.0  -0.6895
  O  O258  1  0.828100  0.164600  0.611000  1.0  -0.738
  O  O259  1  0.816400  0.920400  0.409400  1.0  -0.627
  O  O260  1  0.819800  0.967200  0.277600  1.0  -0.697
  O  O261  1  0.828900  0.333900  0.694400  1.0  -0.7054
  O  O262  1  0.834800  0.480000  0.728800  1.0  -0.7086
  O  O263  1  0.825900  0.579900  0.886600  1.0  -0.5629
  O  O264  1  0.822500  0.536200  0.018700  1.0  -0.7016
  O  O265  1  0.838900  0.251400  0.157400  1.0  -0.684
  O  O266  1  0.922800  0.356500  0.201900  1.0  -0.6185
  O  O267  1  0.171700  0.019200  0.922200  1.0  -0.6923
  O  O268  1  0.171900  0.164600  0.889000  1.0  -0.7385
  O  O269  1  0.183600  0.920400  0.090600  1.0  -0.6268
  O  O270  1  0.180200  0.967200  0.222400  1.0  -0.6962
  O  O271  1  0.171100  0.333900  0.805600  1.0  -0.7069
  O  O272  1  0.165200  0.480000  0.771200  1.0  -0.7078
  O  O273  1  0.174100  0.579900  0.613400  1.0  -0.5625
  O  O274  1  0.177500  0.536200  0.481300  1.0  -0.7015
  O  O275  1  0.161100  0.251400  0.342600  1.0  -0.6867
  O  O276  1  0.077200  0.356500  0.298100  1.0  -0.6212
  O  O277  1  0.171700  0.980800  0.422200  1.0  -0.6916
  O  O278  1  0.171900  0.835400  0.389000  1.0  -0.7399
  O  O279  1  0.183600  0.079600  0.590600  1.0  -0.6282
  O  O280  1  0.180200  0.032800  0.722400  1.0  -0.6968
  O  O281  1  0.171100  0.666100  0.305600  1.0  -0.7064
  O  O282  1  0.165200  0.520000  0.271200  1.0  -0.7072
  O  O283  1  0.174100  0.420100  0.113400  1.0  -0.5627
  O  O284  1  0.177500  0.463800  0.981300  1.0  -0.7006
  O  O285  1  0.161100  0.748600  0.842600  1.0  -0.6871
  O  O286  1  0.077200  0.643500  0.798100  1.0  -0.6205
  O  O287  1  0.828300  0.980800  0.077800  1.0  -0.6891
  O  O288  1  0.828100  0.835400  0.111000  1.0  -0.7358
  O  O289  1  0.816400  0.079600  0.909400  1.0  -0.6277
  O  O290  1  0.819800  0.032800  0.777600  1.0  -0.6967
  O  O291  1  0.828900  0.666100  0.194400  1.0  -0.7047
  O  O292  1  0.834800  0.520000  0.228800  1.0  -0.7092
  O  O293  1  0.825900  0.420100  0.386600  1.0  -0.5617
  O  O294  1  0.822500  0.463800  0.518700  1.0  -0.6995
  O  O295  1  0.838900  0.748600  0.657400  1.0  -0.6841
  O  O296  1  0.922800  0.643500  0.701900  1.0  -0.6214
