# generated using pymatgen
data_Cu2C5N2
_symmetry_space_group_name_H-M   'P 1'
_cell_length_a   14.33840000
_cell_length_b   13.35220000
_cell_length_c   12.34440000
_cell_angle_alpha   90.00000000
_cell_angle_beta   90.00000000
_cell_angle_gamma   90.00000000
_symmetry_Int_Tables_number   1
_chemical_formula_structural   Cu2C5N2
_chemical_formula_sum   'Cu16 C40 N16'
_cell_volume   2363.32531289
_cell_formula_units_Z   8
loop_
 _symmetry_equiv_pos_site_id
 _symmetry_equiv_pos_as_xyz
  1  'x, y, z'
loop_
 _atom_site_type_symbol
 _atom_site_label
 _atom_site_symmetry_multiplicity
 _atom_site_fract_x
 _atom_site_fract_y
 _atom_site_fract_z
 _atom_site_occupancy
 _atom_site_charge
  Cu  Cu1  1  0.445660  0.437380  0.961040  1.0  0.4469
  Cu  Cu2  1  0.378180  0.443570  0.363430  1.0  0.4687
  Cu  Cu3  1  0.054340  0.562620  0.461040  1.0  0.4471
  Cu  Cu4  1  0.121820  0.556430  0.863430  1.0  0.4691
  Cu  Cu5  1  0.554340  0.937380  0.038960  1.0  0.448
  Cu  Cu6  1  0.621820  0.943570  0.636570  1.0  0.469
  Cu  Cu7  1  0.945660  0.062620  0.538960  1.0  0.4458
  Cu  Cu8  1  0.878180  0.056430  0.136570  1.0  0.4683
  Cu  Cu9  1  0.554340  0.562620  0.038960  1.0  0.4471
  Cu  Cu10  1  0.621820  0.556430  0.636570  1.0  0.4688
  Cu  Cu11  1  0.945660  0.437380  0.538960  1.0  0.4471
  Cu  Cu12  1  0.878180  0.443570  0.136570  1.0  0.4684
  Cu  Cu13  1  0.445660  0.062620  0.961040  1.0  0.4458
  Cu  Cu14  1  0.378180  0.056430  0.363430  1.0  0.4685
  Cu  Cu15  1  0.054340  0.937380  0.461040  1.0  0.4477
  Cu  Cu16  1  0.121820  0.943570  0.863430  1.0  0.4693
  C  C17  1  0.458100  0.485600  0.130200  1.0  -0.0231
  C  C18  1  0.318900  0.470900  0.919200  1.0  0.0857
  C  C19  1  0.472400  0.487900  0.468500  1.0  0.0141
  C  C20  1  0.364600  0.294600  0.365000  1.0  -0.0909
  C  C21  1  0.468900  0.293300  0.959100  1.0  -0.0314
  C  C22  1  0.041900  0.514400  0.630200  1.0  -0.0224
  C  C23  1  0.181100  0.529100  0.419200  1.0  0.0843
  C  C24  1  0.027600  0.512100  0.968500  1.0  0.0127
  C  C25  1  0.135400  0.705400  0.865000  1.0  -0.0894
  C  C26  1  0.031100  0.706700  0.459100  1.0  -0.0311
  C  C27  1  0.541900  0.985600  0.869800  1.0  -0.0237
  C  C28  1  0.681100  0.970900  0.080800  1.0  0.0846
  C  C29  1  0.527600  0.987900  0.531500  1.0  0.0131
  C  C30  1  0.635400  0.794600  0.635000  1.0  -0.0901
  C  C31  1  0.531100  0.793300  0.040900  1.0  -0.0317
  C  C32  1  0.958100  0.014400  0.369800  1.0  -0.0234
  C  C33  1  0.818900  0.029100  0.580800  1.0  0.0846
  C  C34  1  0.972400  0.012100  0.031500  1.0  0.0135
  C  C35  1  0.864600  0.205400  0.135000  1.0  -0.0894
  C  C36  1  0.968900  0.206700  0.540900  1.0  -0.0316
  C  C37  1  0.541900  0.514400  0.869800  1.0  -0.0303
  C  C38  1  0.681100  0.529100  0.080800  1.0  0.0853
  C  C39  1  0.527600  0.512100  0.531500  1.0  0.0129
  C  C40  1  0.635400  0.705400  0.635000  1.0  -0.0892
  C  C41  1  0.531100  0.706700  0.040900  1.0  -0.0311
  C  C42  1  0.958100  0.485600  0.369800  1.0  -0.0305
  C  C43  1  0.818900  0.470900  0.580800  1.0  0.0861
  C  C44  1  0.972400  0.487900  0.031500  1.0  0.014
  C  C45  1  0.864600  0.294600  0.135000  1.0  -0.0906
  C  C46  1  0.968900  0.293300  0.540900  1.0  -0.0314
  C  C47  1  0.458100  0.014400  0.130200  1.0  -0.0295
  C  C48  1  0.318900  0.029100  0.919200  1.0  0.0864
  C  C49  1  0.472400  0.012100  0.468500  1.0  0.0138
  C  C50  1  0.364600  0.205400  0.365000  1.0  -0.0897
  C  C51  1  0.468900  0.206700  0.959100  1.0  -0.0307
  C  C52  1  0.041900  0.985600  0.630200  1.0  -0.0295
  C  C53  1  0.181100  0.970900  0.419200  1.0  0.0859
  C  C54  1  0.027600  0.987900  0.968500  1.0  0.0129
  C  C55  1  0.135400  0.794600  0.865000  1.0  -0.0906
  C  C56  1  0.031100  0.793300  0.459100  1.0  -0.0308
  N  N57  1  0.425000  0.471200  0.211500  1.0  -0.4593
  N  N58  1  0.245400  0.495100  0.893300  1.0  -0.4067
  N  N59  1  0.075000  0.528800  0.711500  1.0  -0.4595
  N  N60  1  0.254600  0.504900  0.393300  1.0  -0.4056
  N  N61  1  0.575000  0.971200  0.788500  1.0  -0.4619
  N  N62  1  0.754600  0.995100  0.106700  1.0  -0.4059
  N  N63  1  0.925000  0.028800  0.288500  1.0  -0.4609
  N  N64  1  0.745400  0.004900  0.606700  1.0  -0.4068
  N  N65  1  0.575000  0.528800  0.788500  1.0  -0.4615
  N  N66  1  0.754600  0.504900  0.106700  1.0  -0.4059
  N  N67  1  0.925000  0.471200  0.288500  1.0  -0.461
  N  N68  1  0.745400  0.495100  0.606700  1.0  -0.4071
  N  N69  1  0.425000  0.028800  0.211500  1.0  -0.4591
  N  N70  1  0.245400  0.004900  0.893300  1.0  -0.4064
  N  N71  1  0.075000  0.971200  0.711500  1.0  -0.46
  N  N72  1  0.254600  0.995100  0.393300  1.0  -0.4057
