# generated using pymatgen
data_CuC2N
_symmetry_space_group_name_H-M   'P 1'
_cell_length_a   8.19530000
_cell_length_b   7.55770000
_cell_length_c   13.45930000
_cell_angle_alpha   90.00000000
_cell_angle_beta   90.00000000
_cell_angle_gamma   90.00000000
_symmetry_Int_Tables_number   1
_chemical_formula_structural   CuC2N
_chemical_formula_sum   'Cu8 C16 N8'
_cell_volume   833.63699285
_cell_formula_units_Z   8
loop_
 _symmetry_equiv_pos_site_id
 _symmetry_equiv_pos_as_xyz
  1  'x, y, z'
loop_
 _atom_site_type_symbol
 _atom_site_label
 _atom_site_symmetry_multiplicity
 _atom_site_fract_x
 _atom_site_fract_y
 _atom_site_fract_z
 _atom_site_occupancy
 _atom_site_charge
  Cu  Cu1  1  0.056340  0.097570  0.565300  1.0  0.4019
  Cu  Cu2  1  0.443660  0.402430  0.065300  1.0  0.402
  Cu  Cu3  1  0.943660  0.097570  0.934700  1.0  0.4023
  Cu  Cu4  1  0.556340  0.402430  0.434700  1.0  0.4017
  Cu  Cu5  1  0.943660  0.902430  0.434700  1.0  0.402
  Cu  Cu6  1  0.556340  0.597570  0.934700  1.0  0.402
  Cu  Cu7  1  0.056340  0.902430  0.065300  1.0  0.4018
  Cu  Cu8  1  0.443660  0.597570  0.565300  1.0  0.4021
  C  C9  1  0.858100  0.166800  0.484000  1.0  -0.0776
  C  C10  1  0.015000  0.081700  0.708500  1.0  0.0751
  C  C11  1  0.641900  0.333200  0.984000  1.0  -0.0766
  C  C12  1  0.485000  0.418300  0.208500  1.0  0.0754
  C  C13  1  0.141900  0.166800  0.016000  1.0  -0.0769
  C  C14  1  0.985000  0.081700  0.791500  1.0  0.076
  C  C15  1  0.358100  0.333200  0.516000  1.0  -0.0771
  C  C16  1  0.515000  0.418300  0.291500  1.0  0.0759
  C  C17  1  0.141900  0.833200  0.516000  1.0  -0.0765
  C  C18  1  0.985000  0.918300  0.291500  1.0  0.0762
  C  C19  1  0.358100  0.666800  0.016000  1.0  -0.0775
  C  C20  1  0.515000  0.581700  0.791500  1.0  0.0761
  C  C21  1  0.858100  0.833200  0.984000  1.0  -0.0771
  C  C22  1  0.015000  0.918300  0.208500  1.0  0.0751
  C  C23  1  0.641900  0.666800  0.484000  1.0  -0.077
  C  C24  1  0.485000  0.581700  0.708500  1.0  0.0754
  N  N25  1  0.251400  0.246800  0.538100  1.0  -0.3995
  N  N26  1  0.248600  0.253200  0.038100  1.0  -0.4018
  N  N27  1  0.748600  0.246800  0.961900  1.0  -0.3992
  N  N28  1  0.751400  0.253200  0.461900  1.0  -0.4018
  N  N29  1  0.748600  0.753200  0.461900  1.0  -0.4017
  N  N30  1  0.751400  0.746800  0.961900  1.0  -0.3993
  N  N31  1  0.251400  0.753200  0.038100  1.0  -0.402
  N  N32  1  0.248600  0.746800  0.538100  1.0  -0.3993
