# generated using pymatgen
data_Zn(C2O)4
_symmetry_space_group_name_H-M   'P 1'
_cell_length_a   33.23700000
_cell_length_b   9.71900000
_cell_length_c   18.42300000
_cell_angle_alpha   90.00000000
_cell_angle_beta   90.53800000
_cell_angle_gamma   90.00000000
_symmetry_Int_Tables_number   1
_chemical_formula_structural   Zn(C2O)4
_chemical_formula_sum   'Zn12 C96 O48'
_cell_volume   5950.92675916
_cell_formula_units_Z   12
loop_
 _symmetry_equiv_pos_site_id
 _symmetry_equiv_pos_as_xyz
  1  'x, y, z'
loop_
 _atom_site_type_symbol
 _atom_site_label
 _atom_site_symmetry_multiplicity
 _atom_site_fract_x
 _atom_site_fract_y
 _atom_site_fract_z
 _atom_site_occupancy
 _atom_site_charge
  Zn  Zn1  1  0.362680  0.706200  0.279780  1.0  0.9291
  Zn  Zn2  1  0.555340  0.793760  0.293220  1.0  0.9931
  Zn  Zn3  1  0.458960  0.750600  0.289670  1.0  1.0258
  Zn  Zn4  1  0.862680  0.206200  0.279780  1.0  0.9291
  Zn  Zn5  1  0.055340  0.293760  0.293220  1.0  0.9931
  Zn  Zn6  1  0.958960  0.250600  0.289670  1.0  1.0258
  Zn  Zn7  1  0.362680  0.293800  0.779780  1.0  0.9318
  Zn  Zn8  1  0.555340  0.206240  0.793220  1.0  0.9932
  Zn  Zn9  1  0.458960  0.249400  0.789670  1.0  1.0151
  Zn  Zn10  1  0.862680  0.793800  0.779780  1.0  0.9318
  Zn  Zn11  1  0.055340  0.706240  0.793220  1.0  0.9932
  Zn  Zn12  1  0.958960  0.749400  0.789670  1.0  1.0151
  C  C13  1  0.395900  0.870400  0.391100  1.0  0.654
  C  C14  1  0.522400  0.642400  0.184000  1.0  0.5759
  C  C15  1  0.518100  0.432800  0.978300  1.0  0.1209
  C  C16  1  0.401500  0.072000  0.599100  1.0  -0.063
  C  C17  1  0.250500  0.533200  0.291000  1.0  0.1133
  C  C18  1  0.169400  0.472000  0.276000  1.0  -0.0334
  C  C19  1  0.399000  0.933200  0.465300  1.0  0.378
  C  C20  1  0.401900  0.147000  0.666100  1.0  0.6343
  C  C21  1  0.522200  0.562200  0.113000  1.0  -0.0455
  C  C22  1  0.293200  0.562200  0.300600  1.0  0.6351
  C  C23  1  0.515400  0.360100  0.904500  1.0  0.6081
  C  C24  1  0.123900  0.427000  0.276000  1.0  0.3893
  C  C25  1  0.485800  0.493000  0.088600  1.0  -0.0667
  C  C26  1  0.432200  0.992000  0.482900  1.0  0.0248
  C  C27  1  0.551500  0.498300  0.996800  1.0  0.0693
  C  C28  1  0.365300  0.010000  0.572700  1.0  -0.0664
  C  C29  1  0.484700  0.444000  0.019100  1.0  0.0758
  C  C30  1  0.367300  0.947000  0.507100  1.0  0.113
  C  C31  1  0.435700  0.067100  0.552300  1.0  -0.0992
  C  C32  1  0.556600  0.569000  0.066800  1.0  -0.1036
  C  C33  1  0.236400  0.399000  0.312000  1.0  -0.0276
  C  C34  1  0.182900  0.593000  0.258900  1.0  0.0632
  C  C35  1  0.193000  0.366000  0.310000  1.0  -0.1072
  C  C36  1  0.220700  0.624000  0.270800  1.0  0.0782
  C  C37  1  0.895900  0.370400  0.391100  1.0  0.654
  C  C38  1  0.022400  0.142400  0.184000  1.0  0.5759
  C  C39  1  0.018100  0.932800  0.978300  1.0  0.1209
  C  C40  1  0.901500  0.572000  0.599100  1.0  -0.063
  C  C41  1  0.750500  0.033200  0.291000  1.0  0.1133
  C  C42  1  0.669400  0.972000  0.276000  1.0  -0.0334
  C  C43  1  0.899000  0.433200  0.465300  1.0  0.378
  C  C44  1  0.901900  0.647000  0.666100  1.0  0.6343
  C  C45  1  0.022200  0.062200  0.113000  1.0  -0.0455
  C  C46  1  0.793200  0.062200  0.300600  1.0  0.6351
  C  C47  1  0.015400  0.860100  0.904500  1.0  0.6081
  C  C48  1  0.623900  0.927000  0.276000  1.0  0.3885
  C  C49  1  0.985800  0.993000  0.088600  1.0  -0.0667
  C  C50  1  0.932200  0.492000  0.482900  1.0  0.0248
  C  C51  1  0.051500  0.998300  0.996800  1.0  0.0693
  C  C52  1  0.865300  0.510000  0.572700  1.0  -0.0664
  C  C53  1  0.984700  0.944000  0.019100  1.0  0.0758
  C  C54  1  0.867300  0.447000  0.507100  1.0  0.113
  C  C55  1  0.935700  0.567100  0.552300  1.0  -0.0992
  C  C56  1  0.056600  0.069000  0.066800  1.0  -0.1036
  C  C57  1  0.736400  0.899000  0.312000  1.0  -0.0276
  C  C58  1  0.682900  0.093000  0.258900  1.0  0.0632
  C  C59  1  0.693000  0.866000  0.310000  1.0  -0.1072
  C  C60  1  0.720700  0.124000  0.270800  1.0  0.0782
  C  C61  1  0.395900  0.129600  0.891100  1.0  0.6548
  C  C62  1  0.522400  0.357600  0.684000  1.0  0.5756
  C  C63  1  0.518100  0.567200  0.478300  1.0  0.1205
  C  C64  1  0.401500  0.928000  0.099100  1.0  -0.0629
  C  C65  1  0.250500  0.466800  0.791000  1.0  0.1135
  C  C66  1  0.169400  0.528000  0.776000  1.0  -0.0334
  C  C67  1  0.399000  0.066800  0.965300  1.0  0.3792
  C  C68  1  0.401900  0.853000  0.166100  1.0  0.6344
  C  C69  1  0.522200  0.437800  0.613000  1.0  -0.0455
  C  C70  1  0.293200  0.437800  0.800600  1.0  0.6349
  C  C71  1  0.515400  0.639900  0.404500  1.0  0.6085
  C  C72  1  0.123900  0.573000  0.776000  1.0  0.393
  C  C73  1  0.485800  0.507000  0.588600  1.0  -0.0663
  C  C74  1  0.432200  0.008000  0.982900  1.0  0.025
  C  C75  1  0.551500  0.501700  0.496800  1.0  0.0693
  C  C76  1  0.365300  0.990000  0.072700  1.0  -0.0657
  C  C77  1  0.484700  0.556000  0.519100  1.0  0.0769
  C  C78  1  0.367300  0.053000  0.007100  1.0  0.1131
  C  C79  1  0.435700  0.932900  0.052300  1.0  -0.0989
  C  C80  1  0.556600  0.431000  0.566800  1.0  -0.1028
  C  C81  1  0.236400  0.601000  0.812000  1.0  -0.0273
  C  C82  1  0.182900  0.407000  0.758900  1.0  0.0626
  C  C83  1  0.193000  0.634000  0.810000  1.0  -0.1067
  C  C84  1  0.220700  0.376000  0.770800  1.0  0.0784
  C  C85  1  0.895900  0.629600  0.891100  1.0  0.6548
  C  C86  1  0.022400  0.857600  0.684000  1.0  0.5756
  C  C87  1  0.018100  0.067200  0.478300  1.0  0.1205
  C  C88  1  0.901500  0.428000  0.099100  1.0  -0.0629
  C  C89  1  0.750500  0.966800  0.791000  1.0  0.1135
  C  C90  1  0.669400  0.028000  0.776000  1.0  -0.0334
  C  C91  1  0.899000  0.566800  0.965300  1.0  0.3792
  C  C92  1  0.901900  0.353000  0.166100  1.0  0.6344
  C  C93  1  0.022200  0.937800  0.613000  1.0  -0.0455
  C  C94  1  0.793200  0.937800  0.800600  1.0  0.6349
  C  C95  1  0.015400  0.139900  0.404500  1.0  0.6085
  C  C96  1  0.623900  0.073000  0.776000  1.0  0.3922
  C  C97  1  0.985800  0.007000  0.588600  1.0  -0.0663
  C  C98  1  0.932200  0.508000  0.982900  1.0  0.025
  C  C99  1  0.051500  0.001700  0.496800  1.0  0.0693
  C  C100  1  0.865300  0.490000  0.072700  1.0  -0.0657
  C  C101  1  0.984700  0.056000  0.519100  1.0  0.0769
  C  C102  1  0.867300  0.553000  0.007100  1.0  0.1131
  C  C103  1  0.935700  0.432900  0.052300  1.0  -0.0989
  C  C104  1  0.056600  0.931000  0.566800  1.0  -0.1028
  C  C105  1  0.736400  0.101000  0.812000  1.0  -0.0273
  C  C106  1  0.682900  0.907000  0.758900  1.0  0.0626
  C  C107  1  0.693000  0.134000  0.810000  1.0  -0.1067
  C  C108  1  0.720700  0.876000  0.770800  1.0  0.0784
  O  O109  1  0.555800  0.704100  0.198400  1.0  -0.5566
  O  O110  1  0.364800  0.810600  0.376600  1.0  -0.5744
  O  O111  1  0.549700  0.336300  0.874200  1.0  -0.5733
  O  O112  1  0.369300  0.172000  0.697200  1.0  -0.5571
  O  O113  1  0.482200  0.325500  0.880900  1.0  -0.608
  O  O114  1  0.436400  0.183300  0.689100  1.0  -0.648
  O  O115  1  0.424400  0.879500  0.349600  1.0  -0.6116
  O  O116  1  0.112700  0.335500  0.302700  1.0  -0.5407
  O  O117  1  0.492600  0.621200  0.224600  1.0  -0.6241
  O  O118  1  0.307500  0.658900  0.256700  1.0  -0.5408
  O  O119  1  0.315400  0.485500  0.336300  1.0  -0.4826
  O  O120  1  0.102800  0.486400  0.226000  1.0  -0.5524
  O  O121  1  0.055800  0.204100  0.198400  1.0  -0.5556
  O  O122  1  0.864800  0.310600  0.376600  1.0  -0.5744
  O  O123  1  0.049700  0.836300  0.874200  1.0  -0.5727
  O  O124  1  0.869300  0.672000  0.697200  1.0  -0.5571
  O  O125  1  0.982200  0.825500  0.880900  1.0  -0.608
  O  O126  1  0.936400  0.683300  0.689100  1.0  -0.648
  O  O127  1  0.924400  0.379500  0.349600  1.0  -0.6116
  O  O128  1  0.612700  0.835500  0.302700  1.0  -0.5407
  O  O129  1  0.992600  0.121200  0.224600  1.0  -0.6241
  O  O130  1  0.807500  0.158900  0.256700  1.0  -0.5408
  O  O131  1  0.815400  0.985500  0.336300  1.0  -0.4826
  O  O132  1  0.602800  0.986400  0.226000  1.0  -0.5524
  O  O133  1  0.555800  0.295900  0.698400  1.0  -0.5579
  O  O134  1  0.364800  0.189400  0.876600  1.0  -0.5736
  O  O135  1  0.549700  0.663700  0.374200  1.0  -0.5734
  O  O136  1  0.369300  0.828000  0.197200  1.0  -0.5571
  O  O137  1  0.482200  0.674500  0.380900  1.0  -0.6083
  O  O138  1  0.436400  0.816700  0.189100  1.0  -0.6484
  O  O139  1  0.424400  0.120500  0.849600  1.0  -0.6098
  O  O140  1  0.112700  0.664500  0.802700  1.0  -0.5397
  O  O141  1  0.492600  0.378800  0.724600  1.0  -0.6241
  O  O142  1  0.307500  0.341100  0.756700  1.0  -0.5412
  O  O143  1  0.315400  0.514500  0.836300  1.0  -0.4843
  O  O144  1  0.102800  0.513600  0.726000  1.0  -0.5516
  O  O145  1  0.055800  0.795900  0.698400  1.0  -0.557
  O  O146  1  0.864800  0.689400  0.876600  1.0  -0.5736
  O  O147  1  0.049700  0.163700  0.374200  1.0  -0.5739
  O  O148  1  0.869300  0.328000  0.197200  1.0  -0.5571
  O  O149  1  0.982200  0.174500  0.380900  1.0  -0.6083
  O  O150  1  0.936400  0.316700  0.189100  1.0  -0.6484
  O  O151  1  0.924400  0.620500  0.849600  1.0  -0.6098
  O  O152  1  0.612700  0.164500  0.802700  1.0  -0.5397
  O  O153  1  0.992600  0.878800  0.724600  1.0  -0.6241
  O  O154  1  0.807500  0.841100  0.756700  1.0  -0.5412
  O  O155  1  0.815400  0.014500  0.836300  1.0  -0.4843
  O  O156  1  0.602800  0.013600  0.726000  1.0  -0.5516
