# generated using pymatgen
data_CdH18(C3N)6
_symmetry_space_group_name_H-M   'P 1'
_cell_length_a   11.23370000
_cell_length_b   11.23370000
_cell_length_c   22.24500000
_cell_angle_alpha   96.23370000
_cell_angle_beta   96.23370000
_cell_angle_gamma   100.98100000
_symmetry_Int_Tables_number   1
_chemical_formula_structural   CdH18(C3N)6
_chemical_formula_sum   'Cd4 H72 C72 N24'
_cell_volume   2715.39616008
_cell_formula_units_Z   4
loop_
 _symmetry_equiv_pos_site_id
 _symmetry_equiv_pos_as_xyz
  1  'x, y, z'
loop_
 _atom_site_type_symbol
 _atom_site_label
 _atom_site_symmetry_multiplicity
 _atom_site_fract_x
 _atom_site_fract_y
 _atom_site_fract_z
 _atom_site_occupancy
 _atom_site_charge
  Cd  Cd1  1  0.701650  0.846300  0.367440  1.0  0.5133
  Cd  Cd2  1  0.846290  0.701650  0.867440  1.0  0.5071
  Cd  Cd3  1  0.153700  0.298350  0.132560  1.0  0.5134
  Cd  Cd4  1  0.298350  0.153710  0.632560  1.0  0.504
  H  H5  1  0.788100  0.296700  0.502200  1.0  0.0842
  H  H6  1  0.842700  0.619500  0.611700  1.0  0.0891
  H  H7  1  0.120400  0.440200  0.598800  1.0  0.0748
  H  H8  1  0.078800  0.231400  0.551700  1.0  0.0823
  H  H9  1  0.051300  0.266100  0.484400  1.0  0.0818
  H  H10  1  0.914800  0.093400  0.413000  1.0  0.0773
  H  H11  1  0.719100  0.916900  0.525100  1.0  0.0783
  H  H12  1  0.863400  0.091200  0.587200  1.0  0.0996
  H  H13  1  0.636800  0.518600  0.568100  1.0  0.0881
  H  H14  1  0.612300  0.385300  0.529700  1.0  0.1022
  H  H15  1  0.702500  0.705300  0.507700  1.0  0.0739
  H  H16  1  0.620600  0.534200  0.339400  1.0  0.0816
  H  H17  1  0.602000  0.375400  0.408300  1.0  0.1045
  H  H18  1  0.065200  0.729600  0.640300  1.0  0.0925
  H  H19  1  0.166300  0.647500  0.646700  1.0  0.0994
  H  H20  1  0.934300  0.745500  0.729700  1.0  0.0727
  H  H21  1  0.121300  0.596300  0.850300  1.0  0.075
  H  H22  1  0.198900  0.557300  0.752300  1.0  0.0998
  H  H23  1  0.296700  0.788100  0.002200  1.0  0.0845
  H  H24  1  0.619500  0.842700  0.111700  1.0  0.0903
  H  H25  1  0.440200  0.120400  0.098800  1.0  0.0754
  H  H26  1  0.231400  0.078800  0.051700  1.0  0.0827
  H  H27  1  0.266100  0.051300  0.984400  1.0  0.0814
  H  H28  1  0.093400  0.914800  0.913000  1.0  0.0771
  H  H29  1  0.916900  0.719100  0.025100  1.0  0.0796
  H  H30  1  0.091200  0.863400  0.087200  1.0  0.0989
  H  H31  1  0.518600  0.636800  0.068100  1.0  0.0881
  H  H32  1  0.385300  0.612300  0.029700  1.0  0.1025
  H  H33  1  0.705300  0.702500  0.007700  1.0  0.0758
  H  H34  1  0.534200  0.620600  0.839400  1.0  0.0816
  H  H35  1  0.375400  0.602000  0.908300  1.0  0.102
  H  H36  1  0.729600  0.065200  0.140300  1.0  0.0917
  H  H37  1  0.647500  0.166300  0.146700  1.0  0.1019
  H  H38  1  0.745500  0.934300  0.229700  1.0  0.0727
  H  H39  1  0.596300  0.121300  0.350300  1.0  0.0735
  H  H40  1  0.557300  0.198900  0.252300  1.0  0.0986
  H  H41  1  0.703300  0.211900  0.997800  1.0  0.0848
  H  H42  1  0.380500  0.157300  0.888300  1.0  0.0893
  H  H43  1  0.559800  0.879600  0.901200  1.0  0.0741
  H  H44  1  0.768600  0.921200  0.948300  1.0  0.0823
  H  H45  1  0.733900  0.948700  0.015600  1.0  0.0819
  H  H46  1  0.906600  0.085200  0.087000  1.0  0.0764
  H  H47  1  0.083100  0.280900  0.974900  1.0  0.0796
  H  H48  1  0.908800  0.136600  0.912800  1.0  0.1001
  H  H49  1  0.481400  0.363200  0.931900  1.0  0.0863
  H  H50  1  0.614700  0.387700  0.970300  1.0  0.1022
  H  H51  1  0.294700  0.297500  0.992300  1.0  0.0755
  H  H52  1  0.465800  0.379400  0.160600  1.0  0.0817
  H  H53  1  0.624600  0.398000  0.091700  1.0  0.1023
  H  H54  1  0.270400  0.934800  0.859700  1.0  0.0932
  H  H55  1  0.352500  0.833700  0.853300  1.0  0.1022
  H  H56  1  0.254500  0.065700  0.770300  1.0  0.073
  H  H57  1  0.403700  0.878700  0.649700  1.0  0.0731
  H  H58  1  0.442700  0.801100  0.747700  1.0  0.0987
  H  H59  1  0.211900  0.703300  0.497800  1.0  0.0837
  H  H60  1  0.157300  0.380500  0.388300  1.0  0.0891
  H  H61  1  0.879600  0.559800  0.401200  1.0  0.0743
  H  H62  1  0.921200  0.768600  0.448300  1.0  0.0825
  H  H63  1  0.948700  0.733900  0.515600  1.0  0.0816
  H  H64  1  0.085200  0.906600  0.587000  1.0  0.0764
  H  H65  1  0.280900  0.083100  0.474900  1.0  0.0775
  H  H66  1  0.136600  0.908800  0.412800  1.0  0.1007
  H  H67  1  0.363200  0.481400  0.431900  1.0  0.0864
  H  H68  1  0.387700  0.614700  0.470300  1.0  0.1003
  H  H69  1  0.297500  0.294700  0.492300  1.0  0.074
  H  H70  1  0.379400  0.465800  0.660600  1.0  0.0799
  H  H71  1  0.398000  0.624600  0.591700  1.0  0.1026
  H  H72  1  0.934800  0.270400  0.359700  1.0  0.0925
  H  H73  1  0.833700  0.352500  0.353300  1.0  0.1014
  H  H74  1  0.065700  0.254500  0.270300  1.0  0.0712
  H  H75  1  0.878700  0.403700  0.149700  1.0  0.0743
  H  H76  1  0.801100  0.442700  0.247700  1.0  0.1009
  C  C77  1  0.961110  0.351310  0.546720  1.0  0.0326
  C  C78  1  0.840670  0.359530  0.530260  1.0  -0.15
  C  C79  1  0.796020  0.459440  0.554660  1.0  0.0716
  C  C80  1  0.873380  0.551760  0.594950  1.0  -0.242
  C  C81  1  0.995310  0.546710  0.611300  1.0  0.0856
  C  C82  1  0.037710  0.445430  0.587310  1.0  -0.2288
  C  C83  1  0.013560  0.244880  0.521030  1.0  -0.0929
  C  C84  1  0.882980  0.070680  0.448900  1.0  0.1277
  C  C85  1  0.777450  0.975150  0.509970  1.0  -0.0192
  C  C86  1  0.855710  0.070610  0.544230  1.0  -0.163
  C  C87  1  0.664940  0.468120  0.535380  1.0  -0.1161
  C  C88  1  0.679410  0.642810  0.473740  1.0  0.1199
  C  C89  1  0.635200  0.549300  0.382650  1.0  0.007
  C  C90  1  0.624160  0.461380  0.420050  1.0  -0.158
  C  C91  1  0.081000  0.651420  0.652730  1.0  -0.1616
  C  C92  1  0.990640  0.702360  0.747940  1.0  0.1152
  C  C93  1  0.092180  0.621620  0.813010  1.0  -0.0055
  C  C94  1  0.135430  0.599970  0.759580  1.0  -0.15
  C  C95  1  0.351310  0.961110  0.046720  1.0  0.0324
  C  C96  1  0.359530  0.840670  0.030260  1.0  -0.1496
  C  C97  1  0.459440  0.796020  0.054660  1.0  0.0721
  C  C98  1  0.551760  0.873380  0.094950  1.0  -0.2353
  C  C99  1  0.546710  0.995310  0.111300  1.0  0.0857
  C  C100  1  0.445430  0.037710  0.087310  1.0  -0.2374
  C  C101  1  0.244880  0.013560  0.021030  1.0  -0.0886
  C  C102  1  0.070680  0.882980  0.948900  1.0  0.1283
  C  C103  1  0.975150  0.777450  0.009970  1.0  -0.0204
  C  C104  1  0.070610  0.855710  0.044230  1.0  -0.1643
  C  C105  1  0.468120  0.664940  0.035380  1.0  -0.116
  C  C106  1  0.642810  0.679410  0.973740  1.0  0.1181
  C  C107  1  0.549300  0.635200  0.882650  1.0  0.0073
  C  C108  1  0.461380  0.624160  0.920050  1.0  -0.1581
  C  C109  1  0.651420  0.081000  0.152730  1.0  -0.1597
  C  C110  1  0.702360  0.990640  0.247940  1.0  0.117
  C  C111  1  0.621620  0.092180  0.313010  1.0  -0.0034
  C  C112  1  0.599970  0.135430  0.259580  1.0  -0.1507
  C  C113  1  0.648690  0.038890  0.953280  1.0  0.0339
  C  C114  1  0.640470  0.159330  0.969740  1.0  -0.1485
  C  C115  1  0.540560  0.203980  0.945340  1.0  0.0701
  C  C116  1  0.448240  0.126620  0.905050  1.0  -0.2409
  C  C117  1  0.453290  0.004690  0.888700  1.0  0.0845
  C  C118  1  0.554570  0.962290  0.912690  1.0  -0.2331
  C  C119  1  0.755120  0.986440  0.978970  1.0  -0.09
  C  C120  1  0.929320  0.117020  0.051100  1.0  0.1273
  C  C121  1  0.024850  0.222550  0.990030  1.0  -0.0215
  C  C122  1  0.929390  0.144290  0.955770  1.0  -0.1684
  C  C123  1  0.531880  0.335060  0.964620  1.0  -0.1142
  C  C124  1  0.357190  0.320590  0.026260  1.0  0.1192
  C  C125  1  0.450700  0.364800  0.117350  1.0  0.0053
  C  C126  1  0.538620  0.375840  0.079950  1.0  -0.1566
  C  C127  1  0.348580  0.919000  0.847270  1.0  -0.161
  C  C128  1  0.297640  0.009360  0.752060  1.0  0.1163
  C  C129  1  0.378380  0.907820  0.686990  1.0  -0.0021
  C  C130  1  0.400030  0.864570  0.740420  1.0  -0.1487
  C  C131  1  0.038890  0.648690  0.453280  1.0  0.0336
  C  C132  1  0.159330  0.640470  0.469740  1.0  -0.1495
  C  C133  1  0.203980  0.540560  0.445340  1.0  0.0716
  C  C134  1  0.126620  0.448240  0.405050  1.0  -0.2383
  C  C135  1  0.004690  0.453290  0.388700  1.0  0.0852
  C  C136  1  0.962290  0.554570  0.412690  1.0  -0.2356
  C  C137  1  0.986440  0.755120  0.478970  1.0  -0.0914
  C  C138  1  0.117020  0.929320  0.551100  1.0  0.1279
  C  C139  1  0.222550  0.024850  0.490030  1.0  -0.02
  C  C140  1  0.144290  0.929390  0.455770  1.0  -0.1647
  C  C141  1  0.335060  0.531880  0.464620  1.0  -0.1139
  C  C142  1  0.320590  0.357190  0.526260  1.0  0.1216
  C  C143  1  0.364800  0.450700  0.617350  1.0  0.0083
  C  C144  1  0.375840  0.538620  0.579950  1.0  -0.1552
  C  C145  1  0.919000  0.348580  0.347270  1.0  -0.161
  C  C146  1  0.009360  0.297640  0.252060  1.0  0.118
  C  C147  1  0.907820  0.378380  0.186990  1.0  -0.0039
  C  C148  1  0.864570  0.400030  0.240420  1.0  -0.1504
  N  N149  1  0.921930  0.131930  0.504630  1.0  0.0367
  N  N150  1  0.795220  0.975180  0.449700  1.0  -0.421
  N  N151  1  0.651760  0.522280  0.478370  1.0  0.0281
  N  N152  1  0.670560  0.663360  0.416140  1.0  -0.3976
  N  N153  1  0.069370  0.651630  0.717760  1.0  0.0016
  N  N154  1  0.000500  0.685520  0.805830  1.0  -0.3904
  N  N155  1  0.131930  0.921930  0.004630  1.0  0.0367
  N  N156  1  0.975180  0.795220  0.949700  1.0  -0.4237
  N  N157  1  0.522280  0.651760  0.978370  1.0  0.0294
  N  N158  1  0.663360  0.670560  0.916140  1.0  -0.3961
  N  N159  1  0.651630  0.069370  0.217760  1.0  0.0021
  N  N160  1  0.685520  0.000500  0.305830  1.0  -0.39
  N  N161  1  0.868070  0.078070  0.995370  1.0  0.0375
  N  N162  1  0.024820  0.204780  0.050300  1.0  -0.4219
  N  N163  1  0.477720  0.348240  0.021630  1.0  0.0294
  N  N164  1  0.336640  0.329440  0.083860  1.0  -0.3942
  N  N165  1  0.348370  0.930630  0.782240  1.0  0.0029
  N  N166  1  0.314480  0.999500  0.694170  1.0  -0.3937
  N  N167  1  0.078070  0.868070  0.495370  1.0  0.0377
  N  N168  1  0.204780  0.024820  0.550300  1.0  -0.4196
  N  N169  1  0.348240  0.477720  0.521630  1.0  0.0291
  N  N170  1  0.329440  0.336640  0.583860  1.0  -0.3966
  N  N171  1  0.930630  0.348370  0.282240  1.0  0.0035
  N  N172  1  0.999500  0.314480  0.194170  1.0  -0.3925
