# generated using pymatgen
data_Dy2CuH4C10N4O9
_symmetry_space_group_name_H-M   'P 1'
_cell_length_a   7.00120000
_cell_length_b   16.00200000
_cell_length_c   16.00200000
_cell_angle_alpha   62.08920000
_cell_angle_beta   81.61410000
_cell_angle_gamma   98.38590000
_symmetry_Int_Tables_number   1
_chemical_formula_structural   Dy2CuH4C10N4O9
_chemical_formula_sum   'Dy6 Cu3 H12 C30 N12 O27'
_cell_volume   1519.54954061
_cell_formula_units_Z   3
loop_
 _symmetry_equiv_pos_site_id
 _symmetry_equiv_pos_as_xyz
  1  'x, y, z'
loop_
 _atom_site_type_symbol
 _atom_site_label
 _atom_site_symmetry_multiplicity
 _atom_site_fract_x
 _atom_site_fract_y
 _atom_site_fract_z
 _atom_site_occupancy
 _atom_site_charge
  Dy  Dy1  1  0.288980  0.064360  0.846840  1.0  2.242
  Dy  Dy2  1  0.135820  0.846840  0.088800  1.0  2.2431
  Dy  Dy3  1  0.224620  0.088800  0.064360  1.0  2.2387
  Dy  Dy4  1  0.711020  0.935640  0.153160  1.0  2.2425
  Dy  Dy5  1  0.864180  0.153160  0.911200  1.0  2.2421
  Dy  Dy6  1  0.775380  0.911200  0.935640  1.0  2.2342
  Cu  Cu7  1  0.500000  0.000000  0.500000  1.0  0.676
  Cu  Cu8  1  0.000000  0.500000  0.500000  1.0  0.676
  Cu  Cu9  1  0.500000  0.500000  0.000000  1.0  0.676
  H  H10  1  0.845400  0.911200  0.577100  1.0  0.0773
  H  H11  1  0.956000  0.875100  0.715600  1.0  0.0473
  H  H12  1  0.422500  0.577100  0.511700  1.0  0.0771
  H  H13  1  0.671600  0.715600  0.409300  1.0  0.0475
  H  H14  1  0.934200  0.511700  0.911200  1.0  0.0761
  H  H15  1  0.080900  0.409300  0.875100  1.0  0.0476
  H  H16  1  0.154600  0.088800  0.422900  1.0  0.0769
  H  H17  1  0.044000  0.124900  0.284400  1.0  0.0485
  H  H18  1  0.577500  0.422900  0.488300  1.0  0.0768
  H  H19  1  0.328400  0.284400  0.590700  1.0  0.0471
  H  H20  1  0.065800  0.488300  0.088800  1.0  0.0756
  H  H21  1  0.919100  0.590700  0.124900  1.0  0.0484
  C  C22  1  0.614500  0.970100  0.756600  1.0  0.575
  C  C23  1  0.541100  0.987400  0.673700  1.0  0.0268
  C  C24  1  0.782800  0.924800  0.623100  1.0  0.0772
  C  C25  1  0.850400  0.904800  0.705400  1.0  0.1117
  C  C26  1  0.367500  0.030300  0.648800  1.0  0.643
  C  C27  1  0.371100  0.756600  0.273300  1.0  0.5747
  C  C28  1  0.214800  0.673700  0.338900  1.0  0.0272
  C  C29  1  0.405900  0.623100  0.452100  1.0  0.0736
  C  C30  1  0.555800  0.705400  0.389800  1.0  0.1113
  C  C31  1  0.016300  0.648800  0.320900  1.0  0.6463
  C  C32  1  0.644400  0.273300  0.970100  1.0  0.5715
  C  C33  1  0.553700  0.338900  0.987400  1.0  0.0277
  C  C34  1  0.858000  0.452100  0.924800  1.0  0.0758
  C  C35  1  0.945600  0.389800  0.904800  1.0  0.1114
  C  C36  1  0.337200  0.320900  0.030300  1.0  0.6431
  C  C37  1  0.385500  0.029900  0.243400  1.0  0.5765
  C  C38  1  0.458900  0.012600  0.326300  1.0  0.0275
  C  C39  1  0.217200  0.075200  0.376900  1.0  0.0766
  C  C40  1  0.149600  0.095200  0.294600  1.0  0.1135
  C  C41  1  0.632500  0.969700  0.351200  1.0  0.6451
  C  C42  1  0.628900  0.243400  0.726700  1.0  0.5753
  C  C43  1  0.785200  0.326300  0.661100  1.0  0.0281
  C  C44  1  0.594100  0.376900  0.547900  1.0  0.0745
  C  C45  1  0.444200  0.294600  0.610200  1.0  0.112
  C  C46  1  0.983700  0.351200  0.679100  1.0  0.6466
  C  C47  1  0.355600  0.726700  0.029900  1.0  0.5716
  C  C48  1  0.446300  0.661100  0.012600  1.0  0.0278
  C  C49  1  0.142000  0.547900  0.075200  1.0  0.0754
  C  C50  1  0.054400  0.610200  0.095200  1.0  0.1125
  C  C51  1  0.662800  0.679100  0.969700  1.0  0.6452
  N  N52  1  0.769500  0.926700  0.770800  1.0  -0.4269
  N  N53  1  0.626600  0.964100  0.609900  1.0  -0.3723
  N  N54  1  0.540300  0.770800  0.302500  1.0  -0.4285
  N  N55  1  0.236500  0.609900  0.426000  1.0  -0.3711
  N  N56  1  0.842800  0.302500  0.926700  1.0  -0.4293
  N  N57  1  0.662500  0.426000  0.964100  1.0  -0.3752
  N  N58  1  0.230500  0.073300  0.229200  1.0  -0.4275
  N  N59  1  0.373400  0.035900  0.390100  1.0  -0.3722
  N  N60  1  0.459700  0.229200  0.697500  1.0  -0.4291
  N  N61  1  0.763500  0.390100  0.574000  1.0  -0.3715
  N  N62  1  0.157200  0.697500  0.073300  1.0  -0.4295
  N  N63  1  0.337500  0.574000  0.035900  1.0  -0.3717
  O  O64  1  0.548280  0.991130  0.821490  1.0  -0.8237
  O  O65  1  0.271990  0.051070  0.705000  1.0  -0.7133
  O  O66  1  0.324170  0.040370  0.571360  1.0  -0.6085
  O  O67  1  0.106760  0.901300  0.923720  1.0  -0.7678
  O  O68  1  0.369770  0.821490  0.187380  1.0  -0.825
  O  O69  1  0.976990  0.705000  0.243930  1.0  -0.7125
  O  O70  1  0.895530  0.571360  0.388270  1.0  -0.6071
  O  O71  1  0.030480  0.923720  0.174980  1.0  -0.7665
  O  O72  1  0.557150  0.187380  0.991130  1.0  -0.8266
  O  O73  1  0.220920  0.243930  0.051070  1.0  -0.7152
  O  O74  1  0.283800  0.388270  0.040370  1.0  -0.6079
  O  O75  1  0.205460  0.174980  0.901300  1.0  -0.7696
  O  O76  1  0.451720  0.008870  0.178510  1.0  -0.8245
  O  O77  1  0.728010  0.948930  0.295000  1.0  -0.7114
  O  O78  1  0.675830  0.959630  0.428640  1.0  -0.607
  O  O79  1  0.893240  0.098700  0.076280  1.0  -0.7671
  O  O80  1  0.630230  0.178510  0.812620  1.0  -0.8248
  O  O81  1  0.023010  0.295000  0.756070  1.0  -0.7125
  O  O82  1  0.104470  0.428640  0.611730  1.0  -0.6092
  O  O83  1  0.969520  0.076280  0.825020  1.0  -0.7675
  O  O84  1  0.442850  0.812620  0.008870  1.0  -0.8256
  O  O85  1  0.779080  0.756070  0.948930  1.0  -0.7146
  O  O86  1  0.716200  0.611730  0.959630  1.0  -0.6093
  O  O87  1  0.794540  0.825020  0.098700  1.0  -0.7695
  O  O88  1  0.319230  0.000000  0.000000  1.0  -0.856
  O  O89  1  0.680770  0.000000  0.000000  1.0  -0.855
  O  O90  1  0.000000  0.000000  0.000000  1.0  -0.8184
