# generated using pymatgen
data_Ho2CuH4C10N4O9
_symmetry_space_group_name_H-M   'P 1'
_cell_length_a   6.98160000
_cell_length_b   15.96690000
_cell_length_c   15.96690000
_cell_angle_alpha   62.08670000
_cell_angle_beta   81.61920000
_cell_angle_gamma   98.38080000
_symmetry_Int_Tables_number   1
_chemical_formula_structural   Ho2CuH4C10N4O9
_chemical_formula_sum   'Ho6 Cu3 H12 C30 N12 O27'
_cell_volume   1508.69483240
_cell_formula_units_Z   3
loop_
 _symmetry_equiv_pos_site_id
 _symmetry_equiv_pos_as_xyz
  1  'x, y, z'
loop_
 _atom_site_type_symbol
 _atom_site_label
 _atom_site_symmetry_multiplicity
 _atom_site_fract_x
 _atom_site_fract_y
 _atom_site_fract_z
 _atom_site_occupancy
 _atom_site_charge
  Ho  Ho1  1  0.289150  0.064310  0.847040  1.0  2.18
  Ho  Ho2  1  0.136190  0.847040  0.088650  1.0  2.181
  Ho  Ho3  1  0.224840  0.088650  0.064310  1.0  2.1786
  Ho  Ho4  1  0.710850  0.935690  0.152960  1.0  2.1808
  Ho  Ho5  1  0.863810  0.152960  0.911350  1.0  2.1789
  Ho  Ho6  1  0.775160  0.911350  0.935690  1.0  2.1753
  Cu  Cu7  1  0.500000  0.000000  0.500000  1.0  0.6873
  Cu  Cu8  1  0.000000  0.500000  0.500000  1.0  0.6873
  Cu  Cu9  1  0.500000  0.500000  0.000000  1.0  0.6873
  H  H10  1  0.845800  0.910000  0.577800  1.0  0.0846
  H  H11  1  0.958800  0.875500  0.716100  1.0  0.0555
  H  H12  1  0.423600  0.577800  0.512200  1.0  0.0843
  H  H13  1  0.674900  0.716100  0.408400  1.0  0.0556
  H  H14  1  0.935800  0.512200  0.910000  1.0  0.0831
  H  H15  1  0.083300  0.408400  0.875500  1.0  0.0558
  H  H16  1  0.154200  0.090000  0.422200  1.0  0.0838
  H  H17  1  0.041200  0.124500  0.283900  1.0  0.0567
  H  H18  1  0.576400  0.422200  0.487800  1.0  0.0837
  H  H19  1  0.325100  0.283900  0.591600  1.0  0.0558
  H  H20  1  0.064200  0.487800  0.090000  1.0  0.0831
  H  H21  1  0.916700  0.591600  0.124500  1.0  0.0562
  C  C22  1  0.614500  0.969900  0.757400  1.0  0.5722
  C  C23  1  0.540600  0.987000  0.674300  1.0  0.0288
  C  C24  1  0.783600  0.924200  0.623500  1.0  0.0868
  C  C25  1  0.851900  0.904500  0.706100  1.0  0.1125
  C  C26  1  0.366500  0.029000  0.650000  1.0  0.6397
  C  C27  1  0.371900  0.757400  0.272700  1.0  0.5721
  C  C28  1  0.214900  0.674300  0.338700  1.0  0.0286
  C  C29  1  0.407100  0.623500  0.452300  1.0  0.0842
  C  C30  1  0.558000  0.706100  0.389400  1.0  0.1124
  C  C31  1  0.016500  0.650000  0.321000  1.0  0.6406
  C  C32  1  0.644600  0.272700  0.969900  1.0  0.5695
  C  C33  1  0.553600  0.338700  0.987000  1.0  0.0291
  C  C34  1  0.859400  0.452300  0.924200  1.0  0.086
  C  C35  1  0.947400  0.389400  0.904500  1.0  0.1123
  C  C36  1  0.337500  0.321000  0.029000  1.0  0.6385
  C  C37  1  0.385500  0.030100  0.242600  1.0  0.573
  C  C38  1  0.459400  0.013000  0.325700  1.0  0.029
  C  C39  1  0.216400  0.075800  0.376500  1.0  0.0866
  C  C40  1  0.148100  0.095500  0.293900  1.0  0.1147
  C  C41  1  0.633500  0.971000  0.350000  1.0  0.6406
  C  C42  1  0.628100  0.242600  0.727300  1.0  0.5732
  C  C43  1  0.785100  0.325700  0.661300  1.0  0.0293
  C  C44  1  0.592900  0.376500  0.547700  1.0  0.0841
  C  C45  1  0.442000  0.293900  0.610600  1.0  0.1134
  C  C46  1  0.983500  0.350000  0.679000  1.0  0.6404
  C  C47  1  0.355400  0.727300  0.030100  1.0  0.5696
  C  C48  1  0.446400  0.661300  0.013000  1.0  0.0294
  C  C49  1  0.140600  0.547700  0.075800  1.0  0.0858
  C  C50  1  0.052600  0.610600  0.095500  1.0  0.113
  C  C51  1  0.662500  0.679000  0.971000  1.0  0.6395
  N  N52  1  0.769260  0.926060  0.771880  1.0  -0.4233
  N  N53  1  0.627600  0.963700  0.610200  1.0  -0.3611
  N  N54  1  0.541140  0.771880  0.302060  1.0  -0.4255
  N  N55  1  0.237800  0.610200  0.426100  1.0  -0.3597
  N  N56  1  0.843200  0.302060  0.926060  1.0  -0.4259
  N  N57  1  0.663900  0.426100  0.963700  1.0  -0.364
  N  N58  1  0.230740  0.073940  0.228120  1.0  -0.425
  N  N59  1  0.372400  0.036300  0.389800  1.0  -0.361
  N  N60  1  0.458860  0.228120  0.697940  1.0  -0.4272
  N  N61  1  0.762200  0.389800  0.573900  1.0  -0.3604
  N  N62  1  0.156800  0.697940  0.073940  1.0  -0.4259
  N  N63  1  0.336100  0.573900  0.036300  1.0  -0.3607
  O  O64  1  0.547810  0.991160  0.822730  1.0  -0.7521
  O  O65  1  0.270460  0.050820  0.705540  1.0  -0.7254
  O  O66  1  0.323500  0.040900  0.571300  1.0  -0.6137
  O  O67  1  0.204060  0.173340  0.901860  1.0  -0.8058
  O  O68  1  0.370540  0.822730  0.186110  1.0  -0.754
  O  O69  1  0.976000  0.705540  0.243640  1.0  -0.725
  O  O70  1  0.894800  0.571300  0.387800  1.0  -0.6119
  O  O71  1  0.105920  0.901860  0.924800  1.0  -0.8041
  O  O72  1  0.556650  0.186110  0.991160  1.0  -0.7553
  O  O73  1  0.219640  0.243640  0.050820  1.0  -0.7267
  O  O74  1  0.282600  0.387800  0.040900  1.0  -0.6126
  O  O75  1  0.030720  0.924800  0.173340  1.0  -0.8044
  O  O76  1  0.452190  0.008840  0.177270  1.0  -0.7533
  O  O77  1  0.729540  0.949180  0.294460  1.0  -0.7245
  O  O78  1  0.676500  0.959100  0.428700  1.0  -0.6109
  O  O79  1  0.795940  0.826660  0.098140  1.0  -0.806
  O  O80  1  0.629460  0.177270  0.813890  1.0  -0.7536
  O  O81  1  0.024000  0.294460  0.756360  1.0  -0.7244
  O  O82  1  0.105200  0.428700  0.612200  1.0  -0.6138
  O  O83  1  0.894080  0.098140  0.075200  1.0  -0.8047
  O  O84  1  0.443350  0.813890  0.008840  1.0  -0.7533
  O  O85  1  0.780360  0.756360  0.949180  1.0  -0.7265
  O  O86  1  0.717400  0.612200  0.959100  1.0  -0.614
  O  O87  1  0.969280  0.075200  0.826660  1.0  -0.8041
  O  O88  1  0.320170  0.000000  0.000000  1.0  -0.8558
  O  O89  1  0.679830  0.000000  0.000000  1.0  -0.8548
  O  O90  1  0.000000  0.000000  0.000000  1.0  -0.7993
