# generated using pymatgen
data_MnCr(CN)6
_symmetry_space_group_name_H-M   'P 1'
_cell_length_a   7.72450000
_cell_length_b   13.60900000
_cell_length_c   14.06100000
_cell_angle_alpha   90.00000000
_cell_angle_beta   90.00000000
_cell_angle_gamma   90.00000000
_symmetry_Int_Tables_number   1
_chemical_formula_structural   MnCr(CN)6
_chemical_formula_sum   'Mn4 Cr4 C24 N24'
_cell_volume   1478.13057295
_cell_formula_units_Z   4
loop_
 _symmetry_equiv_pos_site_id
 _symmetry_equiv_pos_as_xyz
  1  'x, y, z'
loop_
 _atom_site_type_symbol
 _atom_site_label
 _atom_site_symmetry_multiplicity
 _atom_site_fract_x
 _atom_site_fract_y
 _atom_site_fract_z
 _atom_site_occupancy
 _atom_site_charge
  Mn  Mn1  1  0.750000  0.338920  0.344670  1.0  1.022
  Mn  Mn2  1  0.250000  0.161080  0.844670  1.0  1.0219
  Mn  Mn3  1  0.250000  0.661080  0.655330  1.0  1.0228
  Mn  Mn4  1  0.750000  0.838920  0.155330  1.0  1.0229
  Cr  Cr5  1  0.250000  0.096470  0.208970  1.0  0.4265
  Cr  Cr6  1  0.750000  0.403530  0.708970  1.0  0.4265
  Cr  Cr7  1  0.750000  0.903530  0.791030  1.0  0.4275
  Cr  Cr8  1  0.250000  0.596470  0.291030  1.0  0.4275
  C  C9  1  0.057600  0.187000  0.267500  1.0  0.2151
  C  C10  1  0.060600  0.003000  0.158300  1.0  0.1718
  C  C11  1  0.942400  0.313000  0.767500  1.0  0.2161
  C  C12  1  0.939400  0.497000  0.658300  1.0  0.1714
  C  C13  1  0.557600  0.813000  0.732500  1.0  0.2163
  C  C14  1  0.560600  0.997000  0.841700  1.0  0.1718
  C  C15  1  0.442400  0.687000  0.232500  1.0  0.216
  C  C16  1  0.439400  0.503000  0.341700  1.0  0.1718
  C  C17  1  0.942400  0.813000  0.732500  1.0  0.2165
  C  C18  1  0.939400  0.997000  0.841700  1.0  0.1717
  C  C19  1  0.057600  0.687000  0.232500  1.0  0.2157
  C  C20  1  0.060600  0.503000  0.341700  1.0  0.1719
  C  C21  1  0.442400  0.187000  0.267500  1.0  0.2154
  C  C22  1  0.439400  0.003000  0.158300  1.0  0.1716
  C  C23  1  0.557600  0.313000  0.767500  1.0  0.2155
  C  C24  1  0.560600  0.497000  0.658300  1.0  0.1717
  C  C25  1  0.250000  0.168100  0.076900  1.0  0.0575
  C  C26  1  0.250000  0.016800  0.330300  1.0  0.2168
  C  C27  1  0.750000  0.331900  0.576900  1.0  0.058
  C  C28  1  0.750000  0.483200  0.830300  1.0  0.2159
  C  C29  1  0.750000  0.831900  0.923100  1.0  0.0576
  C  C30  1  0.750000  0.983200  0.669700  1.0  0.2161
  C  C31  1  0.250000  0.668100  0.423100  1.0  0.0575
  C  C32  1  0.250000  0.516800  0.169700  1.0  0.2167
  N  N33  1  0.951800  0.232600  0.301700  1.0  -0.4055
  N  N34  1  0.953200  0.949500  0.138200  1.0  -0.4255
  N  N35  1  0.048200  0.267400  0.801700  1.0  -0.4045
  N  N36  1  0.046800  0.550500  0.638200  1.0  -0.4246
  N  N37  1  0.451800  0.767400  0.698300  1.0  -0.4051
  N  N38  1  0.453200  0.050500  0.861800  1.0  -0.4259
  N  N39  1  0.548200  0.732600  0.198300  1.0  -0.4043
  N  N40  1  0.546800  0.449500  0.361800  1.0  -0.4253
  N  N41  1  0.048200  0.767400  0.698300  1.0  -0.4043
  N  N42  1  0.046800  0.050500  0.861800  1.0  -0.4252
  N  N43  1  0.951800  0.732600  0.198300  1.0  -0.4052
  N  N44  1  0.953200  0.449500  0.361800  1.0  -0.426
  N  N45  1  0.548200  0.232600  0.301700  1.0  -0.4046
  N  N46  1  0.546800  0.949500  0.138200  1.0  -0.4248
  N  N47  1  0.451800  0.267400  0.801700  1.0  -0.4052
  N  N48  1  0.453200  0.550500  0.638200  1.0  -0.4255
  N  N49  1  0.250000  0.195900  0.000600  1.0  -0.4486
  N  N50  1  0.250000  0.970700  0.399400  1.0  -0.3897
  N  N51  1  0.750000  0.304100  0.500600  1.0  -0.4464
  N  N52  1  0.750000  0.529300  0.899400  1.0  -0.3905
  N  N53  1  0.750000  0.804100  0.999400  1.0  -0.4474
  N  N54  1  0.750000  0.029300  0.600600  1.0  -0.3901
  N  N55  1  0.250000  0.695900  0.499400  1.0  -0.45
  N  N56  1  0.250000  0.470700  0.100600  1.0  -0.3897
