# generated using pymatgen
data_MnCr(CN)6
_symmetry_space_group_name_H-M   'P 1'
_cell_length_a   7.73000000
_cell_length_b   13.62700000
_cell_length_c   14.06400000
_cell_angle_alpha   90.00000000
_cell_angle_beta   90.00000000
_cell_angle_gamma   90.00000000
_symmetry_Int_Tables_number   1
_chemical_formula_structural   MnCr(CN)6
_chemical_formula_sum   'Mn4 Cr4 C24 N24'
_cell_volume   1481.45548944
_cell_formula_units_Z   4
loop_
 _symmetry_equiv_pos_site_id
 _symmetry_equiv_pos_as_xyz
  1  'x, y, z'
loop_
 _atom_site_type_symbol
 _atom_site_label
 _atom_site_symmetry_multiplicity
 _atom_site_fract_x
 _atom_site_fract_y
 _atom_site_fract_z
 _atom_site_occupancy
 _atom_site_charge
  Mn  Mn1  1  0.750000  0.338760  0.344840  1.0  1.0141
  Mn  Mn2  1  0.250000  0.161240  0.844840  1.0  1.0139
  Mn  Mn3  1  0.250000  0.661240  0.655160  1.0  1.0147
  Mn  Mn4  1  0.750000  0.838760  0.155160  1.0  1.0148
  Cr  Cr5  1  0.250000  0.096310  0.209280  1.0  0.4438
  Cr  Cr6  1  0.750000  0.403690  0.709280  1.0  0.4438
  Cr  Cr7  1  0.750000  0.903690  0.790720  1.0  0.4444
  Cr  Cr8  1  0.250000  0.596310  0.290720  1.0  0.4444
  C  C9  1  0.441600  0.186500  0.267200  1.0  0.2172
  C  C10  1  0.438500  0.002600  0.158700  1.0  0.1712
  C  C11  1  0.558400  0.313500  0.767200  1.0  0.2177
  C  C12  1  0.561500  0.497400  0.658700  1.0  0.1708
  C  C13  1  0.941600  0.813500  0.732800  1.0  0.2185
  C  C14  1  0.938500  0.997400  0.841300  1.0  0.1711
  C  C15  1  0.058400  0.686500  0.232800  1.0  0.2175
  C  C16  1  0.061500  0.502600  0.341300  1.0  0.1708
  C  C17  1  0.558400  0.813500  0.732800  1.0  0.2183
  C  C18  1  0.561500  0.997400  0.841300  1.0  0.1707
  C  C19  1  0.441600  0.686500  0.232800  1.0  0.2176
  C  C20  1  0.438500  0.502600  0.341300  1.0  0.1713
  C  C21  1  0.058400  0.186500  0.267200  1.0  0.217
  C  C22  1  0.061500  0.002600  0.158700  1.0  0.1709
  C  C23  1  0.941600  0.313500  0.767200  1.0  0.2182
  C  C24  1  0.938500  0.497400  0.658700  1.0  0.171
  C  C25  1  0.250000  0.167000  0.077800  1.0  0.0563
  C  C26  1  0.250000  0.017500  0.329400  1.0  0.205
  C  C27  1  0.750000  0.333000  0.577800  1.0  0.0566
  C  C28  1  0.750000  0.482500  0.829400  1.0  0.2043
  C  C29  1  0.750000  0.833000  0.922200  1.0  0.0559
  C  C30  1  0.750000  0.982500  0.670600  1.0  0.2039
  C  C31  1  0.250000  0.667000  0.422200  1.0  0.0559
  C  C32  1  0.250000  0.517500  0.170600  1.0  0.2042
  N  N33  1  0.547400  0.232500  0.301700  1.0  -0.4145
  N  N34  1  0.547000  0.449700  0.361700  1.0  -0.4203
  N  N35  1  0.452600  0.267500  0.801700  1.0  -0.4146
  N  N36  1  0.453000  0.050300  0.861700  1.0  -0.4211
  N  N37  1  0.047400  0.767500  0.698300  1.0  -0.4147
  N  N38  1  0.047000  0.550300  0.638300  1.0  -0.4199
  N  N39  1  0.952600  0.732500  0.198300  1.0  -0.4148
  N  N40  1  0.953000  0.949700  0.138300  1.0  -0.4207
  N  N41  1  0.452600  0.767500  0.698300  1.0  -0.4148
  N  N42  1  0.453000  0.550300  0.638300  1.0  -0.4207
  N  N43  1  0.547400  0.732500  0.198300  1.0  -0.4146
  N  N44  1  0.547000  0.949700  0.138300  1.0  -0.42
  N  N45  1  0.952600  0.232500  0.301700  1.0  -0.4148
  N  N46  1  0.953000  0.449700  0.361700  1.0  -0.4211
  N  N47  1  0.047400  0.267500  0.801700  1.0  -0.4145
  N  N48  1  0.047000  0.050300  0.861700  1.0  -0.4203
  N  N49  1  0.250000  0.970400  0.398600  1.0  -0.3762
  N  N50  1  0.750000  0.529600  0.898600  1.0  -0.3768
  N  N51  1  0.750000  0.029600  0.601400  1.0  -0.3765
  N  N52  1  0.250000  0.470400  0.101400  1.0  -0.3764
  N  N53  1  0.750000  0.303900  0.501800  1.0  -0.4476
  N  N54  1  0.250000  0.196100  0.001800  1.0  -0.4503
  N  N55  1  0.250000  0.696100  0.498200  1.0  -0.4519
  N  N56  1  0.750000  0.803900  0.998200  1.0  -0.4485
