# generated using pymatgen
data_Fe2C4Cl2O9
_symmetry_space_group_name_H-M   'P 1'
_cell_length_a   14.98600000
_cell_length_b   23.55200000
_cell_length_c   9.05100000
_cell_angle_alpha   90.00000000
_cell_angle_beta   90.00000000
_cell_angle_gamma   90.00000000
_symmetry_Int_Tables_number   1
_chemical_formula_structural   Fe2C4Cl2O9
_chemical_formula_sum   'Fe16 C32 Cl16 O72'
_cell_volume   3194.55291187
_cell_formula_units_Z   8
loop_
 _symmetry_equiv_pos_site_id
 _symmetry_equiv_pos_as_xyz
  1  'x, y, z'
loop_
 _atom_site_type_symbol
 _atom_site_label
 _atom_site_symmetry_multiplicity
 _atom_site_fract_x
 _atom_site_fract_y
 _atom_site_fract_z
 _atom_site_occupancy
 _atom_site_charge
  Fe  Fe1  1  0.071790  0.054250  0.697720  1.0  1.3121
  Fe  Fe2  1  0.071790  0.554250  0.197720  1.0  1.3121
  Fe  Fe3  1  0.571790  0.054250  0.197720  1.0  1.3121
  Fe  Fe4  1  0.571790  0.554250  0.697720  1.0  1.3121
  Fe  Fe5  1  0.928210  0.945750  0.697720  1.0  1.3175
  Fe  Fe6  1  0.928210  0.445750  0.197720  1.0  1.3175
  Fe  Fe7  1  0.428210  0.945750  0.197720  1.0  1.3175
  Fe  Fe8  1  0.428210  0.445750  0.697720  1.0  1.3175
  Fe  Fe9  1  0.321790  0.195750  0.947720  1.0  1.3147
  Fe  Fe10  1  0.321790  0.695750  0.447720  1.0  1.3147
  Fe  Fe11  1  0.821790  0.195750  0.447720  1.0  1.3147
  Fe  Fe12  1  0.821790  0.695750  0.947720  1.0  1.3147
  Fe  Fe13  1  0.178210  0.304250  0.947720  1.0  1.3149
  Fe  Fe14  1  0.178210  0.804250  0.447720  1.0  1.3149
  Fe  Fe15  1  0.678210  0.304250  0.447720  1.0  1.3149
  Fe  Fe16  1  0.678210  0.804250  0.947720  1.0  1.3149
  C  C17  1  0.188200  0.112210  0.894700  1.0  0.6022
  C  C18  1  0.204700  0.141580  0.745300  1.0  0.6485
  C  C19  1  0.188200  0.612210  0.394700  1.0  0.6022
  C  C20  1  0.204700  0.641580  0.245300  1.0  0.6485
  C  C21  1  0.688200  0.112210  0.394700  1.0  0.6022
  C  C22  1  0.704700  0.141580  0.245300  1.0  0.6485
  C  C23  1  0.688200  0.612210  0.894700  1.0  0.6022
  C  C24  1  0.704700  0.641580  0.745300  1.0  0.6485
  C  C25  1  0.811800  0.887790  0.894700  1.0  0.6032
  C  C26  1  0.795300  0.858420  0.745300  1.0  0.6476
  C  C27  1  0.811800  0.387790  0.394700  1.0  0.6032
  C  C28  1  0.795300  0.358420  0.245300  1.0  0.6476
  C  C29  1  0.311800  0.887790  0.394700  1.0  0.6032
  C  C30  1  0.295300  0.858420  0.245300  1.0  0.6476
  C  C31  1  0.311800  0.387790  0.894700  1.0  0.6032
  C  C32  1  0.295300  0.358420  0.745300  1.0  0.6476
  C  C33  1  0.438200  0.137790  0.144700  1.0  0.6021
  C  C34  1  0.454700  0.108420  0.995300  1.0  0.6483
  C  C35  1  0.438200  0.637790  0.644700  1.0  0.6021
  C  C36  1  0.454700  0.608420  0.495300  1.0  0.6483
  C  C37  1  0.938200  0.137790  0.644700  1.0  0.6021
  C  C38  1  0.954700  0.108420  0.495300  1.0  0.6483
  C  C39  1  0.938200  0.637790  0.144700  1.0  0.6021
  C  C40  1  0.954700  0.608420  0.995300  1.0  0.6483
  C  C41  1  0.061800  0.362210  0.144700  1.0  0.6033
  C  C42  1  0.045300  0.391580  0.995300  1.0  0.6477
  C  C43  1  0.061800  0.862210  0.644700  1.0  0.6033
  C  C44  1  0.045300  0.891580  0.495300  1.0  0.6477
  C  C45  1  0.561800  0.362210  0.644700  1.0  0.6033
  C  C46  1  0.545300  0.391580  0.495300  1.0  0.6477
  C  C47  1  0.561800  0.862210  0.144700  1.0  0.6033
  C  C48  1  0.545300  0.891580  0.995300  1.0  0.6477
  Cl  Cl49  1  0.181470  0.995690  0.598900  1.0  -0.4566
  Cl  Cl50  1  0.181470  0.495690  0.098900  1.0  -0.4566
  Cl  Cl51  1  0.681470  0.995690  0.098900  1.0  -0.4566
  Cl  Cl52  1  0.681470  0.495690  0.598900  1.0  -0.4566
  Cl  Cl53  1  0.818530  0.004310  0.598900  1.0  -0.4573
  Cl  Cl54  1  0.818530  0.504310  0.098900  1.0  -0.4573
  Cl  Cl55  1  0.318530  0.004310  0.098900  1.0  -0.4573
  Cl  Cl56  1  0.318530  0.504310  0.598900  1.0  -0.4573
  Cl  Cl57  1  0.431470  0.254310  0.848900  1.0  -0.4569
  Cl  Cl58  1  0.431470  0.754310  0.348900  1.0  -0.4569
  Cl  Cl59  1  0.931470  0.254310  0.348900  1.0  -0.4569
  Cl  Cl60  1  0.931470  0.754310  0.848900  1.0  -0.4569
  Cl  Cl61  1  0.068530  0.245690  0.848900  1.0  -0.457
  Cl  Cl62  1  0.068530  0.745690  0.348900  1.0  -0.457
  Cl  Cl63  1  0.568530  0.245690  0.348900  1.0  -0.457
  Cl  Cl64  1  0.568530  0.745690  0.848900  1.0  -0.457
  O  O65  1  0.159200  0.125050  0.640100  1.0  -0.4207
  O  O66  1  0.230900  0.130050  0.003900  1.0  -0.4222
  O  O67  1  0.264500  0.179030  0.744700  1.0  -0.4475
  O  O68  1  0.131500  0.072910  0.896100  1.0  -0.4758
  O  O69  1  0.159200  0.625050  0.140100  1.0  -0.4207
  O  O70  1  0.230900  0.630050  0.503900  1.0  -0.4222
  O  O71  1  0.264500  0.679030  0.244700  1.0  -0.4475
  O  O72  1  0.131500  0.572910  0.396100  1.0  -0.4758
  O  O73  1  0.659200  0.125050  0.140100  1.0  -0.4207
  O  O74  1  0.730900  0.130050  0.503900  1.0  -0.4222
  O  O75  1  0.764500  0.179030  0.244700  1.0  -0.4475
  O  O76  1  0.631500  0.072910  0.396100  1.0  -0.4758
  O  O77  1  0.659200  0.625050  0.640100  1.0  -0.4207
  O  O78  1  0.730900  0.630050  0.003900  1.0  -0.4222
  O  O79  1  0.764500  0.679030  0.744700  1.0  -0.4475
  O  O80  1  0.631500  0.572910  0.896100  1.0  -0.4758
  O  O81  1  0.840800  0.874950  0.640100  1.0  -0.421
  O  O82  1  0.769100  0.869950  0.003900  1.0  -0.4215
  O  O83  1  0.735500  0.820970  0.744700  1.0  -0.4476
  O  O84  1  0.868500  0.927090  0.896100  1.0  -0.4755
  O  O85  1  0.840800  0.374950  0.140100  1.0  -0.421
  O  O86  1  0.769100  0.369950  0.503900  1.0  -0.4215
  O  O87  1  0.735500  0.320970  0.244700  1.0  -0.4476
  O  O88  1  0.868500  0.427090  0.396100  1.0  -0.4755
  O  O89  1  0.340800  0.874950  0.140100  1.0  -0.421
  O  O90  1  0.269100  0.869950  0.503900  1.0  -0.4215
  O  O91  1  0.235500  0.820970  0.244700  1.0  -0.4476
  O  O92  1  0.368500  0.927090  0.396100  1.0  -0.4755
  O  O93  1  0.340800  0.374950  0.640100  1.0  -0.421
  O  O94  1  0.269100  0.369950  0.003900  1.0  -0.4215
  O  O95  1  0.235500  0.320970  0.744700  1.0  -0.4476
  O  O96  1  0.368500  0.427090  0.896100  1.0  -0.4755
  O  O97  1  0.409200  0.124950  0.890100  1.0  -0.4208
  O  O98  1  0.480900  0.119950  0.253900  1.0  -0.4209
  O  O99  1  0.514500  0.070970  0.994700  1.0  -0.4469
  O  O100  1  0.381500  0.177090  0.146100  1.0  -0.4757
  O  O101  1  0.409200  0.624950  0.390100  1.0  -0.4208
  O  O102  1  0.480900  0.619950  0.753900  1.0  -0.4209
  O  O103  1  0.514500  0.570970  0.494700  1.0  -0.4469
  O  O104  1  0.381500  0.677090  0.646100  1.0  -0.4757
  O  O105  1  0.909200  0.124950  0.390100  1.0  -0.4208
  O  O106  1  0.980900  0.119950  0.753900  1.0  -0.4209
  O  O107  1  0.014500  0.070970  0.494700  1.0  -0.4469
  O  O108  1  0.881500  0.177090  0.646100  1.0  -0.4757
  O  O109  1  0.909200  0.624950  0.890100  1.0  -0.4208
  O  O110  1  0.980900  0.619950  0.253900  1.0  -0.4209
  O  O111  1  0.014500  0.570970  0.994700  1.0  -0.4469
  O  O112  1  0.881500  0.677090  0.146100  1.0  -0.4757
  O  O113  1  0.090800  0.375050  0.890100  1.0  -0.4212
  O  O114  1  0.019100  0.380050  0.253900  1.0  -0.4205
  O  O115  1  0.985500  0.429030  0.994700  1.0  -0.4473
  O  O116  1  0.118500  0.322910  0.146100  1.0  -0.4755
  O  O117  1  0.090800  0.875050  0.390100  1.0  -0.4212
  O  O118  1  0.019100  0.880050  0.753900  1.0  -0.4205
  O  O119  1  0.985500  0.929030  0.494700  1.0  -0.4473
  O  O120  1  0.118500  0.822910  0.646100  1.0  -0.4755
  O  O121  1  0.590800  0.375050  0.390100  1.0  -0.4212
  O  O122  1  0.519100  0.380050  0.753900  1.0  -0.4205
  O  O123  1  0.485500  0.429030  0.494700  1.0  -0.4473
  O  O124  1  0.618500  0.322910  0.646100  1.0  -0.4755
  O  O125  1  0.590800  0.875050  0.890100  1.0  -0.4212
  O  O126  1  0.519100  0.880050  0.253900  1.0  -0.4205
  O  O127  1  0.485500  0.929030  0.994700  1.0  -0.4473
  O  O128  1  0.618500  0.822910  0.146100  1.0  -0.4755
  O  O129  1  0.000000  0.000000  0.772000  1.0  -0.6869
  O  O130  1  0.000000  0.500000  0.272000  1.0  -0.6869
  O  O131  1  0.500000  0.000000  0.272000  1.0  -0.6869
  O  O132  1  0.500000  0.500000  0.772000  1.0  -0.6869
  O  O133  1  0.250000  0.250000  0.022000  1.0  -0.6869
  O  O134  1  0.250000  0.750000  0.522000  1.0  -0.6869
  O  O135  1  0.750000  0.250000  0.522000  1.0  -0.6869
  O  O136  1  0.750000  0.750000  0.022000  1.0  -0.6869
