# generated using pymatgen
data_Fe2C4Cl2O9
_symmetry_space_group_name_H-M   'P 1'
_cell_length_a   14.88250000
_cell_length_b   23.32810000
_cell_length_c   9.10870000
_cell_angle_alpha   90.00000000
_cell_angle_beta   90.00000000
_cell_angle_gamma   90.00000000
_symmetry_Int_Tables_number   1
_chemical_formula_structural   Fe2C4Cl2O9
_chemical_formula_sum   'Fe16 C32 Cl16 O72'
_cell_volume   3162.36254897
_cell_formula_units_Z   8
loop_
 _symmetry_equiv_pos_site_id
 _symmetry_equiv_pos_as_xyz
  1  'x, y, z'
loop_
 _atom_site_type_symbol
 _atom_site_label
 _atom_site_symmetry_multiplicity
 _atom_site_fract_x
 _atom_site_fract_y
 _atom_site_fract_z
 _atom_site_occupancy
 _atom_site_charge
  Fe  Fe1  1  0.577840  0.054640  0.262580  1.0  1.2345
  Fe  Fe2  1  0.577840  0.554640  0.762580  1.0  1.2345
  Fe  Fe3  1  0.077840  0.054640  0.762580  1.0  1.2345
  Fe  Fe4  1  0.077840  0.554640  0.262580  1.0  1.2345
  Fe  Fe5  1  0.422160  0.945360  0.262580  1.0  1.2387
  Fe  Fe6  1  0.422160  0.445360  0.762580  1.0  1.2387
  Fe  Fe7  1  0.922160  0.945360  0.762580  1.0  1.2387
  Fe  Fe8  1  0.922160  0.445360  0.262580  1.0  1.2387
  Fe  Fe9  1  0.827840  0.195360  0.512580  1.0  1.2366
  Fe  Fe10  1  0.827840  0.695360  0.012580  1.0  1.2366
  Fe  Fe11  1  0.327840  0.195360  0.012580  1.0  1.2366
  Fe  Fe12  1  0.327840  0.695360  0.512580  1.0  1.2366
  Fe  Fe13  1  0.672160  0.304640  0.512580  1.0  1.2368
  Fe  Fe14  1  0.672160  0.804640  0.012580  1.0  1.2368
  Fe  Fe15  1  0.172160  0.304640  0.012580  1.0  1.2368
  Fe  Fe16  1  0.172160  0.804640  0.512580  1.0  1.2368
  C  C17  1  0.708830  0.141830  0.314800  1.0  0.6259
  C  C18  1  0.691130  0.111890  0.461900  1.0  0.6248
  C  C19  1  0.708830  0.641830  0.814800  1.0  0.6259
  C  C20  1  0.691130  0.611890  0.961900  1.0  0.6248
  C  C21  1  0.208830  0.141830  0.814800  1.0  0.6259
  C  C22  1  0.191130  0.111890  0.961900  1.0  0.6248
  C  C23  1  0.208830  0.641830  0.314800  1.0  0.6259
  C  C24  1  0.191130  0.611890  0.461900  1.0  0.6248
  C  C25  1  0.291170  0.858170  0.314800  1.0  0.6252
  C  C26  1  0.308870  0.888110  0.461900  1.0  0.6256
  C  C27  1  0.291170  0.358170  0.814800  1.0  0.6252
  C  C28  1  0.308870  0.388110  0.961900  1.0  0.6256
  C  C29  1  0.791170  0.858170  0.814800  1.0  0.6252
  C  C30  1  0.808870  0.888110  0.961900  1.0  0.6256
  C  C31  1  0.791170  0.358170  0.314800  1.0  0.6252
  C  C32  1  0.808870  0.388110  0.461900  1.0  0.6256
  C  C33  1  0.958830  0.108170  0.564800  1.0  0.6253
  C  C34  1  0.941130  0.138110  0.711900  1.0  0.6248
  C  C35  1  0.958830  0.608170  0.064800  1.0  0.6253
  C  C36  1  0.941130  0.638110  0.211900  1.0  0.6248
  C  C37  1  0.458830  0.108170  0.064800  1.0  0.6253
  C  C38  1  0.441130  0.138110  0.211900  1.0  0.6248
  C  C39  1  0.458830  0.608170  0.564800  1.0  0.6253
  C  C40  1  0.441130  0.638110  0.711900  1.0  0.6248
  C  C41  1  0.541170  0.391830  0.564800  1.0  0.6257
  C  C42  1  0.558870  0.361890  0.711900  1.0  0.6256
  C  C43  1  0.541170  0.891830  0.064800  1.0  0.6257
  C  C44  1  0.558870  0.861890  0.211900  1.0  0.6256
  C  C45  1  0.041170  0.391830  0.064800  1.0  0.6257
  C  C46  1  0.058870  0.361890  0.211900  1.0  0.6256
  C  C47  1  0.041170  0.891830  0.564800  1.0  0.6257
  C  C48  1  0.058870  0.861890  0.711900  1.0  0.6256
  Cl  Cl49  1  0.681910  0.994080  0.165970  1.0  -0.419
  Cl  Cl50  1  0.681910  0.494080  0.665970  1.0  -0.419
  Cl  Cl51  1  0.181910  0.994080  0.665970  1.0  -0.419
  Cl  Cl52  1  0.181910  0.494080  0.165970  1.0  -0.419
  Cl  Cl53  1  0.318090  0.005920  0.165970  1.0  -0.4192
  Cl  Cl54  1  0.318090  0.505920  0.665970  1.0  -0.4192
  Cl  Cl55  1  0.818090  0.005920  0.665970  1.0  -0.4192
  Cl  Cl56  1  0.818090  0.505920  0.165970  1.0  -0.4192
  Cl  Cl57  1  0.931910  0.255920  0.415970  1.0  -0.4192
  Cl  Cl58  1  0.931910  0.755920  0.915970  1.0  -0.4192
  Cl  Cl59  1  0.431910  0.255920  0.915970  1.0  -0.4192
  Cl  Cl60  1  0.431910  0.755920  0.415970  1.0  -0.4192
  Cl  Cl61  1  0.568090  0.244080  0.415970  1.0  -0.419
  Cl  Cl62  1  0.568090  0.744080  0.915970  1.0  -0.419
  Cl  Cl63  1  0.068090  0.244080  0.915970  1.0  -0.419
  Cl  Cl64  1  0.068090  0.744080  0.415970  1.0  -0.419
  O  O65  1  0.663630  0.124980  0.207880  1.0  -0.4144
  O  O66  1  0.634400  0.071990  0.461580  1.0  -0.4523
  O  O67  1  0.734140  0.130200  0.569960  1.0  -0.4238
  O  O68  1  0.768420  0.180480  0.314790  1.0  -0.4602
  O  O69  1  0.663630  0.624980  0.707880  1.0  -0.4144
  O  O70  1  0.634400  0.571990  0.961580  1.0  -0.4523
  O  O71  1  0.734140  0.630200  0.069960  1.0  -0.4238
  O  O72  1  0.768420  0.680480  0.814790  1.0  -0.4602
  O  O73  1  0.163630  0.124980  0.707880  1.0  -0.4144
  O  O74  1  0.134400  0.071990  0.961580  1.0  -0.4523
  O  O75  1  0.234140  0.130200  0.069960  1.0  -0.4238
  O  O76  1  0.268420  0.180480  0.814790  1.0  -0.4602
  O  O77  1  0.163630  0.624980  0.207880  1.0  -0.4144
  O  O78  1  0.134400  0.571990  0.461580  1.0  -0.4523
  O  O79  1  0.234140  0.630200  0.569960  1.0  -0.4238
  O  O80  1  0.268420  0.680480  0.314790  1.0  -0.4602
  O  O81  1  0.336370  0.875020  0.207880  1.0  -0.4157
  O  O82  1  0.365600  0.928010  0.461580  1.0  -0.453
  O  O83  1  0.265860  0.869800  0.569960  1.0  -0.4231
  O  O84  1  0.231580  0.819520  0.314790  1.0  -0.4597
  O  O85  1  0.336370  0.375020  0.707880  1.0  -0.4157
  O  O86  1  0.365600  0.428010  0.961580  1.0  -0.453
  O  O87  1  0.265860  0.369800  0.069960  1.0  -0.4231
  O  O88  1  0.231580  0.319520  0.814790  1.0  -0.4597
  O  O89  1  0.836370  0.875020  0.707880  1.0  -0.4157
  O  O90  1  0.865600  0.928010  0.961580  1.0  -0.453
  O  O91  1  0.765860  0.869800  0.069960  1.0  -0.4231
  O  O92  1  0.731580  0.819520  0.814790  1.0  -0.4597
  O  O93  1  0.836370  0.375020  0.207880  1.0  -0.4157
  O  O94  1  0.865600  0.428010  0.461580  1.0  -0.453
  O  O95  1  0.765860  0.369800  0.569960  1.0  -0.4231
  O  O96  1  0.731580  0.319520  0.314790  1.0  -0.4597
  O  O97  1  0.913630  0.125020  0.457880  1.0  -0.4144
  O  O98  1  0.884400  0.178010  0.711580  1.0  -0.4521
  O  O99  1  0.984140  0.119800  0.819960  1.0  -0.4234
  O  O100  1  0.018420  0.069520  0.564790  1.0  -0.4604
  O  O101  1  0.913630  0.625020  0.957880  1.0  -0.4144
  O  O102  1  0.884400  0.678010  0.211580  1.0  -0.4521
  O  O103  1  0.984140  0.619800  0.319960  1.0  -0.4234
  O  O104  1  0.018420  0.569520  0.064790  1.0  -0.4604
  O  O105  1  0.413630  0.125020  0.957880  1.0  -0.4144
  O  O106  1  0.384400  0.178010  0.211580  1.0  -0.4521
  O  O107  1  0.484140  0.119800  0.319960  1.0  -0.4234
  O  O108  1  0.518420  0.069520  0.064790  1.0  -0.4604
  O  O109  1  0.413630  0.625020  0.457880  1.0  -0.4144
  O  O110  1  0.384400  0.678010  0.711580  1.0  -0.4521
  O  O111  1  0.484140  0.619800  0.819960  1.0  -0.4234
  O  O112  1  0.518420  0.569520  0.564790  1.0  -0.4604
  O  O113  1  0.586370  0.374980  0.457880  1.0  -0.4151
  O  O114  1  0.615600  0.321990  0.711580  1.0  -0.4525
  O  O115  1  0.515860  0.380200  0.819960  1.0  -0.4232
  O  O116  1  0.481580  0.430480  0.564790  1.0  -0.4595
  O  O117  1  0.586370  0.874980  0.957880  1.0  -0.4151
  O  O118  1  0.615600  0.821990  0.211580  1.0  -0.4525
  O  O119  1  0.515860  0.880200  0.319960  1.0  -0.4232
  O  O120  1  0.481580  0.930480  0.064790  1.0  -0.4595
  O  O121  1  0.086370  0.374980  0.957880  1.0  -0.4151
  O  O122  1  0.115600  0.321990  0.211580  1.0  -0.4525
  O  O123  1  0.015860  0.380200  0.319960  1.0  -0.4232
  O  O124  1  0.981580  0.430480  0.064790  1.0  -0.4595
  O  O125  1  0.086370  0.874980  0.457880  1.0  -0.4151
  O  O126  1  0.115600  0.821990  0.711580  1.0  -0.4525
  O  O127  1  0.015860  0.880200  0.819960  1.0  -0.4232
  O  O128  1  0.981580  0.930480  0.564790  1.0  -0.4595
  O  O129  1  0.500000  0.000000  0.343700  1.0  -0.6354
  O  O130  1  0.500000  0.500000  0.843700  1.0  -0.6354
  O  O131  1  0.000000  0.000000  0.843700  1.0  -0.6354
  O  O132  1  0.000000  0.500000  0.343700  1.0  -0.6354
  O  O133  1  0.750000  0.250000  0.593700  1.0  -0.635
  O  O134  1  0.750000  0.750000  0.093700  1.0  -0.635
  O  O135  1  0.250000  0.250000  0.093700  1.0  -0.635
  O  O136  1  0.250000  0.750000  0.593700  1.0  -0.635
