# generated using pymatgen
data_Fe2HC4Cl2O9
_symmetry_space_group_name_H-M   'P 1'
_cell_length_a   9.64450000
_cell_length_b   14.74700000
_cell_length_c   12.31000000
_cell_angle_alpha   90.00000000
_cell_angle_beta   108.45700000
_cell_angle_gamma   90.00000000
_symmetry_Int_Tables_number   1
_chemical_formula_structural   Fe2HC4Cl2O9
_chemical_formula_sum   'Fe8 H4 C16 Cl8 O36'
_cell_volume   1660.76029988
_cell_formula_units_Z   4
loop_
 _symmetry_equiv_pos_site_id
 _symmetry_equiv_pos_as_xyz
  1  'x, y, z'
loop_
 _atom_site_type_symbol
 _atom_site_label
 _atom_site_symmetry_multiplicity
 _atom_site_fract_x
 _atom_site_fract_y
 _atom_site_fract_z
 _atom_site_occupancy
 _atom_site_charge
  Fe  Fe1  1  0.945160  0.052970  0.337090  1.0  1.1775
  Fe  Fe2  1  0.840900  0.210310  0.107240  1.0  1.1991
  Fe  Fe3  1  0.445160  0.552970  0.337090  1.0  1.1772
  Fe  Fe4  1  0.340900  0.710310  0.107240  1.0  1.1991
  Fe  Fe5  1  0.945160  0.947030  0.837090  1.0  1.1778
  Fe  Fe6  1  0.840900  0.789690  0.607240  1.0  1.2
  Fe  Fe7  1  0.445160  0.447030  0.837090  1.0  1.1776
  Fe  Fe8  1  0.340900  0.289690  0.607240  1.0  1.2
  H  H9  1  0.733800  0.150700  0.248100  1.0  0.4663
  H  H10  1  0.233800  0.650700  0.248100  1.0  0.4663
  H  H11  1  0.733800  0.849300  0.748100  1.0  0.4665
  H  H12  1  0.233800  0.349300  0.748100  1.0  0.4665
  C  C13  1  0.090700  0.184200  0.504400  1.0  0.6227
  C  C14  1  0.191000  0.166700  0.431200  1.0  0.6192
  C  C15  1  0.811300  0.937000  0.452700  1.0  0.6548
  C  C16  1  0.973300  0.918000  0.504100  1.0  0.6887
  C  C17  1  0.590700  0.684200  0.504400  1.0  0.6244
  C  C18  1  0.691000  0.666667  0.431200  1.0  0.6199
  C  C19  1  0.311300  0.437000  0.452700  1.0  0.6549
  C  C20  1  0.473300  0.418000  0.504100  1.0  0.6888
  C  C21  1  0.090700  0.815800  0.004400  1.0  0.6229
  C  C22  1  0.191000  0.833300  0.931200  1.0  0.6191
  C  C23  1  0.811300  0.063000  0.952700  1.0  0.6543
  C  C24  1  0.973300  0.082000  0.004100  1.0  0.6875
  C  C25  1  0.590700  0.315800  0.004400  1.0  0.6245
  C  C26  1  0.691000  0.333333  0.931200  1.0  0.6198
  C  C27  1  0.311300  0.563000  0.952700  1.0  0.6543
  C  C28  1  0.473300  0.582000  0.004100  1.0  0.6875
  Cl  Cl29  1  0.965600  0.949040  0.208400  1.0  -0.4297
  Cl  Cl30  1  0.994700  0.315120  0.216300  1.0  -0.4024
  Cl  Cl31  1  0.465600  0.449040  0.208400  1.0  -0.4297
  Cl  Cl32  1  0.494700  0.815120  0.216300  1.0  -0.4024
  Cl  Cl33  1  0.965600  0.050960  0.708400  1.0  -0.43
  Cl  Cl34  1  0.994700  0.684880  0.716300  1.0  -0.4024
  Cl  Cl35  1  0.465600  0.550960  0.708400  1.0  -0.43
  Cl  Cl36  1  0.494700  0.184880  0.716300  1.0  -0.4024
  O  O37  1  0.821500  0.140300  0.233700  1.0  -0.9081
  O  O38  1  0.967200  0.146900  0.472000  1.0  -0.4487
  O  O39  1  0.143900  0.111500  0.349500  1.0  -0.4689
  O  O40  1  0.140000  0.234200  0.589200  1.0  -0.4845
  O  O41  1  0.309800  0.207900  0.458900  1.0  -0.4398
  O  O42  1  0.729100  0.887800  0.488500  1.0  -0.4609
  O  O43  1  0.010700  0.854500  0.577000  1.0  -0.4627
  O  O44  1  0.059000  0.965900  0.469700  1.0  -0.4549
  O  O45  1  0.772900  0.998000  0.378700  1.0  -0.4704
  O  O46  1  0.321500  0.640300  0.233700  1.0  -0.9086
  O  O47  1  0.467200  0.646900  0.472000  1.0  -0.4491
  O  O48  1  0.643900  0.611500  0.349500  1.0  -0.4689
  O  O49  1  0.640000  0.734200  0.589200  1.0  -0.4838
  O  O50  1  0.809800  0.707900  0.458900  1.0  -0.4387
  O  O51  1  0.229100  0.387800  0.488500  1.0  -0.4611
  O  O52  1  0.510700  0.354500  0.577000  1.0  -0.4627
  O  O53  1  0.559000  0.465900  0.469700  1.0  -0.4551
  O  O54  1  0.272900  0.498000  0.378700  1.0  -0.4704
  O  O55  1  0.821500  0.859700  0.733700  1.0  -0.9084
  O  O56  1  0.967200  0.853100  0.972000  1.0  -0.4484
  O  O57  1  0.143900  0.888500  0.849500  1.0  -0.4689
  O  O58  1  0.140000  0.765800  0.089200  1.0  -0.4821
  O  O59  1  0.309800  0.792100  0.958900  1.0  -0.4393
  O  O60  1  0.729100  0.112200  0.988500  1.0  -0.4608
  O  O61  1  0.010700  0.145500  0.077000  1.0  -0.4606
  O  O62  1  0.059000  0.034100  0.969700  1.0  -0.4543
  O  O63  1  0.772900  0.002000  0.878700  1.0  -0.4717
  O  O64  1  0.321500  0.359700  0.733700  1.0  -0.909
  O  O65  1  0.467200  0.353100  0.972000  1.0  -0.4488
  O  O66  1  0.643900  0.388500  0.849500  1.0  -0.4687
  O  O67  1  0.640000  0.265800  0.089200  1.0  -0.4839
  O  O68  1  0.809800  0.292100  0.958900  1.0  -0.4382
  O  O69  1  0.229100  0.612200  0.988500  1.0  -0.4609
  O  O70  1  0.510700  0.645500  0.077000  1.0  -0.4605
  O  O71  1  0.559000  0.534100  0.969700  1.0  -0.4546
  O  O72  1  0.272900  0.502000  0.878700  1.0  -0.4717
