# generated using pymatgen
data_Mn2NbH4(C6N5)2
_symmetry_space_group_name_H-M   'P 1'
_cell_length_a   7.37850000
_cell_length_b   11.76250000
_cell_length_c   14.42880000
_cell_angle_alpha   90.00000000
_cell_angle_beta   90.00000000
_cell_angle_gamma   98.99900000
_symmetry_Int_Tables_number   1
_chemical_formula_structural   Mn2NbH4(C6N5)2
_chemical_formula_sum   'Mn4 Nb2 H8 C24 N20'
_cell_volume   1236.85576941
_cell_formula_units_Z   2
loop_
 _symmetry_equiv_pos_site_id
 _symmetry_equiv_pos_as_xyz
  1  'x, y, z'
loop_
 _atom_site_type_symbol
 _atom_site_label
 _atom_site_symmetry_multiplicity
 _atom_site_fract_x
 _atom_site_fract_y
 _atom_site_fract_z
 _atom_site_occupancy
 _atom_site_charge
  Mn  Mn1  1  0.500530  0.524180  0.500020  1.0  1.1773
  Mn  Mn2  1  0.971040  0.973070  0.026710  1.0  1.0746
  Mn  Mn3  1  0.499470  0.475820  0.000020  1.0  1.1772
  Mn  Mn4  1  0.028960  0.026930  0.526710  1.0  1.0745
  Nb  Nb5  1  0.943570  0.339790  0.258480  1.0  0.3089
  Nb  Nb6  1  0.056430  0.660210  0.758480  1.0  0.3044
  H  H7  1  0.671000  0.141500  0.046700  1.0  0.0859
  H  H8  1  0.358200  0.143900  0.041900  1.0  0.1085
  H  H9  1  0.273600  0.807000  0.004900  1.0  0.0951
  H  H10  1  0.586000  0.806200  0.007400  1.0  0.0988
  H  H11  1  0.329000  0.858500  0.546700  1.0  0.0859
  H  H12  1  0.641800  0.856100  0.541900  1.0  0.1079
  H  H13  1  0.726400  0.193000  0.504900  1.0  0.0965
  H  H14  1  0.414000  0.193800  0.507400  1.0  0.0991
  C  C15  1  0.693200  0.201300  0.272500  1.0  0.0228
  C  C16  1  0.948300  0.530900  0.232200  1.0  0.0539
  C  C17  1  0.770600  0.392400  0.373300  1.0  0.1271
  C  C18  1  0.166200  0.432000  0.349200  1.0  0.1328
  C  C19  1  0.172900  0.393100  0.157800  1.0  0.1303
  C  C20  1  0.766900  0.358100  0.135600  1.0  0.1315
  C  C21  1  0.993100  0.188800  0.173000  1.0  0.1533
  C  C22  1  0.020400  0.218200  0.365400  1.0  0.1416
  C  C23  1  0.590300  0.071100  0.037600  1.0  0.1371
  C  C24  1  0.402700  0.072700  0.035400  1.0  0.1237
  C  C25  1  0.354200  0.877500  0.013500  1.0  0.129
  C  C26  1  0.541000  0.877000  0.015200  1.0  0.123
  C  C27  1  0.306800  0.798700  0.772500  1.0  0.0222
  C  C28  1  0.051700  0.469100  0.732200  1.0  0.0601
  C  C29  1  0.229400  0.607600  0.873300  1.0  0.127
  C  C30  1  0.833800  0.568000  0.849200  1.0  0.1334
  C  C31  1  0.827100  0.606900  0.657800  1.0  0.1325
  C  C32  1  0.233100  0.641900  0.635600  1.0  0.133
  C  C33  1  0.006900  0.811200  0.673000  1.0  0.1519
  C  C34  1  0.979600  0.781800  0.865400  1.0  0.1405
  C  C35  1  0.409700  0.928900  0.537600  1.0  0.1373
  C  C36  1  0.597300  0.927300  0.535400  1.0  0.1231
  C  C37  1  0.645800  0.122500  0.513500  1.0  0.1299
  C  C38  1  0.459000  0.123000  0.515200  1.0  0.1226
  N  N39  1  0.569400  0.129000  0.277700  1.0  -0.4217
  N  N40  1  0.955600  0.626100  0.213800  1.0  -0.4395
  N  N41  1  0.678800  0.418500  0.430800  1.0  -0.4575
  N  N42  1  0.276200  0.476400  0.399400  1.0  -0.4507
  N  N43  1  0.282800  0.419400  0.101600  1.0  -0.473
  N  N44  1  0.676900  0.371200  0.073050  1.0  -0.4658
  N  N45  1  0.010500  0.113000  0.125390  1.0  -0.48
  N  N46  1  0.054500  0.158800  0.423600  1.0  -0.4732
  N  N47  1  0.662000  0.974300  0.027630  1.0  -0.3534
  N  N48  1  0.282600  0.975300  0.024180  1.0  -0.3458
  N  N49  1  0.430600  0.871000  0.777700  1.0  -0.4228
  N  N50  1  0.044400  0.373900  0.713800  1.0  -0.4358
  N  N51  1  0.321200  0.581500  0.930800  1.0  -0.4541
  N  N52  1  0.723800  0.523600  0.899400  1.0  -0.4489
  N  N53  1  0.717200  0.580600  0.601600  1.0  -0.4734
  N  N54  1  0.323100  0.628800  0.573050  1.0  -0.4658
  N  N55  1  0.989500  0.887000  0.625390  1.0  -0.4812
  N  N56  1  0.945500  0.841200  0.923600  1.0  -0.4727
  N  N57  1  0.338000  0.025700  0.527630  1.0  -0.3525
  N  N58  1  0.717400  0.024700  0.524180  1.0  -0.346
