# generated using pymatgen
data_CuH8C12(NO2)2
_symmetry_space_group_name_H-M   'P 1'
_cell_length_a   5.16460000
_cell_length_b   24.46600000
_cell_length_c   11.58500000
_cell_angle_alpha   90.00000000
_cell_angle_beta   101.55900000
_cell_angle_gamma   90.00000000
_symmetry_Int_Tables_number   1
_chemical_formula_structural   CuH8C12(NO2)2
_chemical_formula_sum   'Cu4 H32 C48 N8 O16'
_cell_volume   1434.15859806
_cell_formula_units_Z   4
loop_
 _symmetry_equiv_pos_site_id
 _symmetry_equiv_pos_as_xyz
  1  'x, y, z'
loop_
 _atom_site_type_symbol
 _atom_site_label
 _atom_site_symmetry_multiplicity
 _atom_site_fract_x
 _atom_site_fract_y
 _atom_site_fract_z
 _atom_site_occupancy
 _atom_site_charge
  Cu  Cu1  1  0.057990  0.113430  0.783260  1.0  0.8539
  Cu  Cu2  1  0.557990  0.613430  0.783260  1.0  0.854
  Cu  Cu3  1  0.057990  0.886570  0.283260  1.0  0.854
  Cu  Cu4  1  0.557990  0.386570  0.283260  1.0  0.854
  H  H5  1  0.459100  0.332500  0.501400  1.0  0.0774
  H  H6  1  0.603200  0.257900  0.618900  1.0  0.1206
  H  H7  1  0.141600  0.229500  0.418600  1.0  0.1199
  H  H8  1  0.985800  0.305200  0.306400  1.0  0.0969
  H  H9  1  0.559800  0.904000  0.110900  1.0  0.0765
  H  H10  1  0.361300  0.966600  0.973300  1.0  0.122
  H  H11  1  0.018300  0.057900  0.047600  1.0  0.108
  H  H12  1  0.196000  0.994300  0.188800  1.0  0.0854
  H  H13  1  0.959100  0.832500  0.501400  1.0  0.0774
  H  H14  1  0.103200  0.757900  0.618900  1.0  0.1206
  H  H15  1  0.641600  0.729500  0.418600  1.0  0.1199
  H  H16  1  0.485800  0.805200  0.306400  1.0  0.0969
  H  H17  1  0.059800  0.404000  0.110900  1.0  0.0758
  H  H18  1  0.861300  0.466600  0.973300  1.0  0.122
  H  H19  1  0.518300  0.557900  0.047600  1.0  0.108
  H  H20  1  0.696000  0.494300  0.188800  1.0  0.0854
  H  H21  1  0.459100  0.667500  0.001400  1.0  0.0774
  H  H22  1  0.603200  0.742100  0.118900  1.0  0.1211
  H  H23  1  0.141600  0.770500  0.918600  1.0  0.12
  H  H24  1  0.985800  0.694800  0.806400  1.0  0.0971
  H  H25  1  0.559800  0.096000  0.610900  1.0  0.0761
  H  H26  1  0.361300  0.033400  0.473300  1.0  0.1225
  H  H27  1  0.018300  0.942100  0.547600  1.0  0.108
  H  H28  1  0.196000  0.005700  0.688800  1.0  0.0857
  H  H29  1  0.959100  0.167500  0.001400  1.0  0.0774
  H  H30  1  0.103200  0.242100  0.118900  1.0  0.1211
  H  H31  1  0.641600  0.270500  0.918600  1.0  0.12
  H  H32  1  0.485800  0.194800  0.806400  1.0  0.0971
  H  H33  1  0.059800  0.596000  0.610900  1.0  0.0758
  H  H34  1  0.861300  0.533400  0.473300  1.0  0.1225
  H  H35  1  0.518300  0.442100  0.547600  1.0  0.108
  H  H36  1  0.696000  0.505700  0.688800  1.0  0.0857
  C  C37  1  0.600000  0.311560  0.485000  1.0  0.1701
  C  C38  1  0.684000  0.266630  0.555500  1.0  -0.1329
  C  C39  1  0.887000  0.235040  0.531500  1.0  -0.062
  C  C40  1  0.001700  0.250130  0.437000  1.0  -0.0792
  C  C41  1  0.908700  0.295550  0.370500  1.0  0.1434
  C  C42  1  0.989400  0.185400  0.606100  1.0  0.6566
  C  C43  1  0.652600  0.935950  0.099400  1.0  0.1804
  C  C44  1  0.533500  0.973030  0.016000  1.0  -0.135
  C  C45  1  0.669000  0.020080  0.994900  1.0  -0.0609
  C  C46  1  0.918800  0.027050  0.060000  1.0  -0.125
  C  C47  1  0.025100  0.988550  0.144200  1.0  0.1799
  C  C48  1  0.544600  0.062660  0.905800  1.0  0.6558
  C  C49  1  0.100000  0.811560  0.485000  1.0  0.1703
  C  C50  1  0.184000  0.766630  0.555500  1.0  -0.1329
  C  C51  1  0.387000  0.735040  0.531500  1.0  -0.062
  C  C52  1  0.501700  0.750130  0.437000  1.0  -0.0792
  C  C53  1  0.408700  0.795550  0.370500  1.0  0.1434
  C  C54  1  0.489400  0.685400  0.606100  1.0  0.6566
  C  C55  1  0.152600  0.435950  0.099400  1.0  0.1803
  C  C56  1  0.033500  0.473030  0.016000  1.0  -0.135
  C  C57  1  0.169000  0.520080  0.994900  1.0  -0.0609
  C  C58  1  0.418800  0.527050  0.060000  1.0  -0.1247
  C  C59  1  0.525100  0.488550  0.144200  1.0  0.1799
  C  C60  1  0.044600  0.562660  0.905800  1.0  0.6539
  C  C61  1  0.600000  0.688440  0.985000  1.0  0.17
  C  C62  1  0.684000  0.733370  0.055500  1.0  -0.1331
  C  C63  1  0.887000  0.764960  0.031500  1.0  -0.061
  C  C64  1  0.001700  0.749870  0.937000  1.0  -0.0782
  C  C65  1  0.908700  0.704450  0.870500  1.0  0.1473
  C  C66  1  0.989400  0.814600  0.106100  1.0  0.6568
  C  C67  1  0.652600  0.064050  0.599400  1.0  0.1821
  C  C68  1  0.533500  0.026970  0.516000  1.0  -0.1363
  C  C69  1  0.669000  0.979920  0.494900  1.0  -0.0614
  C  C70  1  0.918800  0.972950  0.560000  1.0  -0.1316
  C  C71  1  0.025100  0.011450  0.644200  1.0  0.1797
  C  C72  1  0.544600  0.937340  0.405800  1.0  0.6565
  C  C73  1  0.100000  0.188440  0.985000  1.0  0.17
  C  C74  1  0.184000  0.233370  0.055500  1.0  -0.132
  C  C75  1  0.387000  0.264960  0.031500  1.0  -0.061
  C  C76  1  0.501700  0.249870  0.937000  1.0  -0.0782
  C  C77  1  0.408700  0.204450  0.870500  1.0  0.1473
  C  C78  1  0.489400  0.314600  0.106100  1.0  0.6568
  C  C79  1  0.152600  0.564050  0.599400  1.0  0.1818
  C  C80  1  0.033500  0.526970  0.516000  1.0  -0.1363
  C  C81  1  0.169000  0.479920  0.494900  1.0  -0.0614
  C  C82  1  0.418800  0.472950  0.560000  1.0  -0.1315
  C  C83  1  0.525100  0.511450  0.644200  1.0  0.1797
  C  C84  1  0.044600  0.437340  0.405800  1.0  0.6546
  N  N85  1  0.709200  0.326420  0.395300  1.0  -0.3226
  N  N86  1  0.893500  0.943410  0.164600  1.0  -0.3066
  N  N87  1  0.209200  0.826420  0.395300  1.0  -0.3226
  N  N88  1  0.393500  0.443410  0.164600  1.0  -0.3066
  N  N89  1  0.709200  0.673580  0.895300  1.0  -0.3236
  N  N90  1  0.893500  0.056590  0.664600  1.0  -0.3056
  N  N91  1  0.209200  0.173580  0.895300  1.0  -0.3236
  N  N92  1  0.393500  0.556590  0.664600  1.0  -0.3056
  O  O93  1  0.866500  0.173040  0.686100  1.0  -0.5698
  O  O94  1  0.189200  0.161860  0.587100  1.0  -0.6415
  O  O95  1  0.294100  0.058550  0.871500  1.0  -0.5945
  O  O96  1  0.688300  0.097700  0.873900  1.0  -0.617
  O  O97  1  0.366500  0.673040  0.686100  1.0  -0.5698
  O  O98  1  0.689200  0.661860  0.587100  1.0  -0.6415
  O  O99  1  0.794100  0.558550  0.871500  1.0  -0.5945
  O  O100  1  0.188300  0.597700  0.873900  1.0  -0.617
  O  O101  1  0.866500  0.826960  0.186100  1.0  -0.5696
  O  O102  1  0.189200  0.838140  0.087100  1.0  -0.6412
  O  O103  1  0.294100  0.941450  0.371500  1.0  -0.594
  O  O104  1  0.688300  0.902300  0.373900  1.0  -0.6168
  O  O105  1  0.366500  0.326960  0.186100  1.0  -0.5696
  O  O106  1  0.689200  0.338140  0.087100  1.0  -0.6412
  O  O107  1  0.794100  0.441450  0.371500  1.0  -0.594
  O  O108  1  0.188300  0.402300  0.373900  1.0  -0.6168
