# generated using pymatgen
data_CuH8C12(NO2)2
_symmetry_space_group_name_H-M   'P 1'
_cell_length_a   4.92130000
_cell_length_b   10.80110000
_cell_length_c   12.80970000
_cell_angle_alpha   91.32620000
_cell_angle_beta   101.07500000
_cell_angle_gamma   83.07990000
_symmetry_Int_Tables_number   1
_chemical_formula_structural   CuH8C12(NO2)2
_chemical_formula_sum   'Cu2 H16 C24 N4 O8'
_cell_volume   663.35669453
_cell_formula_units_Z   2
loop_
 _symmetry_equiv_pos_site_id
 _symmetry_equiv_pos_as_xyz
  1  'x, y, z'
loop_
 _atom_site_type_symbol
 _atom_site_label
 _atom_site_symmetry_multiplicity
 _atom_site_fract_x
 _atom_site_fract_y
 _atom_site_fract_z
 _atom_site_occupancy
 _atom_site_charge
  Cu  Cu1  1  0.056190  0.784330  0.226580  1.0  0.8447
  Cu  Cu2  1  0.829610  0.284330  0.773420  1.0  0.8448
  H  H3  1  0.847500  0.526600  0.660600  1.0  0.0802
  H  H4  1  0.627400  0.629300  0.506600  1.0  0.1035
  H  H5  1  0.098800  0.366400  0.454400  1.0  0.1235
  H  H6  1  0.333333  0.271700  0.610400  1.0  0.0816
  H  H7  1  0.322700  0.094800  0.806400  1.0  0.0832
  H  H8  1  0.586200  0.962700  0.935600  1.0  0.1177
  H  H9  1  0.078700  0.091800  0.135600  1.0  0.1263
  H  H10  1  0.839100  0.227100  0.003800  1.0  0.0797
  H  H11  1  0.186900  0.026600  0.339400  1.0  0.0813
  H  H12  1  0.120800  0.129300  0.493400  1.0  0.1033
  H  H13  1  0.644400  0.866400  0.545600  1.0  0.124
  H  H14  1  0.722900  0.771700  0.389600  1.0  0.0818
  H  H15  1  0.516300  0.594800  0.193600  1.0  0.0816
  H  H16  1  0.650600  0.462700  0.064400  1.0  0.1179
  H  H17  1  0.943100  0.591800  0.864400  1.0  0.1259
  H  H18  1  0.835300  0.727100  0.996200  1.0  0.0787
  C  C19  1  0.695950  0.493600  0.617700  1.0  0.1708
  C  C20  1  0.565130  0.555700  0.525860  1.0  -0.1373
  C  C21  1  0.339790  0.508600  0.461780  1.0  -0.0486
  C  C22  1  0.252390  0.400300  0.494980  1.0  -0.1456
  C  C23  1  0.394440  0.344100  0.588080  1.0  0.1616
  C  C24  1  0.182960  0.576000  0.360320  1.0  0.6596
  C  C25  1  0.273070  0.094300  0.873740  1.0  0.1737
  C  C26  1  0.430590  0.014400  0.950580  1.0  -0.1311
  C  C27  1  0.359820  0.010100  0.050240  1.0  -0.0656
  C  C28  1  0.133160  0.091100  0.069120  1.0  -0.138
  C  C29  1  0.988270  0.170800  0.989140  1.0  0.1602
  C  C30  1  0.522550  0.921300  0.135700  1.0  0.6865
  C  C31  1  0.078250  0.993600  0.382300  1.0  0.1725
  C  C32  1  0.039270  0.055700  0.474140  1.0  -0.1373
  C  C33  1  0.878010  0.008600  0.538220  1.0  -0.0463
  C  C34  1  0.757410  0.900300  0.505020  1.0  -0.1398
  C  C35  1  0.806360  0.844100  0.411920  1.0  0.163
  C  C36  1  0.822640  0.076000  0.639680  1.0  0.66
  C  C37  1  0.399330  0.594300  0.126260  1.0  0.1759
  C  C38  1  0.480010  0.514400  0.049420  1.0  -0.1323
  C  C39  1  0.309580  0.510100  0.949760  1.0  -0.066
  C  C40  1  0.064040  0.591100  0.930880  1.0  -0.1423
  C  C41  1  0.999130  0.670800  0.010860  1.0  0.159
  C  C42  1  0.386850  0.421300  0.864300  1.0  0.6866
  N  N43  1  0.616500  0.387900  0.648600  1.0  -0.3088
  N  N44  1  0.049710  0.171900  0.891420  1.0  -0.3297
  N  N45  1  0.967900  0.887900  0.351400  1.0  -0.3109
  N  N46  1  0.158290  0.671900  0.108580  1.0  -0.3292
  O  O47  1  0.285570  0.671800  0.337940  1.0  -0.568
  O  O48  1  0.973270  0.535500  0.310140  1.0  -0.5878
  O  O49  1  0.768750  0.882200  0.123500  1.0  -0.5859
  O  O50  1  0.412120  0.893900  0.209640  1.0  -0.6093
  O  O51  1  0.947630  0.171800  0.662060  1.0  -0.5689
  O  O52  1  0.663130  0.035500  0.689860  1.0  -0.5858
  O  O53  1  0.645250  0.382200  0.876500  1.0  -0.5861
  O  O54  1  0.202480  0.393900  0.790360  1.0  -0.6085
