# generated using pymatgen
data_CuH16(C5N)4
_symmetry_space_group_name_H-M   'P 1'
_cell_length_a   18.21900000
_cell_length_b   22.10550000
_cell_length_c   22.10550000
_cell_angle_alpha   80.22270000
_cell_angle_beta   65.66370000
_cell_angle_gamma   65.66370000
_symmetry_Int_Tables_number   1
_chemical_formula_structural   CuH16(C5N)4
_chemical_formula_sum   'Cu8 H128 C160 N32'
_cell_volume   7390.90658213
_cell_formula_units_Z   8
loop_
 _symmetry_equiv_pos_site_id
 _symmetry_equiv_pos_as_xyz
  1  'x, y, z'
loop_
 _atom_site_type_symbol
 _atom_site_label
 _atom_site_symmetry_multiplicity
 _atom_site_fract_x
 _atom_site_fract_y
 _atom_site_fract_z
 _atom_site_occupancy
 _atom_site_charge
  Cu  Cu1  1  0.750000  0.507570  0.492430  1.0  0.4515
  Cu  Cu2  1  0.250000  0.992430  0.007570  1.0  0.4519
  Cu  Cu3  1  0.257570  0.492430  0.992430  1.0  0.4518
  Cu  Cu4  1  0.242430  0.007570  0.507570  1.0  0.4515
  Cu  Cu5  1  0.742430  0.507570  0.007570  1.0  0.4515
  Cu  Cu6  1  0.757570  0.992430  0.492430  1.0  0.4518
  Cu  Cu7  1  0.250000  0.492430  0.507570  1.0  0.4519
  Cu  Cu8  1  0.750000  0.007570  0.992430  1.0  0.4515
  H  H9  1  0.429600  0.935800  0.423800  1.0  0.0536
  H  H10  1  0.566600  0.569300  0.503900  1.0  0.0681
  H  H11  1  0.266400  0.877100  0.573100  1.0  0.065
  H  H12  1  0.739700  0.646500  0.461900  1.0  0.0614
  H  H13  1  0.370900  0.773300  0.568100  1.0  0.1081
  H  H14  1  0.460200  0.671500  0.508300  1.0  0.1083
  H  H15  1  0.637500  0.751900  0.464100  1.0  0.1071
  H  H16  1  0.539100  0.834400  0.415600  1.0  0.1051
  H  H17  1  0.289200  0.564200  0.076200  1.0  0.0535
  H  H18  1  0.139800  0.930700  0.996100  1.0  0.0685
  H  H19  1  0.216600  0.622900  0.926900  1.0  0.0645
  H  H20  1  0.348100  0.853500  0.038100  1.0  0.0617
  H  H21  1  0.212300  0.726700  0.931900  1.0  0.1066
  H  H22  1  0.140000  0.828500  0.991700  1.0  0.108
  H  H23  1  0.353500  0.748100  0.035900  1.0  0.1079
  H  H24  1  0.289100  0.665600  0.084400  1.0  0.1045
  H  H25  1  0.210800  0.923800  0.435800  1.0  0.0521
  H  H26  1  0.360200  0.003900  0.069300  1.0  0.0682
  H  H27  1  0.283400  0.073100  0.377100  1.0  0.0638
  H  H28  1  0.151900  0.961900  0.146500  1.0  0.0616
  H  H29  1  0.287700  0.068100  0.273300  1.0  0.1075
  H  H30  1  0.360000  0.008300  0.171500  1.0  0.1067
  H  H31  1  0.146500  0.964100  0.251900  1.0  0.1081
  H  H32  1  0.210900  0.915600  0.334400  1.0  0.103
  H  H33  1  0.070400  0.576200  0.064200  1.0  0.053
  H  H34  1  0.933400  0.496100  0.430700  1.0  0.0679
  H  H35  1  0.233600  0.426900  0.122900  1.0  0.0643
  H  H36  1  0.760300  0.538100  0.353500  1.0  0.0623
  H  H37  1  0.129100  0.431900  0.226700  1.0  0.108
  H  H38  1  0.039800  0.491700  0.328500  1.0  0.1083
  H  H39  1  0.862500  0.535900  0.248100  1.0  0.1081
  H  H40  1  0.960900  0.584400  0.165600  1.0  0.1045
  H  H41  1  0.646600  0.423800  0.564200  1.0  0.0534
  H  H42  1  0.429500  0.503900  0.930700  1.0  0.0678
  H  H43  1  0.660500  0.573100  0.622900  1.0  0.0642
  H  H44  1  0.298400  0.461900  0.853500  1.0  0.0623
  H  H45  1  0.561000  0.568100  0.726700  1.0  0.108
  H  H46  1  0.531500  0.508300  0.828500  1.0  0.1083
  H  H47  1  0.398400  0.464100  0.748100  1.0  0.1081
  H  H48  1  0.545300  0.415600  0.665600  1.0  0.1036
  H  H49  1  0.134600  0.076200  0.935800  1.0  0.0521
  H  H50  1  0.364100  0.996100  0.569300  1.0  0.0682
  H  H51  1  0.356500  0.926900  0.877100  1.0  0.0635
  H  H52  1  0.113800  0.038100  0.646500  1.0  0.0617
  H  H53  1  0.355800  0.931900  0.773300  1.0  0.1071
  H  H54  1  0.368300  0.991700  0.671500  1.0  0.1069
  H  H55  1  0.110600  0.035900  0.751900  1.0  0.1079
  H  H56  1  0.126500  0.084400  0.834400  1.0  0.1037
  H  H57  1  0.365400  0.064200  0.923800  1.0  0.0537
  H  H58  1  0.135900  0.430700  0.003900  1.0  0.0688
  H  H59  1  0.143500  0.122900  0.073100  1.0  0.0639
  H  H60  1  0.386200  0.353500  0.961900  1.0  0.0616
  H  H61  1  0.144200  0.226700  0.068100  1.0  0.1079
  H  H62  1  0.131700  0.328500  0.008300  1.0  0.1083
  H  H63  1  0.389400  0.248100  0.964100  1.0  0.1076
  H  H64  1  0.373500  0.165600  0.915600  1.0  0.1051
  H  H65  1  0.853400  0.435800  0.576200  1.0  0.0534
  H  H66  1  0.070500  0.069300  0.496100  1.0  0.0677
  H  H67  1  0.839500  0.377100  0.426900  1.0  0.0646
  H  H68  1  0.201600  0.146500  0.538100  1.0  0.0615
  H  H69  1  0.939000  0.273300  0.431900  1.0  0.1065
  H  H70  1  0.968500  0.171500  0.491700  1.0  0.1082
  H  H71  1  0.101600  0.251900  0.535900  1.0  0.1076
  H  H72  1  0.954700  0.334400  0.584400  1.0  0.1043
  H  H73  1  0.353400  0.576200  0.435800  1.0  0.0531
  H  H74  1  0.570500  0.496100  0.069300  1.0  0.0685
  H  H75  1  0.339500  0.426900  0.377100  1.0  0.0645
  H  H76  1  0.701600  0.538100  0.146500  1.0  0.062
  H  H77  1  0.439000  0.431900  0.273300  1.0  0.1077
  H  H78  1  0.468500  0.491700  0.171500  1.0  0.1088
  H  H79  1  0.601600  0.535900  0.251900  1.0  0.1074
  H  H80  1  0.454700  0.584400  0.334400  1.0  0.1032
  H  H81  1  0.865400  0.923800  0.064200  1.0  0.0526
  H  H82  1  0.635900  0.003900  0.430700  1.0  0.0684
  H  H83  1  0.643500  0.073100  0.122900  1.0  0.0643
  H  H84  1  0.886200  0.961900  0.353500  1.0  0.0619
  H  H85  1  0.644200  0.068100  0.226700  1.0  0.1075
  H  H86  1  0.631700  0.008300  0.328500  1.0  0.1068
  H  H87  1  0.889400  0.964100  0.248100  1.0  0.1077
  H  H88  1  0.873500  0.915600  0.165600  1.0  0.1032
  H  H89  1  0.634600  0.935800  0.076200  1.0  0.0531
  H  H90  1  0.864100  0.569300  0.996100  1.0  0.0685
  H  H91  1  0.856500  0.877100  0.926900  1.0  0.064
  H  H92  1  0.613800  0.646500  0.038100  1.0  0.0621
  H  H93  1  0.855800  0.773300  0.931900  1.0  0.1078
  H  H94  1  0.868300  0.671500  0.991700  1.0  0.1067
  H  H95  1  0.610600  0.751900  0.035900  1.0  0.1083
  H  H96  1  0.626500  0.834400  0.084400  1.0  0.1055
  H  H97  1  0.146600  0.564200  0.423800  1.0  0.053
  H  H98  1  0.929500  0.930700  0.503900  1.0  0.0676
  H  H99  1  0.160500  0.622900  0.573100  1.0  0.0644
  H  H100  1  0.798400  0.853500  0.461900  1.0  0.0609
  H  H101  1  0.061000  0.726700  0.568100  1.0  0.1071
  H  H102  1  0.031500  0.828500  0.508300  1.0  0.1077
  H  H103  1  0.898400  0.748100  0.464100  1.0  0.1077
  H  H104  1  0.045300  0.665600  0.415600  1.0  0.1035
  H  H105  1  0.570400  0.064200  0.576200  1.0  0.0531
  H  H106  1  0.433400  0.430700  0.496100  1.0  0.0684
  H  H107  1  0.733600  0.122900  0.426900  1.0  0.0635
  H  H108  1  0.260300  0.353500  0.538100  1.0  0.0622
  H  H109  1  0.629100  0.226700  0.431900  1.0  0.1079
  H  H110  1  0.539800  0.328500  0.491700  1.0  0.1066
  H  H111  1  0.362500  0.248100  0.535900  1.0  0.108
  H  H112  1  0.460900  0.165600  0.584400  1.0  0.1056
  H  H113  1  0.710800  0.435800  0.923800  1.0  0.053
  H  H114  1  0.860200  0.069300  0.003900  1.0  0.0677
  H  H115  1  0.783400  0.377100  0.073100  1.0  0.0645
  H  H116  1  0.651900  0.146500  0.961900  1.0  0.0607
  H  H117  1  0.787700  0.273300  0.068100  1.0  0.1071
  H  H118  1  0.860000  0.171500  0.008300  1.0  0.1079
  H  H119  1  0.646500  0.251900  0.964100  1.0  0.108
  H  H120  1  0.710900  0.334400  0.915600  1.0  0.1035
  H  H121  1  0.789200  0.076200  0.564200  1.0  0.0523
  H  H122  1  0.639800  0.996100  0.930700  1.0  0.0684
  H  H123  1  0.716600  0.926900  0.622900  1.0  0.0634
  H  H124  1  0.848100  0.038100  0.853500  1.0  0.0618
  H  H125  1  0.712300  0.931900  0.726700  1.0  0.1074
  H  H126  1  0.640000  0.991700  0.828500  1.0  0.1066
  H  H127  1  0.853500  0.035900  0.748100  1.0  0.1079
  H  H128  1  0.789100  0.084400  0.665600  1.0  0.1033
  H  H129  1  0.929600  0.423800  0.935800  1.0  0.0533
  H  H130  1  0.066600  0.503900  0.569300  1.0  0.0683
  H  H131  1  0.766400  0.573100  0.877100  1.0  0.0646
  H  H132  1  0.239700  0.461900  0.646500  1.0  0.0622
  H  H133  1  0.870900  0.568100  0.773300  1.0  0.1082
  H  H134  1  0.960200  0.508300  0.671500  1.0  0.1089
  H  H135  1  0.137500  0.464100  0.751900  1.0  0.1074
  H  H136  1  0.039100  0.415600  0.834400  1.0  0.1032
  C  C137  1  0.417700  0.902600  0.453200  1.0  0.1357
  C  C138  1  0.536200  0.724030  0.486770  1.0  0.0711
  C  C139  1  0.467800  0.791100  0.490100  1.0  0.1127
  C  C140  1  0.580600  0.606600  0.496600  1.0  0.1337
  C  C141  1  0.322100  0.868000  0.540600  1.0  0.1328
  C  C142  1  0.682500  0.652000  0.471800  1.0  0.119
  C  C143  1  0.384400  0.805700  0.537900  1.0  -0.2454
  C  C144  1  0.516600  0.667700  0.498900  1.0  -0.2374
  C  C145  1  0.621600  0.715500  0.472700  1.0  -0.2225
  C  C146  1  0.483700  0.841600  0.447800  1.0  -0.2398
  C  C147  1  0.273500  0.597400  0.046800  1.0  0.1336
  C  C148  1  0.247000  0.775970  0.013230  1.0  0.07
  C  C149  1  0.249000  0.708900  0.009900  1.0  0.113
  C  C150  1  0.183800  0.893400  0.003400  1.0  0.1314
  C  C151  1  0.230700  0.632000  0.959400  1.0  0.1332
  C  C152  1  0.306300  0.848000  0.028200  1.0  0.1196
  C  C153  1  0.228000  0.694300  0.962100  1.0  -0.2481
  C  C154  1  0.183200  0.832300  0.001100  1.0  -0.2368
  C  C155  1  0.309800  0.784500  0.027300  1.0  -0.2229
  C  C156  1  0.273100  0.658400  0.052200  1.0  -0.2408
  C  C157  1  0.226500  0.953200  0.402600  1.0  0.1382
  C  C158  1  0.253000  0.986770  0.224030  1.0  0.0705
  C  C159  1  0.251000  0.990100  0.291100  1.0  0.1136
  C  C160  1  0.316200  0.996600  0.106600  1.0  0.1337
  C  C161  1  0.269300  0.040600  0.368000  1.0  0.1355
  C  C162  1  0.193700  0.971800  0.152000  1.0  0.1207
  C  C163  1  0.272000  0.037900  0.305700  1.0  -0.2483
  C  C164  1  0.316800  0.998900  0.167700  1.0  -0.235
  C  C165  1  0.190200  0.972700  0.215500  1.0  -0.2238
  C  C166  1  0.226900  0.947800  0.341600  1.0  -0.2409
  C  C167  1  0.082300  0.546800  0.097400  1.0  0.1344
  C  C168  1  0.963800  0.513230  0.275970  1.0  0.0694
  C  C169  1  0.032200  0.509900  0.208900  1.0  0.1128
  C  C170  1  0.919400  0.503400  0.393400  1.0  0.1333
  C  C171  1  0.177900  0.459400  0.132000  1.0  0.133
  C  C172  1  0.817500  0.528200  0.348000  1.0  0.1161
  C  C173  1  0.115600  0.462100  0.194300  1.0  -0.2494
  C  C174  1  0.983400  0.501100  0.332300  1.0  -0.2364
  C  C175  1  0.878400  0.527300  0.284500  1.0  -0.2244
  C  C176  1  0.016300  0.552200  0.158400  1.0  -0.2429
  C  C177  1  0.629100  0.453200  0.597400  1.0  0.1331
  C  C178  1  0.477030  0.486770  0.775970  1.0  0.0694
  C  C179  1  0.542100  0.490100  0.708900  1.0  0.1126
  C  C180  1  0.422800  0.496600  0.893400  1.0  0.133
  C  C181  1  0.637300  0.540600  0.632000  1.0  0.1322
  C  C182  1  0.345700  0.471800  0.848000  1.0  0.116
  C  C183  1  0.577700  0.537900  0.694300  1.0  -0.2503
  C  C184  1  0.484500  0.498900  0.832300  1.0  -0.2363
  C  C185  1  0.405700  0.472700  0.784500  1.0  -0.2236
  C  C186  1  0.568500  0.447800  0.658400  1.0  -0.2418
  C  C187  1  0.179700  0.046800  0.902600  1.0  0.1381
  C  C188  1  0.239770  0.013230  0.724030  1.0  0.0705
  C  C189  1  0.241100  0.009900  0.791100  1.0  0.1139
  C  C190  1  0.312800  0.003400  0.606600  1.0  0.1338
  C  C191  1  0.309900  0.959400  0.868000  1.0  0.1363
  C  C192  1  0.165500  0.028200  0.652000  1.0  0.1211
  C  C193  1  0.309900  0.962100  0.805700  1.0  -0.2479
  C  C194  1  0.315700  0.001100  0.667700  1.0  -0.235
  C  C195  1  0.162900  0.027300  0.715500  1.0  -0.224
  C  C196  1  0.174700  0.052200  0.841600  1.0  -0.242
  C  C197  1  0.320300  0.097400  0.953200  1.0  0.1357
  C  C198  1  0.260230  0.275970  0.986770  1.0  0.0703
  C  C199  1  0.258900  0.208900  0.990100  1.0  0.1132
  C  C200  1  0.187200  0.393400  0.996600  1.0  0.1331
  C  C201  1  0.190100  0.132000  0.040600  1.0  0.1331
  C  C202  1  0.334500  0.348000  0.971800  1.0  0.1183
  C  C203  1  0.190100  0.194300  0.037900  1.0  -0.2459
  C  C204  1  0.184300  0.332300  0.998900  1.0  -0.2375
  C  C205  1  0.337100  0.284500  0.972700  1.0  -0.2226
  C  C206  1  0.325300  0.158400  0.947800  1.0  -0.2395
  C  C207  1  0.870900  0.402600  0.546800  1.0  0.1331
  C  C208  1  0.022970  0.224030  0.513230  1.0  0.0706
  C  C209  1  0.957900  0.291100  0.509900  1.0  0.1127
  C  C210  1  0.077200  0.106600  0.503400  1.0  0.1323
  C  C211  1  0.862700  0.368000  0.459400  1.0  0.1331
  C  C212  1  0.154300  0.152000  0.528200  1.0  0.1201
  C  C213  1  0.922300  0.305700  0.462100  1.0  -0.2478
  C  C214  1  0.015500  0.167700  0.501100  1.0  -0.2364
  C  C215  1  0.094300  0.215500  0.527300  1.0  -0.2225
  C  C216  1  0.931500  0.341600  0.552200  1.0  -0.241
  C  C217  1  0.370900  0.546800  0.402600  1.0  0.133
  C  C218  1  0.522970  0.513230  0.224030  1.0  0.0693
  C  C219  1  0.457900  0.509900  0.291100  1.0  0.1128
  C  C220  1  0.577200  0.503400  0.106600  1.0  0.1333
  C  C221  1  0.362700  0.459400  0.368000  1.0  0.1331
  C  C222  1  0.654300  0.528200  0.152000  1.0  0.1144
  C  C223  1  0.422300  0.462100  0.305700  1.0  -0.2488
  C  C224  1  0.515500  0.501100  0.167700  1.0  -0.2381
  C  C225  1  0.594300  0.527300  0.215500  1.0  -0.2248
  C  C226  1  0.431500  0.552200  0.341600  1.0  -0.2433
  C  C227  1  0.820300  0.953200  0.097400  1.0  0.1355
  C  C228  1  0.760230  0.986770  0.275970  1.0  0.0711
  C  C229  1  0.758900  0.990100  0.208900  1.0  0.1131
  C  C230  1  0.687200  0.996600  0.393400  1.0  0.1336
  C  C231  1  0.690100  0.040600  0.132000  1.0  0.1352
  C  C232  1  0.834500  0.971800  0.348000  1.0  0.1219
  C  C233  1  0.690100  0.037900  0.194300  1.0  -0.2473
  C  C234  1  0.684300  0.998900  0.332300  1.0  -0.2352
  C  C235  1  0.837100  0.972700  0.284500  1.0  -0.223
  C  C236  1  0.825300  0.947800  0.158400  1.0  -0.2429
  C  C237  1  0.679700  0.902600  0.046800  1.0  0.136
  C  C238  1  0.739770  0.724030  0.013230  1.0  0.0706
  C  C239  1  0.741100  0.791100  0.009900  1.0  0.1123
  C  C240  1  0.812800  0.606600  0.003400  1.0  0.134
  C  C241  1  0.809900  0.868000  0.959400  1.0  0.1322
  C  C242  1  0.665500  0.652000  0.028200  1.0  0.1172
  C  C243  1  0.809900  0.805700  0.962100  1.0  -0.2452
  C  C244  1  0.815700  0.667700  0.001100  1.0  -0.2355
  C  C245  1  0.662900  0.715500  0.027300  1.0  -0.2227
  C  C246  1  0.674700  0.841600  0.052200  1.0  -0.2403
  C  C247  1  0.129100  0.597400  0.453200  1.0  0.1346
  C  C248  1  0.977030  0.775970  0.486770  1.0  0.0703
  C  C249  1  0.042100  0.708900  0.490100  1.0  0.1133
  C  C250  1  0.922800  0.893400  0.496600  1.0  0.1318
  C  C251  1  0.137300  0.632000  0.540600  1.0  0.1331
  C  C252  1  0.845700  0.848000  0.471800  1.0  0.1195
  C  C253  1  0.077700  0.694300  0.537900  1.0  -0.249
  C  C254  1  0.984500  0.832300  0.498900  1.0  -0.2357
  C  C255  1  0.905700  0.784500  0.472700  1.0  -0.2228
  C  C256  1  0.068500  0.658400  0.447800  1.0  -0.2407
  C  C257  1  0.582300  0.097400  0.546800  1.0  0.1367
  C  C258  1  0.463800  0.275970  0.513230  1.0  0.07
  C  C259  1  0.532200  0.208900  0.509900  1.0  0.1125
  C  C260  1  0.419400  0.393400  0.503400  1.0  0.1331
  C  C261  1  0.677900  0.132000  0.459400  1.0  0.1331
  C  C262  1  0.317500  0.348000  0.528200  1.0  0.1175
  C  C263  1  0.615600  0.194300  0.462100  1.0  -0.2448
  C  C264  1  0.483400  0.332300  0.501100  1.0  -0.2355
  C  C265  1  0.378400  0.284500  0.527300  1.0  -0.2223
  C  C266  1  0.516300  0.158400  0.552200  1.0  -0.2405
  C  C267  1  0.726500  0.402600  0.953200  1.0  0.1345
  C  C268  1  0.753000  0.224030  0.986770  1.0  0.0711
  C  C269  1  0.751000  0.291100  0.990100  1.0  0.1129
  C  C270  1  0.816200  0.106600  0.996600  1.0  0.1323
  C  C271  1  0.769300  0.368000  0.040600  1.0  0.1326
  C  C272  1  0.693700  0.152000  0.971800  1.0  0.1193
  C  C273  1  0.772000  0.305700  0.037900  1.0  -0.2485
  C  C274  1  0.816800  0.167700  0.998900  1.0  -0.2357
  C  C275  1  0.690200  0.215500  0.972700  1.0  -0.2228
  C  C276  1  0.726900  0.341600  0.947800  1.0  -0.2405
  C  C277  1  0.773500  0.046800  0.597400  1.0  0.1369
  C  C278  1  0.747000  0.013230  0.775970  1.0  0.0712
  C  C279  1  0.749000  0.009900  0.708900  1.0  0.113
  C  C280  1  0.683800  0.003400  0.893400  1.0  0.1338
  C  C281  1  0.730700  0.959400  0.632000  1.0  0.1352
  C  C282  1  0.806300  0.028200  0.848000  1.0  0.1219
  C  C283  1  0.728000  0.962100  0.694300  1.0  -0.2462
  C  C284  1  0.683200  0.001100  0.832300  1.0  -0.2353
  C  C285  1  0.809800  0.027300  0.784500  1.0  -0.2231
  C  C286  1  0.773100  0.052200  0.658400  1.0  -0.2425
  C  C287  1  0.917700  0.453200  0.902600  1.0  0.1326
  C  C288  1  0.036200  0.486770  0.724030  1.0  0.0692
  C  C289  1  0.967800  0.490100  0.791100  1.0  0.1127
  C  C290  1  0.080600  0.496600  0.606600  1.0  0.1332
  C  C291  1  0.822100  0.540600  0.868000  1.0  0.133
  C  C292  1  0.182500  0.471800  0.652000  1.0  0.1144
  C  C293  1  0.884400  0.537900  0.805700  1.0  -0.2496
  C  C294  1  0.016600  0.498900  0.667700  1.0  -0.2381
  C  C295  1  0.121600  0.472700  0.715500  1.0  -0.2246
  C  C296  1  0.983700  0.447800  0.841600  1.0  -0.2438
  N  N297  1  0.663050  0.598170  0.484530  1.0  -0.3254
  N  N298  1  0.337380  0.916160  0.498880  1.0  -0.3282
  N  N299  1  0.245750  0.901830  0.015470  1.0  -0.3255
  N  N300  1  0.252420  0.583840  0.001120  1.0  -0.3292
  N  N301  1  0.254250  0.984530  0.098170  1.0  -0.3254
  N  N302  1  0.247580  0.998880  0.416160  1.0  -0.3284
  N  N303  1  0.836950  0.515470  0.401830  1.0  -0.3268
  N  N304  1  0.162620  0.501120  0.083840  1.0  -0.3293
  N  N305  1  0.352420  0.484530  0.901830  1.0  -0.3271
  N  N306  1  0.663740  0.498880  0.583840  1.0  -0.3297
  N  N307  1  0.238780  0.015470  0.598170  1.0  -0.3249
  N  N308  1  0.246460  0.001120  0.916160  1.0  -0.3281
  N  N309  1  0.261220  0.401830  0.984530  1.0  -0.3253
  N  N310  1  0.253540  0.083840  0.998880  1.0  -0.3288
  N  N311  1  0.147580  0.098170  0.515470  1.0  -0.3256
  N  N312  1  0.836260  0.416160  0.501120  1.0  -0.3287
  N  N313  1  0.647580  0.515470  0.098170  1.0  -0.327
  N  N314  1  0.336260  0.501120  0.416160  1.0  -0.3284
  N  N315  1  0.761220  0.984530  0.401830  1.0  -0.325
  N  N316  1  0.753540  0.998880  0.083840  1.0  -0.3323
  N  N317  1  0.738780  0.598170  0.015470  1.0  -0.3258
  N  N318  1  0.746460  0.916160  0.001120  1.0  -0.3283
  N  N319  1  0.852420  0.901830  0.484530  1.0  -0.3257
  N  N320  1  0.163740  0.583840  0.498880  1.0  -0.3289
  N  N321  1  0.336950  0.401830  0.515470  1.0  -0.3254
  N  N322  1  0.662620  0.083840  0.501120  1.0  -0.3288
  N  N323  1  0.754250  0.098170  0.984530  1.0  -0.3261
  N  N324  1  0.747580  0.416160  0.998880  1.0  -0.3284
  N  N325  1  0.745750  0.015470  0.901830  1.0  -0.3247
  N  N326  1  0.752420  0.001120  0.583840  1.0  -0.332
  N  N327  1  0.163050  0.484530  0.598170  1.0  -0.3275
  N  N328  1  0.837380  0.498880  0.916160  1.0  -0.3287
