# generated using pymatgen
data_NaH16(C5N)4
_symmetry_space_group_name_H-M   'P 1'
_cell_length_a   9.75280000
_cell_length_b   16.19430000
_cell_length_c   17.27510000
_cell_angle_alpha   90.00000000
_cell_angle_beta   104.76300000
_cell_angle_gamma   90.00000000
_symmetry_Int_Tables_number   1
_chemical_formula_structural   NaH16(C5N)4
_chemical_formula_sum   'Na4 H64 C80 N16'
_cell_volume   2638.35492819
_cell_formula_units_Z   4
loop_
 _symmetry_equiv_pos_site_id
 _symmetry_equiv_pos_as_xyz
  1  'x, y, z'
loop_
 _atom_site_type_symbol
 _atom_site_label
 _atom_site_symmetry_multiplicity
 _atom_site_fract_x
 _atom_site_fract_y
 _atom_site_fract_z
 _atom_site_occupancy
 _atom_site_charge
  Na  Na1  1  0.700270  0.135240  0.232770  1.0  0.8892
  Na  Na2  1  0.299730  0.635240  0.267230  1.0  0.8889
  Na  Na3  1  0.299730  0.864760  0.767230  1.0  0.889
  Na  Na4  1  0.700270  0.364760  0.732770  1.0  0.8893
  H  H5  1  0.022000  0.233300  0.264400  1.0  0.0536
  H  H6  1  0.217700  0.267000  0.362200  1.0  0.0969
  H  H7  1  0.017900  0.176300  0.524300  1.0  0.0884
  H  H8  1  0.830600  0.143800  0.420300  1.0  0.0593
  H  H9  1  0.759900  0.950800  0.140700  1.0  0.0522
  H  H10  1  0.880600  0.902200  0.053400  1.0  0.0815
  H  H11  1  0.019000  0.137300  0.035300  1.0  0.0837
  H  H12  1  0.892600  0.176700  0.123100  1.0  0.0539
  H  H13  1  0.696700  0.961100  0.335700  1.0  0.0559
  H  H14  1  0.649000  0.916900  0.450800  1.0  0.0829
  H  H15  1  0.410400  0.124300  0.446200  1.0  0.0807
  H  H16  1  0.469600  0.161300  0.332300  1.0  0.0566
  H  H17  1  0.587200  0.323900  0.559100  1.0  0.0505
  H  H18  1  0.393900  0.299100  0.456500  1.0  0.1013
  H  H19  1  0.193700  0.212800  0.619900  1.0  0.0841
  H  H20  1  0.394700  0.239800  0.716600  1.0  0.0686
  H  H21  1  0.978000  0.733300  0.235600  1.0  0.0536
  H  H22  1  0.782300  0.767000  0.137800  1.0  0.0961
  H  H23  1  0.982100  0.676300  0.975700  1.0  0.0884
  H  H24  1  0.169400  0.643800  0.079700  1.0  0.0591
  H  H25  1  0.240100  0.450800  0.359300  1.0  0.0521
  H  H26  1  0.119400  0.402200  0.446600  1.0  0.0815
  H  H27  1  0.981000  0.637300  0.464700  1.0  0.0837
  H  H28  1  0.107400  0.676700  0.376900  1.0  0.0546
  H  H29  1  0.303300  0.461100  0.164300  1.0  0.0564
  H  H30  1  0.351000  0.416900  0.049200  1.0  0.0832
  H  H31  1  0.589600  0.624300  0.053800  1.0  0.0811
  H  H32  1  0.530400  0.661300  0.167700  1.0  0.0561
  H  H33  1  0.412800  0.823900  0.940900  1.0  0.0504
  H  H34  1  0.606100  0.799100  0.043500  1.0  0.1012
  H  H35  1  0.806300  0.712800  0.880100  1.0  0.085
  H  H36  1  0.605300  0.739800  0.783400  1.0  0.0689
  H  H37  1  0.978000  0.766700  0.735600  1.0  0.0535
  H  H38  1  0.782300  0.733000  0.637800  1.0  0.0962
  H  H39  1  0.982100  0.823700  0.475700  1.0  0.088
  H  H40  1  0.169400  0.856200  0.579700  1.0  0.0591
  H  H41  1  0.240100  0.049200  0.859300  1.0  0.052
  H  H42  1  0.119400  0.097800  0.946600  1.0  0.0822
  H  H43  1  0.981000  0.862700  0.964700  1.0  0.0838
  H  H44  1  0.107400  0.823300  0.876900  1.0  0.054
  H  H45  1  0.303300  0.038900  0.664300  1.0  0.0565
  H  H46  1  0.351000  0.083100  0.549200  1.0  0.0828
  H  H47  1  0.589600  0.875700  0.553800  1.0  0.0814
  H  H48  1  0.530400  0.838700  0.667700  1.0  0.056
  H  H49  1  0.412800  0.676100  0.440900  1.0  0.051
  H  H50  1  0.606100  0.700900  0.543500  1.0  0.1016
  H  H51  1  0.806300  0.787200  0.380100  1.0  0.0851
  H  H52  1  0.605300  0.760200  0.283400  1.0  0.069
  H  H53  1  0.022000  0.266700  0.764400  1.0  0.0535
  H  H54  1  0.217700  0.233000  0.862200  1.0  0.0962
  H  H55  1  0.017900  0.323700  0.024300  1.0  0.0876
  H  H56  1  0.830600  0.356200  0.920300  1.0  0.0589
  H  H57  1  0.759900  0.549200  0.640700  1.0  0.052
  H  H58  1  0.880600  0.597800  0.553400  1.0  0.0821
  H  H59  1  0.019000  0.362700  0.535300  1.0  0.0838
  H  H60  1  0.892600  0.323300  0.623100  1.0  0.054
  H  H61  1  0.696700  0.538900  0.835700  1.0  0.0561
  H  H62  1  0.649000  0.583100  0.950800  1.0  0.0829
  H  H63  1  0.410400  0.375700  0.946200  1.0  0.081
  H  H64  1  0.469600  0.338700  0.832300  1.0  0.0559
  H  H65  1  0.587200  0.176100  0.059100  1.0  0.0505
  H  H66  1  0.393900  0.200900  0.956500  1.0  0.1012
  H  H67  1  0.193700  0.287200  0.119900  1.0  0.0837
  H  H68  1  0.394700  0.260200  0.216600  1.0  0.0686
  C  C69  1  0.021490  0.221230  0.318160  1.0  0.1312
  C  C70  1  0.139420  0.242230  0.376570  1.0  -0.2164
  C  C71  1  0.146390  0.227430  0.458880  1.0  0.0246
  C  C72  1  0.022600  0.188920  0.471320  1.0  -0.2151
  C  C73  1  0.910220  0.169690  0.408410  1.0  0.1266
  C  C74  1  0.812500  0.989360  0.118390  1.0  0.1266
  C  C75  1  0.884280  0.959490  0.065640  1.0  -0.2041
  C  C76  1  0.964390  0.013520  0.028910  1.0  0.0157
  C  C77  1  0.965290  0.097140  0.054990  1.0  -0.2074
  C  C78  1  0.889380  0.120080  0.108230  1.0  0.1354
  C  C79  1  0.637310  0.994700  0.358510  1.0  0.1288
  C  C80  1  0.608730  0.967300  0.427470  1.0  -0.2227
  C  C81  1  0.519150  0.013600  0.464890  1.0  0.0185
  C  C82  1  0.469370  0.088800  0.424950  1.0  -0.2142
  C  C83  1  0.505500  0.110410  0.356450  1.0  0.1383
  C  C84  1  0.506550  0.300060  0.571650  1.0  0.1356
  C  C85  1  0.390760  0.285090  0.509450  1.0  -0.2237
  C  C86  1  0.265820  0.248860  0.522580  1.0  0.0298
  C  C87  1  0.273770  0.234480  0.604930  1.0  -0.2278
  C  C88  1  0.394950  0.251470  0.662750  1.0  0.1313
  C  C89  1  0.978510  0.721230  0.181840  1.0  0.1311
  C  C90  1  0.860580  0.742230  0.123430  1.0  -0.2151
  C  C91  1  0.853610  0.727430  0.041120  1.0  0.0242
  C  C92  1  0.977400  0.688920  0.028680  1.0  -0.2154
  C  C93  1  0.089780  0.669690  0.091590  1.0  0.1263
  C  C94  1  0.187500  0.489360  0.381610  1.0  0.1263
  C  C95  1  0.115720  0.459490  0.434360  1.0  -0.2048
  C  C96  1  0.035610  0.513520  0.471090  1.0  0.0152
  C  C97  1  0.034710  0.597140  0.445010  1.0  -0.2078
  C  C98  1  0.110620  0.620080  0.391770  1.0  0.1357
  C  C99  1  0.362690  0.494700  0.141490  1.0  0.1297
  C  C100  1  0.391270  0.467300  0.072530  1.0  -0.2226
  C  C101  1  0.480850  0.513600  0.035110  1.0  0.0189
  C  C102  1  0.530630  0.588800  0.075050  1.0  -0.2141
  C  C103  1  0.494500  0.610410  0.143550  1.0  0.1393
  C  C104  1  0.493450  0.800060  0.928350  1.0  0.1353
  C  C105  1  0.609240  0.785090  0.990550  1.0  -0.2228
  C  C106  1  0.734180  0.748860  0.977420  1.0  0.0302
  C  C107  1  0.726230  0.734480  0.895070  1.0  -0.2293
  C  C108  1  0.605050  0.751470  0.837250  1.0  0.1309
  C  C109  1  0.978510  0.778770  0.681840  1.0  0.1315
  C  C110  1  0.860580  0.757770  0.623430  1.0  -0.2154
  C  C111  1  0.853610  0.772570  0.541120  1.0  0.0244
  C  C112  1  0.977400  0.811080  0.528680  1.0  -0.2163
  C  C113  1  0.089780  0.830310  0.591590  1.0  0.1258
  C  C114  1  0.187500  0.010640  0.881610  1.0  0.1259
  C  C115  1  0.115720  0.040510  0.934360  1.0  -0.2058
  C  C116  1  0.035610  0.986480  0.971090  1.0  0.0152
  C  C117  1  0.034710  0.902860  0.945010  1.0  -0.2062
  C  C118  1  0.110620  0.879920  0.891770  1.0  0.136
  C  C119  1  0.362690  0.005300  0.641490  1.0  0.1297
  C  C120  1  0.391270  0.032700  0.572530  1.0  -0.2222
  C  C121  1  0.480850  0.986400  0.535110  1.0  0.0189
  C  C122  1  0.530630  0.911200  0.575050  1.0  -0.2137
  C  C123  1  0.494500  0.889590  0.643550  1.0  0.1397
  C  C124  1  0.493450  0.699940  0.428350  1.0  0.1352
  C  C125  1  0.609240  0.714910  0.490550  1.0  -0.2234
  C  C126  1  0.734180  0.751140  0.477420  1.0  0.0301
  C  C127  1  0.726230  0.765520  0.395070  1.0  -0.2293
  C  C128  1  0.605050  0.748530  0.337250  1.0  0.1306
  C  C129  1  0.021490  0.278770  0.818160  1.0  0.1314
  C  C130  1  0.139420  0.257770  0.876570  1.0  -0.2164
  C  C131  1  0.146390  0.272570  0.958880  1.0  0.0248
  C  C132  1  0.022600  0.311080  0.971320  1.0  -0.2155
  C  C133  1  0.910220  0.330310  0.908410  1.0  0.126
  C  C134  1  0.812500  0.510640  0.618390  1.0  0.1265
  C  C135  1  0.884280  0.540510  0.565640  1.0  -0.2045
  C  C136  1  0.964390  0.486480  0.528910  1.0  0.0157
  C  C137  1  0.965290  0.402860  0.554990  1.0  -0.2064
  C  C138  1  0.889380  0.379920  0.608230  1.0  0.1357
  C  C139  1  0.637310  0.505300  0.858510  1.0  0.1288
  C  C140  1  0.608730  0.532700  0.927470  1.0  -0.2227
  C  C141  1  0.519150  0.486400  0.964890  1.0  0.0186
  C  C142  1  0.469370  0.411200  0.924950  1.0  -0.2132
  C  C143  1  0.505500  0.389590  0.856450  1.0  0.1392
  C  C144  1  0.506550  0.199940  0.071650  1.0  0.1354
  C  C145  1  0.390760  0.214910  0.009450  1.0  -0.2227
  C  C146  1  0.265820  0.251140  0.022580  1.0  0.0297
  C  C147  1  0.273770  0.265520  0.104930  1.0  -0.2274
  C  C148  1  0.394950  0.248530  0.162750  1.0  0.131
  N  N149  1  0.903790  0.184700  0.330380  1.0  -0.37
  N  N150  1  0.810240  0.069070  0.141390  1.0  -0.3456
  N  N151  1  0.588250  0.065550  0.319830  1.0  -0.3548
  N  N152  1  0.515690  0.283630  0.649620  1.0  -0.3807
  N  N153  1  0.096210  0.684700  0.169620  1.0  -0.3695
  N  N154  1  0.189760  0.569070  0.358610  1.0  -0.3441
  N  N155  1  0.411750  0.565550  0.180170  1.0  -0.357
  N  N156  1  0.484310  0.783630  0.850380  1.0  -0.3798
  N  N157  1  0.096210  0.815300  0.669620  1.0  -0.3696
  N  N158  1  0.189760  0.930930  0.858610  1.0  -0.3449
  N  N159  1  0.411750  0.934450  0.680170  1.0  -0.3568
  N  N160  1  0.484310  0.716370  0.350380  1.0  -0.3807
  N  N161  1  0.903790  0.315300  0.830380  1.0  -0.3689
  N  N162  1  0.810240  0.430930  0.641390  1.0  -0.3458
  N  N163  1  0.588250  0.434450  0.819830  1.0  -0.3561
  N  N164  1  0.515690  0.216370  0.149620  1.0  -0.3806
