# generated using pymatgen
data_NiMoH16C20(N2O)2
_symmetry_space_group_name_H-M   'P 1'
_cell_length_a   13.18660000
_cell_length_b   13.18660000
_cell_length_c   29.45770000
_cell_angle_alpha   90.00000000
_cell_angle_beta   90.00000000
_cell_angle_gamma   90.00000000
_symmetry_Int_Tables_number   1
_chemical_formula_structural   NiMoH16C20(N2O)2
_chemical_formula_sum   'Ni8 Mo8 H128 C160 N32 O16'
_cell_volume   5122.29398147
_cell_formula_units_Z   8
loop_
 _symmetry_equiv_pos_site_id
 _symmetry_equiv_pos_as_xyz
  1  'x, y, z'
loop_
 _atom_site_type_symbol
 _atom_site_label
 _atom_site_symmetry_multiplicity
 _atom_site_fract_x
 _atom_site_fract_y
 _atom_site_fract_z
 _atom_site_occupancy
 _atom_site_charge
  Ni  Ni1  1  0.738510  0.719690  0.367080  1.0  0.6227
  Ni  Ni2  1  0.261490  0.280310  0.867080  1.0  0.6221
  Ni  Ni3  1  0.780310  0.238510  0.117080  1.0  0.6216
  Ni  Ni4  1  0.219690  0.761490  0.617080  1.0  0.6227
  Ni  Ni5  1  0.761490  0.219690  0.382920  1.0  0.6217
  Ni  Ni6  1  0.238510  0.780310  0.882920  1.0  0.6228
  Ni  Ni7  1  0.719690  0.738510  0.632920  1.0  0.6227
  Ni  Ni8  1  0.280310  0.261490  0.132920  1.0  0.6214
  Mo  Mo9  1  0.619030  0.463710  0.380030  1.0  0.3849
  Mo  Mo10  1  0.380970  0.536290  0.880030  1.0  0.3835
  Mo  Mo11  1  0.036290  0.119030  0.130030  1.0  0.387
  Mo  Mo12  1  0.963710  0.880970  0.630030  1.0  0.3867
  Mo  Mo13  1  0.880970  0.963710  0.369970  1.0  0.3837
  Mo  Mo14  1  0.119030  0.036290  0.869970  1.0  0.385
  Mo  Mo15  1  0.463710  0.619030  0.619970  1.0  0.3884
  Mo  Mo16  1  0.536290  0.380970  0.119970  1.0  0.388
  H  H17  1  0.857700  0.536100  0.393800  1.0  0.0739
  H  H18  1  0.991500  0.488400  0.439500  1.0  0.1215
  H  H19  1  0.947100  0.749900  0.508900  1.0  0.1232
  H  H20  1  0.825200  0.790300  0.457500  1.0  0.0647
  H  H21  1  0.151100  0.939100  0.562100  1.0  0.0537
  H  H22  1  0.175500  0.018200  0.492000  1.0  0.1119
  H  H23  1  0.300600  0.957800  0.442900  1.0  0.1014
  H  H24  1  0.375300  0.755400  0.539500  1.0  0.0503
  H  H25  1  0.627100  0.657800  0.455900  1.0  0.0544
  H  H26  1  0.491700  0.700000  0.497900  1.0  0.0941
  H  H27  1  0.438700  0.927100  0.411400  1.0  0.1123
  H  H28  1  0.575200  0.878400  0.371700  1.0  0.0674
  H  H29  1  0.257700  0.530800  0.600300  1.0  0.0596
  H  H30  1  0.204600  0.402600  0.552200  1.0  0.1145
  H  H31  1  0.085100  0.434400  0.498000  1.0  0.0986
  H  H32  1  0.092600  0.725900  0.537600  1.0  0.0675
  H  H33  1  0.142300  0.463900  0.893800  1.0  0.0741
  H  H34  1  0.008500  0.511600  0.939500  1.0  0.1218
  H  H35  1  0.052900  0.250100  0.008900  1.0  0.1227
  H  H36  1  0.174800  0.209700  0.957500  1.0  0.0641
  H  H37  1  0.848900  0.060900  0.062100  1.0  0.0545
  H  H38  1  0.824500  0.981800  0.992000  1.0  0.1113
  H  H39  1  0.699400  0.042200  0.942900  1.0  0.1025
  H  H40  1  0.624700  0.244600  0.039500  1.0  0.0496
  H  H41  1  0.372900  0.342200  0.955900  1.0  0.0551
  H  H42  1  0.508300  0.300000  0.997900  1.0  0.0942
  H  H43  1  0.561300  0.072900  0.911400  1.0  0.1128
  H  H44  1  0.424800  0.121600  0.871700  1.0  0.0673
  H  H45  1  0.742300  0.469200  0.100300  1.0  0.0582
  H  H46  1  0.795400  0.597400  0.052200  1.0  0.1141
  H  H47  1  0.914900  0.565600  0.998000  1.0  0.0974
  H  H48  1  0.907400  0.274100  0.037600  1.0  0.0659
  H  H49  1  0.963900  0.357700  0.143800  1.0  0.0737
  H  H50  1  0.011600  0.491500  0.189500  1.0  0.1225
  H  H51  1  0.750100  0.447100  0.258900  1.0  0.1225
  H  H52  1  0.709700  0.325200  0.207500  1.0  0.0633
  H  H53  1  0.560900  0.651100  0.312100  1.0  0.0532
  H  H54  1  0.481800  0.675500  0.242000  1.0  0.1108
  H  H55  1  0.542200  0.800600  0.192900  1.0  0.1036
  H  H56  1  0.744600  0.875300  0.289500  1.0  0.0485
  H  H57  1  0.842200  0.127100  0.205900  1.0  0.0562
  H  H58  1  0.800000  0.991700  0.247900  1.0  0.093
  H  H59  1  0.572900  0.938700  0.161400  1.0  0.1126
  H  H60  1  0.621600  0.075200  0.121700  1.0  0.0668
  H  H61  1  0.969200  0.757700  0.350300  1.0  0.0579
  H  H62  1  0.097400  0.704600  0.302200  1.0  0.1134
  H  H63  1  0.065600  0.585100  0.248000  1.0  0.0957
  H  H64  1  0.774100  0.592600  0.287600  1.0  0.065
  H  H65  1  0.036100  0.642300  0.643800  1.0  0.0743
  H  H66  1  0.988400  0.508500  0.689500  1.0  0.1222
  H  H67  1  0.249900  0.552900  0.758900  1.0  0.1228
  H  H68  1  0.290300  0.674800  0.707500  1.0  0.0634
  H  H69  1  0.439100  0.348900  0.812100  1.0  0.0537
  H  H70  1  0.518200  0.324500  0.742000  1.0  0.1124
  H  H71  1  0.457800  0.199400  0.692900  1.0  0.1033
  H  H72  1  0.255400  0.124700  0.789500  1.0  0.0494
  H  H73  1  0.157800  0.872900  0.705900  1.0  0.0548
  H  H74  1  0.200000  0.008300  0.747900  1.0  0.0929
  H  H75  1  0.427100  0.061300  0.661400  1.0  0.1125
  H  H76  1  0.378400  0.924800  0.621700  1.0  0.0673
  H  H77  1  0.030800  0.242300  0.850300  1.0  0.0567
  H  H78  1  0.902600  0.295400  0.802200  1.0  0.1135
  H  H79  1  0.934400  0.414900  0.748000  1.0  0.0965
  H  H80  1  0.225900  0.407400  0.787600  1.0  0.0652
  H  H81  1  0.642300  0.036100  0.356200  1.0  0.0741
  H  H82  1  0.508500  0.988400  0.310500  1.0  0.1214
  H  H83  1  0.552900  0.249900  0.241100  1.0  0.1225
  H  H84  1  0.674800  0.290300  0.292500  1.0  0.0645
  H  H85  1  0.348900  0.439100  0.187900  1.0  0.0537
  H  H86  1  0.324500  0.518200  0.258000  1.0  0.1119
  H  H87  1  0.199400  0.457800  0.307100  1.0  0.1016
  H  H88  1  0.124700  0.255400  0.210500  1.0  0.0507
  H  H89  1  0.872900  0.157800  0.294100  1.0  0.0549
  H  H90  1  0.008300  0.200000  0.252100  1.0  0.0928
  H  H91  1  0.061300  0.427100  0.338600  1.0  0.1125
  H  H92  1  0.924800  0.378400  0.378300  1.0  0.0661
  H  H93  1  0.242300  0.030800  0.149700  1.0  0.0579
  H  H94  1  0.295400  0.902600  0.197800  1.0  0.1139
  H  H95  1  0.414900  0.934400  0.252000  1.0  0.0966
  H  H96  1  0.407400  0.225900  0.212400  1.0  0.0676
  H  H97  1  0.357700  0.963900  0.856200  1.0  0.0736
  H  H98  1  0.491500  0.011600  0.810500  1.0  0.1214
  H  H99  1  0.447100  0.750100  0.741100  1.0  0.1219
  H  H100  1  0.325200  0.709700  0.792500  1.0  0.0637
  H  H101  1  0.651100  0.560900  0.687900  1.0  0.0533
  H  H102  1  0.675500  0.481800  0.758000  1.0  0.1112
  H  H103  1  0.800600  0.542200  0.807100  1.0  0.1021
  H  H104  1  0.875300  0.744600  0.710500  1.0  0.0492
  H  H105  1  0.127100  0.842200  0.794100  1.0  0.0546
  H  H106  1  0.991700  0.800000  0.752100  1.0  0.0931
  H  H107  1  0.938700  0.572900  0.838600  1.0  0.1117
  H  H108  1  0.075200  0.621600  0.878300  1.0  0.0662
  H  H109  1  0.757700  0.969200  0.649700  1.0  0.0613
  H  H110  1  0.704600  0.097400  0.697800  1.0  0.114
  H  H111  1  0.585100  0.065600  0.752000  1.0  0.0981
  H  H112  1  0.592600  0.774100  0.712400  1.0  0.0662
  H  H113  1  0.536100  0.857700  0.606200  1.0  0.0733
  H  H114  1  0.488400  0.991500  0.560500  1.0  0.1226
  H  H115  1  0.749900  0.947100  0.491100  1.0  0.1221
  H  H116  1  0.790300  0.825200  0.542500  1.0  0.0635
  H  H117  1  0.939100  0.151100  0.437900  1.0  0.0538
  H  H118  1  0.018200  0.175500  0.508000  1.0  0.1121
  H  H119  1  0.957800  0.300600  0.557100  1.0  0.104
  H  H120  1  0.755400  0.375300  0.460500  1.0  0.0491
  H  H121  1  0.657800  0.627100  0.544100  1.0  0.0551
  H  H122  1  0.700000  0.491700  0.502100  1.0  0.0915
  H  H123  1  0.927100  0.438700  0.588600  1.0  0.1129
  H  H124  1  0.878400  0.575200  0.628300  1.0  0.0663
  H  H125  1  0.530800  0.257700  0.399700  1.0  0.0601
  H  H126  1  0.402600  0.204600  0.447800  1.0  0.1137
  H  H127  1  0.434400  0.085100  0.502000  1.0  0.0964
  H  H128  1  0.725900  0.092600  0.462400  1.0  0.0655
  H  H129  1  0.463900  0.142300  0.106200  1.0  0.0734
  H  H130  1  0.511600  0.008500  0.060500  1.0  0.1229
  H  H131  1  0.250100  0.052900  0.991100  1.0  0.1214
  H  H132  1  0.209700  0.174800  0.042500  1.0  0.0628
  H  H133  1  0.060900  0.848900  0.937900  1.0  0.0536
  H  H134  1  0.981800  0.824500  0.008000  1.0  0.1117
  H  H135  1  0.042200  0.699400  0.057100  1.0  0.1026
  H  H136  1  0.244600  0.624700  0.960500  1.0  0.0489
  H  H137  1  0.342200  0.372900  0.044100  1.0  0.0558
  H  H138  1  0.300000  0.508300  0.002100  1.0  0.0923
  H  H139  1  0.072900  0.561300  0.088600  1.0  0.1127
  H  H140  1  0.121600  0.424800  0.128300  1.0  0.0661
  H  H141  1  0.469200  0.742300  0.899700  1.0  0.0581
  H  H142  1  0.597400  0.795400  0.947800  1.0  0.1136
  H  H143  1  0.565600  0.914900  0.002000  1.0  0.0952
  H  H144  1  0.274100  0.907400  0.962400  1.0  0.0658
  C  C145  1  0.878400  0.580500  0.416600  1.0  0.1486
  C  C146  1  0.958400  0.549600  0.444700  1.0  -0.2342
  C  C147  1  0.987500  0.612200  0.480600  1.0  0.0997
  C  C148  1  0.932500  0.705600  0.485200  1.0  -0.2117
  C  C149  1  0.858400  0.728500  0.454400  1.0  0.1317
  C  C150  1  0.202800  0.916400  0.543200  1.0  0.1374
  C  C151  1  0.216800  0.964300  0.500600  1.0  -0.1888
  C  C152  1  0.292700  0.929900  0.471700  1.0  -0.043
  C  C153  1  0.357200  0.852200  0.486700  1.0  -0.0833
  C  C154  1  0.335300  0.809100  0.529600  1.0  0.1375
  C  C155  1  0.588100  0.712600  0.446400  1.0  0.141
  C  C156  1  0.506800  0.737600  0.472100  1.0  -0.194
  C  C157  1  0.445700  0.819300  0.459900  1.0  0.1014
  C  C158  1  0.475700  0.871100  0.421100  1.0  -0.2133
  C  C159  1  0.557700  0.841400  0.397400  1.0  0.14
  C  C160  1  0.211300  0.545900  0.577500  1.0  0.1117
  C  C161  1  0.178000  0.467500  0.549000  1.0  -0.1816
  C  C162  1  0.107500  0.486100  0.517000  1.0  -0.0361
  C  C163  1  0.067900  0.585900  0.512700  1.0  -0.0932
  C  C164  1  0.112700  0.658900  0.541600  1.0  0.1469
  C  C165  1  0.121600  0.419500  0.916600  1.0  0.1483
  C  C166  1  0.041600  0.450400  0.944700  1.0  -0.2344
  C  C167  1  0.012500  0.387800  0.980600  1.0  0.101
  C  C168  1  0.067500  0.294400  0.985200  1.0  -0.211
  C  C169  1  0.141600  0.271500  0.954400  1.0  0.1316
  C  C170  1  0.797200  0.083600  0.043200  1.0  0.1384
  C  C171  1  0.783200  0.035700  0.000600  1.0  -0.1885
  C  C172  1  0.707300  0.070100  0.971700  1.0  -0.0438
  C  C173  1  0.642800  0.147800  0.986700  1.0  -0.0822
  C  C174  1  0.664700  0.190900  0.029600  1.0  0.1369
  C  C175  1  0.411900  0.287400  0.946400  1.0  0.1414
  C  C176  1  0.493200  0.262400  0.972100  1.0  -0.195
  C  C177  1  0.554300  0.180700  0.959900  1.0  0.1017
  C  C178  1  0.524300  0.128900  0.921100  1.0  -0.2153
  C  C179  1  0.442300  0.158600  0.897400  1.0  0.1394
  C  C180  1  0.788700  0.454100  0.077500  1.0  0.109
  C  C181  1  0.822000  0.532500  0.049000  1.0  -0.1821
  C  C182  1  0.892500  0.513900  0.017000  1.0  -0.0389
  C  C183  1  0.932100  0.414100  0.012700  1.0  -0.0924
  C  C184  1  0.887300  0.341100  0.041600  1.0  0.1481
  C  C185  1  0.919500  0.378400  0.166600  1.0  0.148
  C  C186  1  0.950400  0.458400  0.194700  1.0  -0.2346
  C  C187  1  0.887800  0.487500  0.230600  1.0  0.1007
  C  C188  1  0.794400  0.432500  0.235200  1.0  -0.209
  C  C189  1  0.771500  0.358400  0.204400  1.0  0.133
  C  C190  1  0.583600  0.702800  0.293200  1.0  0.1374
  C  C191  1  0.535700  0.716800  0.250600  1.0  -0.188
  C  C192  1  0.570100  0.792700  0.221700  1.0  -0.0438
  C  C193  1  0.647800  0.857200  0.236700  1.0  -0.0808
  C  C194  1  0.690900  0.835300  0.279600  1.0  0.1367
  C  C195  1  0.787400  0.088100  0.196400  1.0  0.1432
  C  C196  1  0.762400  0.006800  0.222100  1.0  -0.1921
  C  C197  1  0.680700  0.945700  0.209900  1.0  0.1001
  C  C198  1  0.628900  0.975700  0.171100  1.0  -0.2168
  C  C199  1  0.658600  0.057700  0.147400  1.0  0.1401
  C  C200  1  0.954100  0.711300  0.327500  1.0  0.1103
  C  C201  1  0.032500  0.678000  0.299000  1.0  -0.1787
  C  C202  1  0.013900  0.607500  0.267000  1.0  -0.0402
  C  C203  1  0.914100  0.567900  0.262700  1.0  -0.0915
  C  C204  1  0.841100  0.612700  0.291600  1.0  0.148
  C  C205  1  0.080500  0.621600  0.666667  1.0  0.1543
  C  C206  1  0.049600  0.541600  0.694700  1.0  -0.2196
  C  C207  1  0.112200  0.512500  0.730600  1.0  0.0991
  C  C208  1  0.205600  0.567500  0.735200  1.0  -0.2086
  C  C209  1  0.228500  0.641600  0.704400  1.0  0.1337
  C  C210  1  0.416400  0.297200  0.793200  1.0  0.1385
  C  C211  1  0.464300  0.283200  0.750600  1.0  -0.1858
  C  C212  1  0.429900  0.207300  0.721700  1.0  -0.0472
  C  C213  1  0.352200  0.142800  0.736700  1.0  -0.0833
  C  C214  1  0.309100  0.164700  0.779600  1.0  0.138
  C  C215  1  0.212600  0.911900  0.696400  1.0  0.1428
  C  C216  1  0.237600  0.993200  0.722100  1.0  -0.1924
  C  C217  1  0.319300  0.054300  0.709900  1.0  0.1022
  C  C218  1  0.371100  0.024300  0.671100  1.0  -0.2178
  C  C219  1  0.341400  0.942300  0.647400  1.0  0.1402
  C  C220  1  0.045900  0.288700  0.827500  1.0  0.1098
  C  C221  1  0.967500  0.322000  0.799000  1.0  -0.1818
  C  C222  1  0.986100  0.392500  0.767000  1.0  -0.0399
  C  C223  1  0.085900  0.432100  0.762700  1.0  -0.0908
  C  C224  1  0.158900  0.387300  0.791600  1.0  0.148
  C  C225  1  0.621600  0.080500  0.333400  1.0  0.1482
  C  C226  1  0.541600  0.049600  0.305300  1.0  -0.2331
  C  C227  1  0.512500  0.112200  0.269400  1.0  0.1001
  C  C228  1  0.567500  0.205600  0.264800  1.0  -0.2109
  C  C229  1  0.641600  0.228500  0.295600  1.0  0.1317
  C  C230  1  0.297200  0.416400  0.206800  1.0  0.1383
  C  C231  1  0.283200  0.464300  0.249400  1.0  -0.1888
  C  C232  1  0.207300  0.429900  0.278300  1.0  -0.0459
  C  C233  1  0.142800  0.352200  0.263300  1.0  -0.0822
  C  C234  1  0.164700  0.309100  0.220400  1.0  0.138
  C  C235  1  0.911900  0.212600  0.303600  1.0  0.1419
  C  C236  1  0.993200  0.237600  0.277900  1.0  -0.1939
  C  C237  1  0.054300  0.319300  0.290100  1.0  0.1011
  C  C238  1  0.024300  0.371100  0.328900  1.0  -0.2142
  C  C239  1  0.942300  0.341400  0.352600  1.0  0.1396
  C  C240  1  0.288700  0.045900  0.172500  1.0  0.1093
  C  C241  1  0.322000  0.967500  0.201000  1.0  -0.1827
  C  C242  1  0.392500  0.986100  0.233000  1.0  -0.0368
  C  C243  1  0.432100  0.085900  0.237300  1.0  -0.0929
  C  C244  1  0.387300  0.158900  0.208400  1.0  0.149
  C  C245  1  0.378400  0.919500  0.833400  1.0  0.1485
  C  C246  1  0.458400  0.950400  0.805300  1.0  -0.2336
  C  C247  1  0.487500  0.887800  0.769400  1.0  0.0985
  C  C248  1  0.432500  0.794400  0.764800  1.0  -0.2114
  C  C249  1  0.358400  0.771500  0.795600  1.0  0.1328
  C  C250  1  0.702800  0.583600  0.706800  1.0  0.1378
  C  C251  1  0.716800  0.535700  0.749400  1.0  -0.1891
  C  C252  1  0.792700  0.570100  0.778300  1.0  -0.0441
  C  C253  1  0.857200  0.647800  0.763300  1.0  -0.0847
  C  C254  1  0.835300  0.690900  0.720400  1.0  0.1364
  C  C255  1  0.088100  0.787400  0.803600  1.0  0.1424
  C  C256  1  0.006800  0.762400  0.777900  1.0  -0.1939
  C  C257  1  0.945700  0.680700  0.790100  1.0  0.1031
  C  C258  1  0.975700  0.628900  0.828900  1.0  -0.2108
  C  C259  1  0.057700  0.658600  0.852600  1.0  0.1401
  C  C260  1  0.711300  0.954100  0.672500  1.0  0.1106
  C  C261  1  0.678000  0.032500  0.701000  1.0  -0.1808
  C  C262  1  0.607500  0.013900  0.733000  1.0  -0.0366
  C  C263  1  0.567900  0.914100  0.737300  1.0  -0.0951
  C  C264  1  0.612700  0.841100  0.708400  1.0  0.148
  C  C265  1  0.580500  0.878400  0.583400  1.0  0.1492
  C  C266  1  0.549600  0.958400  0.555300  1.0  -0.2351
  C  C267  1  0.612200  0.987500  0.519400  1.0  0.0993
  C  C268  1  0.705600  0.932500  0.514800  1.0  -0.2097
  C  C269  1  0.728500  0.858400  0.545600  1.0  0.133
  C  C270  1  0.916400  0.202800  0.456800  1.0  0.1379
  C  C271  1  0.964300  0.216800  0.499400  1.0  -0.1857
  C  C272  1  0.929900  0.292700  0.528300  1.0  -0.0474
  C  C273  1  0.852200  0.357200  0.513300  1.0  -0.0831
  C  C274  1  0.809100  0.335300  0.470400  1.0  0.1376
  C  C275  1  0.712600  0.588100  0.553600  1.0  0.1436
  C  C276  1  0.737600  0.506800  0.527900  1.0  -0.1912
  C  C277  1  0.819300  0.445700  0.540100  1.0  0.102
  C  C278  1  0.871100  0.475700  0.578900  1.0  -0.2158
  C  C279  1  0.841400  0.557700  0.602600  1.0  0.1398
  C  C280  1  0.545900  0.211300  0.422500  1.0  0.1088
  C  C281  1  0.467500  0.178000  0.451000  1.0  -0.1807
  C  C282  1  0.486100  0.107500  0.483000  1.0  -0.0408
  C  C283  1  0.585900  0.067900  0.487300  1.0  -0.0911
  C  C284  1  0.658900  0.112700  0.458400  1.0  0.1489
  C  C285  1  0.419500  0.121600  0.083400  1.0  0.1481
  C  C286  1  0.450400  0.041600  0.055300  1.0  -0.2332
  C  C287  1  0.387800  0.012500  0.019400  1.0  0.0993
  C  C288  1  0.294400  0.067500  0.014800  1.0  -0.2094
  C  C289  1  0.271500  0.141600  0.045600  1.0  0.133
  C  C290  1  0.083600  0.797200  0.956800  1.0  0.1378
  C  C291  1  0.035700  0.783200  0.999400  1.0  -0.1883
  C  C292  1  0.070100  0.707300  0.028300  1.0  -0.0469
  C  C293  1  0.147800  0.642800  0.013300  1.0  -0.0825
  C  C294  1  0.190900  0.664700  0.970400  1.0  0.1367
  C  C295  1  0.287400  0.411900  0.053600  1.0  0.1431
  C  C296  1  0.262400  0.493200  0.027900  1.0  -0.1917
  C  C297  1  0.180700  0.554300  0.040100  1.0  0.1015
  C  C298  1  0.128900  0.524300  0.078900  1.0  -0.2153
  C  C299  1  0.158600  0.442300  0.102600  1.0  0.1406
  C  C300  1  0.454100  0.788700  0.922500  1.0  0.11
  C  C301  1  0.532500  0.822000  0.951000  1.0  -0.1798
  C  C302  1  0.513900  0.892500  0.983000  1.0  -0.0402
  C  C303  1  0.414100  0.932100  0.987300  1.0  -0.0925
  C  C304  1  0.341100  0.887300  0.958400  1.0  0.1485
  N  N305  1  0.830200  0.667900  0.419900  1.0  -0.2916
  N  N306  1  0.616800  0.760400  0.408700  1.0  -0.2984
  N  N307  1  0.260500  0.840800  0.557000  1.0  -0.2752
  N  N308  1  0.178900  0.641600  0.573100  1.0  -0.2653
  N  N309  1  0.169800  0.332100  0.919900  1.0  -0.289
  N  N310  1  0.383200  0.239600  0.908700  1.0  -0.2984
  N  N311  1  0.739500  0.159200  0.057000  1.0  -0.2741
  N  N312  1  0.821100  0.358400  0.073100  1.0  -0.2661
  N  N313  1  0.832100  0.330200  0.169900  1.0  -0.29
  N  N314  1  0.739600  0.116800  0.158700  1.0  -0.2985
  N  N315  1  0.659200  0.760500  0.307000  1.0  -0.2737
  N  N316  1  0.858400  0.678900  0.323100  1.0  -0.2674
  N  N317  1  0.167900  0.669800  0.669900  1.0  -0.29
  N  N318  1  0.260400  0.883200  0.658700  1.0  -0.3002
  N  N319  1  0.340800  0.239500  0.807000  1.0  -0.2747
  N  N320  1  0.141600  0.321100  0.823100  1.0  -0.2666
  N  N321  1  0.669800  0.167900  0.330100  1.0  -0.2892
  N  N322  1  0.883200  0.260400  0.341300  1.0  -0.2978
  N  N323  1  0.239500  0.340800  0.193000  1.0  -0.2743
  N  N324  1  0.321100  0.141600  0.176900  1.0  -0.2653
  N  N325  1  0.330200  0.832100  0.830100  1.0  -0.2914
  N  N326  1  0.116800  0.739600  0.841300  1.0  -0.2982
  N  N327  1  0.760500  0.659200  0.693000  1.0  -0.274
  N  N328  1  0.678900  0.858400  0.676900  1.0  -0.2658
  N  N329  1  0.667900  0.830200  0.580100  1.0  -0.2899
  N  N330  1  0.760400  0.616800  0.591300  1.0  -0.2993
  N  N331  1  0.840800  0.260500  0.443000  1.0  -0.2737
  N  N332  1  0.641600  0.178900  0.426900  1.0  -0.2678
  N  N333  1  0.332100  0.169800  0.080100  1.0  -0.2897
  N  N334  1  0.239600  0.383200  0.091300  1.0  -0.2975
  N  N335  1  0.159200  0.739500  0.943000  1.0  -0.2743
  N  N336  1  0.358400  0.821100  0.926900  1.0  -0.2668
  O  O337  1  0.681400  0.577700  0.363100  1.0  -0.5391
  O  O338  1  0.706000  0.362500  0.375300  1.0  -0.5218
  O  O339  1  0.318600  0.422300  0.863100  1.0  -0.5381
  O  O340  1  0.294000  0.637500  0.875300  1.0  -0.5218
  O  O341  1  0.922300  0.181400  0.113100  1.0  -0.5393
  O  O342  1  0.137500  0.206000  0.125300  1.0  -0.524
  O  O343  1  0.077700  0.818600  0.613100  1.0  -0.5379
  O  O344  1  0.862500  0.794000  0.625300  1.0  -0.5227
  O  O345  1  0.818600  0.077700  0.386900  1.0  -0.5397
  O  O346  1  0.794000  0.862500  0.374700  1.0  -0.5202
  O  O347  1  0.181400  0.922300  0.886900  1.0  -0.5374
  O  O348  1  0.206000  0.137500  0.874700  1.0  -0.5232
  O  O349  1  0.577700  0.681400  0.636900  1.0  -0.5394
  O  O350  1  0.362500  0.706000  0.624700  1.0  -0.5228
  O  O351  1  0.422300  0.318600  0.136900  1.0  -0.5375
  O  O352  1  0.637500  0.294000  0.124700  1.0  -0.5252
