# generated using pymatgen
data_Ga2P2O8F
_symmetry_space_group_name_H-M   'P 1'
_cell_length_a   27.31600000
_cell_length_b   17.47200000
_cell_length_c   10.19700000
_cell_angle_alpha   90.00000000
_cell_angle_beta   90.00000000
_cell_angle_gamma   90.00000000
_symmetry_Int_Tables_number   1
_chemical_formula_structural   Ga2P2O8F
_chemical_formula_sum   'Ga32 P32 O128 F16'
_cell_volume   4866.67275494
_cell_formula_units_Z   16
loop_
 _symmetry_equiv_pos_site_id
 _symmetry_equiv_pos_as_xyz
  1  'x, y, z'
loop_
 _atom_site_type_symbol
 _atom_site_label
 _atom_site_symmetry_multiplicity
 _atom_site_fract_x
 _atom_site_fract_y
 _atom_site_fract_z
 _atom_site_occupancy
 _atom_site_charge
  Ga  Ga1  1  0.220300  0.239200  0.088400  1.0  1.65
  Ga  Ga2  1  0.344100  0.179300  0.110500  1.0  1.6511
  Ga  Ga3  1  0.054000  0.423500  0.902500  1.0  1.6943
  Ga  Ga4  1  0.241500  0.412700  0.926000  1.0  1.7215
  Ga  Ga5  1  0.279700  0.260800  0.588400  1.0  1.6469
  Ga  Ga6  1  0.155900  0.320700  0.610500  1.0  1.6505
  Ga  Ga7  1  0.446000  0.076500  0.402500  1.0  1.6932
  Ga  Ga8  1  0.258500  0.087300  0.426000  1.0  1.7194
  Ga  Ga9  1  0.779700  0.239200  0.411600  1.0  1.6496
  Ga  Ga10  1  0.655900  0.179300  0.389500  1.0  1.6515
  Ga  Ga11  1  0.946000  0.423500  0.597500  1.0  1.6931
  Ga  Ga12  1  0.758500  0.412700  0.574000  1.0  1.7207
  Ga  Ga13  1  0.720300  0.260800  0.911600  1.0  1.6506
  Ga  Ga14  1  0.844100  0.320700  0.889500  1.0  1.6506
  Ga  Ga15  1  0.554000  0.076500  0.097500  1.0  1.694
  Ga  Ga16  1  0.741500  0.087300  0.074000  1.0  1.7197
  Ga  Ga17  1  0.779700  0.760800  0.911600  1.0  1.6484
  Ga  Ga18  1  0.655900  0.820700  0.889500  1.0  1.6504
  Ga  Ga19  1  0.946000  0.576500  0.097500  1.0  1.6929
  Ga  Ga20  1  0.758500  0.587300  0.074000  1.0  1.7193
  Ga  Ga21  1  0.720300  0.739200  0.411600  1.0  1.6518
  Ga  Ga22  1  0.844100  0.679300  0.389500  1.0  1.6516
  Ga  Ga23  1  0.554000  0.923500  0.597500  1.0  1.6938
  Ga  Ga24  1  0.741500  0.912700  0.574000  1.0  1.7209
  Ga  Ga25  1  0.220300  0.760800  0.588400  1.0  1.6488
  Ga  Ga26  1  0.344100  0.820700  0.610500  1.0  1.6506
  Ga  Ga27  1  0.054000  0.576500  0.402500  1.0  1.6939
  Ga  Ga28  1  0.241500  0.587300  0.426000  1.0  1.7201
  Ga  Ga29  1  0.279700  0.739200  0.088400  1.0  1.6482
  Ga  Ga30  1  0.155900  0.679300  0.110500  1.0  1.6512
  Ga  Ga31  1  0.446000  0.923500  0.902500  1.0  1.6935
  Ga  Ga32  1  0.258500  0.912700  0.926000  1.0  1.7204
  P  P33  1  0.141600  0.319800  0.904000  1.0  1.8156
  P  P34  1  0.255200  0.065700  0.110500  1.0  1.8304
  P  P35  1  0.440400  0.074200  0.094800  1.0  2.0172
  P  P36  1  0.304000  0.273400  0.886000  1.0  1.8481
  P  P37  1  0.358400  0.180200  0.404000  1.0  1.8187
  P  P38  1  0.244800  0.434300  0.610500  1.0  1.8334
  P  P39  1  0.059600  0.425800  0.594800  1.0  2.0178
  P  P40  1  0.196000  0.226600  0.386000  1.0  1.8469
  P  P41  1  0.858400  0.319800  0.596000  1.0  1.8176
  P  P42  1  0.744800  0.065700  0.389500  1.0  1.8323
  P  P43  1  0.559600  0.074200  0.405200  1.0  2.0175
  P  P44  1  0.696000  0.273400  0.614000  1.0  1.8465
  P  P45  1  0.641600  0.180200  0.096000  1.0  1.8144
  P  P46  1  0.755200  0.434300  0.889500  1.0  1.8321
  P  P47  1  0.940400  0.425800  0.905200  1.0  2.0153
  P  P48  1  0.804000  0.226600  0.114000  1.0  1.8486
  P  P49  1  0.858400  0.680200  0.096000  1.0  1.8184
  P  P50  1  0.744800  0.934300  0.889500  1.0  1.8337
  P  P51  1  0.559600  0.925800  0.905200  1.0  2.0291
  P  P52  1  0.696000  0.726600  0.114000  1.0  1.847
  P  P53  1  0.641600  0.819800  0.596000  1.0  1.8142
  P  P54  1  0.755200  0.565700  0.389500  1.0  1.8308
  P  P55  1  0.940400  0.574200  0.405200  1.0  2.0271
  P  P56  1  0.804000  0.773400  0.614000  1.0  1.8482
  P  P57  1  0.141600  0.680200  0.404000  1.0  1.8156
  P  P58  1  0.255200  0.934300  0.610500  1.0  1.8318
  P  P59  1  0.440400  0.925800  0.594800  1.0  2.0275
  P  P60  1  0.304000  0.726600  0.386000  1.0  1.8483
  P  P61  1  0.358400  0.819800  0.904000  1.0  1.8185
  P  P62  1  0.244800  0.565700  0.110500  1.0  1.8321
  P  P63  1  0.059600  0.574200  0.094800  1.0  2.0201
  P  P64  1  0.196000  0.773400  0.886000  1.0  1.8466
  O  O65  1  0.217300  0.128100  0.087100  1.0  -0.7576
  O  O66  1  0.256800  0.233900  0.926100  1.0  -0.8051
  O  O67  1  0.404100  0.132100  0.047900  1.0  -0.7746
  O  O68  1  0.176500  0.387900  0.887900  1.0  -0.8735
  O  O69  1  0.438700  0.004200  0.008300  1.0  -0.9822
  O  O70  1  0.093700  0.350300  0.969600  1.0  -0.8076
  O  O71  1  0.299200  0.360600  0.898400  1.0  -0.8414
  O  O72  1  0.242900  0.000800  0.016000  1.0  -0.8871
  O  O73  1  0.317200  0.251000  0.745500  1.0  -0.7571
  O  O74  1  0.253500  0.034800  0.252200  1.0  -0.7364
  O  O75  1  0.160700  0.255000  0.987300  1.0  -0.7701
  O  O76  1  0.347300  0.247900  0.972800  1.0  -0.7984
  O  O77  1  0.308200  0.091500  0.078500  1.0  -0.8707
  O  O78  1  0.126900  0.291700  0.766900  1.0  -0.7785
  O  O79  1  0.430300  0.047000  0.236000  1.0  -0.9165
  O  O80  1  0.491500  0.111600  0.088800  1.0  -0.841
  O  O81  1  0.282700  0.371900  0.587100  1.0  -0.7578
  O  O82  1  0.243200  0.266100  0.426100  1.0  -0.8041
  O  O83  1  0.095900  0.367900  0.547900  1.0  -0.7744
  O  O84  1  0.323500  0.112100  0.387900  1.0  -0.8726
  O  O85  1  0.061300  0.495800  0.508300  1.0  -0.9823
  O  O86  1  0.406300  0.149700  0.469600  1.0  -0.8066
  O  O87  1  0.200800  0.139400  0.398400  1.0  -0.8316
  O  O88  1  0.257100  0.499200  0.516000  1.0  -0.883
  O  O89  1  0.182800  0.249000  0.245500  1.0  -0.7575
  O  O90  1  0.246500  0.465200  0.752200  1.0  -0.7354
  O  O91  1  0.339300  0.245000  0.487300  1.0  -0.7713
  O  O92  1  0.152700  0.252100  0.472800  1.0  -0.7932
  O  O93  1  0.191800  0.408500  0.578500  1.0  -0.871
  O  O94  1  0.373100  0.208300  0.266900  1.0  -0.7812
  O  O95  1  0.069700  0.453000  0.736000  1.0  -0.9178
  O  O96  1  0.008500  0.388400  0.588800  1.0  -0.8425
  O  O97  1  0.782700  0.128100  0.412900  1.0  -0.7577
  O  O98  1  0.743200  0.233900  0.573900  1.0  -0.8048
  O  O99  1  0.595900  0.132100  0.452100  1.0  -0.7738
  O  O100  1  0.823500  0.387900  0.612100  1.0  -0.8743
  O  O101  1  0.561300  0.004200  0.491700  1.0  -0.982
  O  O102  1  0.906300  0.350300  0.530400  1.0  -0.8072
  O  O103  1  0.700800  0.360600  0.601600  1.0  -0.8416
  O  O104  1  0.757100  0.000800  0.484000  1.0  -0.8841
  O  O105  1  0.682800  0.251000  0.754500  1.0  -0.758
  O  O106  1  0.746500  0.034800  0.247800  1.0  -0.7367
  O  O107  1  0.839300  0.255000  0.512700  1.0  -0.7714
  O  O108  1  0.652700  0.247900  0.527200  1.0  -0.7995
  O  O109  1  0.691800  0.091500  0.421500  1.0  -0.8722
  O  O110  1  0.873100  0.291700  0.733100  1.0  -0.7804
  O  O111  1  0.569700  0.047000  0.264000  1.0  -0.9156
  O  O112  1  0.508500  0.111600  0.411200  1.0  -0.8402
  O  O113  1  0.717300  0.371900  0.912900  1.0  -0.7592
  O  O114  1  0.756800  0.266100  0.073900  1.0  -0.8048
  O  O115  1  0.904100  0.367900  0.952100  1.0  -0.7741
  O  O116  1  0.676500  0.112100  0.112100  1.0  -0.8734
  O  O117  1  0.938700  0.495800  0.991700  1.0  -0.9815
  O  O118  1  0.593700  0.149700  0.030400  1.0  -0.8079
  O  O119  1  0.799200  0.139400  0.101600  1.0  -0.8308
  O  O120  1  0.742900  0.499200  0.984000  1.0  -0.8857
  O  O121  1  0.817200  0.249000  0.254500  1.0  -0.7572
  O  O122  1  0.753500  0.465200  0.747800  1.0  -0.7381
  O  O123  1  0.660700  0.245000  0.012700  1.0  -0.7704
  O  O124  1  0.847300  0.252100  0.027200  1.0  -0.7915
  O  O125  1  0.808200  0.408500  0.921500  1.0  -0.8718
  O  O126  1  0.626900  0.208300  0.233100  1.0  -0.7819
  O  O127  1  0.930300  0.453000  0.764000  1.0  -0.9173
  O  O128  1  0.991500  0.388400  0.911200  1.0  -0.841
  O  O129  1  0.782700  0.871900  0.912900  1.0  -0.7591
  O  O130  1  0.743200  0.766100  0.073900  1.0  -0.8047
  O  O131  1  0.595900  0.867900  0.952100  1.0  -0.7742
  O  O132  1  0.823500  0.612100  0.112100  1.0  -0.8731
  O  O133  1  0.561300  0.995800  0.991700  1.0  -0.9824
  O  O134  1  0.906300  0.649700  0.030400  1.0  -0.8076
  O  O135  1  0.700800  0.639400  0.101600  1.0  -0.8419
  O  O136  1  0.757100  0.999200  0.984000  1.0  -0.8842
  O  O137  1  0.682800  0.749000  0.254500  1.0  -0.7574
  O  O138  1  0.746500  0.965200  0.747800  1.0  -0.7378
  O  O139  1  0.839300  0.745000  0.012700  1.0  -0.7709
  O  O140  1  0.652700  0.752100  0.027200  1.0  -0.7999
  O  O141  1  0.691800  0.908500  0.921500  1.0  -0.8726
  O  O142  1  0.873100  0.708300  0.233100  1.0  -0.7812
  O  O143  1  0.569700  0.953000  0.764000  1.0  -0.9169
  O  O144  1  0.508500  0.888400  0.911200  1.0  -0.8417
  O  O145  1  0.717300  0.628100  0.412900  1.0  -0.7577
  O  O146  1  0.756800  0.733900  0.573900  1.0  -0.8047
  O  O147  1  0.904100  0.632100  0.452100  1.0  -0.7738
  O  O148  1  0.676500  0.887900  0.612100  1.0  -0.8735
  O  O149  1  0.938700  0.504200  0.491700  1.0  -0.9809
  O  O150  1  0.593700  0.850300  0.530400  1.0  -0.8077
  O  O151  1  0.799200  0.860600  0.601600  1.0  -0.8304
  O  O152  1  0.742900  0.500800  0.484000  1.0  -0.8856
  O  O153  1  0.817200  0.751000  0.754500  1.0  -0.757
  O  O154  1  0.753500  0.534800  0.247800  1.0  -0.7376
  O  O155  1  0.660700  0.755000  0.512700  1.0  -0.7695
  O  O156  1  0.847300  0.747900  0.527200  1.0  -0.7921
  O  O157  1  0.808200  0.591500  0.421500  1.0  -0.8718
  O  O158  1  0.626900  0.791700  0.733100  1.0  -0.7809
  O  O159  1  0.930300  0.547000  0.264000  1.0  -0.9159
  O  O160  1  0.991500  0.611600  0.411200  1.0  -0.8399
  O  O161  1  0.217300  0.871900  0.587100  1.0  -0.7586
  O  O162  1  0.256800  0.766100  0.426100  1.0  -0.8044
  O  O163  1  0.404100  0.867900  0.547900  1.0  -0.7747
  O  O164  1  0.176500  0.612100  0.387900  1.0  -0.8729
  O  O165  1  0.438700  0.995800  0.508300  1.0  -0.9837
  O  O166  1  0.093700  0.649700  0.469600  1.0  -0.8072
  O  O167  1  0.299200  0.639400  0.398400  1.0  -0.8413
  O  O168  1  0.242900  0.999200  0.516000  1.0  -0.8872
  O  O169  1  0.317200  0.749000  0.245500  1.0  -0.757
  O  O170  1  0.253500  0.965200  0.752200  1.0  -0.7375
  O  O171  1  0.160700  0.745000  0.487300  1.0  -0.7703
  O  O172  1  0.347300  0.752100  0.472800  1.0  -0.7989
  O  O173  1  0.308200  0.908500  0.578500  1.0  -0.8703
  O  O174  1  0.126900  0.708300  0.266900  1.0  -0.7806
  O  O175  1  0.430300  0.953000  0.736000  1.0  -0.9181
  O  O176  1  0.491500  0.888400  0.588800  1.0  -0.8422
  O  O177  1  0.282700  0.628100  0.087100  1.0  -0.7576
  O  O178  1  0.243200  0.733900  0.926100  1.0  -0.8051
  O  O179  1  0.095900  0.632100  0.047900  1.0  -0.7739
  O  O180  1  0.323500  0.887900  0.887900  1.0  -0.8741
  O  O181  1  0.061300  0.504200  0.008300  1.0  -0.9815
  O  O182  1  0.406300  0.850300  0.969600  1.0  -0.8069
  O  O183  1  0.200800  0.860600  0.898400  1.0  -0.8292
  O  O184  1  0.257100  0.500800  0.016000  1.0  -0.8829
  O  O185  1  0.182800  0.751000  0.745500  1.0  -0.758
  O  O186  1  0.246500  0.534800  0.252200  1.0  -0.7363
  O  O187  1  0.339300  0.755000  0.987300  1.0  -0.7719
  O  O188  1  0.152700  0.747900  0.972800  1.0  -0.7899
  O  O189  1  0.191800  0.591500  0.078500  1.0  -0.8713
  O  O190  1  0.373100  0.791700  0.766900  1.0  -0.7807
  O  O191  1  0.069700  0.547000  0.236000  1.0  -0.9162
  O  O192  1  0.008500  0.611600  0.088800  1.0  -0.8413
  F  F193  1  0.283900  0.230200  0.179300  1.0  -0.5317
  F  F194  1  0.232500  0.352400  0.093700  1.0  -0.5068
  F  F195  1  0.216100  0.269800  0.679300  1.0  -0.5323
  F  F196  1  0.267500  0.147600  0.593700  1.0  -0.5081
  F  F197  1  0.716100  0.230200  0.320700  1.0  -0.5321
  F  F198  1  0.767500  0.352400  0.406300  1.0  -0.5078
  F  F199  1  0.783900  0.269800  0.820700  1.0  -0.5331
  F  F200  1  0.732500  0.147600  0.906300  1.0  -0.5085
  F  F201  1  0.716100  0.769800  0.820700  1.0  -0.5335
  F  F202  1  0.767500  0.647600  0.906300  1.0  -0.5088
  F  F203  1  0.783900  0.730200  0.320700  1.0  -0.5321
  F  F204  1  0.732500  0.852400  0.406300  1.0  -0.5074
  F  F205  1  0.283900  0.769800  0.679300  1.0  -0.5325
  F  F206  1  0.232500  0.647600  0.593700  1.0  -0.508
  F  F207  1  0.216100  0.730200  0.179300  1.0  -0.5314
  F  F208  1  0.267500  0.852400  0.093700  1.0  -0.5071
