# generated using pymatgen
data_CuH5C6NO3
_symmetry_space_group_name_H-M   'P 1'
_cell_length_a   3.55210000
_cell_length_b   12.99770000
_cell_length_c   15.86650000
_cell_angle_alpha   90.00000000
_cell_angle_beta   90.00000000
_cell_angle_gamma   95.28500000
_symmetry_Int_Tables_number   1
_chemical_formula_structural   CuH5C6NO3
_chemical_formula_sum   'Cu4 H20 C24 N4 O12'
_cell_volume   729.42835330
_cell_formula_units_Z   4
loop_
 _symmetry_equiv_pos_site_id
 _symmetry_equiv_pos_as_xyz
  1  'x, y, z'
loop_
 _atom_site_type_symbol
 _atom_site_label
 _atom_site_symmetry_multiplicity
 _atom_site_fract_x
 _atom_site_fract_y
 _atom_site_fract_z
 _atom_site_occupancy
 _atom_site_charge
  Cu  Cu1  1  0.734440  0.504300  0.422540  1.0  1.0549
  Cu  Cu2  1  0.765560  0.995700  0.922540  1.0  1.0543
  Cu  Cu3  1  0.265560  0.495700  0.577460  1.0  1.0532
  Cu  Cu4  1  0.234440  0.004300  0.077460  1.0  1.0536
  H  H5  1  0.690000  0.367500  0.515000  1.0  0.413
  H  H6  1  0.022700  0.094300  0.375700  1.0  0.1344
  H  H7  1  0.163700  0.335100  0.218100  1.0  0.1256
  H  H8  1  0.161500  0.988900  0.266300  1.0  0.0772
  H  H9  1  0.300200  0.223400  0.113400  1.0  0.0839
  H  H10  1  0.810000  0.132500  0.015000  1.0  0.4135
  H  H11  1  0.477300  0.405700  0.875700  1.0  0.1337
  H  H12  1  0.336300  0.164900  0.718100  1.0  0.1249
  H  H13  1  0.338500  0.511100  0.766300  1.0  0.0766
  H  H14  1  0.199800  0.276600  0.613400  1.0  0.083
  H  H15  1  0.310000  0.632500  0.485000  1.0  0.4133
  H  H16  1  0.977300  0.905700  0.624300  1.0  0.1341
  H  H17  1  0.836300  0.664900  0.781900  1.0  0.1257
  H  H18  1  0.838500  0.011100  0.733700  1.0  0.0769
  H  H19  1  0.699800  0.776600  0.886600  1.0  0.0812
  H  H20  1  0.190000  0.867500  0.985000  1.0  0.4132
  H  H21  1  0.522700  0.594300  0.124300  1.0  0.1344
  H  H22  1  0.663700  0.835100  0.281900  1.0  0.1256
  H  H23  1  0.661500  0.488900  0.233700  1.0  0.0767
  H  H24  1  0.800200  0.723400  0.386600  1.0  0.0825
  C  C25  1  0.946400  0.297640  0.377840  1.0  0.6383
  C  C26  1  0.066900  0.227170  0.308460  1.0  -0.0042
  C  C27  1  0.073900  0.122040  0.322500  1.0  -0.1473
  C  C28  1  0.157600  0.264730  0.229220  1.0  -0.1546
  C  C29  1  0.157900  0.059310  0.256330  1.0  0.1708
  C  C30  1  0.239000  0.197120  0.166630  1.0  0.1605
  C  C31  1  0.553600  0.202360  0.877840  1.0  0.6381
  C  C32  1  0.433100  0.272830  0.808460  1.0  -0.0042
  C  C33  1  0.426100  0.377960  0.822500  1.0  -0.1485
  C  C34  1  0.342400  0.235270  0.729220  1.0  -0.1556
  C  C35  1  0.342100  0.440690  0.756330  1.0  0.1703
  C  C36  1  0.261000  0.302880  0.666667  1.0  0.1606
  C  C37  1  0.053600  0.702360  0.622160  1.0  0.6384
  C  C38  1  0.933100  0.772830  0.691540  1.0  -0.0052
  C  C39  1  0.926100  0.877960  0.677500  1.0  -0.1467
  C  C40  1  0.842400  0.735270  0.770780  1.0  -0.1546
  C  C41  1  0.842100  0.940690  0.743670  1.0  0.1705
  C  C42  1  0.761000  0.802880  0.833370  1.0  0.1593
  C  C43  1  0.446400  0.797640  0.122160  1.0  0.6381
  C  C44  1  0.566900  0.727170  0.191540  1.0  -0.0042
  C  C45  1  0.573900  0.622040  0.177500  1.0  -0.146
  C  C46  1  0.657600  0.764730  0.270780  1.0  -0.1556
  C  C47  1  0.657900  0.559310  0.243670  1.0  0.17
  C  C48  1  0.739000  0.697120  0.333370  1.0  0.1604
  N  N49  1  0.234100  0.094790  0.178860  1.0  -0.3519
  N  N50  1  0.265900  0.405210  0.678860  1.0  -0.3509
  N  N51  1  0.765900  0.905210  0.821140  1.0  -0.3505
  N  N52  1  0.734100  0.594790  0.321140  1.0  -0.3503
  O  O53  1  0.693600  0.430120  0.528420  1.0  -0.9819
  O  O54  1  0.964100  0.392660  0.358730  1.0  -0.6457
  O  O55  1  0.836900  0.257850  0.445400  1.0  -0.5725
  O  O56  1  0.806400  0.069880  0.028420  1.0  -0.9811
  O  O57  1  0.535900  0.107340  0.858730  1.0  -0.6454
  O  O58  1  0.663100  0.242150  0.945400  1.0  -0.57
  O  O59  1  0.306400  0.569880  0.471580  1.0  -0.9812
  O  O60  1  0.035900  0.607340  0.641270  1.0  -0.6446
  O  O61  1  0.163100  0.742150  0.554600  1.0  -0.57
  O  O62  1  0.193600  0.930120  0.971580  1.0  -0.9819
  O  O63  1  0.464100  0.892660  0.141270  1.0  -0.6451
  O  O64  1  0.336900  0.757850  0.054600  1.0  -0.5709
