# generated using pymatgen
data_CuH5C6NO3
_symmetry_space_group_name_H-M   'P 1'
_cell_length_a   3.53400000
_cell_length_b   13.00520000
_cell_length_c   15.76800000
_cell_angle_alpha   90.00000000
_cell_angle_beta   90.00000000
_cell_angle_gamma   96.88500000
_symmetry_Int_Tables_number   1
_chemical_formula_structural   CuH5C6NO3
_chemical_formula_sum   'Cu4 H20 C24 N4 O12'
_cell_volume   719.47721228
_cell_formula_units_Z   4
loop_
 _symmetry_equiv_pos_site_id
 _symmetry_equiv_pos_as_xyz
  1  'x, y, z'
loop_
 _atom_site_type_symbol
 _atom_site_label
 _atom_site_symmetry_multiplicity
 _atom_site_fract_x
 _atom_site_fract_y
 _atom_site_fract_z
 _atom_site_occupancy
 _atom_site_charge
  Cu  Cu1  1  0.737580  0.505080  0.921980  1.0  1.0578
  Cu  Cu2  1  0.762420  0.994920  0.421980  1.0  1.0572
  Cu  Cu3  1  0.262420  0.494920  0.078020  1.0  1.057
  Cu  Cu4  1  0.237580  0.005080  0.578020  1.0  1.0574
  H  H5  1  0.649800  0.363920  0.023950  1.0  0.418
  H  H6  1  0.807200  0.724700  0.888500  1.0  0.092
  H  H7  1  0.663000  0.837000  0.783600  1.0  0.1251
  H  H8  1  0.520000  0.596300  0.622400  1.0  0.1277
  H  H9  1  0.671000  0.490200  0.731400  1.0  0.0858
  H  H10  1  0.850200  0.136080  0.523950  1.0  0.4183
  H  H11  1  0.692800  0.775300  0.388500  1.0  0.0911
  H  H12  1  0.837000  0.663000  0.283600  1.0  0.125
  H  H13  1  0.980000  0.903700  0.122400  1.0  0.1278
  H  H14  1  0.829000  0.009800  0.231400  1.0  0.0853
  H  H15  1  0.350200  0.636080  0.976050  1.0  0.4179
  H  H16  1  0.192800  0.275300  0.111500  1.0  0.0911
  H  H17  1  0.337000  0.163000  0.216400  1.0  0.1244
  H  H18  1  0.480000  0.403700  0.377600  1.0  0.1276
  H  H19  1  0.329000  0.509800  0.268600  1.0  0.0852
  H  H20  1  0.149800  0.863920  0.476050  1.0  0.4177
  H  H21  1  0.307200  0.224700  0.611500  1.0  0.0916
  H  H22  1  0.163000  0.337000  0.716400  1.0  0.1251
  H  H23  1  0.020000  0.096300  0.877600  1.0  0.1279
  H  H24  1  0.171000  0.990200  0.768600  1.0  0.0857
  C  C25  1  0.745200  0.698900  0.834600  1.0  0.1351
  C  C26  1  0.658600  0.766800  0.771900  1.0  -0.1339
  C  C27  1  0.565000  0.728800  0.691400  1.0  -0.011
  C  C28  1  0.574000  0.623700  0.676200  1.0  -0.1304
  C  C29  1  0.664500  0.560300  0.742000  1.0  0.1541
  C  C30  1  0.439800  0.799000  0.622600  1.0  0.6426
  C  C31  1  0.754800  0.801100  0.334600  1.0  0.1334
  C  C32  1  0.841400  0.733200  0.271900  1.0  -0.1338
  C  C33  1  0.935000  0.771200  0.191400  1.0  -0.0117
  C  C34  1  0.926000  0.876300  0.176200  1.0  -0.1303
  C  C35  1  0.835500  0.939700  0.242000  1.0  0.1543
  C  C36  1  0.060200  0.701000  0.122600  1.0  0.6426
  C  C37  1  0.254800  0.301100  0.165400  1.0  0.1357
  C  C38  1  0.341400  0.233200  0.228100  1.0  -0.1335
  C  C39  1  0.435000  0.271200  0.308600  1.0  -0.0109
  C  C40  1  0.426000  0.376300  0.323800  1.0  -0.1317
  C  C41  1  0.335500  0.439700  0.258000  1.0  0.1537
  C  C42  1  0.560200  0.201000  0.377400  1.0  0.6424
  C  C43  1  0.245200  0.198900  0.665400  1.0  0.1369
  C  C44  1  0.158600  0.266800  0.728100  1.0  -0.1327
  C  C45  1  0.065000  0.228800  0.808600  1.0  -0.0113
  C  C46  1  0.074000  0.123700  0.823800  1.0  -0.132
  C  C47  1  0.164500  0.060300  0.758000  1.0  0.1544
  C  C48  1  0.939800  0.299000  0.877400  1.0  0.6426
  N  N49  1  0.742900  0.596500  0.820390  1.0  -0.3547
  N  N50  1  0.757100  0.903500  0.320390  1.0  -0.3551
  N  N51  1  0.257100  0.403500  0.179610  1.0  -0.3557
  N  N52  1  0.242900  0.096500  0.679610  1.0  -0.3558
  O  O53  1  0.686900  0.429490  0.028380  1.0  -0.9904
  O  O54  1  0.463000  0.894050  0.642140  1.0  -0.6435
  O  O55  1  0.318900  0.758400  0.554960  1.0  -0.5735
  O  O56  1  0.813100  0.070510  0.528380  1.0  -0.9898
  O  O57  1  0.037000  0.605950  0.142140  1.0  -0.643
  O  O58  1  0.181100  0.741600  0.054960  1.0  -0.5726
  O  O59  1  0.313100  0.570510  0.971620  1.0  -0.9899
  O  O60  1  0.537000  0.105950  0.357860  1.0  -0.6435
  O  O61  1  0.681100  0.241600  0.445040  1.0  -0.5703
  O  O62  1  0.186900  0.929490  0.471620  1.0  -0.9902
  O  O63  1  0.963000  0.394050  0.857860  1.0  -0.6441
  O  O64  1  0.818900  0.258400  0.945040  1.0  -0.5722
