# generated using pymatgen
data_ScP2(HO4)2
_symmetry_space_group_name_H-M   'P 1'
_cell_length_a   9.40880000
_cell_length_b   9.09240000
_cell_length_c   9.68840000
_cell_angle_alpha   90.00000000
_cell_angle_beta   117.25200000
_cell_angle_gamma   90.00000000
_symmetry_Int_Tables_number   1
_chemical_formula_structural   ScP2(HO4)2
_chemical_formula_sum   'Sc4 P8 H8 O32'
_cell_volume   736.82975937
_cell_formula_units_Z   4
loop_
 _symmetry_equiv_pos_site_id
 _symmetry_equiv_pos_as_xyz
  1  'x, y, z'
loop_
 _atom_site_type_symbol
 _atom_site_label
 _atom_site_symmetry_multiplicity
 _atom_site_fract_x
 _atom_site_fract_y
 _atom_site_fract_z
 _atom_site_occupancy
 _atom_site_charge
  Sc  Sc1  1  0.250000  0.894300  0.250000  1.0  2.0404
  Sc  Sc2  1  0.750000  0.105700  0.750000  1.0  2.0429
  Sc  Sc3  1  0.250000  0.382700  0.750000  1.0  2.0284
  Sc  Sc4  1  0.750000  0.617300  0.250000  1.0  2.0275
  P  P5  1  0.332200  0.602100  0.064400  1.0  1.7644
  P  P6  1  0.143200  0.157300  0.972100  1.0  1.7454
  P  P7  1  0.167800  0.602100  0.435600  1.0  1.7647
  P  P8  1  0.356800  0.157300  0.527900  1.0  1.7453
  P  P9  1  0.667800  0.397900  0.935600  1.0  1.764
  P  P10  1  0.856800  0.842700  0.027900  1.0  1.7465
  P  P11  1  0.832200  0.397900  0.564400  1.0  1.7633
  P  P12  1  0.643200  0.842700  0.472100  1.0  1.7463
  H  H13  1  0.249400  0.433300  0.133100  1.0  0.3991
  H  H14  1  0.014300  0.288400  0.031100  1.0  0.4109
  H  H15  1  0.250600  0.433300  0.366900  1.0  0.3987
  H  H16  1  0.485700  0.288400  0.468900  1.0  0.4118
  H  H17  1  0.750600  0.566700  0.866900  1.0  0.3985
  H  H18  1  0.985700  0.711600  0.968900  1.0  0.4122
  H  H19  1  0.749400  0.566700  0.633100  1.0  0.4003
  H  H20  1  0.514300  0.711600  0.531100  1.0  0.4113
  O  O21  1  0.248500  0.559600  0.893000  1.0  -0.8165
  O  O22  1  0.235100  0.723100  0.091600  1.0  -0.8083
  O  O23  1  0.249300  0.051200  0.096300  1.0  -0.8172
  O  O24  1  0.243100  0.233700  0.907900  1.0  -0.8565
  O  O25  1  0.503900  0.644900  0.117500  1.0  -0.8485
  O  O26  1  0.994900  0.087100  0.847400  1.0  -0.8185
  O  O27  1  0.341200  0.464000  0.165700  1.0  -0.6506
  O  O28  1  0.087500  0.278300  0.055700  1.0  -0.7395
  O  O29  1  0.251500  0.559600  0.607000  1.0  -0.8171
  O  O30  1  0.264900  0.723100  0.408400  1.0  -0.8081
  O  O31  1  0.250700  0.051200  0.403700  1.0  -0.8167
  O  O32  1  0.256900  0.233700  0.592100  1.0  -0.8549
  O  O33  1  0.996100  0.644900  0.382500  1.0  -0.8493
  O  O34  1  0.505100  0.087100  0.652600  1.0  -0.821
  O  O35  1  0.158800  0.464000  0.334300  1.0  -0.6512
  O  O36  1  0.412500  0.278300  0.444300  1.0  -0.7402
  O  O37  1  0.751500  0.440400  0.107000  1.0  -0.8152
  O  O38  1  0.764900  0.276900  0.908400  1.0  -0.8074
  O  O39  1  0.750700  0.948800  0.903700  1.0  -0.8174
  O  O40  1  0.756900  0.766300  0.092100  1.0  -0.8569
  O  O41  1  0.496100  0.355100  0.882500  1.0  -0.8471
  O  O42  1  0.005100  0.912900  0.152600  1.0  -0.8205
  O  O43  1  0.658800  0.536000  0.834300  1.0  -0.6505
  O  O44  1  0.912500  0.721700  0.944300  1.0  -0.7393
  O  O45  1  0.748500  0.440400  0.393000  1.0  -0.8144
  O  O46  1  0.735100  0.276900  0.591600  1.0  -0.8078
  O  O47  1  0.749300  0.948800  0.596300  1.0  -0.8174
  O  O48  1  0.743100  0.766300  0.407900  1.0  -0.8576
  O  O49  1  0.003900  0.355100  0.617500  1.0  -0.8481
  O  O50  1  0.494900  0.912900  0.347400  1.0  -0.8187
  O  O51  1  0.841200  0.536000  0.665700  1.0  -0.6505
  O  O52  1  0.587500  0.721700  0.555700  1.0  -0.7391
