# generated using pymatgen
data_ScP2(HO4)2
_symmetry_space_group_name_H-M   'P 1'
_cell_length_a   9.41110000
_cell_length_b   9.10660000
_cell_length_c   9.69500000
_cell_angle_alpha   90.00000000
_cell_angle_beta   117.27200000
_cell_angle_gamma   90.00000000
_symmetry_Int_Tables_number   1
_chemical_formula_structural   ScP2(HO4)2
_chemical_formula_sum   'Sc4 P8 H8 O32'
_cell_volume   738.53090081
_cell_formula_units_Z   4
loop_
 _symmetry_equiv_pos_site_id
 _symmetry_equiv_pos_as_xyz
  1  'x, y, z'
loop_
 _atom_site_type_symbol
 _atom_site_label
 _atom_site_symmetry_multiplicity
 _atom_site_fract_x
 _atom_site_fract_y
 _atom_site_fract_z
 _atom_site_occupancy
 _atom_site_charge
  Sc  Sc1  1  0.750000  0.393640  0.250000  1.0  2.0729
  Sc  Sc2  1  0.250000  0.606360  0.750000  1.0  2.073
  Sc  Sc3  1  0.750000  0.882540  0.750000  1.0  2.0329
  Sc  Sc4  1  0.250000  0.117460  0.250000  1.0  2.0322
  P  P5  1  0.831720  0.101620  0.063950  1.0  1.7576
  P  P6  1  0.355920  0.343090  0.027250  1.0  1.7032
  P  P7  1  0.668280  0.101620  0.436050  1.0  1.7585
  P  P8  1  0.144080  0.343090  0.472750  1.0  1.7014
  P  P9  1  0.168280  0.898380  0.936050  1.0  1.7581
  P  P10  1  0.644080  0.656910  0.972750  1.0  1.6992
  P  P11  1  0.331720  0.898380  0.563950  1.0  1.7565
  P  P12  1  0.855920  0.656910  0.527250  1.0  1.701
  H  H13  1  0.749100  0.926300  0.132000  1.0  0.4103
  H  H14  1  0.511100  0.208600  0.995100  1.0  0.401
  H  H15  1  0.750900  0.926300  0.368000  1.0  0.4099
  H  H16  1  0.988900  0.208600  0.504900  1.0  0.3999
  H  H17  1  0.250900  0.073700  0.868000  1.0  0.4115
  H  H18  1  0.488900  0.791400  0.004900  1.0  0.3992
  H  H19  1  0.249100  0.073700  0.632000  1.0  0.4124
  H  H20  1  0.011100  0.791400  0.495100  1.0  0.4004
  O  O21  1  0.733680  0.222780  0.091130  1.0  -0.8557
  O  O22  1  0.747140  0.059860  0.891820  1.0  -0.8216
  O  O23  1  0.840590  0.963500  0.164850  1.0  -0.6723
  O  O24  1  0.003940  0.145040  0.117850  1.0  -0.8482
  O  O25  1  0.256020  0.266120  0.091260  1.0  -0.8497
  O  O26  1  0.412310  0.222490  0.943130  1.0  -0.6374
  O  O27  1  0.505520  0.413040  0.152750  1.0  -0.8239
  O  O28  1  0.249520  0.449820  0.903610  1.0  -0.8149
  O  O29  1  0.766320  0.222780  0.408870  1.0  -0.8558
  O  O30  1  0.752860  0.059860  0.608180  1.0  -0.8205
  O  O31  1  0.659410  0.963500  0.335150  1.0  -0.6741
  O  O32  1  0.496060  0.145040  0.382150  1.0  -0.8498
  O  O33  1  0.243980  0.266120  0.408740  1.0  -0.8514
  O  O34  1  0.087690  0.222490  0.556870  1.0  -0.6372
  O  O35  1  0.994480  0.413040  0.347250  1.0  -0.8241
  O  O36  1  0.250480  0.449820  0.596390  1.0  -0.8132
  O  O37  1  0.266320  0.777220  0.908870  1.0  -0.8553
  O  O38  1  0.252860  0.940140  0.108180  1.0  -0.8199
  O  O39  1  0.159410  0.036500  0.835150  1.0  -0.6739
  O  O40  1  0.996060  0.854960  0.882150  1.0  -0.8468
  O  O41  1  0.743980  0.733880  0.908740  1.0  -0.8503
  O  O42  1  0.587690  0.777510  0.056870  1.0  -0.6371
  O  O43  1  0.494480  0.586960  0.847250  1.0  -0.8236
  O  O44  1  0.750480  0.550180  0.096390  1.0  -0.8129
  O  O45  1  0.233680  0.777220  0.591130  1.0  -0.8554
  O  O46  1  0.247140  0.940140  0.391820  1.0  -0.8216
  O  O47  1  0.340590  0.036500  0.664850  1.0  -0.6735
  O  O48  1  0.503940  0.854960  0.617850  1.0  -0.8467
  O  O49  1  0.756020  0.733880  0.591260  1.0  -0.8493
  O  O50  1  0.912310  0.777510  0.443130  1.0  -0.6375
  O  O51  1  0.005520  0.586960  0.652750  1.0  -0.8234
  O  O52  1  0.749520  0.550180  0.403610  1.0  -0.8142
