# generated using pymatgen
data_CsFe2H24C48(NO2)4
_symmetry_space_group_name_H-M   'P 1'
_cell_length_a   7.44160000
_cell_length_b   24.80560000
_cell_length_c   30.31400000
_cell_angle_alpha   90.00000000
_cell_angle_beta   91.63700000
_cell_angle_gamma   90.00000000
_symmetry_Int_Tables_number   1
_chemical_formula_structural   CsFe2H24C48(NO2)4
_chemical_formula_sum   'Cs4 Fe8 H96 C192 N16 O32'
_cell_volume   5593.47913428
_cell_formula_units_Z   4
loop_
 _symmetry_equiv_pos_site_id
 _symmetry_equiv_pos_as_xyz
  1  'x, y, z'
loop_
 _atom_site_type_symbol
 _atom_site_label
 _atom_site_symmetry_multiplicity
 _atom_site_fract_x
 _atom_site_fract_y
 _atom_site_fract_z
 _atom_site_occupancy
 _atom_site_charge
  Cs  Cs1  1  0.000000  0.246020  0.250000  1.0  0.9165
  Cs  Cs2  1  0.500000  0.746020  0.250000  1.0  0.9165
  Cs  Cs3  1  0.000000  0.753980  0.750000  1.0  0.9175
  Cs  Cs4  1  0.500000  0.253980  0.750000  1.0  0.9175
  Fe  Fe5  1  0.000000  0.333050  0.750000  1.0  1.1788
  Fe  Fe6  1  0.500000  0.833050  0.750000  1.0  1.1788
  Fe  Fe7  1  0.000000  0.666950  0.250000  1.0  1.1794
  Fe  Fe8  1  0.500000  0.166950  0.250000  1.0  1.1794
  Fe  Fe9  1  0.000000  0.500000  0.500000  1.0  0.8044
  Fe  Fe10  1  0.500000  0.000000  0.500000  1.0  0.8044
  Fe  Fe11  1  0.000000  0.500000  0.000000  1.0  0.8044
  Fe  Fe12  1  0.500000  0.000000  0.000000  1.0  0.8044
  H  H13  1  0.139800  0.453000  0.635300  1.0  0.0981
  H  H14  1  0.340300  0.484800  0.584300  1.0  0.1176
  H  H15  1  0.745900  0.415100  0.652900  1.0  0.1057
  H  H16  1  0.546500  0.383200  0.703200  1.0  0.085
  H  H17  1  0.467200  0.388400  0.545400  1.0  0.1281
  H  H18  1  0.527600  0.355800  0.471700  1.0  0.1187
  H  H19  1  0.996400  0.405500  0.349900  1.0  0.1379
  H  H20  1  0.245600  0.470500  0.346800  1.0  0.1164
  H  H21  1  0.935600  0.312400  0.402000  1.0  0.1145
  H  H22  1  0.810200  0.250600  0.352800  1.0  0.0829
  H  H23  1  0.373100  0.340600  0.340300  1.0  0.1047
  H  H24  1  0.499800  0.404400  0.386800  1.0  0.1015
  H  H25  1  0.639800  0.953000  0.635300  1.0  0.0981
  H  H26  1  0.840300  0.984800  0.584300  1.0  0.1176
  H  H27  1  0.245900  0.915100  0.652900  1.0  0.1057
  H  H28  1  0.046500  0.883200  0.703200  1.0  0.085
  H  H29  1  0.967200  0.888400  0.545400  1.0  0.1281
  H  H30  1  0.027600  0.855800  0.471700  1.0  0.1187
  H  H31  1  0.496400  0.905500  0.349900  1.0  0.1379
  H  H32  1  0.745600  0.970500  0.346800  1.0  0.1164
  H  H33  1  0.435600  0.812400  0.402000  1.0  0.1145
  H  H34  1  0.310200  0.750600  0.352800  1.0  0.0829
  H  H35  1  0.873100  0.840600  0.340300  1.0  0.1047
  H  H36  1  0.999800  0.904400  0.386800  1.0  0.1015
  H  H37  1  0.860200  0.453000  0.864700  1.0  0.0971
  H  H38  1  0.659700  0.484800  0.915700  1.0  0.1176
  H  H39  1  0.254100  0.415100  0.847100  1.0  0.1056
  H  H40  1  0.453500  0.383200  0.796800  1.0  0.0843
  H  H41  1  0.532800  0.388400  0.954600  1.0  0.1283
  H  H42  1  0.472400  0.355800  0.028300  1.0  0.1196
  H  H43  1  0.003600  0.405500  0.150100  1.0  0.1378
  H  H44  1  0.754400  0.470500  0.153200  1.0  0.1154
  H  H45  1  0.064400  0.312400  0.098000  1.0  0.1172
  H  H46  1  0.189800  0.250600  0.147200  1.0  0.082
  H  H47  1  0.626900  0.340600  0.159700  1.0  0.1041
  H  H48  1  0.500200  0.404400  0.113200  1.0  0.102
  H  H49  1  0.360200  0.953000  0.864700  1.0  0.0971
  H  H50  1  0.159700  0.984800  0.915700  1.0  0.1176
  H  H51  1  0.754100  0.915100  0.847100  1.0  0.1056
  H  H52  1  0.953500  0.883200  0.796800  1.0  0.0843
  H  H53  1  0.032800  0.888400  0.954600  1.0  0.1283
  H  H54  1  0.972400  0.855800  0.028300  1.0  0.1196
  H  H55  1  0.503600  0.905500  0.150100  1.0  0.1378
  H  H56  1  0.254400  0.970500  0.153200  1.0  0.1154
  H  H57  1  0.564400  0.812400  0.098000  1.0  0.1169
  H  H58  1  0.689800  0.750600  0.147200  1.0  0.082
  H  H59  1  0.126900  0.840600  0.159700  1.0  0.1041
  H  H60  1  0.000200  0.904400  0.113200  1.0  0.102
  H  H61  1  0.860200  0.547000  0.364700  1.0  0.097
  H  H62  1  0.659700  0.515200  0.415700  1.0  0.1174
  H  H63  1  0.254100  0.584900  0.347100  1.0  0.1059
  H  H64  1  0.453500  0.616800  0.296800  1.0  0.0835
  H  H65  1  0.532800  0.611600  0.454600  1.0  0.1286
  H  H66  1  0.472400  0.644200  0.528300  1.0  0.1188
  H  H67  1  0.003600  0.594500  0.650100  1.0  0.1359
  H  H68  1  0.754400  0.529500  0.653200  1.0  0.1151
  H  H69  1  0.064400  0.687600  0.598000  1.0  0.1172
  H  H70  1  0.189800  0.749400  0.647200  1.0  0.0834
  H  H71  1  0.626900  0.659400  0.659700  1.0  0.1043
  H  H72  1  0.500200  0.595600  0.613200  1.0  0.1021
  H  H73  1  0.360200  0.047000  0.364700  1.0  0.097
  H  H74  1  0.159700  0.015200  0.415700  1.0  0.1174
  H  H75  1  0.754100  0.084900  0.347100  1.0  0.1059
  H  H76  1  0.953500  0.116800  0.296800  1.0  0.0835
  H  H77  1  0.032800  0.111600  0.454600  1.0  0.1286
  H  H78  1  0.972400  0.144200  0.528300  1.0  0.1188
  H  H79  1  0.503600  0.094500  0.650100  1.0  0.1359
  H  H80  1  0.254400  0.029500  0.653200  1.0  0.1151
  H  H81  1  0.564400  0.187600  0.598000  1.0  0.1172
  H  H82  1  0.689800  0.249400  0.647200  1.0  0.0834
  H  H83  1  0.126900  0.159400  0.659700  1.0  0.1043
  H  H84  1  0.000200  0.095600  0.613200  1.0  0.1021
  H  H85  1  0.139800  0.547000  0.135300  1.0  0.0981
  H  H86  1  0.340300  0.515200  0.084300  1.0  0.1177
  H  H87  1  0.745900  0.584900  0.152900  1.0  0.1061
  H  H88  1  0.546500  0.616800  0.203200  1.0  0.084
  H  H89  1  0.467200  0.611600  0.045400  1.0  0.1279
  H  H90  1  0.527600  0.644200  0.971700  1.0  0.1196
  H  H91  1  0.996400  0.594500  0.849900  1.0  0.1381
  H  H92  1  0.245600  0.529500  0.846800  1.0  0.1164
  H  H93  1  0.935600  0.687600  0.902000  1.0  0.1152
  H  H94  1  0.810200  0.749400  0.852800  1.0  0.0836
  H  H95  1  0.373100  0.659400  0.840300  1.0  0.1047
  H  H96  1  0.499800  0.595600  0.886800  1.0  0.1019
  H  H97  1  0.639800  0.047000  0.135300  1.0  0.0981
  H  H98  1  0.840300  0.015200  0.084300  1.0  0.1177
  H  H99  1  0.245900  0.084900  0.152900  1.0  0.1061
  H  H100  1  0.046500  0.116800  0.203200  1.0  0.084
  H  H101  1  0.967200  0.111600  0.045400  1.0  0.1279
  H  H102  1  0.027600  0.144200  0.971700  1.0  0.1196
  H  H103  1  0.496400  0.094500  0.849900  1.0  0.1381
  H  H104  1  0.745600  0.029500  0.846800  1.0  0.1164
  H  H105  1  0.435600  0.187600  0.902000  1.0  0.1152
  H  H106  1  0.310200  0.249400  0.852800  1.0  0.0836
  H  H107  1  0.873100  0.159400  0.840300  1.0  0.1047
  H  H108  1  0.999800  0.095600  0.886800  1.0  0.1019
  C  C109  1  0.194800  0.389000  0.704250  1.0  0.6435
  C  C110  1  0.323400  0.413800  0.673910  1.0  -0.138
  C  C111  1  0.262600  0.444900  0.638500  1.0  -0.0328
  C  C112  1  0.382200  0.463800  0.607700  1.0  -0.1074
  C  C113  1  0.563900  0.451600  0.612510  1.0  0.081
  C  C114  1  0.624400  0.422500  0.648800  1.0  -0.1057
  C  C115  1  0.505200  0.403400  0.679000  1.0  -0.0509
  C  C116  1  0.691900  0.468200  0.577680  1.0  -0.0942
  C  C117  1  0.179400  0.493000  0.411670  1.0  0.1989
  C  C118  1  0.681800  0.442100  0.537300  1.0  0.1815
  C  C119  1  0.554500  0.400800  0.526900  1.0  -0.1494
  C  C120  1  0.589100  0.382700  0.486700  1.0  -0.1372
  C  C121  1  0.734500  0.414200  0.470100  1.0  0.1736
  C  C122  1  0.811800  0.406700  0.429600  1.0  -0.0986
  C  C123  1  0.957900  0.436000  0.415320  1.0  0.2084
  C  C124  1  0.034600  0.429300  0.372000  1.0  -0.1772
  C  C125  1  0.169300  0.465100  0.370420  1.0  -0.1531
  C  C126  1  0.731600  0.365500  0.399400  1.0  0.0972
  C  C127  1  0.824300  0.319100  0.388900  1.0  -0.1379
  C  C128  1  0.746500  0.281700  0.359500  1.0  -0.0189
  C  C129  1  0.582700  0.290500  0.340800  1.0  -0.1354
  C  C130  1  0.488600  0.335400  0.351900  1.0  -0.0505
  C  C131  1  0.563100  0.373200  0.380100  1.0  -0.1224
  C  C132  1  0.494600  0.253400  0.307600  1.0  0.725
  C  C133  1  0.694800  0.889000  0.704250  1.0  0.6435
  C  C134  1  0.823400  0.913800  0.673910  1.0  -0.138
  C  C135  1  0.762600  0.944900  0.638500  1.0  -0.0328
  C  C136  1  0.882200  0.963800  0.607700  1.0  -0.1074
  C  C137  1  0.063900  0.951600  0.612510  1.0  0.081
  C  C138  1  0.124400  0.922500  0.648800  1.0  -0.1057
  C  C139  1  0.005200  0.903400  0.679000  1.0  -0.0509
  C  C140  1  0.191900  0.968200  0.577680  1.0  -0.0942
  C  C141  1  0.679400  0.993000  0.411670  1.0  0.1989
  C  C142  1  0.181800  0.942100  0.537300  1.0  0.1815
  C  C143  1  0.054500  0.900800  0.526900  1.0  -0.1494
  C  C144  1  0.089100  0.882700  0.486700  1.0  -0.1372
  C  C145  1  0.234500  0.914200  0.470100  1.0  0.1736
  C  C146  1  0.311800  0.906700  0.429600  1.0  -0.0986
  C  C147  1  0.457900  0.936000  0.415320  1.0  0.2084
  C  C148  1  0.534600  0.929300  0.372000  1.0  -0.1772
  C  C149  1  0.669300  0.965100  0.370420  1.0  -0.1531
  C  C150  1  0.231600  0.865500  0.399400  1.0  0.0972
  C  C151  1  0.324300  0.819100  0.388900  1.0  -0.1379
  C  C152  1  0.246500  0.781700  0.359500  1.0  -0.0189
  C  C153  1  0.082700  0.790500  0.340800  1.0  -0.1354
  C  C154  1  0.988600  0.835400  0.351900  1.0  -0.0505
  C  C155  1  0.063100  0.873200  0.380100  1.0  -0.1224
  C  C156  1  0.994600  0.753400  0.307600  1.0  0.725
  C  C157  1  0.805200  0.389000  0.795750  1.0  0.6452
  C  C158  1  0.676600  0.413800  0.826090  1.0  -0.1381
  C  C159  1  0.737400  0.444900  0.861500  1.0  -0.03
  C  C160  1  0.617800  0.463800  0.892300  1.0  -0.1068
  C  C161  1  0.436100  0.451600  0.887490  1.0  0.0807
  C  C162  1  0.375600  0.422500  0.851200  1.0  -0.1128
  C  C163  1  0.494800  0.403400  0.821000  1.0  -0.0494
  C  C164  1  0.308100  0.468200  0.922320  1.0  -0.0948
  C  C165  1  0.820600  0.493000  0.088330  1.0  0.1994
  C  C166  1  0.318200  0.442100  0.962700  1.0  0.1828
  C  C167  1  0.445500  0.400800  0.973100  1.0  -0.1513
  C  C168  1  0.410900  0.382700  0.013300  1.0  -0.1366
  C  C169  1  0.265500  0.414200  0.029900  1.0  0.1732
  C  C170  1  0.188200  0.406700  0.070400  1.0  -0.0998
  C  C171  1  0.042100  0.436000  0.084680  1.0  0.2077
  C  C172  1  0.965400  0.429300  0.128000  1.0  -0.1771
  C  C173  1  0.830700  0.465100  0.129580  1.0  -0.1534
  C  C174  1  0.268400  0.365500  0.100600  1.0  0.0979
  C  C175  1  0.175700  0.319100  0.111100  1.0  -0.1381
  C  C176  1  0.253500  0.281700  0.140500  1.0  -0.0179
  C  C177  1  0.417300  0.290500  0.159200  1.0  -0.1342
  C  C178  1  0.511400  0.335400  0.148100  1.0  -0.0494
  C  C179  1  0.436900  0.373200  0.119900  1.0  -0.1223
  C  C180  1  0.505400  0.253400  0.192400  1.0  0.7243
  C  C181  1  0.305200  0.889000  0.795750  1.0  0.644
  C  C182  1  0.176600  0.913800  0.826090  1.0  -0.1381
  C  C183  1  0.237400  0.944900  0.861500  1.0  -0.0319
  C  C184  1  0.117800  0.963800  0.892300  1.0  -0.1068
  C  C185  1  0.936100  0.951600  0.887490  1.0  0.0807
  C  C186  1  0.875600  0.922500  0.851200  1.0  -0.1132
  C  C187  1  0.994800  0.903400  0.821000  1.0  -0.0494
  C  C188  1  0.808100  0.968200  0.922320  1.0  -0.0948
  C  C189  1  0.320600  0.993000  0.088330  1.0  0.1997
  C  C190  1  0.818200  0.942100  0.962700  1.0  0.1828
  C  C191  1  0.945500  0.900800  0.973100  1.0  -0.1513
  C  C192  1  0.910900  0.882700  0.013300  1.0  -0.1377
  C  C193  1  0.765500  0.914200  0.029900  1.0  0.1732
  C  C194  1  0.688200  0.906700  0.070400  1.0  -0.0998
  C  C195  1  0.542100  0.936000  0.084680  1.0  0.2073
  C  C196  1  0.465400  0.929300  0.128000  1.0  -0.1771
  C  C197  1  0.330700  0.965100  0.129580  1.0  -0.1534
  C  C198  1  0.768400  0.865500  0.100600  1.0  0.0979
  C  C199  1  0.675700  0.819100  0.111100  1.0  -0.1381
  C  C200  1  0.753500  0.781700  0.140500  1.0  -0.0179
  C  C201  1  0.917300  0.790500  0.159200  1.0  -0.1342
  C  C202  1  0.011400  0.835400  0.148100  1.0  -0.0494
  C  C203  1  0.936900  0.873200  0.119900  1.0  -0.1223
  C  C204  1  0.005400  0.753400  0.192400  1.0  0.7244
  C  C205  1  0.805200  0.611000  0.295750  1.0  0.646
  C  C206  1  0.676600  0.586200  0.326090  1.0  -0.1384
  C  C207  1  0.737400  0.555100  0.361500  1.0  -0.0297
  C  C208  1  0.617800  0.536200  0.392300  1.0  -0.1064
  C  C209  1  0.436100  0.548400  0.387490  1.0  0.0803
  C  C210  1  0.375600  0.577500  0.351200  1.0  -0.108
  C  C211  1  0.494800  0.596600  0.321000  1.0  -0.0487
  C  C212  1  0.308100  0.531800  0.422320  1.0  -0.0951
  C  C213  1  0.820600  0.507000  0.588330  1.0  0.1989
  C  C214  1  0.318200  0.557900  0.462700  1.0  0.1817
  C  C215  1  0.445500  0.599200  0.473100  1.0  -0.1493
  C  C216  1  0.410900  0.617300  0.513300  1.0  -0.1343
  C  C217  1  0.265500  0.585800  0.529900  1.0  0.1737
  C  C218  1  0.188200  0.593300  0.570400  1.0  -0.099
  C  C219  1  0.042100  0.564000  0.584680  1.0  0.2088
  C  C220  1  0.965400  0.570700  0.628000  1.0  -0.1767
  C  C221  1  0.830700  0.534900  0.629580  1.0  -0.1536
  C  C222  1  0.268400  0.634500  0.600600  1.0  0.0984
  C  C223  1  0.175700  0.680900  0.611100  1.0  -0.1394
  C  C224  1  0.253500  0.718300  0.640500  1.0  -0.0176
  C  C225  1  0.417300  0.709500  0.659200  1.0  -0.1344
  C  C226  1  0.511400  0.664600  0.648100  1.0  -0.0497
  C  C227  1  0.436900  0.626800  0.619900  1.0  -0.1227
  C  C228  1  0.505400  0.746600  0.692400  1.0  0.7252
  C  C229  1  0.305200  0.111000  0.295750  1.0  0.6448
  C  C230  1  0.176600  0.086200  0.326090  1.0  -0.1384
  C  C231  1  0.237400  0.055100  0.361500  1.0  -0.03
  C  C232  1  0.117800  0.036200  0.392300  1.0  -0.1064
  C  C233  1  0.936100  0.048400  0.387490  1.0  0.0803
  C  C234  1  0.875600  0.077500  0.351200  1.0  -0.1043
  C  C235  1  0.994800  0.096600  0.321000  1.0  -0.0487
  C  C236  1  0.808100  0.031800  0.422320  1.0  -0.0951
  C  C237  1  0.320600  0.007000  0.588330  1.0  0.1987
  C  C238  1  0.818200  0.057900  0.462700  1.0  0.1817
  C  C239  1  0.945500  0.099200  0.473100  1.0  -0.1493
  C  C240  1  0.910900  0.117300  0.513300  1.0  -0.134
  C  C241  1  0.765500  0.085800  0.529900  1.0  0.1737
  C  C242  1  0.688200  0.093300  0.570400  1.0  -0.099
  C  C243  1  0.542100  0.064000  0.584680  1.0  0.209
  C  C244  1  0.465400  0.070700  0.628000  1.0  -0.1767
  C  C245  1  0.330700  0.034900  0.629580  1.0  -0.1536
  C  C246  1  0.768400  0.134500  0.600600  1.0  0.0984
  C  C247  1  0.675700  0.180900  0.611100  1.0  -0.1394
  C  C248  1  0.753500  0.218300  0.640500  1.0  -0.0176
  C  C249  1  0.917300  0.209500  0.659200  1.0  -0.1344
  C  C250  1  0.011400  0.164600  0.648100  1.0  -0.0497
  C  C251  1  0.936900  0.126800  0.619900  1.0  -0.1227
  C  C252  1  0.005400  0.246600  0.692400  1.0  0.725
  C  C253  1  0.194800  0.611000  0.204250  1.0  0.6443
  C  C254  1  0.323400  0.586200  0.173910  1.0  -0.1383
  C  C255  1  0.262600  0.555100  0.138500  1.0  -0.0342
  C  C256  1  0.382200  0.536200  0.107700  1.0  -0.1079
  C  C257  1  0.563900  0.548400  0.112510  1.0  0.0804
  C  C258  1  0.624400  0.577500  0.148800  1.0  -0.1069
  C  C259  1  0.505200  0.596600  0.179000  1.0  -0.0507
  C  C260  1  0.691900  0.531800  0.077680  1.0  -0.0942
  C  C261  1  0.179400  0.507000  0.911670  1.0  0.1988
  C  C262  1  0.681800  0.557900  0.037300  1.0  0.1802
  C  C263  1  0.554500  0.599200  0.026900  1.0  -0.1491
  C  C264  1  0.589100  0.617300  0.986700  1.0  -0.1374
  C  C265  1  0.734500  0.585800  0.970100  1.0  0.1739
  C  C266  1  0.811800  0.593300  0.929600  1.0  -0.098
  C  C267  1  0.957900  0.564000  0.915320  1.0  0.2046
  C  C268  1  0.034600  0.570700  0.872000  1.0  -0.176
  C  C269  1  0.169300  0.534900  0.870420  1.0  -0.153
  C  C270  1  0.731600  0.634500  0.899400  1.0  0.0977
  C  C271  1  0.824300  0.680900  0.888900  1.0  -0.1396
  C  C272  1  0.746500  0.718300  0.859500  1.0  -0.0176
  C  C273  1  0.582700  0.709500  0.840800  1.0  -0.1349
  C  C274  1  0.488600  0.664600  0.851900  1.0  -0.0505
  C  C275  1  0.563100  0.626800  0.880100  1.0  -0.1229
  C  C276  1  0.494600  0.746600  0.807600  1.0  0.7253
  C  C277  1  0.694800  0.111000  0.204250  1.0  0.6443
  C  C278  1  0.823400  0.086200  0.173910  1.0  -0.1383
  C  C279  1  0.762600  0.055100  0.138500  1.0  -0.0342
  C  C280  1  0.882200  0.036200  0.107700  1.0  -0.1079
  C  C281  1  0.063900  0.048400  0.112510  1.0  0.0804
  C  C282  1  0.124400  0.077500  0.148800  1.0  -0.1069
  C  C283  1  0.005200  0.096600  0.179000  1.0  -0.0507
  C  C284  1  0.191900  0.031800  0.077680  1.0  -0.0942
  C  C285  1  0.679400  0.007000  0.911670  1.0  0.1988
  C  C286  1  0.181800  0.057900  0.037300  1.0  0.1802
  C  C287  1  0.054500  0.099200  0.026900  1.0  -0.1491
  C  C288  1  0.089100  0.117300  0.986700  1.0  -0.1374
  C  C289  1  0.234500  0.085800  0.970100  1.0  0.1739
  C  C290  1  0.311800  0.093300  0.929600  1.0  -0.098
  C  C291  1  0.457900  0.064000  0.915320  1.0  0.2046
  C  C292  1  0.534600  0.070700  0.872000  1.0  -0.176
  C  C293  1  0.669300  0.034900  0.870420  1.0  -0.153
  C  C294  1  0.231600  0.134500  0.899400  1.0  0.0977
  C  C295  1  0.324300  0.180900  0.888900  1.0  -0.1396
  C  C296  1  0.246500  0.218300  0.859500  1.0  -0.0176
  C  C297  1  0.082700  0.209500  0.840800  1.0  -0.1349
  C  C298  1  0.988600  0.164600  0.851900  1.0  -0.0505
  C  C299  1  0.063100  0.126800  0.880100  1.0  -0.1229
  C  C300  1  0.994600  0.246600  0.807600  1.0  0.7253
  N  N301  1  0.047500  0.475100  0.438820  1.0  -0.4474
  N  N302  1  0.790800  0.450500  0.502280  1.0  -0.4247
  N  N303  1  0.547500  0.975100  0.438820  1.0  -0.4474
  N  N304  1  0.290800  0.950500  0.502280  1.0  -0.4247
  N  N305  1  0.952500  0.475100  0.061180  1.0  -0.4474
  N  N306  1  0.209200  0.450500  0.997720  1.0  -0.4264
  N  N307  1  0.452500  0.975100  0.061180  1.0  -0.4474
  N  N308  1  0.709200  0.950500  0.997720  1.0  -0.4264
  N  N309  1  0.952500  0.524900  0.561180  1.0  -0.4482
  N  N310  1  0.209200  0.549500  0.497720  1.0  -0.4266
  N  N311  1  0.452500  0.024900  0.561180  1.0  -0.4482
  N  N312  1  0.709200  0.049500  0.497720  1.0  -0.4266
  N  N313  1  0.047500  0.524900  0.938820  1.0  -0.4472
  N  N314  1  0.790800  0.549500  0.002280  1.0  -0.4246
  N  N315  1  0.547500  0.024900  0.938820  1.0  -0.4472
  N  N316  1  0.290800  0.049500  0.002280  1.0  -0.4246
  O  O317  1  0.251700  0.357290  0.734560  1.0  -0.6379
  O  O318  1  0.029200  0.395740  0.700230  1.0  -0.5802
  O  O319  1  0.593100  0.214200  0.294990  1.0  -0.6586
  O  O320  1  0.344400  0.260600  0.293000  1.0  -0.6126
  O  O321  1  0.751700  0.857290  0.734560  1.0  -0.6381
  O  O322  1  0.529200  0.895740  0.700230  1.0  -0.5802
  O  O323  1  0.093100  0.714200  0.294990  1.0  -0.6581
  O  O324  1  0.844400  0.760600  0.293000  1.0  -0.6141
  O  O325  1  0.748300  0.357290  0.765440  1.0  -0.6374
  O  O326  1  0.970800  0.395740  0.799770  1.0  -0.5803
  O  O327  1  0.406900  0.214200  0.205010  1.0  -0.6585
  O  O328  1  0.655600  0.260600  0.207000  1.0  -0.6104
  O  O329  1  0.248300  0.857290  0.765440  1.0  -0.6374
  O  O330  1  0.470800  0.895740  0.799770  1.0  -0.5803
  O  O331  1  0.906900  0.714200  0.205010  1.0  -0.6585
  O  O332  1  0.155600  0.760600  0.207000  1.0  -0.6104
  O  O333  1  0.748300  0.642710  0.265440  1.0  -0.6378
  O  O334  1  0.970800  0.604260  0.299770  1.0  -0.5799
  O  O335  1  0.406900  0.785800  0.705010  1.0  -0.6582
  O  O336  1  0.655600  0.739400  0.707000  1.0  -0.6124
  O  O337  1  0.248300  0.142710  0.265440  1.0  -0.6379
  O  O338  1  0.470800  0.104260  0.299770  1.0  -0.5799
  O  O339  1  0.906900  0.285800  0.705010  1.0  -0.6582
  O  O340  1  0.155600  0.239400  0.707000  1.0  -0.6122
  O  O341  1  0.251700  0.642710  0.234560  1.0  -0.6367
  O  O342  1  0.029200  0.604260  0.200230  1.0  -0.5804
  O  O343  1  0.593100  0.785800  0.794990  1.0  -0.6574
  O  O344  1  0.344400  0.739400  0.793000  1.0  -0.6142
  O  O345  1  0.751700  0.142710  0.234560  1.0  -0.6367
  O  O346  1  0.529200  0.104260  0.200230  1.0  -0.5804
  O  O347  1  0.093100  0.285800  0.794990  1.0  -0.6578
  O  O348  1  0.844400  0.239400  0.793000  1.0  -0.6148
