# generated using pymatgen
data_CuH16C24N8ClO6
_symmetry_space_group_name_H-M   'P 1'
_cell_length_a   13.47700000
_cell_length_b   13.47700000
_cell_length_c   24.97320000
_cell_angle_alpha   74.34580000
_cell_angle_beta   74.34580000
_cell_angle_gamma   89.99990000
_symmetry_Int_Tables_number   1
_chemical_formula_structural   CuH16C24N8ClO6
_chemical_formula_sum   'Cu4 H64 C96 N32 Cl4 O24'
_cell_volume   4192.63377164
_cell_formula_units_Z   4
loop_
 _symmetry_equiv_pos_site_id
 _symmetry_equiv_pos_as_xyz
  1  'x, y, z'
loop_
 _atom_site_type_symbol
 _atom_site_label
 _atom_site_symmetry_multiplicity
 _atom_site_fract_x
 _atom_site_fract_y
 _atom_site_fract_z
 _atom_site_occupancy
 _atom_site_charge
  Cu  Cu1  1  0.849520  0.599520  0.800960  1.0  0.3693
  Cu  Cu2  1  0.599520  0.849520  0.300960  1.0  0.3693
  Cu  Cu3  1  0.150480  0.400480  0.199040  1.0  0.3692
  Cu  Cu4  1  0.400480  0.150480  0.699040  1.0  0.3692
  H  H5  1  0.851600  0.683400  0.897600  1.0  0.0937
  H  H6  1  0.742600  0.700000  0.981400  1.0  0.1159
  H  H7  1  0.502600  0.630100  0.930400  1.0  0.1366
  H  H8  1  0.616800  0.610600  0.848400  1.0  0.0839
  H  H9  1  0.678200  0.747300  0.119800  1.0  0.1187
  H  H10  1  0.710400  0.790700  0.196800  1.0  0.1101
  H  H11  1  0.414500  0.789700  0.267000  1.0  0.0899
  H  H12  1  0.377700  0.749200  0.191600  1.0  0.1394
  H  H13  1  0.750800  0.419000  0.897600  1.0  0.0936
  H  H14  1  0.776000  0.318600  0.981400  1.0  0.1137
  H  H15  1  0.067000  0.439500  0.930400  1.0  0.1356
  H  H16  1  0.034800  0.541000  0.848400  1.0  0.0839
  H  H17  1  0.702000  0.132900  0.119800  1.0  0.12
  H  H18  1  0.592800  0.012500  0.196800  1.0  0.1122
  H  H19  1  0.818500  0.943300  0.267000  1.0  0.091
  H  H20  1  0.930700  0.059200  0.191600  1.0  0.1398
  H  H21  1  0.683400  0.750800  0.397600  1.0  0.093
  H  H22  1  0.700000  0.776000  0.481400  1.0  0.1131
  H  H23  1  0.630100  0.067000  0.430400  1.0  0.1355
  H  H24  1  0.610600  0.034800  0.348400  1.0  0.0824
  H  H25  1  0.747300  0.702000  0.619800  1.0  0.1195
  H  H26  1  0.790700  0.592800  0.696800  1.0  0.1103
  H  H27  1  0.789700  0.818500  0.767000  1.0  0.0907
  H  H28  1  0.749200  0.930700  0.691600  1.0  0.1402
  H  H29  1  0.419000  0.851600  0.397600  1.0  0.0941
  H  H30  1  0.318600  0.742600  0.481400  1.0  0.1136
  H  H31  1  0.439500  0.502600  0.430400  1.0  0.1362
  H  H32  1  0.541000  0.616800  0.348400  1.0  0.0842
  H  H33  1  0.132900  0.678200  0.619800  1.0  0.1196
  H  H34  1  0.012500  0.710400  0.696800  1.0  0.1098
  H  H35  1  0.943300  0.414500  0.767000  1.0  0.0896
  H  H36  1  0.059200  0.377700  0.691600  1.0  0.1396
  H  H37  1  0.148400  0.316600  0.102400  1.0  0.0954
  H  H38  1  0.257400  0.300000  0.018600  1.0  0.1158
  H  H39  1  0.497400  0.369900  0.069600  1.0  0.1353
  H  H40  1  0.383200  0.389400  0.151600  1.0  0.0839
  H  H41  1  0.321800  0.252700  0.880200  1.0  0.1179
  H  H42  1  0.289600  0.209300  0.803200  1.0  0.1099
  H  H43  1  0.585500  0.210300  0.733000  1.0  0.0896
  H  H44  1  0.622300  0.250800  0.808400  1.0  0.1397
  H  H45  1  0.249200  0.581000  0.102400  1.0  0.0941
  H  H46  1  0.224000  0.681400  0.018600  1.0  0.1142
  H  H47  1  0.933000  0.560500  0.069600  1.0  0.1364
  H  H48  1  0.965200  0.459000  0.151600  1.0  0.0838
  H  H49  1  0.298000  0.867100  0.880200  1.0  0.1197
  H  H50  1  0.407200  0.987500  0.803200  1.0  0.1118
  H  H51  1  0.181500  0.056700  0.733000  1.0  0.0914
  H  H52  1  0.069300  0.940800  0.808400  1.0  0.1401
  H  H53  1  0.316600  0.249200  0.602400  1.0  0.0954
  H  H54  1  0.300000  0.224000  0.518600  1.0  0.1139
  H  H55  1  0.369900  0.933000  0.569600  1.0  0.1354
  H  H56  1  0.389400  0.965200  0.651600  1.0  0.083
  H  H57  1  0.252700  0.298000  0.380200  1.0  0.1195
  H  H58  1  0.209300  0.407200  0.303200  1.0  0.1108
  H  H59  1  0.210300  0.181500  0.233000  1.0  0.0901
  H  H60  1  0.250800  0.069300  0.308400  1.0  0.1398
  H  H61  1  0.581000  0.148400  0.602400  1.0  0.0943
  H  H62  1  0.681400  0.257400  0.518600  1.0  0.1142
  H  H63  1  0.560500  0.497400  0.569600  1.0  0.1356
  H  H64  1  0.459000  0.383200  0.651600  1.0  0.0838
  H  H65  1  0.867100  0.321800  0.380200  1.0  0.1189
  H  H66  1  0.987500  0.289600  0.303200  1.0  0.1098
  H  H67  1  0.056700  0.585500  0.233000  1.0  0.0897
  H  H68  1  0.940800  0.622300  0.308400  1.0  0.1399
  C  C69  1  0.780810  0.670310  0.904580  1.0  0.1345
  C  C70  1  0.715470  0.681270  0.954660  1.0  -0.0566
  C  C71  1  0.612070  0.665370  0.966060  1.0  -0.0891
  C  C72  1  0.573370  0.639470  0.924860  1.0  -0.1443
  C  C73  1  0.642700  0.628300  0.875800  1.0  0.1829
  C  C74  1  0.544520  0.675520  0.019360  1.0  0.3638
  C  C75  1  0.503840  0.709040  0.100320  1.0  0.3851
  C  C76  1  0.525420  0.739620  0.148160  1.0  -0.0665
  C  C77  1  0.623210  0.755310  0.149780  1.0  -0.078
  C  C78  1  0.642520  0.783120  0.195560  1.0  0.1287
  C  C79  1  0.468890  0.782790  0.236420  1.0  0.1621
  C  C80  1  0.445970  0.756170  0.192260  1.0  -0.1359
  C  C81  1  0.814610  0.425110  0.904580  1.0  0.1375
  C  C82  1  0.829870  0.364070  0.954660  1.0  -0.054
  C  C83  1  0.921870  0.368570  0.966060  1.0  -0.0903
  C  C84  1  0.001770  0.435670  0.924860  1.0  -0.1432
  C  C85  1  0.981500  0.495900  0.875800  1.0  0.1818
  C  C86  1  0.936120  0.305120  0.019360  1.0  0.3623
  C  C87  1  0.895840  0.190640  0.100320  1.0  0.3835
  C  C88  1  0.826420  0.112220  0.148160  1.0  -0.0675
  C  C89  1  0.727010  0.094910  0.149780  1.0  -0.0797
  C  C90  1  0.661920  0.021320  0.195560  1.0  0.125
  C  C91  1  0.794690  0.980790  0.236420  1.0  0.1581
  C  C92  1  0.861770  0.051570  0.192260  1.0  -0.1367
  C  C93  1  0.670310  0.814610  0.404580  1.0  0.1387
  C  C94  1  0.681270  0.829870  0.454660  1.0  -0.0512
  C  C95  1  0.665370  0.921870  0.466060  1.0  -0.0876
  C  C96  1  0.639470  0.001770  0.424860  1.0  -0.1464
  C  C97  1  0.628300  0.981500  0.375800  1.0  0.1813
  C  C98  1  0.675520  0.936120  0.519360  1.0  0.3641
  C  C99  1  0.709040  0.895840  0.600320  1.0  0.3873
  C  C100  1  0.739620  0.826420  0.648160  1.0  -0.0677
  C  C101  1  0.755310  0.727010  0.649780  1.0  -0.0791
  C  C102  1  0.783120  0.661920  0.695560  1.0  0.1266
  C  C103  1  0.782790  0.794690  0.736420  1.0  0.1626
  C  C104  1  0.756170  0.861770  0.692260  1.0  -0.1405
  C  C105  1  0.425110  0.780810  0.404580  1.0  0.1367
  C  C106  1  0.364070  0.715470  0.454660  1.0  -0.0482
  C  C107  1  0.368570  0.612070  0.466060  1.0  -0.0881
  C  C108  1  0.435670  0.573370  0.424860  1.0  -0.1507
  C  C109  1  0.495900  0.642700  0.375800  1.0  0.1816
  C  C110  1  0.305120  0.544520  0.519360  1.0  0.3654
  C  C111  1  0.190640  0.503840  0.600320  1.0  0.3845
  C  C112  1  0.112220  0.525420  0.648160  1.0  -0.0676
  C  C113  1  0.094910  0.623210  0.649780  1.0  -0.0808
  C  C114  1  0.021320  0.642520  0.695560  1.0  0.1265
  C  C115  1  0.980790  0.468890  0.736420  1.0  0.1607
  C  C116  1  0.051570  0.445970  0.692260  1.0  -0.1393
  C  C117  1  0.219190  0.329690  0.095420  1.0  0.1343
  C  C118  1  0.284530  0.318730  0.045340  1.0  -0.0586
  C  C119  1  0.387930  0.334630  0.033940  1.0  -0.0891
  C  C120  1  0.426630  0.360530  0.075140  1.0  -0.1452
  C  C121  1  0.357300  0.371700  0.124200  1.0  0.1819
  C  C122  1  0.455480  0.324480  0.980640  1.0  0.3614
  C  C123  1  0.496160  0.290960  0.899680  1.0  0.3862
  C  C124  1  0.474580  0.260380  0.851840  1.0  -0.0686
  C  C125  1  0.376790  0.244690  0.850220  1.0  -0.0781
  C  C126  1  0.357480  0.216880  0.804440  1.0  0.1283
  C  C127  1  0.531110  0.217210  0.763580  1.0  0.1622
  C  C128  1  0.554030  0.243830  0.807740  1.0  -0.1344
  C  C129  1  0.185390  0.574890  0.095420  1.0  0.1364
  C  C130  1  0.170130  0.635930  0.045340  1.0  -0.0533
  C  C131  1  0.078130  0.631430  0.033940  1.0  -0.0884
  C  C132  1  0.998230  0.564330  0.075140  1.0  -0.1411
  C  C133  1  0.018500  0.504100  0.124200  1.0  0.1827
  C  C134  1  0.063880  0.694880  0.980640  1.0  0.3626
  C  C135  1  0.104160  0.809360  0.899680  1.0  0.3841
  C  C136  1  0.173580  0.887780  0.851840  1.0  -0.0673
  C  C137  1  0.272990  0.905090  0.850220  1.0  -0.0813
  C  C138  1  0.338080  0.978680  0.804440  1.0  0.125
  C  C139  1  0.205310  0.019210  0.763580  1.0  0.1595
  C  C140  1  0.138230  0.948430  0.807740  1.0  -0.1374
  C  C141  1  0.329690  0.185390  0.595420  1.0  0.1366
  C  C142  1  0.318730  0.170130  0.545340  1.0  -0.0504
  C  C143  1  0.334630  0.078130  0.533940  1.0  -0.0871
  C  C144  1  0.360530  0.998230  0.575140  1.0  -0.1463
  C  C145  1  0.371700  0.018500  0.624200  1.0  0.182
  C  C146  1  0.324480  0.063880  0.480640  1.0  0.364
  C  C147  1  0.290960  0.104160  0.399680  1.0  0.3874
  C  C148  1  0.260380  0.173580  0.351840  1.0  -0.068
  C  C149  1  0.244690  0.272990  0.350220  1.0  -0.0786
  C  C150  1  0.216880  0.338080  0.304440  1.0  0.1256
  C  C151  1  0.217210  0.205310  0.263580  1.0  0.1643
  C  C152  1  0.243830  0.138230  0.307740  1.0  -0.1405
  C  C153  1  0.574890  0.219190  0.595420  1.0  0.1365
  C  C154  1  0.635930  0.284530  0.545340  1.0  -0.0478
  C  C155  1  0.631430  0.387930  0.533940  1.0  -0.0897
  C  C156  1  0.564330  0.426630  0.575140  1.0  -0.1493
  C  C157  1  0.504100  0.357300  0.624200  1.0  0.1803
  C  C158  1  0.694880  0.455480  0.480640  1.0  0.3652
  C  C159  1  0.809360  0.496160  0.399680  1.0  0.3865
  C  C160  1  0.887780  0.474580  0.351840  1.0  -0.0672
  C  C161  1  0.905090  0.376790  0.350220  1.0  -0.0797
  C  C162  1  0.978680  0.357480  0.304440  1.0  0.1294
  C  C163  1  0.019210  0.531110  0.263580  1.0  0.1603
  C  C164  1  0.948430  0.554030  0.307740  1.0  -0.1388
  N  N165  1  0.745460  0.641060  0.865080  1.0  -0.3027
  N  N166  1  0.446450  0.652550  0.041700  1.0  -0.282
  N  N167  1  0.423050  0.675950  0.094500  1.0  -0.1977
  N  N168  1  0.564970  0.799470  0.238460  1.0  -0.3021
  N  N169  1  0.889460  0.493860  0.865080  1.0  -0.3011
  N  N170  1  0.011850  0.305750  0.041700  1.0  -0.2814
  N  N171  1  0.982450  0.229550  0.094500  1.0  -0.1963
  N  N172  1  0.696570  0.962070  0.238460  1.0  -0.3025
  N  N173  1  0.641060  0.889460  0.365080  1.0  -0.3011
  N  N174  1  0.652550  0.011850  0.541700  1.0  -0.2786
  N  N175  1  0.675950  0.982450  0.594500  1.0  -0.1972
  N  N176  1  0.799470  0.696570  0.738460  1.0  -0.3025
  N  N177  1  0.493860  0.745460  0.365080  1.0  -0.2999
  N  N178  1  0.305750  0.446450  0.541700  1.0  -0.2763
  N  N179  1  0.229550  0.423050  0.594500  1.0  -0.1978
  N  N180  1  0.962070  0.564970  0.738460  1.0  -0.3018
  N  N181  1  0.254540  0.358940  0.134920  1.0  -0.3
  N  N182  1  0.553550  0.347450  0.958300  1.0  -0.2809
  N  N183  1  0.576950  0.324050  0.905500  1.0  -0.197
  N  N184  1  0.435030  0.200530  0.761540  1.0  -0.3063
  N  N185  1  0.110540  0.506140  0.134920  1.0  -0.2987
  N  N186  1  0.988150  0.694250  0.958300  1.0  -0.2822
  N  N187  1  0.017550  0.770450  0.905500  1.0  -0.1963
  N  N188  1  0.303430  0.037930  0.761540  1.0  -0.3015
  N  N189  1  0.358940  0.110540  0.634920  1.0  -0.2976
  N  N190  1  0.347450  0.988150  0.458300  1.0  -0.2786
  N  N191  1  0.324050  0.017550  0.405500  1.0  -0.1973
  N  N192  1  0.200530  0.303430  0.261540  1.0  -0.3039
  N  N193  1  0.506140  0.254540  0.634920  1.0  -0.2993
  N  N194  1  0.694250  0.553550  0.458300  1.0  -0.278
  N  N195  1  0.770450  0.576950  0.405500  1.0  -0.1963
  N  N196  1  0.037930  0.435030  0.261540  1.0  -0.3027
  Cl  Cl197  1  0.690560  0.440560  0.118880  1.0  1.1818
  Cl  Cl198  1  0.440560  0.690560  0.618880  1.0  1.1818
  Cl  Cl199  1  0.309440  0.559440  0.881120  1.0  1.1762
  Cl  Cl200  1  0.559440  0.309440  0.381120  1.0  1.1762
  O  O201  1  0.587160  0.709660  0.054480  1.0  -0.2315
  O  O202  1  0.858360  0.235860  0.054480  1.0  -0.2293
  O  O203  1  0.709660  0.858360  0.554480  1.0  -0.2344
  O  O204  1  0.235860  0.587160  0.554480  1.0  -0.2316
  O  O205  1  0.412840  0.290340  0.945520  1.0  -0.2316
  O  O206  1  0.141640  0.764140  0.945520  1.0  -0.2271
  O  O207  1  0.290340  0.141640  0.445520  1.0  -0.2314
  O  O208  1  0.764140  0.412840  0.445520  1.0  -0.2315
  O  O209  1  0.778800  0.393500  0.125800  1.0  -0.5651
  O  O210  1  0.646700  0.338700  0.138600  1.0  -0.5705
  O  O211  1  0.595400  0.480700  0.125800  1.0  -0.5631
  O  O212  1  0.714700  0.522700  0.138600  1.0  -0.5727
  O  O213  1  0.393500  0.595400  0.625800  1.0  -0.5644
  O  O214  1  0.338700  0.714700  0.638600  1.0  -0.5696
  O  O215  1  0.480700  0.778800  0.625800  1.0  -0.5625
  O  O216  1  0.522700  0.646700  0.638600  1.0  -0.5685
  O  O217  1  0.221200  0.606500  0.874200  1.0  -0.5649
  O  O218  1  0.353300  0.661300  0.861400  1.0  -0.5699
  O  O219  1  0.404600  0.519300  0.874200  1.0  -0.563
  O  O220  1  0.285300  0.477300  0.861400  1.0  -0.5734
  O  O221  1  0.606500  0.404600  0.374200  1.0  -0.5639
  O  O222  1  0.661300  0.285300  0.361400  1.0  -0.5707
  O  O223  1  0.519300  0.221200  0.374200  1.0  -0.5654
  O  O224  1  0.477300  0.353300  0.361400  1.0  -0.5703
