# generated using pymatgen
data_Yb2C12(NO4)3
_symmetry_space_group_name_H-M   'P 1'
_cell_length_a   8.95400000
_cell_length_b   13.64000000
_cell_length_c   22.02600000
_cell_angle_alpha   90.00000000
_cell_angle_beta   90.00000000
_cell_angle_gamma   95.57000000
_symmetry_Int_Tables_number   1
_chemical_formula_structural   Yb2C12(NO4)3
_chemical_formula_sum   'Yb8 C48 N12 O48'
_cell_volume   2677.39011587
_cell_formula_units_Z   4
loop_
 _symmetry_equiv_pos_site_id
 _symmetry_equiv_pos_as_xyz
  1  'x, y, z'
loop_
 _atom_site_type_symbol
 _atom_site_label
 _atom_site_symmetry_multiplicity
 _atom_site_fract_x
 _atom_site_fract_y
 _atom_site_fract_z
 _atom_site_occupancy
 _atom_site_charge
  Yb  Yb1  1  0.017700  0.023860  0.673780  1.0  1.2011
  Yb  Yb2  1  0.454870  0.745940  0.608990  1.0  1.7303
  Yb  Yb3  1  0.982300  0.476140  0.173780  1.0  1.2012
  Yb  Yb4  1  0.545130  0.754060  0.108990  1.0  1.7314
  Yb  Yb5  1  0.982300  0.976140  0.326220  1.0  1.2003
  Yb  Yb6  1  0.545130  0.254060  0.391010  1.0  1.7302
  Yb  Yb7  1  0.017700  0.523860  0.826220  1.0  1.2002
  Yb  Yb8  1  0.454870  0.245940  0.891010  1.0  1.7287
  C  C9  1  0.918500  0.788300  0.707300  1.0  0.0715
  C  C10  1  0.934300  0.693400  0.728300  1.0  0.0867
  C  C11  1  0.119900  0.759400  0.795500  1.0  0.0853
  C  C12  1  0.106500  0.854600  0.773100  1.0  0.0931
  C  C13  1  0.801700  0.817600  0.662600  1.0  0.7161
  C  C14  1  0.859800  0.595400  0.706500  1.0  0.5972
  C  C15  1  0.236500  0.727500  0.841200  1.0  0.589
  C  C16  1  0.182400  0.952700  0.794500  1.0  0.6177
  C  C17  1  0.928300  0.070900  0.530200  1.0  0.0804
  C  C18  1  0.911300  0.053600  0.466800  1.0  0.0648
  C  C19  1  0.863800  0.147300  0.570900  1.0  0.5828
  C  C20  1  0.807500  0.102800  0.422300  1.0  0.7057
  C  C21  1  0.081500  0.711700  0.207300  1.0  0.071
  C  C22  1  0.065700  0.806600  0.228300  1.0  0.0864
  C  C23  1  0.880100  0.740600  0.295500  1.0  0.0854
  C  C24  1  0.893500  0.645400  0.273100  1.0  0.0933
  C  C25  1  0.198300  0.682400  0.162600  1.0  0.713
  C  C26  1  0.140200  0.904600  0.206500  1.0  0.597
  C  C27  1  0.763500  0.772500  0.341200  1.0  0.5853
  C  C28  1  0.817600  0.547300  0.294500  1.0  0.6176
  C  C29  1  0.071700  0.429100  0.030200  1.0  0.0811
  C  C30  1  0.088700  0.446400  0.966800  1.0  0.0652
  C  C31  1  0.136200  0.352700  0.070900  1.0  0.5848
  C  C32  1  0.192500  0.397200  0.922300  1.0  0.703
  C  C33  1  0.081500  0.211700  0.292700  1.0  0.071
  C  C34  1  0.065700  0.306600  0.271700  1.0  0.087
  C  C35  1  0.880100  0.240600  0.204500  1.0  0.0855
  C  C36  1  0.893500  0.145400  0.226900  1.0  0.0939
  C  C37  1  0.198300  0.182400  0.337400  1.0  0.7149
  C  C38  1  0.140200  0.404600  0.293500  1.0  0.5954
  C  C39  1  0.763500  0.272500  0.158800  1.0  0.5856
  C  C40  1  0.817600  0.047300  0.205500  1.0  0.6189
  C  C41  1  0.071700  0.929100  0.469800  1.0  0.0803
  C  C42  1  0.088700  0.946400  0.533200  1.0  0.0654
  C  C43  1  0.136200  0.852700  0.429100  1.0  0.5842
  C  C44  1  0.192500  0.897200  0.577700  1.0  0.7029
  C  C45  1  0.918500  0.288300  0.792700  1.0  0.0716
  C  C46  1  0.934300  0.193400  0.771700  1.0  0.0874
  C  C47  1  0.119900  0.259400  0.704500  1.0  0.0858
  C  C48  1  0.106500  0.354600  0.726900  1.0  0.0943
  C  C49  1  0.801700  0.317600  0.837400  1.0  0.7161
  C  C50  1  0.859800  0.095400  0.793500  1.0  0.5969
  C  C51  1  0.236500  0.227500  0.658800  1.0  0.5876
  C  C52  1  0.182400  0.452700  0.705500  1.0  0.6189
  C  C53  1  0.928300  0.570900  0.969800  1.0  0.0799
  C  C54  1  0.911300  0.553600  0.033200  1.0  0.065
  C  C55  1  0.863800  0.647300  0.929100  1.0  0.5828
  C  C56  1  0.807500  0.602800  0.077700  1.0  0.7053
  N  N57  1  0.005800  0.864500  0.729200  1.0  -0.2
  N  N58  1  0.033900  0.683400  0.773400  1.0  -0.2296
  N  N59  1  0.017700  0.015000  0.560300  1.0  -0.2089
  N  N60  1  0.994200  0.635500  0.229200  1.0  -0.2006
  N  N61  1  0.966100  0.816600  0.273400  1.0  -0.2301
  N  N62  1  0.982300  0.485000  0.060300  1.0  -0.2101
  N  N63  1  0.994200  0.135500  0.270800  1.0  -0.2008
  N  N64  1  0.966100  0.316600  0.226600  1.0  -0.2297
  N  N65  1  0.982300  0.985000  0.439700  1.0  -0.2243
  N  N66  1  0.005800  0.364500  0.770800  1.0  -0.1999
  N  N67  1  0.033900  0.183400  0.726600  1.0  -0.2291
  N  N68  1  0.017700  0.515000  0.939700  1.0  -0.2221
  O  O69  1  0.831300  0.903400  0.639100  1.0  -0.6053
  O  O70  1  0.688200  0.760600  0.654200  1.0  -0.7891
  O  O71  1  0.825800  0.582800  0.652700  1.0  -0.4302
  O  O72  1  0.847700  0.530100  0.748200  1.0  -0.5212
  O  O73  1  0.202200  0.640000  0.862000  1.0  -0.5365
  O  O74  1  0.353300  0.780200  0.850000  1.0  -0.3931
  O  O75  1  0.213800  0.964900  0.848200  1.0  -0.4725
  O  O76  1  0.196100  0.017600  0.752400  1.0  -0.5545
  O  O77  1  0.851500  0.119600  0.626200  1.0  -0.5063
  O  O78  1  0.838200  0.228000  0.550100  1.0  -0.3901
  O  O79  1  0.717100  0.158700  0.441000  1.0  -0.755
  O  O80  1  0.824000  0.077900  0.367500  1.0  -0.6217
  O  O81  1  0.168700  0.596600  0.139100  1.0  -0.6054
  O  O82  1  0.311800  0.739400  0.154200  1.0  -0.7893
  O  O83  1  0.174200  0.917200  0.152700  1.0  -0.4298
  O  O84  1  0.152300  0.969900  0.248200  1.0  -0.5216
  O  O85  1  0.797800  0.860000  0.362000  1.0  -0.5327
  O  O86  1  0.646700  0.719800  0.350000  1.0  -0.3931
  O  O87  1  0.786200  0.535100  0.348200  1.0  -0.4716
  O  O88  1  0.803900  0.482400  0.252400  1.0  -0.5543
  O  O89  1  0.148500  0.380400  0.126200  1.0  -0.507
  O  O90  1  0.161800  0.272000  0.050100  1.0  -0.3896
  O  O91  1  0.282900  0.341300  0.941000  1.0  -0.755
  O  O92  1  0.176000  0.422100  0.867500  1.0  -0.6223
  O  O93  1  0.168700  0.096600  0.360900  1.0  -0.6067
  O  O94  1  0.311800  0.239400  0.345800  1.0  -0.7892
  O  O95  1  0.174200  0.417200  0.347300  1.0  -0.4305
  O  O96  1  0.152300  0.469900  0.251800  1.0  -0.5188
  O  O97  1  0.797800  0.360000  0.138000  1.0  -0.5324
  O  O98  1  0.646700  0.219800  0.150000  1.0  -0.3934
  O  O99  1  0.786200  0.035100  0.151800  1.0  -0.4718
  O  O100  1  0.803900  0.982400  0.247600  1.0  -0.5557
  O  O101  1  0.148500  0.880400  0.373800  1.0  -0.5094
  O  O102  1  0.161800  0.772000  0.449900  1.0  -0.3899
  O  O103  1  0.282900  0.841300  0.559000  1.0  -0.7536
  O  O104  1  0.176000  0.922100  0.632500  1.0  -0.6222
  O  O105  1  0.831300  0.403400  0.860900  1.0  -0.6047
  O  O106  1  0.688200  0.260600  0.845800  1.0  -0.7883
  O  O107  1  0.825800  0.082800  0.847300  1.0  -0.4291
  O  O108  1  0.847700  0.030100  0.751800  1.0  -0.5182
  O  O109  1  0.202200  0.140000  0.638000  1.0  -0.5348
  O  O110  1  0.353300  0.280200  0.650000  1.0  -0.3913
  O  O111  1  0.213800  0.464900  0.651800  1.0  -0.4707
  O  O112  1  0.196100  0.517600  0.747600  1.0  -0.5555
  O  O113  1  0.851500  0.619600  0.873800  1.0  -0.5088
  O  O114  1  0.838200  0.728000  0.949900  1.0  -0.3904
  O  O115  1  0.717100  0.658700  0.059000  1.0  -0.7547
  O  O116  1  0.824000  0.577900  0.132500  1.0  -0.6212
