# generated using pymatgen
data_Lu2C12(NO4)3
_symmetry_space_group_name_H-M   'P 1'
_cell_length_a   9.14320000
_cell_length_b   13.69200000
_cell_length_c   22.30400000
_cell_angle_alpha   90.00000000
_cell_angle_beta   90.00000000
_cell_angle_gamma   90.43000000
_symmetry_Int_Tables_number   1
_chemical_formula_structural   Lu2C12(NO4)3
_chemical_formula_sum   'Lu8 C48 N12 O48'
_cell_volume   2792.13000642
_cell_formula_units_Z   4
loop_
 _symmetry_equiv_pos_site_id
 _symmetry_equiv_pos_as_xyz
  1  'x, y, z'
loop_
 _atom_site_type_symbol
 _atom_site_label
 _atom_site_symmetry_multiplicity
 _atom_site_fract_x
 _atom_site_fract_y
 _atom_site_fract_z
 _atom_site_occupancy
 _atom_site_charge
  Lu  Lu1  1  0.963180  0.979520  0.329000  1.0  1.7563
  Lu  Lu2  1  0.467360  0.229230  0.424660  1.0  1.5826
  Lu  Lu3  1  0.036820  0.520480  0.829000  1.0  1.7561
  Lu  Lu4  1  0.532640  0.270770  0.924660  1.0  1.5819
  Lu  Lu5  1  0.036820  0.020480  0.671000  1.0  1.755
  Lu  Lu6  1  0.532640  0.770770  0.575340  1.0  1.581
  Lu  Lu7  1  0.963180  0.479520  0.171000  1.0  1.7551
  Lu  Lu8  1  0.467360  0.729230  0.075340  1.0  1.5816
  C  C9  1  0.758100  0.074200  0.224600  1.0  0.6178
  C  C10  1  0.871400  0.156300  0.233200  1.0  0.0854
  C  C11  1  0.876300  0.247800  0.202800  1.0  0.0692
  C  C12  1  0.806700  0.275400  0.141600  1.0  0.629
  C  C13  1  0.101600  0.406500  0.295200  1.0  0.661
  C  C14  1  0.044600  0.308800  0.274500  1.0  0.0051
  C  C15  1  0.052800  0.215600  0.298600  1.0  0.0884
  C  C16  1  0.165900  0.177500  0.343900  1.0  0.7056
  C  C17  1  0.136900  0.848900  0.426700  1.0  0.6637
  C  C18  1  0.075400  0.929700  0.467400  1.0  0.0469
  C  C19  1  0.105200  0.946400  0.531100  1.0  0.0827
  C  C20  1  0.222600  0.905500  0.569500  1.0  0.7173
  C  C21  1  0.241900  0.425800  0.724600  1.0  0.6197
  C  C22  1  0.128600  0.343700  0.733200  1.0  0.0859
  C  C23  1  0.123700  0.252200  0.702800  1.0  0.0688
  C  C24  1  0.193300  0.224600  0.641600  1.0  0.6292
  C  C25  1  0.898400  0.093500  0.795200  1.0  0.6642
  C  C26  1  0.955400  0.191200  0.774500  1.0  0.0061
  C  C27  1  0.947200  0.284400  0.798600  1.0  0.0893
  C  C28  1  0.834100  0.322500  0.843900  1.0  0.7047
  C  C29  1  0.863100  0.651100  0.926700  1.0  0.6613
  C  C30  1  0.924600  0.570300  0.967400  1.0  0.0465
  C  C31  1  0.894800  0.553600  0.031100  1.0  0.0826
  C  C32  1  0.777400  0.594500  0.069500  1.0  0.7154
  C  C33  1  0.241900  0.925800  0.775400  1.0  0.6205
  C  C34  1  0.128600  0.843700  0.766800  1.0  0.0857
  C  C35  1  0.123700  0.752200  0.797200  1.0  0.0689
  C  C36  1  0.193300  0.724600  0.858400  1.0  0.6306
  C  C37  1  0.898400  0.593500  0.704800  1.0  0.6652
  C  C38  1  0.955400  0.691200  0.725500  1.0  0.0062
  C  C39  1  0.947200  0.784400  0.701400  1.0  0.0881
  C  C40  1  0.834100  0.822500  0.656100  1.0  0.7061
  C  C41  1  0.863100  0.151100  0.573300  1.0  0.6613
  C  C42  1  0.924600  0.070300  0.532600  1.0  0.0469
  C  C43  1  0.894800  0.053600  0.468900  1.0  0.0823
  C  C44  1  0.777400  0.094500  0.430500  1.0  0.7152
  C  C45  1  0.758100  0.574200  0.275400  1.0  0.6178
  C  C46  1  0.871400  0.656300  0.266800  1.0  0.0853
  C  C47  1  0.876300  0.747800  0.297200  1.0  0.0696
  C  C48  1  0.806700  0.775400  0.358400  1.0  0.6279
  C  C49  1  0.101600  0.906500  0.204800  1.0  0.6614
  C  C50  1  0.044600  0.808800  0.225500  1.0  0.0057
  C  C51  1  0.052800  0.715600  0.201400  1.0  0.088
  C  C52  1  0.165900  0.677500  0.156100  1.0  0.706
  C  C53  1  0.136900  0.348900  0.073300  1.0  0.6644
  C  C54  1  0.075400  0.429700  0.032600  1.0  0.0473
  C  C55  1  0.105200  0.446400  0.968900  1.0  0.0824
  C  C56  1  0.222600  0.405500  0.930500  1.0  0.7166
  N  N57  1  0.965200  0.142900  0.278300  1.0  -0.3183
  N  N58  1  0.955200  0.320800  0.224400  1.0  -0.2956
  N  N59  1  0.971800  0.985200  0.441100  1.0  -0.3121
  N  N60  1  0.034800  0.357100  0.778300  1.0  -0.3183
  N  N61  1  0.044800  0.179200  0.724400  1.0  -0.2944
  N  N62  1  0.028200  0.514800  0.941100  1.0  -0.3118
  N  N63  1  0.034800  0.857100  0.721700  1.0  -0.3183
  N  N64  1  0.044800  0.679200  0.775600  1.0  -0.2952
  N  N65  1  0.028200  0.014800  0.558900  1.0  -0.3115
  N  N66  1  0.965200  0.642900  0.221700  1.0  -0.3182
  N  N67  1  0.955200  0.820800  0.275600  1.0  -0.2963
  N  N68  1  0.971800  0.485200  0.058900  1.0  -0.3115
  O  O69  1  0.791600  0.996600  0.255200  1.0  -0.6139
  O  O70  1  0.649000  0.086800  0.194300  1.0  -0.3974
  O  O71  1  0.777000  0.208500  0.105500  1.0  -0.4601
  O  O72  1  0.795500  0.367400  0.134200  1.0  -0.5666
  O  O73  1  0.122400  0.468200  0.253500  1.0  -0.6
  O  O74  1  0.129000  0.417200  0.349600  1.0  -0.4163
  O  O75  1  0.264000  0.232000  0.360700  1.0  -0.724
  O  O76  1  0.145900  0.090500  0.362300  1.0  -0.6317
  O  O77  1  0.137000  0.874200  0.372300  1.0  -0.5879
  O  O78  1  0.169700  0.769700  0.448700  1.0  -0.4316
  O  O79  1  0.327700  0.860100  0.544600  1.0  -0.7282
  O  O80  1  0.207100  0.919100  0.625700  1.0  -0.6291
  O  O81  1  0.208400  0.503400  0.755200  1.0  -0.6168
  O  O82  1  0.351000  0.413200  0.694300  1.0  -0.3977
  O  O83  1  0.223000  0.291500  0.605500  1.0  -0.4581
  O  O84  1  0.204500  0.132600  0.634200  1.0  -0.5638
  O  O85  1  0.877600  0.031800  0.753500  1.0  -0.6007
  O  O86  1  0.871000  0.082800  0.849600  1.0  -0.4162
  O  O87  1  0.736000  0.268000  0.860700  1.0  -0.7246
  O  O88  1  0.854100  0.409500  0.862300  1.0  -0.6297
  O  O89  1  0.863000  0.625800  0.872300  1.0  -0.5876
  O  O90  1  0.830300  0.730300  0.948700  1.0  -0.4314
  O  O91  1  0.672300  0.639900  0.044600  1.0  -0.7286
  O  O92  1  0.792900  0.580900  0.125700  1.0  -0.6271
  O  O93  1  0.208400  0.003400  0.744800  1.0  -0.6167
  O  O94  1  0.351000  0.913200  0.805700  1.0  -0.3988
  O  O95  1  0.223000  0.791500  0.894500  1.0  -0.4595
  O  O96  1  0.204500  0.632600  0.865800  1.0  -0.5651
  O  O97  1  0.877600  0.531800  0.746500  1.0  -0.6002
  O  O98  1  0.871000  0.582800  0.650400  1.0  -0.4164
  O  O99  1  0.736000  0.768000  0.639300  1.0  -0.725
  O  O100  1  0.854100  0.909500  0.637700  1.0  -0.6293
  O  O101  1  0.863000  0.125800  0.627700  1.0  -0.5872
  O  O102  1  0.830300  0.230300  0.551300  1.0  -0.4319
  O  O103  1  0.672300  0.139900  0.455400  1.0  -0.7296
  O  O104  1  0.792900  0.080900  0.374300  1.0  -0.6282
  O  O105  1  0.791600  0.496600  0.244800  1.0  -0.6139
  O  O106  1  0.649000  0.586800  0.305700  1.0  -0.3964
  O  O107  1  0.777000  0.708500  0.394500  1.0  -0.4588
  O  O108  1  0.795500  0.867400  0.365800  1.0  -0.5662
  O  O109  1  0.122400  0.968200  0.246500  1.0  -0.6002
  O  O110  1  0.129000  0.917200  0.150400  1.0  -0.4158
  O  O111  1  0.264000  0.732000  0.139300  1.0  -0.7242
  O  O112  1  0.145900  0.590500  0.137700  1.0  -0.6312
  O  O113  1  0.137000  0.374200  0.127700  1.0  -0.5867
  O  O114  1  0.169700  0.269700  0.051300  1.0  -0.4319
  O  O115  1  0.327700  0.360100  0.955400  1.0  -0.7296
  O  O116  1  0.207100  0.419100  0.874300  1.0  -0.6308
