# generated using pymatgen
data_Er2C12(NO4)3
_symmetry_space_group_name_H-M   'P 1'
_cell_length_a   8.93990000
_cell_length_b   13.69300000
_cell_length_c   22.10300000
_cell_angle_alpha   90.00000000
_cell_angle_beta   90.00000000
_cell_angle_gamma   95.46000000
_symmetry_Int_Tables_number   1
_chemical_formula_structural   Er2C12(NO4)3
_chemical_formula_sum   'Er8 C48 N12 O48'
_cell_volume   2693.44156600
_cell_formula_units_Z   4
loop_
 _symmetry_equiv_pos_site_id
 _symmetry_equiv_pos_as_xyz
  1  'x, y, z'
loop_
 _atom_site_type_symbol
 _atom_site_label
 _atom_site_symmetry_multiplicity
 _atom_site_fract_x
 _atom_site_fract_y
 _atom_site_fract_z
 _atom_site_occupancy
 _atom_site_charge
  Er  Er1  1  0.017160  0.023900  0.673640  1.0  1.2111
  Er  Er2  1  0.453500  0.744560  0.609090  1.0  1.7301
  Er  Er3  1  0.982840  0.476100  0.173650  1.0  1.211
  Er  Er4  1  0.546500  0.755440  0.109090  1.0  1.7305
  Er  Er5  1  0.982840  0.976100  0.326360  1.0  1.21
  Er  Er6  1  0.546500  0.255440  0.390910  1.0  1.73
  Er  Er7  1  0.017160  0.523900  0.826360  1.0  1.2101
  Er  Er8  1  0.453500  0.244560  0.890910  1.0  1.7293
  C  C9  1  0.918400  0.788400  0.707200  1.0  0.0725
  C  C10  1  0.934800  0.694800  0.728300  1.0  0.0951
  C  C11  1  0.119300  0.759400  0.795400  1.0  0.0815
  C  C12  1  0.103800  0.853300  0.772900  1.0  0.0881
  C  C13  1  0.801700  0.818000  0.662300  1.0  0.7229
  C  C14  1  0.860500  0.596600  0.706500  1.0  0.5995
  C  C15  1  0.235500  0.726800  0.840500  1.0  0.5906
  C  C16  1  0.181100  0.952000  0.794000  1.0  0.6036
  C  C17  1  0.928600  0.070300  0.529300  1.0  0.0864
  C  C18  1  0.909500  0.054000  0.467100  1.0  0.0849
  C  C19  1  0.864800  0.146600  0.570300  1.0  0.5892
  C  C20  1  0.810200  0.103500  0.423100  1.0  0.7121
  C  C21  1  0.081600  0.711600  0.207200  1.0  0.0735
  C  C22  1  0.065200  0.805200  0.228300  1.0  0.0946
  C  C23  1  0.880700  0.740600  0.295400  1.0  0.0817
  C  C24  1  0.896200  0.646700  0.272900  1.0  0.0894
  C  C25  1  0.198300  0.682000  0.162300  1.0  0.7212
  C  C26  1  0.139500  0.903400  0.206500  1.0  0.5998
  C  C27  1  0.764500  0.773200  0.340500  1.0  0.5873
  C  C28  1  0.818900  0.548000  0.294000  1.0  0.6042
  C  C29  1  0.071400  0.429700  0.029300  1.0  0.0866
  C  C30  1  0.090500  0.446000  0.967100  1.0  0.0855
  C  C31  1  0.135200  0.353400  0.070300  1.0  0.5914
  C  C32  1  0.189800  0.396500  0.923100  1.0  0.7112
  C  C33  1  0.081600  0.211600  0.292800  1.0  0.0737
  C  C34  1  0.065200  0.305200  0.271700  1.0  0.0946
  C  C35  1  0.880700  0.240600  0.204600  1.0  0.081
  C  C36  1  0.896200  0.146700  0.227100  1.0  0.0898
  C  C37  1  0.198300  0.182000  0.337700  1.0  0.7225
  C  C38  1  0.139500  0.403400  0.293500  1.0  0.5983
  C  C39  1  0.764500  0.273200  0.159500  1.0  0.5884
  C  C40  1  0.818900  0.048000  0.206000  1.0  0.6043
  C  C41  1  0.071400  0.929700  0.470700  1.0  0.087
  C  C42  1  0.090500  0.946000  0.532900  1.0  0.0862
  C  C43  1  0.135200  0.853400  0.429700  1.0  0.5909
  C  C44  1  0.189800  0.896500  0.576900  1.0  0.7118
  C  C45  1  0.918400  0.288400  0.792800  1.0  0.0725
  C  C46  1  0.934800  0.194800  0.771700  1.0  0.095
  C  C47  1  0.119300  0.259400  0.704600  1.0  0.0812
  C  C48  1  0.103800  0.353300  0.727100  1.0  0.0888
  C  C49  1  0.801700  0.318000  0.837700  1.0  0.7224
  C  C50  1  0.860500  0.096600  0.793500  1.0  0.5993
  C  C51  1  0.235500  0.226800  0.659500  1.0  0.5895
  C  C52  1  0.181100  0.452000  0.706000  1.0  0.6034
  C  C53  1  0.928600  0.570300  0.970700  1.0  0.0867
  C  C54  1  0.909500  0.554000  0.032900  1.0  0.0855
  C  C55  1  0.864800  0.646600  0.929700  1.0  0.5895
  C  C56  1  0.810200  0.603500  0.076900  1.0  0.7121
  N  N57  1  0.005500  0.864300  0.729100  1.0  -0.2022
  N  N58  1  0.032900  0.683600  0.772800  1.0  -0.2343
  N  N59  1  0.017000  0.014900  0.559100  1.0  -0.2115
  N  N60  1  0.994500  0.635700  0.229100  1.0  -0.2024
  N  N61  1  0.967100  0.816400  0.272800  1.0  -0.2353
  N  N62  1  0.983000  0.485100  0.059100  1.0  -0.2127
  N  N63  1  0.994500  0.135700  0.270900  1.0  -0.203
  N  N64  1  0.967100  0.316400  0.227200  1.0  -0.2348
  N  N65  1  0.983000  0.985100  0.440900  1.0  -0.213
  N  N66  1  0.005500  0.364300  0.770900  1.0  -0.2026
  N  N67  1  0.032900  0.183600  0.727200  1.0  -0.234
  N  N68  1  0.017000  0.514900  0.940900  1.0  -0.2118
  O  O69  1  0.829300  0.902300  0.639400  1.0  -0.6124
  O  O70  1  0.688700  0.759700  0.654300  1.0  -0.796
  O  O71  1  0.829200  0.583600  0.652400  1.0  -0.4314
  O  O72  1  0.845900  0.531300  0.747500  1.0  -0.5187
  O  O73  1  0.202600  0.640900  0.861900  1.0  -0.5397
  O  O74  1  0.351400  0.780600  0.849500  1.0  -0.4054
  O  O75  1  0.210700  0.964500  0.847900  1.0  -0.4675
  O  O76  1  0.196500  0.016300  0.752300  1.0  -0.5597
  O  O77  1  0.849300  0.119600  0.625100  1.0  -0.5138
  O  O78  1  0.842500  0.227800  0.550000  1.0  -0.3923
  O  O79  1  0.718800  0.159200  0.441500  1.0  -0.7637
  O  O80  1  0.823300  0.078500  0.368400  1.0  -0.6222
  O  O81  1  0.170700  0.597700  0.139400  1.0  -0.6115
  O  O82  1  0.311300  0.740300  0.154300  1.0  -0.796
  O  O83  1  0.170800  0.916400  0.152400  1.0  -0.431
  O  O84  1  0.154100  0.968700  0.247500  1.0  -0.5189
  O  O85  1  0.797400  0.859100  0.361900  1.0  -0.5364
  O  O86  1  0.648600  0.719400  0.349500  1.0  -0.4057
  O  O87  1  0.789300  0.535500  0.347900  1.0  -0.466
  O  O88  1  0.803500  0.483700  0.252300  1.0  -0.5568
  O  O89  1  0.150700  0.380400  0.125100  1.0  -0.5148
  O  O90  1  0.157500  0.272200  0.050000  1.0  -0.3919
  O  O91  1  0.281200  0.340800  0.941500  1.0  -0.762
  O  O92  1  0.176700  0.421500  0.868400  1.0  -0.6222
  O  O93  1  0.170700  0.097700  0.360600  1.0  -0.6121
  O  O94  1  0.311300  0.240300  0.345700  1.0  -0.7967
  O  O95  1  0.170800  0.416400  0.347600  1.0  -0.4321
  O  O96  1  0.154100  0.468700  0.252500  1.0  -0.5174
  O  O97  1  0.797400  0.359100  0.138100  1.0  -0.5372
  O  O98  1  0.648600  0.219400  0.150500  1.0  -0.4061
  O  O99  1  0.789300  0.035500  0.152100  1.0  -0.4653
  O  O100  1  0.803500  0.983700  0.247700  1.0  -0.56
  O  O101  1  0.150700  0.880400  0.374900  1.0  -0.5156
  O  O102  1  0.157500  0.772200  0.450000  1.0  -0.3921
  O  O103  1  0.281200  0.840800  0.558500  1.0  -0.7619
  O  O104  1  0.176700  0.921500  0.631600  1.0  -0.6225
  O  O105  1  0.829300  0.402300  0.860600  1.0  -0.6118
  O  O106  1  0.688700  0.259700  0.845700  1.0  -0.7955
  O  O107  1  0.829200  0.083600  0.847600  1.0  -0.4312
  O  O108  1  0.845900  0.031300  0.752500  1.0  -0.5165
  O  O109  1  0.202600  0.140900  0.638100  1.0  -0.5386
  O  O110  1  0.351400  0.280600  0.650500  1.0  -0.4041
  O  O111  1  0.210700  0.464500  0.652100  1.0  -0.4644
  O  O112  1  0.196500  0.516300  0.747700  1.0  -0.561
  O  O113  1  0.849300  0.619600  0.874900  1.0  -0.5151
  O  O114  1  0.842500  0.727800  0.950000  1.0  -0.3926
  O  O115  1  0.718800  0.659200  0.058500  1.0  -0.7639
  O  O116  1  0.823300  0.578500  0.131600  1.0  -0.6221
