# generated using pymatgen
data_Co2H31C44(NO)8
_symmetry_space_group_name_H-M   'P 1'
_cell_length_a   10.54000000
_cell_length_b   13.50900000
_cell_length_c   30.52600000
_cell_angle_alpha   90.00000000
_cell_angle_beta   90.14000000
_cell_angle_gamma   90.00000000
_symmetry_Int_Tables_number   1
_chemical_formula_structural   Co2H31C44(NO)8
_chemical_formula_sum   'Co8 H124 C176 N32 O32'
_cell_volume   4346.42726115
_cell_formula_units_Z   4
loop_
 _symmetry_equiv_pos_site_id
 _symmetry_equiv_pos_as_xyz
  1  'x, y, z'
loop_
 _atom_site_type_symbol
 _atom_site_label
 _atom_site_symmetry_multiplicity
 _atom_site_fract_x
 _atom_site_fract_y
 _atom_site_fract_z
 _atom_site_occupancy
 _atom_site_charge
  Co  Co1  1  0.721150  0.167130  0.048310  1.0  0.8744
  Co  Co2  1  0.178140  0.666510  0.213870  1.0  0.9201
  Co  Co3  1  0.221150  0.332870  0.548310  1.0  0.8741
  Co  Co4  1  0.678140  0.833490  0.713870  1.0  0.92
  Co  Co5  1  0.778850  0.667130  0.451690  1.0  0.8737
  Co  Co6  1  0.321860  0.166510  0.286130  1.0  0.9199
  Co  Co7  1  0.278850  0.832870  0.951690  1.0  0.8736
  Co  Co8  1  0.821860  0.333490  0.786130  1.0  0.9197
  H  H9  1  0.044300  0.688200  0.300000  1.0  0.0878
  H  H10  1  0.315100  0.808000  0.276100  1.0  0.2636
  H  H11  1  0.021800  0.491300  0.418800  1.0  0.1153
  H  H12  1  0.575900  0.962500  0.150800  1.0  0.1094
  H  H13  1  0.104800  0.445700  0.112200  1.0  0.102
  H  H14  1  0.479400  0.414100  0.133100  1.0  0.1069
  H  H15  1  0.053400  0.632000  0.370900  1.0  0.1048
  H  H16  1  0.402500  0.497700  0.414500  1.0  0.1145
  H  H17  1  0.036100  0.412300  0.485200  1.0  0.0795
  H  H18  1  0.249300  0.763500  0.127100  1.0  0.0995
  H  H19  1  0.306500  0.255700  0.038200  1.0  0.1266
  H  H20  1  0.736600  0.747800  0.223300  1.0  0.1358
  H  H21  1  0.349400  0.461200  0.336700  1.0  0.117
  H  H22  1  0.942500  0.892400  0.133400  1.0  0.1025
  H  H23  1  0.217400  0.539700  0.882800  1.0  0.1087
  H  H24  1  0.406300  0.428000  0.483000  1.0  0.0838
  H  H25  1  0.017500  0.303800  0.923800  1.0  0.1002
  H  H26  1  0.182100  0.485500  0.011700  1.0  0.0977
  H  H27  1  0.330300  0.521100  0.266800  1.0  0.075
  H  H28  1  0.612800  0.681600  0.141300  1.0  0.1011
  H  H29  1  0.613000  0.876000  0.290600  1.0  0.1324
  H  H30  1  0.484200  0.925700  0.303700  1.0  0.1249
  H  H31  1  0.565400  0.970300  0.265600  1.0  0.1314
  H  H32  1  0.248700  0.699900  0.056800  1.0  0.1016
  H  H33  1  0.431100  0.631500  0.028100  1.0  0.1084
  H  H34  1  0.965400  0.288600  0.136900  1.0  0.1202
  H  H35  1  0.062200  0.204200  0.125900  1.0  0.1308
  H  H36  1  0.916100  0.183100  0.124000  1.0  0.1402
  H  H37  1  0.094500  0.401600  0.867300  1.0  0.0981
  H  H38  1  0.614600  0.625500  0.069800  1.0  0.096
  H  H39  1  0.262000  0.580400  0.954600  1.0  0.093
  H  H40  1  0.544300  0.811800  0.800000  1.0  0.0875
  H  H41  1  0.815100  0.692000  0.776100  1.0  0.2633
  H  H42  1  0.521800  0.008700  0.918800  1.0  0.1152
  H  H43  1  0.075900  0.537500  0.650800  1.0  0.1096
  H  H44  1  0.604800  0.054300  0.612200  1.0  0.1022
  H  H45  1  0.979400  0.085900  0.633100  1.0  0.1069
  H  H46  1  0.553400  0.868000  0.870900  1.0  0.1047
  H  H47  1  0.902500  0.002300  0.914500  1.0  0.1146
  H  H48  1  0.536100  0.087700  0.985200  1.0  0.0795
  H  H49  1  0.749300  0.736500  0.627100  1.0  0.0996
  H  H50  1  0.806500  0.244300  0.538200  1.0  0.1265
  H  H51  1  0.236600  0.752200  0.723300  1.0  0.1359
  H  H52  1  0.849400  0.038800  0.836700  1.0  0.1166
  H  H53  1  0.442500  0.607600  0.633400  1.0  0.1023
  H  H54  1  0.717400  0.960300  0.382800  1.0  0.1091
  H  H55  1  0.906300  0.072000  0.983000  1.0  0.0838
  H  H56  1  0.517500  0.196200  0.423800  1.0  0.1002
  H  H57  1  0.682100  0.014500  0.511700  1.0  0.0977
  H  H58  1  0.830300  0.978900  0.766800  1.0  0.0747
  H  H59  1  0.112800  0.818400  0.641300  1.0  0.1011
  H  H60  1  0.113000  0.624000  0.790600  1.0  0.1321
  H  H61  1  0.984200  0.574300  0.803700  1.0  0.1246
  H  H62  1  0.065400  0.529700  0.765600  1.0  0.1308
  H  H63  1  0.748700  0.800100  0.556800  1.0  0.1017
  H  H64  1  0.931100  0.868500  0.528100  1.0  0.1085
  H  H65  1  0.465400  0.211400  0.636900  1.0  0.1199
  H  H66  1  0.562200  0.295800  0.625900  1.0  0.1304
  H  H67  1  0.416100  0.316900  0.624000  1.0  0.1394
  H  H68  1  0.594500  0.098400  0.367300  1.0  0.098
  H  H69  1  0.114600  0.874500  0.569800  1.0  0.096
  H  H70  1  0.762000  0.919600  0.454600  1.0  0.0931
  H  H71  1  0.455700  0.188200  0.200000  1.0  0.0877
  H  H72  1  0.184900  0.308000  0.223900  1.0  0.2651
  H  H73  1  0.478200  0.991300  0.081200  1.0  0.115
  H  H74  1  0.924100  0.462500  0.349200  1.0  0.1089
  H  H75  1  0.395200  0.945700  0.387800  1.0  0.1029
  H  H76  1  0.020600  0.914100  0.366900  1.0  0.1065
  H  H77  1  0.446600  0.132000  0.129100  1.0  0.1044
  H  H78  1  0.097500  0.997700  0.085500  1.0  0.1145
  H  H79  1  0.463900  0.912300  0.014800  1.0  0.0789
  H  H80  1  0.250700  0.263500  0.372900  1.0  0.0998
  H  H81  1  0.193500  0.755700  0.461800  1.0  0.1264
  H  H82  1  0.763400  0.247800  0.276700  1.0  0.1357
  H  H83  1  0.150600  0.961200  0.163300  1.0  0.1175
  H  H84  1  0.557500  0.392400  0.366600  1.0  0.1027
  H  H85  1  0.282600  0.039700  0.617200  1.0  0.1083
  H  H86  1  0.093700  0.928000  0.017000  1.0  0.0835
  H  H87  1  0.482500  0.803800  0.576200  1.0  0.1001
  H  H88  1  0.317900  0.985500  0.488300  1.0  0.0979
  H  H89  1  0.169700  0.021100  0.233200  1.0  0.0752
  H  H90  1  0.887200  0.181600  0.358700  1.0  0.1011
  H  H91  1  0.887000  0.376000  0.209400  1.0  0.1304
  H  H92  1  0.015800  0.425700  0.196300  1.0  0.1235
  H  H93  1  0.934600  0.470300  0.234400  1.0  0.1315
  H  H94  1  0.251300  0.199900  0.443200  1.0  0.1022
  H  H95  1  0.068900  0.131500  0.471900  1.0  0.1088
  H  H96  1  0.534600  0.788600  0.363100  1.0  0.1207
  H  H97  1  0.437800  0.704200  0.374100  1.0  0.1286
  H  H98  1  0.583900  0.683100  0.376000  1.0  0.1391
  H  H99  1  0.405500  0.901600  0.632700  1.0  0.0984
  H  H100  1  0.885400  0.125500  0.430200  1.0  0.0962
  H  H101  1  0.238000  0.080400  0.545400  1.0  0.0935
  H  H102  1  0.955700  0.311800  0.700000  1.0  0.0878
  H  H103  1  0.684900  0.192000  0.723900  1.0  0.2651
  H  H104  1  0.978200  0.508700  0.581200  1.0  0.1148
  H  H105  1  0.424100  0.037500  0.849200  1.0  0.1095
  H  H106  1  0.895200  0.554300  0.887800  1.0  0.103
  H  H107  1  0.520600  0.585900  0.866900  1.0  0.1064
  H  H108  1  0.946600  0.368000  0.629100  1.0  0.1042
  H  H109  1  0.597500  0.502300  0.585500  1.0  0.1144
  H  H110  1  0.963900  0.587700  0.514800  1.0  0.0789
  H  H111  1  0.750700  0.236500  0.872900  1.0  0.1001
  H  H112  1  0.693500  0.744300  0.961800  1.0  0.126
  H  H113  1  0.263400  0.252200  0.776700  1.0  0.1361
  H  H114  1  0.650600  0.538800  0.663300  1.0  0.1176
  H  H115  1  0.057500  0.107600  0.866600  1.0  0.1026
  H  H116  1  0.782600  0.460300  0.117200  1.0  0.1085
  H  H117  1  0.593700  0.572000  0.517000  1.0  0.0833
  H  H118  1  0.982500  0.696200  0.076200  1.0  0.0995
  H  H119  1  0.817900  0.514500  0.988300  1.0  0.0983
  H  H120  1  0.669700  0.478900  0.733200  1.0  0.0749
  H  H121  1  0.387200  0.318400  0.858700  1.0  0.1014
  H  H122  1  0.387000  0.124000  0.709400  1.0  0.1304
  H  H123  1  0.515800  0.074300  0.696300  1.0  0.1231
  H  H124  1  0.434600  0.029700  0.734400  1.0  0.1308
  H  H125  1  0.751300  0.300100  0.943200  1.0  0.1021
  H  H126  1  0.568900  0.368500  0.971900  1.0  0.1086
  H  H127  1  0.034600  0.711400  0.863100  1.0  0.1201
  H  H128  1  0.937800  0.795800  0.874100  1.0  0.1289
  H  H129  1  0.083900  0.816900  0.876000  1.0  0.1394
  H  H130  1  0.905500  0.598400  0.132700  1.0  0.0983
  H  H131  1  0.385400  0.374500  0.930200  1.0  0.0959
  H  H132  1  0.738000  0.419600  0.045400  1.0  0.0933
  C  C133  1  0.858100  0.813000  0.180850  1.0  -0.1433
  C  C134  1  0.106000  0.642100  0.307580  1.0  0.1878
  C  C135  1  0.413800  0.329200  0.083850  1.0  -0.1634
  C  C136  1  0.284300  0.513600  0.166180  1.0  0.655
  C  C137  1  0.539700  0.281500  0.073360  1.0  0.6515
  C  C138  1  0.030800  0.326600  0.008830  1.0  0.2479
  C  C139  1  0.101000  0.476500  0.430620  1.0  -0.202
  C  C140  1  0.188900  0.345400  0.072420  1.0  0.1419
  C  C141  1  0.646400  0.923900  0.157480  1.0  -0.1298
  C  C142  1  0.978600  0.261600  0.072140  1.0  0.3717
  C  C143  1  0.772600  0.016700  0.101230  1.0  0.6692
  C  C144  1  0.291300  0.440600  0.128980  1.0  -0.1471
  C  C145  1  0.092200  0.384000  0.973630  1.0  -0.0879
  C  C146  1  0.181800  0.415600  0.105580  1.0  -0.1071
  C  C147  1  0.406400  0.397200  0.117690  1.0  0.0107
  C  C148  1  0.211300  0.500600  0.407940  1.0  0.0829
  C  C149  1  0.111500  0.608900  0.350440  1.0  -0.161
  C  C150  1  0.326800  0.481500  0.428370  1.0  -0.1844
  C  C151  1  0.203900  0.541000  0.362820  1.0  0.0959
  C  C152  1  0.110300  0.430500  0.470900  1.0  0.1666
  C  C153  1  0.322500  0.734800  0.115840  1.0  -0.1319
  C  C154  1  0.303000  0.301900  0.060770  1.0  -0.0958
  C  C155  1  0.761300  0.940000  0.136110  1.0  -0.1637
  C  C156  1  0.743200  0.795300  0.201420  1.0  -0.121
  C  C157  1  0.286900  0.507500  0.330110  1.0  -0.1805
  C  C158  1  0.865900  0.883100  0.147910  1.0  1e-04
  C  C159  1  0.186100  0.500900  0.905510  1.0  -0.1004
  C  C160  1  0.328500  0.438400  0.469300  1.0  0.18
  C  C161  1  0.066200  0.359500  0.930200  1.0  -0.1251
  C  C162  1  0.165100  0.467900  0.982790  1.0  -0.0767
  C  C163  1  0.426400  0.767400  0.186630  1.0  0.2261
  C  C164  1  0.274500  0.543900  0.288140  1.0  0.1771
  C  C165  1  0.431300  0.729600  0.141480  1.0  -0.0364
  C  C166  1  0.638200  0.850400  0.188550  1.0  0.1679
  C  C167  1  0.540100  0.686800  0.124140  1.0  -0.1082
  C  C168  1  0.974000  0.753800  0.193090  1.0  0.6519
  C  C169  1  0.539500  0.910200  0.279740  1.0  -0.4291
  C  C170  1  0.471600  0.846300  0.247840  1.0  0.3211
  C  C171  1  0.322300  0.697400  0.073630  1.0  -0.0935
  C  C172  1  0.431200  0.656300  0.056490  1.0  -0.0715
  C  C173  1  0.980700  0.231800  0.118870  1.0  -0.4153
  C  C174  1  0.112700  0.418000  0.896220  1.0  -0.094
  C  C175  1  0.540700  0.651900  0.081580  1.0  -0.069
  C  C176  1  0.212300  0.525200  0.948450  1.0  -0.0702
  C  C177  1  0.358100  0.687000  0.680850  1.0  -0.1434
  C  C178  1  0.606000  0.857900  0.807580  1.0  0.1874
  C  C179  1  0.913800  0.170800  0.583850  1.0  -0.1636
  C  C180  1  0.784300  0.986400  0.666180  1.0  0.6552
  C  C181  1  0.039700  0.218500  0.573360  1.0  0.6518
  C  C182  1  0.530800  0.173400  0.508830  1.0  0.2483
  C  C183  1  0.601000  0.023500  0.930620  1.0  -0.202
  C  C184  1  0.688900  0.154600  0.572420  1.0  0.1419
  C  C185  1  0.146400  0.576100  0.657480  1.0  -0.1306
  C  C186  1  0.478600  0.238400  0.572140  1.0  0.3723
  C  C187  1  0.272600  0.483300  0.601230  1.0  0.669
  C  C188  1  0.791300  0.059400  0.628980  1.0  -0.1468
  C  C189  1  0.592200  0.116000  0.473630  1.0  -0.0872
  C  C190  1  0.681800  0.084400  0.605580  1.0  -0.1064
  C  C191  1  0.906400  0.102800  0.617690  1.0  0.011
  C  C192  1  0.711300  0.999400  0.907940  1.0  0.083
  C  C193  1  0.611500  0.891100  0.850440  1.0  -0.1611
  C  C194  1  0.826800  0.018500  0.928370  1.0  -0.1848
  C  C195  1  0.703900  0.959000  0.862820  1.0  0.0959
  C  C196  1  0.610300  0.069500  0.970900  1.0  0.1664
  C  C197  1  0.822500  0.765200  0.615840  1.0  -0.1318
  C  C198  1  0.803000  0.198100  0.560770  1.0  -0.0959
  C  C199  1  0.261300  0.560000  0.636110  1.0  -0.1639
  C  C200  1  0.243200  0.704700  0.701420  1.0  -0.122
  C  C201  1  0.786900  0.992500  0.830110  1.0  -0.1804
  C  C202  1  0.365900  0.616900  0.647910  1.0  0.0005
  C  C203  1  0.686100  0.999100  0.405510  1.0  -0.1
  C  C204  1  0.828500  0.061600  0.969300  1.0  0.18
  C  C205  1  0.566200  0.140500  0.430200  1.0  -0.125
  C  C206  1  0.665100  0.032100  0.482790  1.0  -0.0766
  C  C207  1  0.926400  0.732600  0.686630  1.0  0.2263
  C  C208  1  0.774500  0.956100  0.788140  1.0  0.1769
  C  C209  1  0.931300  0.770400  0.641480  1.0  -0.0366
  C  C210  1  0.138200  0.649600  0.688550  1.0  0.1678
  C  C211  1  0.040100  0.813200  0.624140  1.0  -0.1083
  C  C212  1  0.474000  0.746200  0.693090  1.0  0.652
  C  C213  1  0.039500  0.589800  0.779740  1.0  -0.4288
  C  C214  1  0.971600  0.653700  0.747840  1.0  0.3205
  C  C215  1  0.822300  0.802600  0.573630  1.0  -0.0938
  C  C216  1  0.931200  0.843700  0.556490  1.0  -0.0718
  C  C217  1  0.480700  0.268200  0.618870  1.0  -0.4147
  C  C218  1  0.612700  0.082000  0.396220  1.0  -0.0953
  C  C219  1  0.040700  0.848100  0.581580  1.0  -0.0694
  C  C220  1  0.712300  0.974800  0.448450  1.0  -0.0698
  C  C221  1  0.641900  0.313000  0.319150  1.0  -0.1461
  C  C222  1  0.394000  0.142100  0.192420  1.0  0.1873
  C  C223  1  0.086200  0.829200  0.416150  1.0  -0.1638
  C  C224  1  0.215700  0.013600  0.333820  1.0  0.6548
  C  C225  1  0.960300  0.781500  0.426640  1.0  0.6516
  C  C226  1  0.469200  0.826600  0.491170  1.0  0.2477
  C  C227  1  0.399000  0.976500  0.069380  1.0  -0.2045
  C  C228  1  0.311100  0.845400  0.427580  1.0  0.1422
  C  C229  1  0.853600  0.423900  0.342520  1.0  -0.1302
  C  C230  1  0.521400  0.761600  0.427860  1.0  0.3717
  C  C231  1  0.727400  0.516700  0.398770  1.0  0.6695
  C  C232  1  0.208700  0.940600  0.371020  1.0  -0.1473
  C  C233  1  0.407800  0.884000  0.526370  1.0  -0.0878
  C  C234  1  0.318200  0.915600  0.394420  1.0  -0.1071
  C  C235  1  0.093600  0.897200  0.382310  1.0  0.0116
  C  C236  1  0.288700  0.000600  0.092060  1.0  0.0828
  C  C237  1  0.388500  0.108900  0.149560  1.0  -0.1621
  C  C238  1  0.173200  0.981500  0.071630  1.0  -0.1833
  C  C239  1  0.296100  0.041000  0.137180  1.0  0.095
  C  C240  1  0.389700  0.930500  0.029100  1.0  0.1669
  C  C241  1  0.177500  0.234800  0.384160  1.0  -0.1328
  C  C242  1  0.197000  0.801900  0.439230  1.0  -0.0932
  C  C243  1  0.738700  0.440000  0.363890  1.0  -0.1643
  C  C244  1  0.756800  0.295300  0.298580  1.0  -0.1207
  C  C245  1  0.213100  0.007500  0.169890  1.0  -0.179
  C  C246  1  0.634100  0.383100  0.352090  1.0  0.0007
  C  C247  1  0.313900  0.000900  0.594490  1.0  -0.1004
  C  C248  1  0.171500  0.938400  0.030700  1.0  0.181
  C  C249  1  0.433800  0.859500  0.569800  1.0  -0.1269
  C  C250  1  0.334900  0.967900  0.517210  1.0  -0.0767
  C  C251  1  0.073600  0.267400  0.313370  1.0  0.2257
  C  C252  1  0.225500  0.043900  0.211860  1.0  0.1774
  C  C253  1  0.068700  0.229600  0.358520  1.0  -0.0369
  C  C254  1  0.861800  0.350400  0.311450  1.0  0.1665
  C  C255  1  0.959900  0.186800  0.375860  1.0  -0.1074
  C  C256  1  0.526000  0.253800  0.306910  1.0  0.6507
  C  C257  1  0.960500  0.410200  0.220260  1.0  -0.4294
  C  C258  1  0.028400  0.346300  0.252160  1.0  0.321
  C  C259  1  0.177700  0.197400  0.426370  1.0  -0.0927
  C  C260  1  0.068800  0.156300  0.443510  1.0  -0.0705
  C  C261  1  0.519300  0.731800  0.381130  1.0  -0.4149
  C  C262  1  0.387300  0.918000  0.603780  1.0  -0.0928
  C  C263  1  0.959300  0.151900  0.418420  1.0  -0.0694
  C  C264  1  0.287700  0.025200  0.551550  1.0  -0.0692
  C  C265  1  0.141900  0.187000  0.819150  1.0  -0.1459
  C  C266  1  0.894000  0.357900  0.692420  1.0  0.1877
  C  C267  1  0.586200  0.670800  0.916150  1.0  -0.1642
  C  C268  1  0.715700  0.486400  0.833820  1.0  0.6549
  C  C269  1  0.460300  0.718500  0.926640  1.0  0.6518
  C  C270  1  0.969200  0.673400  0.991170  1.0  0.2475
  C  C271  1  0.899000  0.523500  0.569380  1.0  -0.2044
  C  C272  1  0.811100  0.654600  0.927580  1.0  0.1422
  C  C273  1  0.353600  0.076100  0.842520  1.0  -0.1309
  C  C274  1  0.021400  0.738400  0.927860  1.0  0.372
  C  C275  1  0.227400  0.983300  0.898770  1.0  0.6694
  C  C276  1  0.708700  0.559400  0.871020  1.0  -0.1482
  C  C277  1  0.907800  0.616000  0.026370  1.0  -0.0867
  C  C278  1  0.818200  0.584400  0.894420  1.0  -0.107
  C  C279  1  0.593600  0.602800  0.882310  1.0  0.012
  C  C280  1  0.788700  0.499400  0.592060  1.0  0.0826
  C  C281  1  0.888500  0.391100  0.649560  1.0  -0.1622
  C  C282  1  0.673200  0.518500  0.571630  1.0  -0.1838
  C  C283  1  0.796100  0.459000  0.637180  1.0  0.0953
  C  C284  1  0.889700  0.569500  0.529100  1.0  0.167
  C  C285  1  0.677500  0.265200  0.884160  1.0  -0.1332
  C  C286  1  0.697000  0.698100  0.939230  1.0  -0.0935
  C  C287  1  0.238700  0.060000  0.863890  1.0  -0.1643
  C  C288  1  0.256800  0.204700  0.798580  1.0  -0.1211
  C  C289  1  0.713100  0.492500  0.669890  1.0  -0.1794
  C  C290  1  0.134100  0.116900  0.852090  1.0  0.0011
  C  C291  1  0.813900  0.499100  0.094490  1.0  -0.1006
  C  C292  1  0.671500  0.561600  0.530700  1.0  0.1808
  C  C293  1  0.933800  0.640500  0.069800  1.0  -0.1266
  C  C294  1  0.834900  0.532100  0.017210  1.0  -0.0767
  C  C295  1  0.573600  0.232600  0.813370  1.0  0.2262
  C  C296  1  0.725500  0.456100  0.711860  1.0  0.1775
  C  C297  1  0.568700  0.270400  0.858520  1.0  -0.0373
  C  C298  1  0.361800  0.149600  0.811450  1.0  0.1666
  C  C299  1  0.459900  0.313200  0.875860  1.0  -0.1076
  C  C300  1  0.026000  0.246200  0.806910  1.0  0.6506
  C  C301  1  0.460500  0.089800  0.720260  1.0  -0.4295
  C  C302  1  0.528400  0.153700  0.752160  1.0  0.3206
  C  C303  1  0.677700  0.302600  0.926370  1.0  -0.0927
  C  C304  1  0.568800  0.343700  0.943510  1.0  -0.0706
  C  C305  1  0.019300  0.768200  0.881130  1.0  -0.4155
  C  C306  1  0.887300  0.582000  0.103780  1.0  -0.0933
  C  C307  1  0.459300  0.348100  0.918420  1.0  -0.0696
  C  C308  1  0.787700  0.474800  0.051550  1.0  -0.0692
  N  N309  1  0.887900  0.242290  0.043630  1.0  -0.2601
  N  N310  1  0.221800  0.410810  0.490310  1.0  -0.3401
  N  N311  1  0.516600  0.824410  0.206860  1.0  -0.0805
  N  N312  1  0.071800  0.314690  0.051660  1.0  -0.1391
  N  N313  1  0.186600  0.610150  0.276480  1.0  -0.3381
  N  N314  1  0.332400  0.754240  0.214960  1.0  -0.255
  N  N315  1  0.921200  0.282710  0.003430  1.0  -0.3119
  N  N316  1  0.361600  0.804700  0.253000  1.0  -0.1505
  N  N317  1  0.387900  0.257710  0.543630  1.0  -0.2604
  N  N318  1  0.721800  0.089190  0.990310  1.0  -0.3396
  N  N319  1  0.016600  0.675590  0.706860  1.0  -0.0804
  N  N320  1  0.571800  0.185310  0.551660  1.0  -0.139
  N  N321  1  0.686600  0.889850  0.776480  1.0  -0.3393
  N  N322  1  0.832400  0.745760  0.714960  1.0  -0.2546
  N  N323  1  0.421200  0.217290  0.503430  1.0  -0.3116
  N  N324  1  0.861600  0.695300  0.753000  1.0  -0.1502
  N  N325  1  0.612100  0.742290  0.456370  1.0  -0.2578
  N  N326  1  0.278200  0.910810  0.009690  1.0  -0.3448
  N  N327  1  0.983400  0.324410  0.293140  1.0  -0.0806
  N  N328  1  0.428200  0.814690  0.448340  1.0  -0.1396
  N  N329  1  0.313400  0.110150  0.223520  1.0  -0.3364
  N  N330  1  0.167600  0.254240  0.285040  1.0  -0.2545
  N  N331  1  0.578800  0.782710  0.496570  1.0  -0.3125
  N  N332  1  0.138400  0.304700  0.247000  1.0  -0.1521
  N  N333  1  0.112100  0.757710  0.956370  1.0  -0.2589
  N  N334  1  0.778200  0.589190  0.509690  1.0  -0.3434
  N  N335  1  0.483400  0.175590  0.793140  1.0  -0.0804
  N  N336  1  0.928200  0.685310  0.948340  1.0  -0.139
  N  N337  1  0.813400  0.389850  0.723520  1.0  -0.3356
  N  N338  1  0.667600  0.245760  0.785040  1.0  -0.2547
  N  N339  1  0.078800  0.717290  0.996570  1.0  -0.313
  N  N340  1  0.638400  0.195300  0.747000  1.0  -0.1515
  O  O341  1  0.677740  0.075620  0.096520  1.0  -0.596
  O  O342  1  0.377000  0.526710  0.190490  1.0  -0.5482
  O  O343  1  0.178050  0.559570  0.170120  1.0  -0.6102
  O  O344  1  0.546490  0.227330  0.039200  1.0  -0.5878
  O  O345  1  0.633210  0.294180  0.098020  1.0  -0.6206
  O  O346  1  0.869500  0.023210  0.078400  1.0  -0.6075
  O  O347  1  0.075400  0.775600  0.176480  1.0  -0.562
  O  O348  1  0.966700  0.683600  0.218980  1.0  -0.5825
  O  O349  1  0.177740  0.424380  0.596520  1.0  -0.596
  O  O350  1  0.877000  0.973290  0.690490  1.0  -0.5479
  O  O351  1  0.678050  0.940430  0.670120  1.0  -0.6106
  O  O352  1  0.046490  0.272670  0.539200  1.0  -0.5878
  O  O353  1  0.133210  0.205820  0.598020  1.0  -0.6207
  O  O354  1  0.369500  0.476790  0.578400  1.0  -0.6068
  O  O355  1  0.575400  0.724400  0.676480  1.0  -0.5613
  O  O356  1  0.466700  0.816400  0.718980  1.0  -0.5833
  O  O357  1  0.822260  0.575620  0.403480  1.0  -0.5971
  O  O358  1  0.123000  0.026710  0.309510  1.0  -0.5492
  O  O359  1  0.321950  0.059570  0.329880  1.0  -0.6105
  O  O360  1  0.953510  0.727330  0.460800  1.0  -0.5881
  O  O361  1  0.866790  0.794180  0.401980  1.0  -0.6225
  O  O362  1  0.630500  0.523210  0.421600  1.0  -0.6069
  O  O363  1  0.424600  0.275600  0.323520  1.0  -0.564
  O  O364  1  0.533300  0.183600  0.281020  1.0  -0.5824
  O  O365  1  0.322260  0.924380  0.903480  1.0  -0.5973
  O  O366  1  0.623000  0.473290  0.809510  1.0  -0.5497
  O  O367  1  0.821950  0.440430  0.829880  1.0  -0.6108
  O  O368  1  0.453510  0.772670  0.960800  1.0  -0.5881
  O  O369  1  0.366790  0.705820  0.901980  1.0  -0.6227
  O  O370  1  0.130500  0.976790  0.921600  1.0  -0.6066
  O  O371  1  0.924600  0.224400  0.823520  1.0  -0.5636
  O  O372  1  0.033300  0.316400  0.781020  1.0  -0.5836
