# generated using pymatgen
data_ZnH10C10(NO4)2
_symmetry_space_group_name_H-M   'P 1'
_cell_length_a   9.58660000
_cell_length_b   9.58660000
_cell_length_c   11.07200000
_cell_angle_alpha   91.18710000
_cell_angle_beta   91.18710000
_cell_angle_gamma   105.87800000
_symmetry_Int_Tables_number   1
_chemical_formula_structural   ZnH10C10(NO4)2
_chemical_formula_sum   'Zn2 H20 C20 N4 O16'
_cell_volume   978.14732020
_cell_formula_units_Z   2
loop_
 _symmetry_equiv_pos_site_id
 _symmetry_equiv_pos_as_xyz
  1  'x, y, z'
loop_
 _atom_site_type_symbol
 _atom_site_label
 _atom_site_symmetry_multiplicity
 _atom_site_fract_x
 _atom_site_fract_y
 _atom_site_fract_z
 _atom_site_occupancy
 _atom_site_charge
  Zn  Zn1  1  0.994950  0.005050  0.750000  1.0  0.9775
  Zn  Zn2  1  0.005050  0.994950  0.250000  1.0  0.9773
  H  H3  1  0.446000  0.950000  0.788000  1.0  0.1128
  H  H4  1  0.050000  0.554000  0.712000  1.0  0.1129
  H  H5  1  0.554000  0.050000  0.212000  1.0  0.1131
  H  H6  1  0.950000  0.446000  0.288000  1.0  0.1134
  H  H7  1  0.856000  0.596000  0.980000  1.0  0.343
  H  H8  1  0.779000  0.739000  0.956000  1.0  0.3827
  H  H9  1  0.919000  0.745000  0.954000  1.0  0.3685
  H  H10  1  0.878000  0.732000  0.088000  1.0  0.3787
  H  H11  1  0.404000  0.144000  0.520000  1.0  0.3801
  H  H12  1  0.261000  0.221000  0.544000  1.0  0.3717
  H  H13  1  0.255000  0.081000  0.546000  1.0  0.3687
  H  H14  1  0.268000  0.122000  0.412000  1.0  0.3558
  H  H15  1  0.144000  0.404000  0.020000  1.0  0.3742
  H  H16  1  0.221000  0.261000  0.044000  1.0  0.3813
  H  H17  1  0.081000  0.255000  0.046000  1.0  0.3689
  H  H18  1  0.122000  0.268000  0.912000  1.0  0.3663
  H  H19  1  0.596000  0.856000  0.480000  1.0  0.3838
  H  H20  1  0.739000  0.779000  0.456000  1.0  0.3725
  H  H21  1  0.745000  0.919000  0.454000  1.0  0.368
  H  H22  1  0.732000  0.878000  0.588000  1.0  0.3811
  C  C23  1  0.207520  0.947980  0.899660  1.0  0.7107
  C  C24  1  0.357860  0.978620  0.955650  1.0  -0.0621
  C  C25  1  0.469140  0.978360  0.877890  1.0  -0.077
  C  C26  1  0.388550  0.000970  0.079620  1.0  -0.1243
  C  C27  1  0.274170  0.005010  0.169210  1.0  0.6829
  C  C28  1  0.052020  0.792480  0.600340  1.0  0.7115
  C  C29  1  0.021380  0.642140  0.544350  1.0  -0.0632
  C  C30  1  0.021640  0.530860  0.622110  1.0  -0.077
  C  C31  1  0.999030  0.611450  0.420380  1.0  -0.1239
  C  C32  1  0.994990  0.725830  0.330790  1.0  0.6828
  C  C33  1  0.792480  0.052020  0.100340  1.0  0.7121
  C  C34  1  0.642140  0.021380  0.044350  1.0  -0.0629
  C  C35  1  0.530860  0.021640  0.122110  1.0  -0.0777
  C  C36  1  0.611450  0.999030  0.920380  1.0  -0.1253
  C  C37  1  0.725830  0.994990  0.830790  1.0  0.682
  C  C38  1  0.947980  0.207520  0.399660  1.0  0.7127
  C  C39  1  0.978620  0.357860  0.455650  1.0  -0.0639
  C  C40  1  0.978360  0.469140  0.377890  1.0  -0.0769
  C  C41  1  0.000970  0.388550  0.579620  1.0  -0.1248
  C  C42  1  0.005010  0.274170  0.669210  1.0  0.6832
  N  N43  1  0.849000  0.696800  0.998000  1.0  -0.713
  N  N44  1  0.303200  0.151000  0.502000  1.0  -0.7114
  N  N45  1  0.151000  0.303200  0.002000  1.0  -0.7126
  N  N46  1  0.696800  0.849000  0.498000  1.0  -0.7141
  O  O47  1  0.178440  0.054160  0.846940  1.0  -0.6647
  O  O48  1  0.125940  0.823540  0.900310  1.0  -0.6154
  O  O49  1  0.298510  0.991890  0.277950  1.0  -0.6203
  O  O50  1  0.156390  0.023170  0.127550  1.0  -0.6056
  O  O51  1  0.945840  0.821560  0.653060  1.0  -0.6646
  O  O52  1  0.176460  0.874060  0.599690  1.0  -0.6153
  O  O53  1  0.008110  0.701490  0.222050  1.0  -0.6191
  O  O54  1  0.976830  0.843610  0.372450  1.0  -0.6069
  O  O55  1  0.821560  0.945840  0.153060  1.0  -0.6654
  O  O56  1  0.874060  0.176460  0.099690  1.0  -0.6136
  O  O57  1  0.701490  0.008110  0.722050  1.0  -0.6204
  O  O58  1  0.843610  0.976830  0.872450  1.0  -0.6059
  O  O59  1  0.054160  0.178440  0.346940  1.0  -0.6627
  O  O60  1  0.823540  0.125940  0.400310  1.0  -0.6142
  O  O61  1  0.991890  0.298510  0.777950  1.0  -0.619
  O  O62  1  0.023170  0.156390  0.627550  1.0  -0.6068
