# generated using pymatgen
data_CdH8(CO)8
_symmetry_space_group_name_H-M   'P 1'
_cell_length_a   7.41940000
_cell_length_b   17.96300000
_cell_length_c   24.57400000
_cell_angle_alpha   90.00000000
_cell_angle_beta   90.00000000
_cell_angle_gamma   90.00000000
_symmetry_Int_Tables_number   1
_chemical_formula_structural   CdH8(CO)8
_chemical_formula_sum   'Cd8 H64 C64 O64'
_cell_volume   3275.09204038
_cell_formula_units_Z   8
loop_
 _symmetry_equiv_pos_site_id
 _symmetry_equiv_pos_as_xyz
  1  'x, y, z'
loop_
 _atom_site_type_symbol
 _atom_site_label
 _atom_site_symmetry_multiplicity
 _atom_site_fract_x
 _atom_site_fract_y
 _atom_site_fract_z
 _atom_site_occupancy
 _atom_site_charge
  Cd  Cd1  1  0.125000  0.625000  0.125000  1.0  1.0735
  Cd  Cd2  1  0.625000  0.625000  0.625000  1.0  1.0735
  Cd  Cd3  1  0.625000  0.125000  0.125000  1.0  1.0735
  Cd  Cd4  1  0.125000  0.125000  0.625000  1.0  1.0735
  Cd  Cd5  1  0.875000  0.375000  0.875000  1.0  1.0735
  Cd  Cd6  1  0.375000  0.375000  0.375000  1.0  1.0735
  Cd  Cd7  1  0.375000  0.875000  0.875000  1.0  1.0735
  Cd  Cd8  1  0.875000  0.875000  0.375000  1.0  1.0735
  H  H9  1  0.634000  0.700200  0.025600  1.0  0.1466
  H  H10  1  0.767200  0.677700  0.975600  1.0  0.1672
  H  H11  1  0.634000  0.200200  0.525600  1.0  0.1466
  H  H12  1  0.767200  0.177700  0.475600  1.0  0.1672
  H  H13  1  0.134000  0.700200  0.525600  1.0  0.1466
  H  H14  1  0.267200  0.677700  0.475600  1.0  0.1672
  H  H15  1  0.134000  0.200200  0.025600  1.0  0.1466
  H  H16  1  0.267200  0.177700  0.975600  1.0  0.1672
  H  H17  1  0.116000  0.049800  0.025600  1.0  0.1494
  H  H18  1  0.982800  0.072300  0.975600  1.0  0.1663
  H  H19  1  0.116000  0.549800  0.525600  1.0  0.1494
  H  H20  1  0.982800  0.572300  0.475600  1.0  0.1663
  H  H21  1  0.616000  0.049800  0.525600  1.0  0.1494
  H  H22  1  0.482800  0.072300  0.475600  1.0  0.1663
  H  H23  1  0.616000  0.549800  0.025600  1.0  0.1494
  H  H24  1  0.482800  0.572300  0.975600  1.0  0.1663
  H  H25  1  0.116000  0.700200  0.724400  1.0  0.1489
  H  H26  1  0.982800  0.677700  0.774400  1.0  0.1677
  H  H27  1  0.116000  0.200200  0.224400  1.0  0.1489
  H  H28  1  0.982800  0.177700  0.274400  1.0  0.1677
  H  H29  1  0.616000  0.700200  0.224400  1.0  0.1489
  H  H30  1  0.482800  0.677700  0.274400  1.0  0.1677
  H  H31  1  0.616000  0.200200  0.724400  1.0  0.1489
  H  H32  1  0.482800  0.177700  0.774400  1.0  0.1677
  H  H33  1  0.634000  0.049800  0.724400  1.0  0.1464
  H  H34  1  0.767200  0.072300  0.774400  1.0  0.1671
  H  H35  1  0.634000  0.549800  0.224400  1.0  0.1464
  H  H36  1  0.767200  0.572300  0.274400  1.0  0.1671
  H  H37  1  0.134000  0.049800  0.224400  1.0  0.1464
  H  H38  1  0.267200  0.072300  0.274400  1.0  0.1671
  H  H39  1  0.134000  0.549800  0.724400  1.0  0.1464
  H  H40  1  0.267200  0.572300  0.774400  1.0  0.1671
  H  H41  1  0.366000  0.299800  0.974400  1.0  0.1493
  H  H42  1  0.232800  0.322300  0.024400  1.0  0.1667
  H  H43  1  0.366000  0.799800  0.474400  1.0  0.1493
  H  H44  1  0.232800  0.822300  0.524400  1.0  0.1667
  H  H45  1  0.866000  0.299800  0.474400  1.0  0.1493
  H  H46  1  0.732800  0.322300  0.524400  1.0  0.1667
  H  H47  1  0.866000  0.799800  0.974400  1.0  0.1493
  H  H48  1  0.732800  0.822300  0.024400  1.0  0.1667
  H  H49  1  0.884000  0.950200  0.974400  1.0  0.1469
  H  H50  1  0.017200  0.927700  0.024400  1.0  0.168
  H  H51  1  0.884000  0.450200  0.474400  1.0  0.1469
  H  H52  1  0.017200  0.427700  0.524400  1.0  0.168
  H  H53  1  0.384000  0.950200  0.474400  1.0  0.1469
  H  H54  1  0.517200  0.927700  0.524400  1.0  0.168
  H  H55  1  0.384000  0.450200  0.974400  1.0  0.1469
  H  H56  1  0.517200  0.427700  0.024400  1.0  0.168
  H  H57  1  0.884000  0.299800  0.275600  1.0  0.1472
  H  H58  1  0.017200  0.322300  0.225600  1.0  0.1669
  H  H59  1  0.884000  0.799800  0.775600  1.0  0.1472
  H  H60  1  0.017200  0.822300  0.725600  1.0  0.1669
  H  H61  1  0.384000  0.299800  0.775600  1.0  0.1472
  H  H62  1  0.517200  0.322300  0.725600  1.0  0.1669
  H  H63  1  0.384000  0.799800  0.275600  1.0  0.1472
  H  H64  1  0.517200  0.822300  0.225600  1.0  0.1669
  H  H65  1  0.366000  0.950200  0.275600  1.0  0.1494
  H  H66  1  0.232800  0.927700  0.225600  1.0  0.1669
  H  H67  1  0.366000  0.450200  0.775600  1.0  0.1494
  H  H68  1  0.232800  0.427700  0.725600  1.0  0.1669
  H  H69  1  0.866000  0.950200  0.775600  1.0  0.1494
  H  H70  1  0.732800  0.927700  0.725600  1.0  0.1669
  H  H71  1  0.866000  0.450200  0.275600  1.0  0.1494
  H  H72  1  0.732800  0.427700  0.225600  1.0  0.1669
  C  C73  1  0.883700  0.684650  0.050300  1.0  0.7778
  C  C74  1  0.745700  0.709270  0.008130  1.0  -0.2079
  C  C75  1  0.883700  0.184650  0.550300  1.0  0.7778
  C  C76  1  0.745700  0.209270  0.508130  1.0  -0.2079
  C  C77  1  0.383700  0.684650  0.550300  1.0  0.7778
  C  C78  1  0.245700  0.709270  0.508130  1.0  -0.2079
  C  C79  1  0.383700  0.184650  0.050300  1.0  0.7778
  C  C80  1  0.245700  0.209270  0.008130  1.0  -0.2079
  C  C81  1  0.866300  0.065350  0.050300  1.0  0.7799
  C  C82  1  0.004300  0.040730  0.008130  1.0  -0.2077
  C  C83  1  0.866300  0.565350  0.550300  1.0  0.7799
  C  C84  1  0.004300  0.540730  0.508130  1.0  -0.2077
  C  C85  1  0.366300  0.065350  0.550300  1.0  0.7799
  C  C86  1  0.504300  0.040730  0.508130  1.0  -0.2077
  C  C87  1  0.366300  0.565350  0.050300  1.0  0.7799
  C  C88  1  0.504300  0.540730  0.008130  1.0  -0.2077
  C  C89  1  0.866300  0.684650  0.699700  1.0  0.7803
  C  C90  1  0.004300  0.709270  0.741870  1.0  -0.2083
  C  C91  1  0.866300  0.184650  0.199700  1.0  0.7803
  C  C92  1  0.004300  0.209270  0.241870  1.0  -0.2083
  C  C93  1  0.366300  0.684650  0.199700  1.0  0.7803
  C  C94  1  0.504300  0.709270  0.241870  1.0  -0.2083
  C  C95  1  0.366300  0.184650  0.699700  1.0  0.7803
  C  C96  1  0.504300  0.209270  0.741870  1.0  -0.2083
  C  C97  1  0.883700  0.065350  0.699700  1.0  0.7785
  C  C98  1  0.745700  0.040730  0.741870  1.0  -0.2088
  C  C99  1  0.883700  0.565350  0.199700  1.0  0.7785
  C  C100  1  0.745700  0.540730  0.241870  1.0  -0.2088
  C  C101  1  0.383700  0.065350  0.199700  1.0  0.7785
  C  C102  1  0.245700  0.040730  0.241870  1.0  -0.2088
  C  C103  1  0.383700  0.565350  0.699700  1.0  0.7785
  C  C104  1  0.245700  0.540730  0.741870  1.0  -0.2088
  C  C105  1  0.116300  0.315350  0.949700  1.0  0.7802
  C  C106  1  0.254300  0.290730  0.991870  1.0  -0.2092
  C  C107  1  0.116300  0.815350  0.449700  1.0  0.7802
  C  C108  1  0.254300  0.790730  0.491870  1.0  -0.2092
  C  C109  1  0.616300  0.315350  0.449700  1.0  0.7802
  C  C110  1  0.754300  0.290730  0.491870  1.0  -0.2092
  C  C111  1  0.616300  0.815350  0.949700  1.0  0.7802
  C  C112  1  0.754300  0.790730  0.991870  1.0  -0.2092
  C  C113  1  0.133700  0.934650  0.949700  1.0  0.7786
  C  C114  1  0.995700  0.959270  0.991870  1.0  -0.2094
  C  C115  1  0.133700  0.434650  0.449700  1.0  0.7786
  C  C116  1  0.995700  0.459270  0.491870  1.0  -0.2094
  C  C117  1  0.633700  0.934650  0.449700  1.0  0.7786
  C  C118  1  0.495700  0.959270  0.491870  1.0  -0.2094
  C  C119  1  0.633700  0.434650  0.949700  1.0  0.7786
  C  C120  1  0.495700  0.459270  0.991870  1.0  -0.2094
  C  C121  1  0.133700  0.315350  0.300300  1.0  0.7778
  C  C122  1  0.995700  0.290730  0.258130  1.0  -0.2088
  C  C123  1  0.133700  0.815350  0.800300  1.0  0.7778
  C  C124  1  0.995700  0.790730  0.758130  1.0  -0.2088
  C  C125  1  0.633700  0.315350  0.800300  1.0  0.7778
  C  C126  1  0.495700  0.290730  0.758130  1.0  -0.2088
  C  C127  1  0.633700  0.815350  0.300300  1.0  0.7778
  C  C128  1  0.495700  0.790730  0.258130  1.0  -0.2088
  C  C129  1  0.116300  0.934650  0.300300  1.0  0.7798
  C  C130  1  0.254300  0.959270  0.258130  1.0  -0.2085
  C  C131  1  0.116300  0.434650  0.800300  1.0  0.7798
  C  C132  1  0.254300  0.459270  0.758130  1.0  -0.2085
  C  C133  1  0.616300  0.934650  0.800300  1.0  0.7798
  C  C134  1  0.754300  0.959270  0.758130  1.0  -0.2085
  C  C135  1  0.616300  0.434650  0.300300  1.0  0.7798
  C  C136  1  0.754300  0.459270  0.258130  1.0  -0.2085
  O  O137  1  0.915300  0.615530  0.053650  1.0  -0.5817
  O  O138  1  0.962600  0.519320  0.169990  1.0  -0.5733
  O  O139  1  0.915300  0.115530  0.553650  1.0  -0.5817
  O  O140  1  0.962600  0.019320  0.669990  1.0  -0.5733
  O  O141  1  0.415300  0.615530  0.553650  1.0  -0.5817
  O  O142  1  0.462600  0.519320  0.669990  1.0  -0.5733
  O  O143  1  0.415300  0.115530  0.053650  1.0  -0.5817
  O  O144  1  0.462600  0.019320  0.169990  1.0  -0.5733
  O  O145  1  0.834700  0.134470  0.053650  1.0  -0.5806
  O  O146  1  0.787400  0.230680  0.169990  1.0  -0.5723
  O  O147  1  0.834700  0.634470  0.553650  1.0  -0.5806
  O  O148  1  0.787400  0.730680  0.669990  1.0  -0.5723
  O  O149  1  0.334700  0.134470  0.553650  1.0  -0.5806
  O  O150  1  0.287400  0.230680  0.669990  1.0  -0.5723
  O  O151  1  0.334700  0.634470  0.053650  1.0  -0.5806
  O  O152  1  0.287400  0.730680  0.169990  1.0  -0.5723
  O  O153  1  0.834700  0.615530  0.696350  1.0  -0.5812
  O  O154  1  0.787400  0.519320  0.580010  1.0  -0.5728
  O  O155  1  0.834700  0.115530  0.196350  1.0  -0.5812
  O  O156  1  0.787400  0.019320  0.080010  1.0  -0.5728
  O  O157  1  0.334700  0.615530  0.196350  1.0  -0.5812
  O  O158  1  0.287400  0.519320  0.080010  1.0  -0.5728
  O  O159  1  0.334700  0.115530  0.696350  1.0  -0.5812
  O  O160  1  0.287400  0.019320  0.580010  1.0  -0.5728
  O  O161  1  0.915300  0.134470  0.696350  1.0  -0.5813
  O  O162  1  0.962600  0.230680  0.580010  1.0  -0.5747
  O  O163  1  0.915300  0.634470  0.196350  1.0  -0.5813
  O  O164  1  0.962600  0.730680  0.080010  1.0  -0.5747
  O  O165  1  0.415300  0.134470  0.196350  1.0  -0.5813
  O  O166  1  0.462600  0.230680  0.080010  1.0  -0.5747
  O  O167  1  0.415300  0.634470  0.696350  1.0  -0.5813
  O  O168  1  0.462600  0.730680  0.580010  1.0  -0.5747
  O  O169  1  0.084700  0.384470  0.946350  1.0  -0.5811
  O  O170  1  0.037400  0.480680  0.830010  1.0  -0.5726
  O  O171  1  0.084700  0.884470  0.446350  1.0  -0.5811
  O  O172  1  0.037400  0.980680  0.330010  1.0  -0.5726
  O  O173  1  0.584700  0.384470  0.446350  1.0  -0.5811
  O  O174  1  0.537400  0.480680  0.330010  1.0  -0.5726
  O  O175  1  0.584700  0.884470  0.946350  1.0  -0.5811
  O  O176  1  0.537400  0.980680  0.830010  1.0  -0.5726
  O  O177  1  0.165300  0.865530  0.946350  1.0  -0.582
  O  O178  1  0.212600  0.769320  0.830010  1.0  -0.5731
  O  O179  1  0.165300  0.365530  0.446350  1.0  -0.582
  O  O180  1  0.212600  0.269320  0.330010  1.0  -0.5731
  O  O181  1  0.665300  0.865530  0.446350  1.0  -0.582
  O  O182  1  0.712600  0.769320  0.330010  1.0  -0.5731
  O  O183  1  0.665300  0.365530  0.946350  1.0  -0.582
  O  O184  1  0.712600  0.269320  0.830010  1.0  -0.5731
  O  O185  1  0.165300  0.384470  0.303650  1.0  -0.581
  O  O186  1  0.212600  0.480680  0.419990  1.0  -0.5731
  O  O187  1  0.165300  0.884470  0.803650  1.0  -0.581
  O  O188  1  0.212600  0.980680  0.919990  1.0  -0.5731
  O  O189  1  0.665300  0.384470  0.803650  1.0  -0.581
  O  O190  1  0.712600  0.480680  0.919990  1.0  -0.5731
  O  O191  1  0.665300  0.884470  0.303650  1.0  -0.581
  O  O192  1  0.712600  0.980680  0.419990  1.0  -0.5731
  O  O193  1  0.084700  0.865530  0.303650  1.0  -0.5809
  O  O194  1  0.037400  0.769320  0.419990  1.0  -0.5704
  O  O195  1  0.084700  0.365530  0.803650  1.0  -0.5809
  O  O196  1  0.037400  0.269320  0.919990  1.0  -0.5704
  O  O197  1  0.584700  0.865530  0.803650  1.0  -0.5809
  O  O198  1  0.537400  0.769320  0.919990  1.0  -0.5704
  O  O199  1  0.584700  0.365530  0.303650  1.0  -0.5809
  O  O200  1  0.537400  0.269320  0.419990  1.0  -0.5704
