# generated using pymatgen
data_CdC3(SN)3
_symmetry_space_group_name_H-M   'P 1'
_cell_length_a   9.67500000
_cell_length_b   17.48900000
_cell_length_c   14.35400000
_cell_angle_alpha   75.41600000
_cell_angle_beta   90.00000000
_cell_angle_gamma   90.00000000
_symmetry_Int_Tables_number   1
_chemical_formula_structural   CdC3(SN)3
_chemical_formula_sum   'Cd8 C24 S24 N24'
_cell_volume   2350.52742345
_cell_formula_units_Z   8
loop_
 _symmetry_equiv_pos_site_id
 _symmetry_equiv_pos_as_xyz
  1  'x, y, z'
loop_
 _atom_site_type_symbol
 _atom_site_label
 _atom_site_symmetry_multiplicity
 _atom_site_fract_x
 _atom_site_fract_y
 _atom_site_fract_z
 _atom_site_occupancy
 _atom_site_charge
  Cd  Cd1  1  0.454970  0.678530  0.451420  1.0  0.8805
  Cd  Cd2  1  0.962280  0.832390  0.547990  1.0  0.6428
  Cd  Cd3  1  0.954970  0.321470  0.048580  1.0  0.8803
  Cd  Cd4  1  0.462280  0.167610  0.952010  1.0  0.6422
  Cd  Cd5  1  0.545030  0.321470  0.548580  1.0  0.8799
  Cd  Cd6  1  0.037720  0.167610  0.452010  1.0  0.6416
  Cd  Cd7  1  0.045030  0.678530  0.951420  1.0  0.8804
  Cd  Cd8  1  0.537720  0.832390  0.047990  1.0  0.6422
  C  C9  1  0.244100  0.721600  0.626900  1.0  0.3354
  C  C10  1  0.147400  0.756800  0.398100  1.0  0.3219
  C  C11  1  0.345800  0.482500  0.448900  1.0  0.346
  C  C12  1  0.630300  0.700300  0.242100  1.0  0.335
  C  C13  1  0.653800  0.842600  0.446200  1.0  0.3107
  C  C14  1  0.924300  0.003600  0.603800  1.0  0.3079
  C  C15  1  0.744100  0.278400  0.873100  1.0  0.3347
  C  C16  1  0.647400  0.243200  0.101900  1.0  0.3204
  C  C17  1  0.845800  0.517500  0.051100  1.0  0.347
  C  C18  1  0.130300  0.299700  0.257900  1.0  0.3347
  C  C19  1  0.153800  0.157400  0.053800  1.0  0.3134
  C  C20  1  0.424300  0.996400  0.896200  1.0  0.31
  C  C21  1  0.755900  0.278400  0.373100  1.0  0.3351
  C  C22  1  0.852600  0.243200  0.601900  1.0  0.3194
  C  C23  1  0.654200  0.517500  0.551100  1.0  0.3473
  C  C24  1  0.369700  0.299700  0.757900  1.0  0.3352
  C  C25  1  0.346200  0.157400  0.553800  1.0  0.3165
  C  C26  1  0.075700  0.996400  0.396200  1.0  0.3195
  C  C27  1  0.255900  0.721600  0.126900  1.0  0.3361
  C  C28  1  0.352600  0.756800  0.898100  1.0  0.321
  C  C29  1  0.154200  0.482500  0.948900  1.0  0.3465
  C  C30  1  0.869700  0.700300  0.742100  1.0  0.3332
  C  C31  1  0.846200  0.842600  0.946200  1.0  0.3148
  C  C32  1  0.575700  0.003600  0.103800  1.0  0.3181
  S  S33  1  0.379410  0.663770  0.638750  1.0  -0.1866
  S  S34  1  0.977870  0.758080  0.403450  1.0  -0.1485
  S  S35  1  0.268300  0.568220  0.409840  1.0  -0.1955
  S  S36  1  0.721180  0.724780  0.141960  1.0  -0.1783
  S  S37  1  0.751150  0.919530  0.444690  1.0  -0.1624
  S  S38  1  0.957250  0.919020  0.680310  1.0  -0.1344
  S  S39  1  0.879410  0.336230  0.861250  1.0  -0.1863
  S  S40  1  0.477870  0.241920  0.096550  1.0  -0.1494
  S  S41  1  0.768300  0.431780  0.090160  1.0  -0.1959
  S  S42  1  0.221180  0.275220  0.358040  1.0  -0.1794
  S  S43  1  0.251150  0.080470  0.055310  1.0  -0.1618
  S  S44  1  0.457250  0.080980  0.819690  1.0  -0.1324
  S  S45  1  0.620590  0.336230  0.361250  1.0  -0.1865
  S  S46  1  0.022130  0.241920  0.596550  1.0  -0.15
  S  S47  1  0.731700  0.431780  0.590160  1.0  -0.1957
  S  S48  1  0.278820  0.275220  0.858040  1.0  -0.1792
  S  S49  1  0.248850  0.080470  0.555310  1.0  -0.1615
  S  S50  1  0.042750  0.080980  0.319690  1.0  -0.1319
  S  S51  1  0.120590  0.663770  0.138750  1.0  -0.1868
  S  S52  1  0.522130  0.758080  0.903450  1.0  -0.1494
  S  S53  1  0.231700  0.568220  0.909840  1.0  -0.195
  S  S54  1  0.778820  0.724780  0.641960  1.0  -0.1784
  S  S55  1  0.748850  0.919530  0.944690  1.0  -0.162
  S  S56  1  0.542750  0.919020  0.180310  1.0  -0.1342
  N  N57  1  0.150000  0.762300  0.618200  1.0  -0.4038
  N  N58  1  0.267900  0.756300  0.393200  1.0  -0.4251
  N  N59  1  0.396500  0.421900  0.476400  1.0  -0.4226
  N  N60  1  0.568700  0.681100  0.312200  1.0  -0.4085
  N  N61  1  0.583700  0.788800  0.450400  1.0  -0.4124
  N  N62  1  0.899600  0.063100  0.549900  1.0  -0.4093
  N  N63  1  0.650000  0.237700  0.881800  1.0  -0.4019
  N  N64  1  0.767900  0.243700  0.106800  1.0  -0.4235
  N  N65  1  0.896500  0.578100  0.023600  1.0  -0.4239
  N  N66  1  0.068700  0.318900  0.187800  1.0  -0.409
  N  N67  1  0.083700  0.211200  0.049600  1.0  -0.4134
  N  N68  1  0.399600  0.936900  0.950100  1.0  -0.4083
  N  N69  1  0.850000  0.237700  0.381800  1.0  -0.4024
  N  N70  1  0.732100  0.243700  0.606800  1.0  -0.4221
  N  N71  1  0.603500  0.578100  0.523600  1.0  -0.4307
  N  N72  1  0.431300  0.318900  0.687800  1.0  -0.4096
  N  N73  1  0.416300  0.211200  0.549600  1.0  -0.41
  N  N74  1  0.100400  0.936900  0.450100  1.0  -0.407
  N  N75  1  0.350000  0.762300  0.118200  1.0  -0.4043
  N  N76  1  0.232100  0.756300  0.893200  1.0  -0.424
  N  N77  1  0.103500  0.421900  0.976400  1.0  -0.4286
  N  N78  1  0.931300  0.681100  0.812200  1.0  -0.4099
  N  N79  1  0.916300  0.788800  0.950400  1.0  -0.4098
  N  N80  1  0.600400  0.063100  0.049900  1.0  -0.408
