# generated using pymatgen
data_CuH2C7O6
_symmetry_space_group_name_H-M   'P 1'
_cell_length_a   8.53000000
_cell_length_b   11.28000000
_cell_length_c   13.91700000
_cell_angle_alpha   90.00000000
_cell_angle_beta   112.75000000
_cell_angle_gamma   90.00000000
_symmetry_Int_Tables_number   1
_chemical_formula_structural   CuH2C7O6
_chemical_formula_sum   'Cu4 H8 C28 O24'
_cell_volume   1234.89301335
_cell_formula_units_Z   4
loop_
 _symmetry_equiv_pos_site_id
 _symmetry_equiv_pos_as_xyz
  1  'x, y, z'
loop_
 _atom_site_type_symbol
 _atom_site_label
 _atom_site_symmetry_multiplicity
 _atom_site_fract_x
 _atom_site_fract_y
 _atom_site_fract_z
 _atom_site_occupancy
 _atom_site_charge
  Cu  Cu1  1  0.616420  0.412230  0.530930  1.0  0.901
  Cu  Cu2  1  0.383580  0.912230  0.969070  1.0  0.9027
  Cu  Cu3  1  0.383580  0.587770  0.469070  1.0  0.9043
  Cu  Cu4  1  0.616420  0.087770  0.030930  1.0  0.9029
  H  H5  1  0.003800  0.596100  0.454300  1.0  0.1166
  H  H6  1  0.007300  0.872200  0.266900  1.0  0.1284
  H  H7  1  0.996200  0.096100  0.045700  1.0  0.1162
  H  H8  1  0.992700  0.372200  0.233100  1.0  0.1277
  H  H9  1  0.996200  0.403900  0.545700  1.0  0.1153
  H  H10  1  0.992700  0.127800  0.733100  1.0  0.1277
  H  H11  1  0.003800  0.903900  0.954300  1.0  0.116
  H  H12  1  0.007300  0.627800  0.766900  1.0  0.1283
  C  C13  1  0.950300  0.653300  0.404200  1.0  -0.0654
  C  C14  1  0.779700  0.662000  0.364600  1.0  0.1571
  C  C15  1  0.781200  0.811100  0.251200  1.0  0.168
  C  C16  1  0.952200  0.815100  0.290700  1.0  -0.0627
  C  C17  1  0.050700  0.731700  0.369500  1.0  0.2623
  C  C18  1  0.669100  0.595600  0.408800  1.0  0.6985
  C  C19  1  0.671600  0.884400  0.159100  1.0  0.7093
  C  C20  1  0.049700  0.153300  0.095800  1.0  -0.0665
  C  C21  1  0.220300  0.162000  0.135400  1.0  0.1573
  C  C22  1  0.218800  0.311100  0.248800  1.0  0.1685
  C  C23  1  0.047800  0.315100  0.209300  1.0  -0.0627
  C  C24  1  0.949300  0.231700  0.130500  1.0  0.2632
  C  C25  1  0.330900  0.095600  0.091200  1.0  0.6984
  C  C26  1  0.328400  0.384400  0.340900  1.0  0.7096
  C  C27  1  0.049700  0.346700  0.595800  1.0  -0.0664
  C  C28  1  0.220300  0.338000  0.635400  1.0  0.1575
  C  C29  1  0.218800  0.188900  0.748800  1.0  0.1685
  C  C30  1  0.047800  0.184900  0.709300  1.0  -0.0618
  C  C31  1  0.949300  0.268300  0.630500  1.0  0.2631
  C  C32  1  0.330900  0.404400  0.591200  1.0  0.6989
  C  C33  1  0.328400  0.115600  0.840900  1.0  0.7096
  C  C34  1  0.950300  0.846700  0.904200  1.0  -0.0656
  C  C35  1  0.779700  0.838000  0.864600  1.0  0.1576
  C  C36  1  0.781200  0.688900  0.751200  1.0  0.1677
  C  C37  1  0.952200  0.684900  0.790700  1.0  -0.0613
  C  C38  1  0.050700  0.768300  0.869500  1.0  0.2618
  C  C39  1  0.669100  0.904400  0.908800  1.0  0.6988
  C  C40  1  0.671600  0.615600  0.659100  1.0  0.7091
  O  O41  1  0.691200  0.737200  0.287170  1.0  -0.2275
  O  O42  1  0.208700  0.729000  0.403610  1.0  -0.5783
  O  O43  1  0.730600  0.500300  0.454900  1.0  -0.5557
  O  O44  1  0.533100  0.644300  0.399900  1.0  -0.5499
  O  O45  1  0.533600  0.838400  0.100600  1.0  -0.5554
  O  O46  1  0.732100  0.982000  0.149360  1.0  -0.5489
  O  O47  1  0.308800  0.237200  0.212830  1.0  -0.2254
  O  O48  1  0.791300  0.229000  0.096390  1.0  -0.5771
  O  O49  1  0.269400  0.000300  0.045100  1.0  -0.5568
  O  O50  1  0.466900  0.144300  0.100100  1.0  -0.5515
  O  O51  1  0.466400  0.338400  0.399400  1.0  -0.5557
  O  O52  1  0.267900  0.482000  0.350640  1.0  -0.5495
  O  O53  1  0.308800  0.262800  0.712830  1.0  -0.2254
  O  O54  1  0.791300  0.271000  0.596390  1.0  -0.5768
  O  O55  1  0.269400  0.499700  0.545100  1.0  -0.5563
  O  O56  1  0.466900  0.355700  0.600100  1.0  -0.5509
  O  O57  1  0.466400  0.161600  0.899400  1.0  -0.5552
  O  O58  1  0.267900  0.018000  0.850640  1.0  -0.5492
  O  O59  1  0.691200  0.762800  0.787170  1.0  -0.2275
  O  O60  1  0.208700  0.771000  0.903610  1.0  -0.5774
  O  O61  1  0.730600  0.999700  0.954900  1.0  -0.5539
  O  O62  1  0.533100  0.855700  0.899900  1.0  -0.551
  O  O63  1  0.533600  0.661600  0.600600  1.0  -0.5551
  O  O64  1  0.732100  0.518000  0.649360  1.0  -0.5493
