# generated using pymatgen
data_CdH8C14S2N6O
_symmetry_space_group_name_H-M   'P 1'
_cell_length_a   7.68000000
_cell_length_b   10.02900000
_cell_length_c   25.78600000
_cell_angle_alpha   90.00000000
_cell_angle_beta   93.77900000
_cell_angle_gamma   90.00000000
_symmetry_Int_Tables_number   1
_chemical_formula_structural   CdH8C14S2N6O
_chemical_formula_sum   'Cd4 H32 C56 S8 N24 O4'
_cell_volume   1981.78944757
_cell_formula_units_Z   4
loop_
 _symmetry_equiv_pos_site_id
 _symmetry_equiv_pos_as_xyz
  1  'x, y, z'
loop_
 _atom_site_type_symbol
 _atom_site_label
 _atom_site_symmetry_multiplicity
 _atom_site_fract_x
 _atom_site_fract_y
 _atom_site_fract_z
 _atom_site_occupancy
 _atom_site_charge
  Cd  Cd1  1  0.734720  0.258150  0.761520  1.0  0.8269
  Cd  Cd2  1  0.265280  0.758150  0.738480  1.0  0.8271
  Cd  Cd3  1  0.265280  0.741850  0.238480  1.0  0.8269
  Cd  Cd4  1  0.734720  0.241850  0.261520  1.0  0.8267
  H  H5  1  0.663600  0.515100  0.688900  1.0  0.0727
  H  H6  1  0.528100  0.591700  0.613300  1.0  0.1275
  H  H7  1  0.316000  0.230300  0.590500  1.0  0.1315
  H  H8  1  0.457100  0.163300  0.667200  1.0  0.0812
  H  H9  1  0.054700  0.586500  0.386700  1.0  0.1349
  H  H10  1  0.895100  0.502600  0.316100  1.0  0.0768
  H  H11  1  0.893700  0.148200  0.376600  1.0  0.0871
  H  H12  1  0.054700  0.220900  0.449900  1.0  0.1346
  H  H13  1  0.336400  0.015100  0.811100  1.0  0.0723
  H  H14  1  0.471900  0.091700  0.886700  1.0  0.1277
  H  H15  1  0.684000  0.730300  0.909500  1.0  0.1318
  H  H16  1  0.542900  0.663300  0.832800  1.0  0.0816
  H  H17  1  0.945300  0.086500  0.113300  1.0  0.1347
  H  H18  1  0.104900  0.002600  0.183900  1.0  0.0766
  H  H19  1  0.106300  0.648200  0.123400  1.0  0.0864
  H  H20  1  0.945300  0.720900  0.050100  1.0  0.1333
  H  H21  1  0.336400  0.484900  0.311100  1.0  0.0725
  H  H22  1  0.471900  0.408300  0.386700  1.0  0.1278
  H  H23  1  0.684000  0.769700  0.409500  1.0  0.1312
  H  H24  1  0.542900  0.836700  0.332800  1.0  0.0813
  H  H25  1  0.945300  0.413500  0.613300  1.0  0.1351
  H  H26  1  0.104900  0.497400  0.683900  1.0  0.0768
  H  H27  1  0.106300  0.851800  0.623400  1.0  0.0867
  H  H28  1  0.945300  0.779100  0.550100  1.0  0.135
  H  H29  1  0.663600  0.984900  0.188900  1.0  0.0728
  H  H30  1  0.528100  0.908300  0.113300  1.0  0.1273
  H  H31  1  0.316000  0.269700  0.090500  1.0  0.1323
  H  H32  1  0.457100  0.336700  0.167200  1.0  0.0813
  H  H33  1  0.054700  0.913500  0.886700  1.0  0.1354
  H  H34  1  0.895100  0.997400  0.816100  1.0  0.0768
  H  H35  1  0.893700  0.351800  0.876600  1.0  0.0875
  H  H36  1  0.054700  0.279100  0.949900  1.0  0.1344
  C  C37  1  0.594000  0.456700  0.668620  1.0  0.1788
  C  C38  1  0.513300  0.503500  0.623230  1.0  -0.1459
  C  C39  1  0.409600  0.418300  0.592210  1.0  0.012
  C  C40  1  0.387500  0.289600  0.609700  1.0  -0.1528
  C  C41  1  0.472700  0.250100  0.655800  1.0  0.1791
  C  C42  1  0.329000  0.467100  0.543800  1.0  0.3664
  C  C43  1  0.179800  0.464300  0.470820  1.0  0.3497
  C  C44  1  0.074900  0.411000  0.426090  1.0  0.0092
  C  C45  1  0.024400  0.496700  0.385340  1.0  -0.157
  C  C46  1  0.929000  0.445300  0.343270  1.0  0.1798
  C  C47  1  0.927900  0.237100  0.378700  1.0  0.1772
  C  C48  1  0.024700  0.279800  0.423000  1.0  -0.1562
  C  C49  1  0.096200  0.072200  0.714550  1.0  0.3646
  C  C50  1  0.382200  0.447700  0.781900  1.0  0.3581
  C  C51  1  0.406000  0.956700  0.831380  1.0  0.1791
  C  C52  1  0.486700  0.003500  0.876770  1.0  -0.1462
  C  C53  1  0.590400  0.918300  0.907790  1.0  0.0127
  C  C54  1  0.612500  0.789600  0.890300  1.0  -0.1538
  C  C55  1  0.527300  0.750100  0.844200  1.0  0.1791
  C  C56  1  0.671000  0.967100  0.956200  1.0  0.3673
  C  C57  1  0.820200  0.964300  0.029180  1.0  0.3487
  C  C58  1  0.925100  0.911000  0.073910  1.0  0.0092
  C  C59  1  0.975600  0.996700  0.114660  1.0  -0.1556
  C  C60  1  0.071000  0.945300  0.156730  1.0  0.1803
  C  C61  1  0.072100  0.737100  0.121300  1.0  0.1772
  C  C62  1  0.975300  0.779800  0.077000  1.0  -0.1549
  C  C63  1  0.903800  0.572200  0.785450  1.0  0.3652
  C  C64  1  0.617800  0.947700  0.718100  1.0  0.3599
  C  C65  1  0.406000  0.543300  0.331380  1.0  0.1793
  C  C66  1  0.486700  0.496500  0.376770  1.0  -0.1454
  C  C67  1  0.590400  0.581700  0.407790  1.0  0.0121
  C  C68  1  0.612500  0.710400  0.390300  1.0  -0.1538
  C  C69  1  0.527300  0.749900  0.344200  1.0  0.1798
  C  C70  1  0.671000  0.532900  0.456200  1.0  0.3667
  C  C71  1  0.820200  0.535700  0.529180  1.0  0.3481
  C  C72  1  0.925100  0.589000  0.573910  1.0  0.0091
  C  C73  1  0.975600  0.503300  0.614660  1.0  -0.1555
  C  C74  1  0.071000  0.554700  0.656730  1.0  0.1801
  C  C75  1  0.072100  0.762900  0.621300  1.0  0.1782
  C  C76  1  0.975300  0.720200  0.577000  1.0  -0.1552
  C  C77  1  0.903800  0.927800  0.285450  1.0  0.3644
  C  C78  1  0.617800  0.552300  0.218100  1.0  0.3599
  C  C79  1  0.594000  0.043300  0.168620  1.0  0.1788
  C  C80  1  0.513300  0.996500  0.123230  1.0  -0.1456
  C  C81  1  0.409600  0.081700  0.092210  1.0  0.0118
  C  C82  1  0.387500  0.210400  0.109700  1.0  -0.1534
  C  C83  1  0.472700  0.249900  0.155800  1.0  0.1795
  C  C84  1  0.329000  0.032900  0.043800  1.0  0.3661
  C  C85  1  0.179800  0.035700  0.970820  1.0  0.3492
  C  C86  1  0.074900  0.089000  0.926090  1.0  0.009
  C  C87  1  0.024400  0.003300  0.885340  1.0  -0.157
  C  C88  1  0.929000  0.054700  0.843270  1.0  0.1797
  C  C89  1  0.927900  0.262900  0.878700  1.0  0.1779
  C  C90  1  0.024700  0.220200  0.923000  1.0  -0.1559
  C  C91  1  0.096200  0.427800  0.214550  1.0  0.3649
  C  C92  1  0.382200  0.052300  0.281900  1.0  0.3578
  S  S93  1  0.019200  0.221350  0.701960  1.0  -0.4064
  S  S94  1  0.447700  0.314940  0.815550  1.0  -0.4078
  S  S95  1  0.980800  0.721350  0.798040  1.0  -0.4055
  S  S96  1  0.552300  0.814940  0.684450  1.0  -0.4061
  S  S97  1  0.980800  0.778650  0.298040  1.0  -0.4061
  S  S98  1  0.552300  0.685060  0.184450  1.0  -0.4058
  S  S99  1  0.019200  0.278650  0.201960  1.0  -0.4068
  S  S100  1  0.447700  0.185060  0.315550  1.0  -0.4074
  N  N101  1  0.577800  0.332100  0.685130  1.0  -0.3259
  N  N102  1  0.335000  0.586800  0.525180  1.0  -0.286
  N  N103  1  0.238300  0.584100  0.477070  1.0  -0.2758
  N  N104  1  0.882000  0.317700  0.339090  1.0  -0.3243
  N  N105  1  0.152800  0.969100  0.723730  1.0  -0.4995
  N  N106  1  0.341200  0.542000  0.758390  1.0  -0.5004
  N  N107  1  0.422200  0.832100  0.814870  1.0  -0.3357
  N  N108  1  0.665000  0.086800  0.974820  1.0  -0.2866
  N  N109  1  0.761700  0.084100  0.022930  1.0  -0.2756
  N  N110  1  0.118000  0.817700  0.160910  1.0  -0.3223
  N  N111  1  0.847200  0.469100  0.776270  1.0  -0.4985
  N  N112  1  0.658800  0.042000  0.741610  1.0  -0.502
  N  N113  1  0.422200  0.667900  0.314870  1.0  -0.3332
  N  N114  1  0.665000  0.413200  0.474820  1.0  -0.2867
  N  N115  1  0.761700  0.415900  0.522930  1.0  -0.2757
  N  N116  1  0.118000  0.682300  0.660910  1.0  -0.323
  N  N117  1  0.847200  0.030900  0.276270  1.0  -0.4981
  N  N118  1  0.658800  0.458000  0.241610  1.0  -0.5019
  N  N119  1  0.577800  0.167900  0.185130  1.0  -0.3268
  N  N120  1  0.335000  0.913200  0.025180  1.0  -0.2861
  N  N121  1  0.238300  0.915900  0.977070  1.0  -0.276
  N  N122  1  0.882000  0.182300  0.839090  1.0  -0.323
  N  N123  1  0.152800  0.530900  0.223730  1.0  -0.4996
  N  N124  1  0.341200  0.958000  0.258390  1.0  -0.5005
  O  O125  1  0.231700  0.383200  0.511690  1.0  -0.2088
  O  O126  1  0.768300  0.883200  0.988310  1.0  -0.2089
  O  O127  1  0.768300  0.616800  0.488310  1.0  -0.2109
  O  O128  1  0.231700  0.116800  0.011690  1.0  -0.2101
