# generated using pymatgen
data_Eu2H13C25O14
_symmetry_space_group_name_H-M   'P 1'
_cell_length_a   8.39360000
_cell_length_b   10.53470000
_cell_length_c   17.40930000
_cell_angle_alpha   99.17400000
_cell_angle_beta   97.13000000
_cell_angle_gamma   100.34800000
_symmetry_Int_Tables_number   1
_chemical_formula_structural   Eu2H13C25O14
_chemical_formula_sum   'Eu4 H26 C50 O28'
_cell_volume   1476.38110503
_cell_formula_units_Z   2
loop_
 _symmetry_equiv_pos_site_id
 _symmetry_equiv_pos_as_xyz
  1  'x, y, z'
loop_
 _atom_site_type_symbol
 _atom_site_label
 _atom_site_symmetry_multiplicity
 _atom_site_fract_x
 _atom_site_fract_y
 _atom_site_fract_z
 _atom_site_occupancy
 _atom_site_charge
  Eu  Eu1  1  0.477690  0.861330  0.203300  1.0  2.1276
  Eu  Eu2  1  0.966360  0.807440  0.262310  1.0  2.1665
  Eu  Eu3  1  0.522310  0.138670  0.796710  1.0  2.1266
  Eu  Eu4  1  0.033640  0.192560  0.737690  1.0  2.1647
  H  H5  1  0.128700  0.495700  0.431400  1.0  0.1148
  H  H6  1  0.117600  0.295600  0.471700  1.0  0.1165
  H  H7  1  0.962500  0.105900  0.391800  1.0  0.1152
  H  H8  1  0.815100  0.318400  0.235200  1.0  0.1188
  H  H9  1  0.059800  0.850900  0.860300  1.0  0.1022
  H  H10  1  0.107700  0.701300  0.940000  1.0  0.1206
  H  H11  1  0.960100  0.675000  0.041800  1.0  0.1113
  H  H12  1  0.695700  0.931800  0.976900  1.0  0.1194
  H  H13  1  0.387300  0.862300  0.607800  1.0  0.0997
  H  H14  1  0.238300  0.725000  0.495400  1.0  0.1167
  H  H15  1  0.359700  0.684500  0.385100  1.0  0.1136
  H  H16  1  0.781900  0.916900  0.499500  1.0  0.1215
  H  H17  1  0.133200  0.551700  0.147500  1.0  0.0554
  H  H18  1  0.871300  0.504300  0.568600  1.0  0.1153
  H  H19  1  0.882400  0.704400  0.528300  1.0  0.1159
  H  H20  1  0.037500  0.894100  0.608200  1.0  0.115
  H  H21  1  0.184900  0.681600  0.764800  1.0  0.1187
  H  H22  1  0.940200  0.149100  0.139700  1.0  0.1022
  H  H23  1  0.892300  0.298700  0.060000  1.0  0.1208
  H  H24  1  0.039900  0.325000  0.958200  1.0  0.1107
  H  H25  1  0.304300  0.068200  0.023100  1.0  0.1197
  H  H26  1  0.612700  0.137700  0.392200  1.0  0.1
  H  H27  1  0.761700  0.275000  0.504600  1.0  0.117
  H  H28  1  0.640300  0.315500  0.614900  1.0  0.1136
  H  H29  1  0.218100  0.083100  0.500500  1.0  0.1217
  H  H30  1  0.866800  0.448300  0.852500  1.0  0.0555
  C  C31  1  0.974900  0.557500  0.304620  1.0  0.7013
  C  C32  1  0.972300  0.427300  0.328900  1.0  -0.1363
  C  C33  1  0.063700  0.420000  0.399900  1.0  0.0122
  C  C34  1  0.058100  0.300000  0.423800  1.0  -0.0891
  C  C35  1  0.963800  0.186400  0.376200  1.0  -0.033
  C  C36  1  0.871600  0.192400  0.305500  1.0  -0.1522
  C  C37  1  0.876800  0.313700  0.282500  1.0  -0.0201
  C  C38  1  0.756500  0.074500  0.257200  1.0  0.6882
  C  C39  1  0.838200  0.003600  0.859320  1.0  0.7324
  C  C40  1  0.872300  0.906600  0.910740  1.0  -0.1584
  C  C41  1  0.997000  0.837800  0.899800  1.0  -0.0164
  C  C42  1  0.026900  0.749600  0.948300  1.0  -0.0971
  C  C43  1  0.937400  0.732900  0.008800  1.0  -0.0086
  C  C44  1  0.814900  0.801600  0.020470  1.0  -0.1472
  C  C45  1  0.780600  0.887300  0.970330  1.0  0.034
  C  C46  1  0.722400  0.790000  0.087960  1.0  0.7214
  C  C47  1  0.689000  0.000800  0.637130  1.0  0.7163
  C  C48  1  0.599100  0.905400  0.564750  1.0  -0.1483
  C  C49  1  0.436500  0.846200  0.563200  1.0  -0.0167
  C  C50  1  0.347300  0.763700  0.496100  1.0  -0.0846
  C  C51  1  0.420400  0.739100  0.430500  1.0  -0.0306
  C  C52  1  0.583000  0.794400  0.431080  1.0  -0.1345
  C  C53  1  0.659500  0.769100  0.358780  1.0  0.729
  C  C54  1  0.672700  0.878700  0.498790  1.0  -0.0324
  C  C55  1  0.214500  0.627700  0.161400  1.0  0.6554
  C  C56  1  0.025100  0.442500  0.695380  1.0  0.7019
  C  C57  1  0.027700  0.572700  0.671100  1.0  -0.1378
  C  C58  1  0.936300  0.580000  0.600100  1.0  0.0127
  C  C59  1  0.941900  0.700000  0.576200  1.0  -0.0892
  C  C60  1  0.036200  0.813600  0.623800  1.0  -0.0335
  C  C61  1  0.128400  0.807600  0.694500  1.0  -0.1507
  C  C62  1  0.123200  0.686300  0.717500  1.0  -0.0212
  C  C63  1  0.243500  0.925500  0.742800  1.0  0.689
  C  C64  1  0.161800  0.996400  0.140680  1.0  0.7315
  C  C65  1  0.127700  0.093400  0.089260  1.0  -0.1573
  C  C66  1  0.003000  0.162200  0.100200  1.0  -0.0136
  C  C67  1  0.973100  0.250400  0.051700  1.0  -0.099
  C  C68  1  0.062600  0.267100  0.991200  1.0  -0.0076
  C  C69  1  0.185100  0.198400  0.979530  1.0  -0.1456
  C  C70  1  0.219400  0.112700  0.029670  1.0  0.0347
  C  C71  1  0.277600  0.210000  0.912040  1.0  0.7217
  C  C72  1  0.311000  0.999200  0.362870  1.0  0.7188
  C  C73  1  0.400900  0.094600  0.435250  1.0  -0.1462
  C  C74  1  0.563500  0.153800  0.436800  1.0  -0.0173
  C  C75  1  0.652700  0.236300  0.503900  1.0  -0.0841
  C  C76  1  0.579600  0.260900  0.569500  1.0  -0.0303
  C  C77  1  0.417000  0.205600  0.568920  1.0  -0.1349
  C  C78  1  0.340500  0.230900  0.641220  1.0  0.7302
  C  C79  1  0.327300  0.121300  0.501210  1.0  -0.0308
  C  C80  1  0.785500  0.372300  0.838600  1.0  0.654
  O  O81  1  0.070700  0.657000  0.343390  1.0  -0.6045
  O  O82  1  0.876900  0.564100  0.243410  1.0  -0.6783
  O  O83  1  0.638500  0.088600  0.210630  1.0  -0.6118
  O  O84  1  0.774200  0.959900  0.267700  1.0  -0.8133
  O  O85  1  0.938200  0.033300  0.813910  1.0  -0.7108
  O  O86  1  0.710500  0.048900  0.865980  1.0  -0.6824
  O  O87  1  0.593500  0.833500  0.086890  1.0  -0.6248
  O  O88  1  0.776800  0.735300  0.142860  1.0  -0.7603
  O  O89  1  0.838500  0.047200  0.640840  1.0  -0.649
  O  O90  1  0.605400  0.030600  0.690450  1.0  -0.6574
  O  O91  1  0.565200  0.731000  0.292260  1.0  -0.7226
  O  O92  1  0.812000  0.785900  0.366580  1.0  -0.6021
  O  O93  1  0.348500  0.626700  0.137630  1.0  -0.6108
  O  O94  1  0.184400  0.725000  0.202530  1.0  -0.6797
  O  O95  1  0.929300  0.343000  0.656610  1.0  -0.6033
  O  O96  1  0.123100  0.435900  0.756590  1.0  -0.6803
  O  O97  1  0.361500  0.911400  0.789370  1.0  -0.6124
  O  O98  1  0.225800  0.040100  0.732300  1.0  -0.8108
  O  O99  1  0.061800  0.966700  0.186090  1.0  -0.7101
  O  O100  1  0.289500  0.951100  0.134020  1.0  -0.6819
  O  O101  1  0.406500  0.166500  0.913110  1.0  -0.6257
  O  O102  1  0.223200  0.264700  0.857140  1.0  -0.7604
  O  O103  1  0.161500  0.952800  0.359160  1.0  -0.6505
  O  O104  1  0.394600  0.969400  0.309550  1.0  -0.6575
  O  O105  1  0.434800  0.269000  0.707740  1.0  -0.7223
  O  O106  1  0.188000  0.214100  0.633420  1.0  -0.6011
  O  O107  1  0.651500  0.373300  0.862370  1.0  -0.6132
  O  O108  1  0.815600  0.275000  0.797470  1.0  -0.68
