# generated using pymatgen
data_CoH20C18(NO)4
_symmetry_space_group_name_H-M   'P 1'
_cell_length_a   9.48900000
_cell_length_b   13.44100000
_cell_length_c   18.52900000
_cell_angle_alpha   109.80400000
_cell_angle_beta   90.00800000
_cell_angle_gamma   107.13500000
_symmetry_Int_Tables_number   1
_chemical_formula_structural   CoH20C18(NO)4
_chemical_formula_sum   'Co4 H80 C72 N16 O16'
_cell_volume   2111.58740606
_cell_formula_units_Z   4
loop_
 _symmetry_equiv_pos_site_id
 _symmetry_equiv_pos_as_xyz
  1  'x, y, z'
loop_
 _atom_site_type_symbol
 _atom_site_label
 _atom_site_symmetry_multiplicity
 _atom_site_fract_x
 _atom_site_fract_y
 _atom_site_fract_z
 _atom_site_occupancy
 _atom_site_charge
  Co  Co1  1  0.230100  0.488020  0.317350  1.0  0.977
  Co  Co2  1  0.724500  0.476600  0.171440  1.0  0.9847
  Co  Co3  1  0.769900  0.511980  0.682650  1.0  0.9773
  Co  Co4  1  0.275500  0.523400  0.828560  1.0  0.9834
  H  H5  1  0.385100  0.733600  0.403900  1.0  0.0794
  H  H6  1  0.508900  0.858300  0.520900  1.0  0.1097
  H  H7  1  0.449400  0.603600  0.596400  1.0  0.0961
  H  H8  1  0.328800  0.482800  0.476500  1.0  0.0645
  H  H9  1  0.599400  0.774700  0.677900  1.0  0.0706
  H  H10  1  0.689200  0.856700  0.636300  1.0  0.0995
  H  H11  1  0.411200  0.814700  0.753600  1.0  0.0538
  H  H12  1  0.315700  0.793400  0.675400  1.0  0.0511
  H  H13  1  0.719400  0.018100  0.741400  1.0  0.0777
  H  H14  1  0.644100  0.943700  0.791300  1.0  0.0592
  H  H15  1  0.001800  0.466700  0.437200  1.0  0.078
  H  H16  1  0.881100  0.339100  0.491500  1.0  0.0827
  H  H17  1  0.007100  0.108600  0.329100  1.0  0.0932
  H  H18  1  0.137600  0.241400  0.284500  1.0  0.0694
  H  H19  1  0.834100  0.166000  0.507700  1.0  0.0589
  H  H20  1  0.754800  0.081700  0.423900  1.0  0.0863
  H  H21  1  0.748700  0.924600  0.454600  1.0  0.0779
  H  H22  1  0.819100  0.006200  0.540500  1.0  0.057
  H  H23  1  0.057400  0.152200  0.559000  1.0  0.0648
  H  H24  1  0.138500  0.164800  0.485300  1.0  0.0733
  H  H25  1  0.632200  0.228800  0.090800  1.0  0.0838
  H  H26  1  0.507200  0.092000  0.974200  1.0  0.1002
  H  H27  1  0.379000  0.324100  0.926600  1.0  0.1035
  H  H28  1  0.511800  0.453700  0.038700  1.0  0.0737
  H  H29  1  0.243800  0.075300  0.872700  1.0  0.071
  H  H30  1  0.340000  0.147700  0.826200  1.0  0.0743
  H  H31  1  0.224300  0.898500  0.780600  1.0  0.0739
  H  H32  1  0.288700  0.970100  0.727500  1.0  0.0582
  H  H33  1  0.628700  0.126300  0.848300  1.0  0.073
  H  H34  1  0.540500  0.112800  0.770100  1.0  0.0598
  H  H35  1  0.819300  0.475900  0.006800  1.0  0.0641
  H  H36  1  0.945100  0.595600  0.949700  1.0  0.1116
  H  H37  1  0.001000  0.847600  0.153700  1.0  0.1235
  H  H38  1  0.873100  0.716400  0.205200  1.0  0.0679
  H  H39  1  0.184100  0.847300  0.038700  1.0  0.0832
  H  H40  1  0.083900  0.783800  0.957300  1.0  0.0787
  H  H41  1  0.821700  0.828900  0.973900  1.0  0.0567
  H  H42  1  0.933000  0.866900  0.916300  1.0  0.0565
  H  H43  1  0.181300  0.987900  0.965800  1.0  0.0567
  H  H44  1  0.233900  0.030300  0.056200  1.0  0.0744
  H  H45  1  0.614900  0.266400  0.596100  1.0  0.0785
  H  H46  1  0.491100  0.141700  0.479100  1.0  0.1093
  H  H47  1  0.550600  0.396400  0.403600  1.0  0.0965
  H  H48  1  0.671200  0.517200  0.523500  1.0  0.0638
  H  H49  1  0.400600  0.225300  0.322100  1.0  0.0711
  H  H50  1  0.310800  0.143300  0.363700  1.0  0.0993
  H  H51  1  0.588800  0.185300  0.246400  1.0  0.0556
  H  H52  1  0.684300  0.206600  0.324600  1.0  0.0502
  H  H53  1  0.280600  0.981900  0.258600  1.0  0.0781
  H  H54  1  0.355900  0.056300  0.208700  1.0  0.0617
  H  H55  1  0.998200  0.533300  0.562800  1.0  0.0773
  H  H56  1  0.118900  0.660900  0.508500  1.0  0.0831
  H  H57  1  0.992900  0.891400  0.670900  1.0  0.0946
  H  H58  1  0.862400  0.758600  0.715500  1.0  0.0685
  H  H59  1  0.165900  0.834000  0.492300  1.0  0.0586
  H  H60  1  0.245200  0.918300  0.576100  1.0  0.0848
  H  H61  1  0.251300  0.075400  0.545400  1.0  0.0766
  H  H62  1  0.180900  0.993800  0.459500  1.0  0.0562
  H  H63  1  0.942600  0.847800  0.441000  1.0  0.0658
  H  H64  1  0.861500  0.835200  0.514700  1.0  0.0731
  H  H65  1  0.367800  0.771200  0.909200  1.0  0.0829
  H  H66  1  0.492800  0.908000  0.025800  1.0  0.1
  H  H67  1  0.621000  0.675900  0.073400  1.0  0.1035
  H  H68  1  0.488200  0.546300  0.961300  1.0  0.0738
  H  H69  1  0.756200  0.924700  0.127300  1.0  0.0719
  H  H70  1  0.660000  0.852300  0.173800  1.0  0.0743
  H  H71  1  0.775700  0.101500  0.219400  1.0  0.0737
  H  H72  1  0.711300  0.029900  0.272500  1.0  0.0579
  H  H73  1  0.371300  0.873700  0.151700  1.0  0.074
  H  H74  1  0.459500  0.887200  0.229900  1.0  0.0602
  H  H75  1  0.180700  0.524100  0.993200  1.0  0.0643
  H  H76  1  0.054900  0.404400  0.050300  1.0  0.1115
  H  H77  1  0.999000  0.152400  0.846300  1.0  0.1243
  H  H78  1  0.126900  0.283600  0.794800  1.0  0.0673
  H  H79  1  0.815900  0.152700  0.961300  1.0  0.0836
  H  H80  1  0.916100  0.216200  0.042700  1.0  0.0767
  H  H81  1  0.178300  0.171100  0.026100  1.0  0.0561
  H  H82  1  0.067000  0.133100  0.083700  1.0  0.0557
  H  H83  1  0.818700  0.012100  0.034200  1.0  0.0565
  H  H84  1  0.766100  0.969700  0.943800  1.0  0.0738
  C  C85  1  0.480800  0.434400  0.256900  1.0  0.6456
  C  C86  1  0.482300  0.535900  0.238400  1.0  0.6287
  C  C87  1  0.978500  0.540100  0.276200  1.0  0.5534
  C  C88  1  0.981900  0.432400  0.209200  1.0  0.6048
  C  C89  1  0.398600  0.706200  0.443600  1.0  0.1576
  C  C90  1  0.473600  0.781000  0.512500  1.0  -0.2308
  C  C91  1  0.497200  0.741400  0.570000  1.0  0.0616
  C  C92  1  0.439300  0.631800  0.556700  1.0  -0.168
  C  C93  1  0.365100  0.560200  0.485300  1.0  0.1373
  C  C94  1  0.588700  0.819200  0.646400  1.0  -0.071
  C  C95  1  0.386200  0.851200  0.719400  1.0  0.0149
  C  C96  1  0.624100  0.983300  0.758100  1.0  0.0221
  C  C97  1  0.007900  0.393200  0.416600  1.0  0.1381
  C  C98  1  0.934000  0.316700  0.448500  1.0  -0.2102
  C  C99  1  0.935000  0.208300  0.419700  1.0  0.1243
  C  C100  1  0.009300  0.183400  0.354900  1.0  -0.233
  C  C101  1  0.084400  0.262400  0.327500  1.0  0.1533
  C  C102  1  0.852200  0.125800  0.454700  1.0  -0.0285
  C  C103  1  0.843100  0.967500  0.488600  1.0  0.0082
  C  C104  1  0.075900  0.110400  0.506500  1.0  0.0345
  C  C105  1  0.582700  0.248500  0.055700  1.0  0.1226
  C  C106  1  0.507000  0.166600  0.986900  1.0  -0.1752
  C  C107  1  0.432400  0.194800  0.937900  1.0  0.0584
  C  C108  1  0.433000  0.302800  0.958800  1.0  -0.2203
  C  C109  1  0.511100  0.378700  0.025400  1.0  0.1514
  C  C110  1  0.346100  0.110200  0.863300  1.0  -0.0476
  C  C111  1  0.316300  0.935600  0.762500  1.0  0.0075
  C  C112  1  0.557800  0.072200  0.803200  1.0  -0.0059
  C  C113  1  0.857300  0.552800  0.037500  1.0  0.1623
  C  C114  1  0.931100  0.623500  0.002700  1.0  -0.2425
  C  C115  1  0.986100  0.736900  0.044400  1.0  0.1058
  C  C116  1  0.964400  0.771200  0.121900  1.0  -0.2322
  C  C117  1  0.887900  0.691600  0.152200  1.0  0.1555
  C  C118  1  0.081400  0.820800  0.013300  1.0  -0.056
  C  C119  1  0.903900  0.891100  0.969200  1.0  0.0089
  C  C120  1  0.148100  0.010200  0.017900  1.0  0.0055
  C  C121  1  0.519200  0.565600  0.743100  1.0  0.6454
  C  C122  1  0.517700  0.464100  0.761600  1.0  0.6281
  C  C123  1  0.021500  0.459900  0.723800  1.0  0.5547
  C  C124  1  0.018100  0.567600  0.790800  1.0  0.6046
  C  C125  1  0.601400  0.293800  0.556400  1.0  0.158
  C  C126  1  0.526400  0.219000  0.487500  1.0  -0.2295
  C  C127  1  0.502800  0.258600  0.430000  1.0  0.0607
  C  C128  1  0.560700  0.368200  0.443300  1.0  -0.1699
  C  C129  1  0.634900  0.439800  0.514700  1.0  0.1384
  C  C130  1  0.411300  0.180800  0.353600  1.0  -0.0712
  C  C131  1  0.613800  0.148800  0.280600  1.0  0.0147
  C  C132  1  0.375900  0.016700  0.241900  1.0  0.0209
  C  C133  1  0.992100  0.606800  0.583400  1.0  0.1373
  C  C134  1  0.066000  0.683300  0.551500  1.0  -0.2083
  C  C135  1  0.065000  0.791700  0.580300  1.0  0.1249
  C  C136  1  0.990700  0.816600  0.645100  1.0  -0.2336
  C  C137  1  0.915600  0.737600  0.672500  1.0  0.1556
  C  C138  1  0.147800  0.874200  0.545300  1.0  -0.0293
  C  C139  1  0.156900  0.032500  0.511400  1.0  0.0098
  C  C140  1  0.924100  0.889600  0.493500  1.0  0.0349
  C  C141  1  0.417300  0.751500  0.944300  1.0  0.1214
  C  C142  1  0.493000  0.833400  0.013100  1.0  -0.1746
  C  C143  1  0.567600  0.805200  0.062100  1.0  0.0582
  C  C144  1  0.567000  0.697200  0.041200  1.0  -0.2194
  C  C145  1  0.488900  0.621300  0.974600  1.0  0.152
  C  C146  1  0.653900  0.889800  0.136700  1.0  -0.0476
  C  C147  1  0.683700  0.064400  0.237500  1.0  0.0083
  C  C148  1  0.442200  0.927800  0.196800  1.0  -0.0038
  C  C149  1  0.142700  0.447200  0.962500  1.0  0.1624
  C  C150  1  0.068900  0.376500  0.997300  1.0  -0.2454
  C  C151  1  0.013900  0.263100  0.955600  1.0  0.1056
  C  C152  1  0.035600  0.228800  0.878100  1.0  -0.2342
  C  C153  1  0.112100  0.308400  0.847800  1.0  0.1588
  C  C154  1  0.918600  0.179200  0.986700  1.0  -0.0563
  C  C155  1  0.096100  0.108900  0.030800  1.0  0.0104
  C  C156  1  0.851900  0.989800  0.982100  1.0  0.0027
  N  N157  1  0.342200  0.595000  0.428100  1.0  -0.3371
  N  N158  1  0.521500  0.904400  0.690700  1.0  -0.3489
  N  N159  1  0.088300  0.368200  0.357300  1.0  -0.3229
  N  N160  1  0.934600  0.050900  0.457500  1.0  -0.3262
  N  N161  1  0.586900  0.354100  0.073400  1.0  -0.3199
  N  N162  1  0.416800  0.023700  0.829900  1.0  -0.3209
  N  N163  1  0.834200  0.583500  0.112000  1.0  -0.3333
  N  N164  1  0.029800  0.916900  0.024800  1.0  -0.2877
  N  N165  1  0.657800  0.405000  0.571900  1.0  -0.3345
  N  N166  1  0.478500  0.095600  0.309300  1.0  -0.351
  N  N167  1  0.911700  0.631800  0.642700  1.0  -0.3221
  N  N168  1  0.065400  0.949100  0.542500  1.0  -0.3268
  N  N169  1  0.413100  0.645900  0.926600  1.0  -0.3192
  N  N170  1  0.583200  0.976300  0.170100  1.0  -0.3191
  N  N171  1  0.165800  0.416500  0.888000  1.0  -0.3339
  N  N172  1  0.970200  0.083100  0.975200  1.0  -0.2878
  O  O173  1  0.375900  0.397000  0.293000  1.0  -0.5651
  O  O174  1  0.382500  0.580800  0.262600  1.0  -0.5833
  O  O175  1  0.584100  0.395800  0.237700  1.0  -0.5542
  O  O176  1  0.582800  0.572700  0.201300  1.0  -0.5724
  O  O177  1  0.087300  0.584200  0.328500  1.0  -0.5809
  O  O178  1  0.092200  0.400000  0.213100  1.0  -0.5714
  O  O179  1  0.875200  0.577300  0.271900  1.0  -0.5767
  O  O180  1  0.872700  0.388400  0.159800  1.0  -0.5512
  O  O181  1  0.624100  0.603000  0.707000  1.0  -0.5665
  O  O182  1  0.617500  0.419200  0.737400  1.0  -0.581
  O  O183  1  0.415900  0.604200  0.762300  1.0  -0.5538
  O  O184  1  0.417200  0.427300  0.798700  1.0  -0.5719
  O  O185  1  0.912700  0.415800  0.671500  1.0  -0.5812
  O  O186  1  0.907800  0.600000  0.786900  1.0  -0.5712
  O  O187  1  0.124800  0.422700  0.728100  1.0  -0.5778
  O  O188  1  0.127300  0.611600  0.840200  1.0  -0.5509
