# generated using pymatgen
data_Mn3H18C38(NO10)2
_symmetry_space_group_name_H-M   'P 1'
_cell_length_a   12.37470000
_cell_length_b   14.19460000
_cell_length_c   15.31760000
_cell_angle_alpha   107.77000000
_cell_angle_beta   113.82500000
_cell_angle_gamma   90.00000000
_symmetry_Int_Tables_number   1
_chemical_formula_structural   Mn3H18C38(NO10)2
_chemical_formula_sum   'Mn6 H36 C76 N4 O40'
_cell_volume   2320.29244328
_cell_formula_units_Z   2
loop_
 _symmetry_equiv_pos_site_id
 _symmetry_equiv_pos_as_xyz
  1  'x, y, z'
loop_
 _atom_site_type_symbol
 _atom_site_label
 _atom_site_symmetry_multiplicity
 _atom_site_fract_x
 _atom_site_fract_y
 _atom_site_fract_z
 _atom_site_occupancy
 _atom_site_charge
  Mn  Mn1  1  0.982030  0.003600  0.752060  1.0  1.1263
  Mn  Mn2  1  0.229970  0.496400  0.247940  1.0  1.1261
  Mn  Mn3  1  0.017970  0.996400  0.247940  1.0  1.1239
  Mn  Mn4  1  0.770030  0.503600  0.752060  1.0  1.1238
  Mn  Mn5  1  0.000000  0.000000  0.500000  1.0  1.1743
  Mn  Mn6  1  0.500000  0.500000  0.500000  1.0  1.1743
  H  H7  1  0.152700  0.288700  0.905000  1.0  0.1268
  H  H8  1  0.374100  0.558300  0.163600  1.0  0.4046
  H  H9  1  0.358600  0.528400  0.930400  1.0  0.1374
  H  H10  1  0.218700  0.295000  0.667400  1.0  0.1355
  H  H11  1  0.464100  0.568900  0.765200  1.0  0.1084
  H  H12  1  0.467700  0.562300  0.868800  1.0  0.1081
  H  H13  1  0.323900  0.541400  0.615200  1.0  0.1314
  H  H14  1  0.154400  0.746500  0.492800  1.0  0.1314
  H  H15  1  0.227200  0.776300  0.783200  1.0  0.1299
  H  H16  1  0.247700  0.211300  0.095000  1.0  0.1249
  H  H17  1  0.210500  0.941700  0.836400  1.0  0.406
  H  H18  1  0.428200  0.971600  0.069600  1.0  0.1368
  H  H19  1  0.551300  0.205000  0.332600  1.0  0.134
  H  H20  1  0.698900  0.931100  0.234800  1.0  0.11
  H  H21  1  0.598900  0.937700  0.131200  1.0  0.1081
  H  H22  1  0.708700  0.958600  0.384800  1.0  0.1335
  H  H23  1  0.661600  0.753500  0.507200  1.0  0.1299
  H  H24  1  0.444000  0.723700  0.216800  1.0  0.1305
  H  H25  1  0.847300  0.711300  0.095000  1.0  0.1259
  H  H26  1  0.625900  0.441700  0.836400  1.0  0.4039
  H  H27  1  0.641400  0.471600  0.069600  1.0  0.1378
  H  H28  1  0.781300  0.705000  0.332600  1.0  0.1352
  H  H29  1  0.535900  0.431100  0.234800  1.0  0.1088
  H  H30  1  0.532300  0.437700  0.131200  1.0  0.1083
  H  H31  1  0.676100  0.458600  0.384800  1.0  0.1317
  H  H32  1  0.845600  0.253500  0.507200  1.0  0.1307
  H  H33  1  0.772800  0.223700  0.216800  1.0  0.1308
  H  H34  1  0.752300  0.788700  0.905000  1.0  0.1247
  H  H35  1  0.789500  0.058300  0.163600  1.0  0.4044
  H  H36  1  0.571800  0.028400  0.930400  1.0  0.1372
  H  H37  1  0.448700  0.795000  0.667400  1.0  0.1333
  H  H38  1  0.301100  0.068900  0.765200  1.0  0.109
  H  H39  1  0.401100  0.062300  0.868800  1.0  0.1082
  H  H40  1  0.291300  0.041400  0.615200  1.0  0.1329
  H  H41  1  0.338400  0.246500  0.492800  1.0  0.1309
  H  H42  1  0.556000  0.276300  0.783200  1.0  0.1303
  C  C43  1  0.099590  0.175600  0.714380  1.0  0.7217
  C  C44  1  0.173480  0.276900  0.775960  1.0  -0.1183
  C  C45  1  0.189020  0.321700  0.876240  1.0  -0.022
  C  C46  1  0.258090  0.414700  0.933180  1.0  -0.1003
  C  C47  1  0.274930  0.462800  0.039660  1.0  0.6597
  C  C48  1  0.312570  0.464200  0.891540  1.0  -0.1809
  C  C49  1  0.298280  0.418000  0.793360  1.0  0.2344
  C  C50  1  0.228670  0.325300  0.735140  1.0  -0.1301
  C  C51  1  0.414020  0.556400  0.798240  1.0  0.1629
  C  C52  1  0.285390  0.654500  0.712180  1.0  0.2623
  C  C53  1  0.288730  0.601200  0.621660  1.0  -0.1397
  C  C54  1  0.240170  0.635900  0.539940  1.0  -0.1142
  C  C55  1  0.251660  0.581300  0.443520  1.0  0.7131
  C  C56  1  0.187070  0.722900  0.548540  1.0  -0.0254
  C  C57  1  0.182480  0.774400  0.639760  1.0  -0.1172
  C  C58  1  0.126400  0.868900  0.647400  1.0  0.7125
  C  C59  1  0.230990  0.740800  0.721180  1.0  -0.1039
  C  C60  1  0.987170  0.860800  0.895340  1.0  0.2124
  C  C61  1  0.006400  0.798500  0.952000  1.0  -0.042
  C  C62  1  0.385210  0.324400  0.285620  1.0  0.7224
  C  C63  1  0.397520  0.223100  0.224040  1.0  -0.1182
  C  C64  1  0.312780  0.178300  0.123760  1.0  -0.0219
  C  C65  1  0.324910  0.085300  0.066820  1.0  -0.102
  C  C66  1  0.235270  0.037200  0.960340  1.0  0.6583
  C  C67  1  0.421030  0.035800  0.108460  1.0  -0.1818
  C  C68  1  0.504920  0.082000  0.206640  1.0  0.2332
  C  C69  1  0.493530  0.174700  0.264860  1.0  -0.1311
  C  C70  1  0.615780  0.943600  0.201760  1.0  0.1621
  C  C71  1  0.573210  0.845500  0.287820  1.0  0.2575
  C  C72  1  0.667070  0.898800  0.378340  1.0  -0.1442
  C  C73  1  0.700230  0.864100  0.460060  1.0  -0.1105
  C  C74  1  0.808140  0.918700  0.556480  1.0  0.7119
  C  C75  1  0.638530  0.777100  0.451460  1.0  -0.0243
  C  C76  1  0.542720  0.725600  0.360240  1.0  -0.117
  C  C77  1  0.479000  0.631100  0.352600  1.0  0.717
  C  C78  1  0.509810  0.759200  0.278820  1.0  -0.1031
  C  C79  1  0.091830  0.639200  0.104660  1.0  0.2128
  C  C80  1  0.054400  0.701500  0.048000  1.0  -0.0429
  C  C81  1  0.900410  0.824400  0.285620  1.0  0.7211
  C  C82  1  0.826520  0.723100  0.224040  1.0  -0.1169
  C  C83  1  0.810980  0.678300  0.123760  1.0  -0.0225
  C  C84  1  0.741910  0.585300  0.066820  1.0  -0.0994
  C  C85  1  0.725070  0.537200  0.960340  1.0  0.66
  C  C86  1  0.687430  0.535800  0.108460  1.0  -0.1816
  C  C87  1  0.701720  0.582000  0.206640  1.0  0.2337
  C  C88  1  0.771330  0.674700  0.264860  1.0  -0.1308
  C  C89  1  0.585980  0.443600  0.201760  1.0  0.161
  C  C90  1  0.714610  0.345500  0.287820  1.0  0.2608
  C  C91  1  0.711270  0.398800  0.378340  1.0  -0.1419
  C  C92  1  0.759830  0.364100  0.460060  1.0  -0.115
  C  C93  1  0.748340  0.418700  0.556480  1.0  0.7131
  C  C94  1  0.812930  0.277100  0.451460  1.0  -0.0249
  C  C95  1  0.817520  0.225600  0.360240  1.0  -0.116
  C  C96  1  0.873600  0.131100  0.352600  1.0  0.7127
  C  C97  1  0.769010  0.259200  0.278820  1.0  -0.1038
  C  C98  1  0.012830  0.139200  0.104660  1.0  0.2121
  C  C99  1  0.993600  0.201500  0.048000  1.0  -0.042
  C  C100  1  0.614790  0.675600  0.714380  1.0  0.7233
  C  C101  1  0.602480  0.776900  0.775960  1.0  -0.1188
  C  C102  1  0.687220  0.821700  0.876240  1.0  -0.0217
  C  C103  1  0.675090  0.914700  0.933180  1.0  -0.1002
  C  C104  1  0.764730  0.962800  0.039660  1.0  0.6577
  C  C105  1  0.578970  0.964200  0.891540  1.0  -0.1833
  C  C106  1  0.495080  0.918000  0.793360  1.0  0.2335
  C  C107  1  0.506470  0.825300  0.735140  1.0  -0.131
  C  C108  1  0.384220  0.056400  0.798240  1.0  0.1631
  C  C109  1  0.426790  0.154500  0.712180  1.0  0.2577
  C  C110  1  0.332930  0.101200  0.621660  1.0  -0.144
  C  C111  1  0.299770  0.135900  0.539940  1.0  -0.1114
  C  C112  1  0.191860  0.081300  0.443520  1.0  0.7111
  C  C113  1  0.361470  0.222900  0.548540  1.0  -0.0245
  C  C114  1  0.457280  0.274400  0.639760  1.0  -0.1188
  C  C115  1  0.521000  0.368900  0.647400  1.0  0.7163
  C  C116  1  0.490190  0.240800  0.721180  1.0  -0.1025
  C  C117  1  0.908170  0.360800  0.895340  1.0  0.2127
  C  C118  1  0.945600  0.298500  0.952000  1.0  -0.0443
  N  N119  1  0.947830  0.902100  0.830260  1.0  -0.4612
  N  N120  1  0.117570  0.597900  0.169740  1.0  -0.4632
  N  N121  1  0.052170  0.097900  0.169740  1.0  -0.4617
  N  N122  1  0.882430  0.402100  0.830260  1.0  -0.4634
  O  O123  1  0.047390  0.140660  0.756580  1.0  -0.6127
  O  O124  1  0.094250  0.134130  0.627900  1.0  -0.5801
  O  O125  1  0.353550  0.543410  0.088880  1.0  -0.4975
  O  O126  1  0.220630  0.430200  0.077260  1.0  -0.5878
  O  O127  1  0.351270  0.458910  0.746640  1.0  -0.252
  O  O128  1  0.336940  0.629140  0.799340  1.0  -0.2585
  O  O129  1  0.309250  0.508100  0.441080  1.0  -0.6394
  O  O130  1  0.204480  0.611000  0.369000  1.0  -0.5617
  O  O131  1  0.113100  0.911970  0.728120  1.0  -0.6423
  O  O132  1  0.096400  0.900250  0.575000  1.0  -0.6145
  O  O133  1  0.290810  0.359340  0.243420  1.0  -0.611
  O  O134  1  0.466350  0.365870  0.372100  1.0  -0.5826
  O  O135  1  0.264670  0.956590  0.911120  1.0  -0.4964
  O  O136  1  0.143370  0.069800  0.922740  1.0  -0.5873
  O  O137  1  0.604630  0.041090  0.253360  1.0  -0.2487
  O  O138  1  0.537600  0.870860  0.200660  1.0  -0.2579
  O  O139  1  0.868170  0.991900  0.558920  1.0  -0.6392
  O  O140  1  0.835480  0.889000  0.631000  1.0  -0.5638
  O  O141  1  0.384980  0.588030  0.271880  1.0  -0.6424
  O  O142  1  0.521400  0.599750  0.425000  1.0  -0.6135
  O  O143  1  0.952610  0.859340  0.243420  1.0  -0.6116
  O  O144  1  0.905750  0.865870  0.372100  1.0  -0.5792
  O  O145  1  0.646450  0.456590  0.911120  1.0  -0.4948
  O  O146  1  0.779370  0.569800  0.922740  1.0  -0.589
  O  O147  1  0.648730  0.541090  0.253360  1.0  -0.2505
  O  O148  1  0.663060  0.370860  0.200660  1.0  -0.2585
  O  O149  1  0.690750  0.491900  0.558920  1.0  -0.6384
  O  O150  1  0.795520  0.389000  0.631000  1.0  -0.5599
  O  O151  1  0.886900  0.088030  0.271880  1.0  -0.6418
  O  O152  1  0.903600  0.099750  0.425000  1.0  -0.6141
  O  O153  1  0.709190  0.640660  0.756580  1.0  -0.6096
  O  O154  1  0.533650  0.634130  0.627900  1.0  -0.5803
  O  O155  1  0.735330  0.043410  0.088880  1.0  -0.4949
  O  O156  1  0.856630  0.930200  0.077260  1.0  -0.5876
  O  O157  1  0.395370  0.958910  0.746640  1.0  -0.2512
  O  O158  1  0.462400  0.129140  0.799340  1.0  -0.2599
  O  O159  1  0.131830  0.008100  0.441080  1.0  -0.6394
  O  O160  1  0.164520  0.111000  0.369000  1.0  -0.5646
  O  O161  1  0.615020  0.411970  0.728120  1.0  -0.64
  O  O162  1  0.478600  0.400250  0.575000  1.0  -0.6135
