# generated using pymatgen
data_ZnH5C9O5
_symmetry_space_group_name_H-M   'P 1'
_cell_length_a   11.10990000
_cell_length_b   13.89090000
_cell_length_c   22.48500000
_cell_angle_alpha   90.00000000
_cell_angle_beta   90.00000000
_cell_angle_gamma   90.00000000
_symmetry_Int_Tables_number   1
_chemical_formula_structural   ZnH5C9O5
_chemical_formula_sum   'Zn8 H40 C72 O40'
_cell_volume   3470.03157533
_cell_formula_units_Z   8
loop_
 _symmetry_equiv_pos_site_id
 _symmetry_equiv_pos_as_xyz
  1  'x, y, z'
loop_
 _atom_site_type_symbol
 _atom_site_label
 _atom_site_symmetry_multiplicity
 _atom_site_fract_x
 _atom_site_fract_y
 _atom_site_fract_z
 _atom_site_occupancy
 _atom_site_charge
  Zn  Zn1  1  0.632110  0.140830  0.652990  1.0  1.0171
  Zn  Zn2  1  0.865860  0.018740  0.561390  1.0  0.9562
  Zn  Zn3  1  0.867890  0.859170  0.152990  1.0  1.0181
  Zn  Zn4  1  0.634140  0.981260  0.061390  1.0  0.9532
  Zn  Zn5  1  0.367890  0.640830  0.847010  1.0  1.0176
  Zn  Zn6  1  0.134140  0.518740  0.938610  1.0  0.9515
  Zn  Zn7  1  0.132110  0.359170  0.347010  1.0  1.0173
  Zn  Zn8  1  0.365860  0.481260  0.438610  1.0  0.955
  H  H9  1  0.137900  0.519200  0.569700  1.0  0.1321
  H  H10  1  0.910500  0.376000  0.680400  1.0  0.1279
  H  H11  1  0.969800  0.277900  0.512700  1.0  0.1114
  H  H12  1  0.907400  0.533000  0.717700  1.0  0.0717
  H  H13  1  0.010200  0.471700  0.750900  1.0  0.0674
  H  H14  1  0.123600  0.616500  0.763600  1.0  0.0945
  H  H15  1  0.998400  0.619600  0.798700  1.0  0.0692
  H  H16  1  0.928000  0.854000  0.681300  1.0  0.1172
  H  H17  1  0.583300  0.852300  0.740400  1.0  0.1233
  H  H18  1  0.807800  0.631000  0.781400  1.0  0.1209
  H  H19  1  0.362100  0.480800  0.069700  1.0  0.1319
  H  H20  1  0.589500  0.624000  0.180400  1.0  0.1266
  H  H21  1  0.530200  0.722100  0.012700  1.0  0.1116
  H  H22  1  0.592600  0.467000  0.217700  1.0  0.0712
  H  H23  1  0.489800  0.528300  0.250900  1.0  0.0671
  H  H24  1  0.376400  0.383500  0.263600  1.0  0.094
  H  H25  1  0.501600  0.380400  0.298700  1.0  0.0698
  H  H26  1  0.572000  0.146000  0.181300  1.0  0.116
  H  H27  1  0.916700  0.147700  0.240400  1.0  0.1239
  H  H28  1  0.692200  0.369000  0.281400  1.0  0.1197
  H  H29  1  0.862100  0.019200  0.930300  1.0  0.133
  H  H30  1  0.089500  0.876000  0.819600  1.0  0.1275
  H  H31  1  0.030200  0.777900  0.987300  1.0  0.1116
  H  H32  1  0.092600  0.033000  0.782300  1.0  0.0715
  H  H33  1  0.989800  0.971700  0.749100  1.0  0.0671
  H  H34  1  0.876400  0.116500  0.736400  1.0  0.0931
  H  H35  1  0.001600  0.119600  0.701300  1.0  0.0705
  H  H36  1  0.072000  0.354000  0.818700  1.0  0.1154
  H  H37  1  0.416700  0.352300  0.759600  1.0  0.1242
  H  H38  1  0.192200  0.131000  0.718600  1.0  0.1205
  H  H39  1  0.637900  0.980800  0.430300  1.0  0.1317
  H  H40  1  0.410500  0.124000  0.319600  1.0  0.1279
  H  H41  1  0.469800  0.222100  0.487300  1.0  0.1114
  H  H42  1  0.407400  0.967000  0.282300  1.0  0.0724
  H  H43  1  0.510200  0.028300  0.249100  1.0  0.067
  H  H44  1  0.623600  0.883500  0.236400  1.0  0.0941
  H  H45  1  0.498400  0.880400  0.201300  1.0  0.0697
  H  H46  1  0.428000  0.646000  0.318700  1.0  0.1167
  H  H47  1  0.083300  0.647700  0.259600  1.0  0.1235
  H  H48  1  0.307800  0.869000  0.218600  1.0  0.1203
  C  C49  1  0.113500  0.417230  0.470910  1.0  0.7273
  C  C50  1  0.059000  0.402500  0.531230  1.0  -0.1405
  C  C51  1  0.083800  0.467410  0.576540  1.0  -0.1245
  C  C52  1  0.029900  0.456900  0.631850  1.0  0.2542
  C  C53  1  0.949100  0.382050  0.642850  1.0  -0.1852
  C  C54  1  0.926500  0.315990  0.597030  1.0  -0.1133
  C  C55  1  0.983000  0.325000  0.542610  1.0  -0.0215
  C  C56  1  0.842400  0.232220  0.606970  1.0  0.6976
  C  C57  1  0.994700  0.529600  0.726380  1.0  0.0608
  C  C58  1  0.035100  0.618720  0.758590  1.0  0.0592
  C  C59  1  0.886700  0.736680  0.732340  1.0  0.2647
  C  C60  1  0.865500  0.824390  0.703630  1.0  -0.1604
  C  C61  1  0.754200  0.868200  0.707520  1.0  -0.1339
  C  C62  1  0.660100  0.822600  0.737760  1.0  -0.0216
  C  C63  1  0.680200  0.732650  0.764000  1.0  -0.0747
  C  C64  1  0.793800  0.690900  0.762180  1.0  -0.1954
  C  C65  1  0.581600  0.678800  0.795680  1.0  0.6429
  C  C66  1  0.741300  0.966100  0.680010  1.0  0.6932
  C  C67  1  0.386500  0.582770  0.970910  1.0  0.7265
  C  C68  1  0.441000  0.597500  0.031230  1.0  -0.1408
  C  C69  1  0.416200  0.532590  0.076540  1.0  -0.124
  C  C70  1  0.470100  0.543100  0.131850  1.0  0.2547
  C  C71  1  0.550900  0.617950  0.142850  1.0  -0.1852
  C  C72  1  0.573500  0.684010  0.097030  1.0  -0.1134
  C  C73  1  0.517000  0.675000  0.042610  1.0  -0.0217
  C  C74  1  0.657600  0.767780  0.106970  1.0  0.6975
  C  C75  1  0.505300  0.470400  0.226380  1.0  0.061
  C  C76  1  0.464900  0.381280  0.258590  1.0  0.0596
  C  C77  1  0.613300  0.263320  0.232340  1.0  0.265
  C  C78  1  0.634500  0.175610  0.203630  1.0  -0.1619
  C  C79  1  0.745800  0.131800  0.207520  1.0  -0.1336
  C  C80  1  0.839900  0.177400  0.237760  1.0  -0.02
  C  C81  1  0.819800  0.267350  0.264000  1.0  -0.0774
  C  C82  1  0.706200  0.309100  0.262180  1.0  -0.1971
  C  C83  1  0.918400  0.321200  0.295680  1.0  0.6432
  C  C84  1  0.758700  0.033900  0.180010  1.0  0.6937
  C  C85  1  0.886500  0.917230  0.029090  1.0  0.727
  C  C86  1  0.941000  0.902500  0.968770  1.0  -0.1407
  C  C87  1  0.916200  0.967410  0.923460  1.0  -0.1244
  C  C88  1  0.970100  0.956900  0.868150  1.0  0.255
  C  C89  1  0.050900  0.882050  0.857150  1.0  -0.1849
  C  C90  1  0.073500  0.815990  0.902970  1.0  -0.1131
  C  C91  1  0.017000  0.825000  0.957390  1.0  -0.0217
  C  C92  1  0.157600  0.732220  0.893030  1.0  0.6973
  C  C93  1  0.005300  0.029600  0.773620  1.0  0.0607
  C  C94  1  0.964900  0.118720  0.741410  1.0  0.06
  C  C95  1  0.113300  0.236680  0.767660  1.0  0.2651
  C  C96  1  0.134500  0.324390  0.796370  1.0  -0.1609
  C  C97  1  0.245800  0.368200  0.792480  1.0  -0.1335
  C  C98  1  0.339900  0.322600  0.762240  1.0  -0.0209
  C  C99  1  0.319800  0.232650  0.736000  1.0  -0.0761
  C  C100  1  0.206200  0.190900  0.737820  1.0  -0.1971
  C  C101  1  0.418400  0.178800  0.704320  1.0  0.6421
  C  C102  1  0.258700  0.466100  0.819990  1.0  0.6936
  C  C103  1  0.613500  0.082770  0.529090  1.0  0.727
  C  C104  1  0.559000  0.097500  0.468770  1.0  -0.1409
  C  C105  1  0.583800  0.032590  0.423460  1.0  -0.1245
  C  C106  1  0.529900  0.043100  0.368150  1.0  0.2553
  C  C107  1  0.449100  0.117950  0.357150  1.0  -0.1845
  C  C108  1  0.426500  0.184010  0.402970  1.0  -0.1127
  C  C109  1  0.483000  0.175000  0.457390  1.0  -0.0225
  C  C110  1  0.342400  0.267780  0.393030  1.0  0.6974
  C  C111  1  0.494700  0.970400  0.273620  1.0  0.0612
  C  C112  1  0.535100  0.881280  0.241410  1.0  0.0602
  C  C113  1  0.386700  0.763320  0.267660  1.0  0.2643
  C  C114  1  0.365500  0.675610  0.296370  1.0  -0.1591
  C  C115  1  0.254200  0.631800  0.292480  1.0  -0.1348
  C  C116  1  0.160100  0.677400  0.262240  1.0  -0.0208
  C  C117  1  0.180200  0.767350  0.236000  1.0  -0.0756
  C  C118  1  0.293800  0.809100  0.237820  1.0  -0.1943
  C  C119  1  0.081600  0.821200  0.204320  1.0  0.6426
  C  C120  1  0.241300  0.533900  0.319990  1.0  0.6938
  O  O121  1  0.184700  0.486100  0.463960  1.0  -0.6213
  O  O122  1  0.079000  0.359460  0.430270  1.0  -0.571
  O  O123  1  0.771000  0.233770  0.650880  1.0  -0.5659
  O  O124  1  0.849350  0.166090  0.568740  1.0  -0.6375
  O  O125  1  0.062100  0.525700  0.672630  1.0  -0.2771
  O  O126  1  0.003260  0.705050  0.727960  1.0  -0.2642
  O  O127  1  0.477330  0.718720  0.797760  1.0  -0.5892
  O  O128  1  0.605200  0.599760  0.818860  1.0  -0.5183
  O  O129  1  0.645000  0.012930  0.690600  1.0  -0.5568
  O  O130  1  0.827300  0.998420  0.650550  1.0  -0.637
  O  O131  1  0.315300  0.513900  0.963960  1.0  -0.6216
  O  O132  1  0.421000  0.640540  0.930270  1.0  -0.5718
  O  O133  1  0.729000  0.766230  0.150880  1.0  -0.5619
  O  O134  1  0.650650  0.833910  0.068740  1.0  -0.6373
  O  O135  1  0.437900  0.474300  0.172630  1.0  -0.2735
  O  O136  1  0.496740  0.294950  0.227960  1.0  -0.2639
  O  O137  1  0.022670  0.281280  0.297760  1.0  -0.5894
  O  O138  1  0.894800  0.400240  0.318860  1.0  -0.5174
  O  O139  1  0.855000  0.987070  0.190600  1.0  -0.5567
  O  O140  1  0.672700  0.001580  0.150550  1.0  -0.6383
  O  O141  1  0.815300  0.986100  0.036040  1.0  -0.6229
  O  O142  1  0.921000  0.859460  0.069730  1.0  -0.5711
  O  O143  1  0.229000  0.733770  0.849120  1.0  -0.5616
  O  O144  1  0.150650  0.666090  0.931260  1.0  -0.6386
  O  O145  1  0.937900  0.025700  0.827370  1.0  -0.2719
  O  O146  1  0.996740  0.205050  0.772040  1.0  -0.2631
  O  O147  1  0.522670  0.218720  0.702240  1.0  -0.5898
  O  O148  1  0.394800  0.099760  0.681140  1.0  -0.5191
  O  O149  1  0.355000  0.512930  0.809400  1.0  -0.5557
  O  O150  1  0.172700  0.498420  0.849450  1.0  -0.6386
  O  O151  1  0.684700  0.013900  0.536040  1.0  -0.6236
  O  O152  1  0.579000  0.140540  0.569730  1.0  -0.5705
  O  O153  1  0.271000  0.266230  0.349120  1.0  -0.5626
  O  O154  1  0.349350  0.333910  0.431260  1.0  -0.6383
  O  O155  1  0.562100  0.974300  0.327370  1.0  -0.2722
  O  O156  1  0.503260  0.794950  0.272040  1.0  -0.2641
  O  O157  1  0.977330  0.781280  0.202240  1.0  -0.5886
  O  O158  1  0.105200  0.900240  0.181140  1.0  -0.5166
  O  O159  1  0.145000  0.487070  0.309400  1.0  -0.559
  O  O160  1  0.327300  0.501580  0.349450  1.0  -0.6395
