# generated using pymatgen
data_Co2H8C17O11
_symmetry_space_group_name_H-M   'P 1'
_cell_length_a   10.20670000
_cell_length_b   11.12970000
_cell_length_c   13.92510000
_cell_angle_alpha   112.66300000
_cell_angle_beta   104.57400000
_cell_angle_gamma   94.79600000
_symmetry_Int_Tables_number   1
_chemical_formula_structural   Co2H8C17O11
_chemical_formula_sum   'Co4 H16 C34 O22'
_cell_volume   1383.57339917
_cell_formula_units_Z   2
loop_
 _symmetry_equiv_pos_site_id
 _symmetry_equiv_pos_as_xyz
  1  'x, y, z'
loop_
 _atom_site_type_symbol
 _atom_site_label
 _atom_site_symmetry_multiplicity
 _atom_site_fract_x
 _atom_site_fract_y
 _atom_site_fract_z
 _atom_site_occupancy
 _atom_site_charge
  Co  Co1  1  0.494300  0.136330  0.490980  1.0  1.1584
  Co  Co2  1  0.613820  0.921760  0.302400  1.0  1.0658
  Co  Co3  1  0.505700  0.863670  0.509020  1.0  1.1595
  Co  Co4  1  0.386180  0.078240  0.697600  1.0  1.0655
  H  H5  1  0.078500  0.966700  0.306500  1.0  0.1215
  H  H6  1  0.799900  0.690700  0.025700  1.0  0.1431
  H  H7  1  0.210600  0.730800  0.059200  1.0  0.1334
  H  H8  1  0.140500  0.530000  0.935700  1.0  0.0825
  H  H9  1  0.027100  0.452300  0.816900  1.0  0.0875
  H  H10  1  0.211100  0.780900  0.774000  1.0  0.1333
  H  H11  1  0.415800  0.532600  0.596900  1.0  0.1249
  H  H12  1  0.220900  0.420300  0.778500  1.0  0.1271
  H  H13  1  0.921500  0.033300  0.693500  1.0  0.1221
  H  H14  1  0.200100  0.309300  0.974300  1.0  0.1426
  H  H15  1  0.789400  0.269200  0.940800  1.0  0.1335
  H  H16  1  0.859500  0.470000  0.064300  1.0  0.0873
  H  H17  1  0.972900  0.547700  0.183100  1.0  0.0877
  H  H18  1  0.788900  0.219100  0.226000  1.0  0.1334
  H  H19  1  0.584200  0.467400  0.403100  1.0  0.1252
  H  H20  1  0.779100  0.579700  0.221500  1.0  0.1271
  C  C21  1  0.312300  0.930900  0.257800  1.0  0.7129
  C  C22  1  0.165500  0.862100  0.191400  1.0  -0.1196
  C  C23  1  0.058500  0.898400  0.234800  1.0  -0.0322
  C  C24  1  0.922900  0.834900  0.173600  1.0  -0.1101
  C  C25  1  0.807300  0.871600  0.221000  1.0  0.6111
  C  C26  1  0.892800  0.732900  0.068700  1.0  -0.1226
  C  C27  1  0.001000  0.694500  0.028600  1.0  0.2412
  C  C28  1  0.137700  0.757900  0.088100  1.0  -0.1652
  C  C29  1  0.064700  0.539700  0.880500  1.0  0.3019
  C  C30  1  0.200300  0.602800  0.782800  1.0  0.2666
  C  C31  1  0.240500  0.698600  0.750100  1.0  -0.1195
  C  C32  1  0.323800  0.675000  0.682500  1.0  -0.1135
  C  C33  1  0.371000  0.781100  0.650600  1.0  0.7294
  C  C34  1  0.362700  0.551900  0.646100  1.0  -0.0179
  C  C35  1  0.324200  0.457600  0.681300  1.0  -0.0719
  C  C36  1  0.372300  0.328200  0.646800  1.0  0.7126
  C  C37  1  0.244500  0.483300  0.752000  1.0  -0.1828
  C  C38  1  0.687700  0.069100  0.742200  1.0  0.714
  C  C39  1  0.834500  0.137900  0.808600  1.0  -0.1189
  C  C40  1  0.941500  0.101600  0.765200  1.0  -0.0322
  C  C41  1  0.077100  0.165100  0.826400  1.0  -0.1107
  C  C42  1  0.192700  0.128400  0.779000  1.0  0.6115
  C  C43  1  0.107200  0.267100  0.931300  1.0  -0.1219
  C  C44  1  0.999000  0.305500  0.971400  1.0  0.2403
  C  C45  1  0.862300  0.242100  0.911900  1.0  -0.164
  C  C46  1  0.935300  0.460300  0.119500  1.0  0.2986
  C  C47  1  0.799700  0.397200  0.217200  1.0  0.2672
  C  C48  1  0.759500  0.301400  0.249900  1.0  -0.1189
  C  C49  1  0.676200  0.325000  0.317500  1.0  -0.1157
  C  C50  1  0.629000  0.218900  0.349400  1.0  0.7292
  C  C51  1  0.637300  0.448100  0.353900  1.0  -0.0191
  C  C52  1  0.675800  0.542400  0.318700  1.0  -0.0723
  C  C53  1  0.627700  0.671800  0.353200  1.0  0.7126
  C  C54  1  0.755500  0.516700  0.248000  1.0  -0.1815
  O  O55  1  0.330500  0.037000  0.343470  1.0  -0.5587
  O  O56  1  0.406000  0.878800  0.224020  1.0  -0.5596
  O  O57  1  0.685500  0.844700  0.158880  1.0  -0.4959
  O  O58  1  0.836700  0.930700  0.324510  1.0  -0.5173
  O  O59  1  0.959900  0.587300  0.925570  1.0  -0.2934
  O  O60  1  0.113500  0.637400  0.847260  1.0  -0.2852
  O  O61  1  0.421300  0.746900  0.572310  1.0  -0.571
  O  O62  1  0.356400  0.896400  0.704680  1.0  -0.552
  O  O63  1  0.386300  0.280800  0.551160  1.0  -0.5614
  O  O64  1  0.394500  0.273600  0.710930  1.0  -0.5623
  O  O65  1  0.606800  0.989500  0.456460  1.0  -0.7429
  O  O66  1  0.669500  0.963000  0.656530  1.0  -0.5573
  O  O67  1  0.594000  0.121200  0.775980  1.0  -0.5599
  O  O68  1  0.314500  0.155300  0.841120  1.0  -0.4947
  O  O69  1  0.163300  0.069300  0.675490  1.0  -0.5163
  O  O70  1  0.040100  0.412700  0.074430  1.0  -0.2951
  O  O71  1  0.886500  0.362600  0.152740  1.0  -0.2839
  O  O72  1  0.578700  0.253100  0.427690  1.0  -0.5708
  O  O73  1  0.643600  0.103600  0.295320  1.0  -0.5563
  O  O74  1  0.613700  0.719200  0.448840  1.0  -0.5614
  O  O75  1  0.605500  0.726400  0.289070  1.0  -0.5619
  O  O76  1  0.393200  0.010500  0.543540  1.0  -0.7429
