# generated using pymatgen
data_LaCo3H30C18S6(NO2)6
_symmetry_space_group_name_H-M   'P 1'
_cell_length_a   10.45400000
_cell_length_b   10.45400000
_cell_length_c   33.38300000
_cell_angle_alpha   90.00000000
_cell_angle_beta   90.00000000
_cell_angle_gamma   120.00000000
_symmetry_Int_Tables_number   1
_chemical_formula_structural   LaCo3H30C18S6(NO2)6
_chemical_formula_sum   'La3 Co9 H90 C54 S18 N18 O36'
_cell_volume   3159.51910402
_cell_formula_units_Z   3
loop_
 _symmetry_equiv_pos_site_id
 _symmetry_equiv_pos_as_xyz
  1  'x, y, z'
loop_
 _atom_site_type_symbol
 _atom_site_label
 _atom_site_symmetry_multiplicity
 _atom_site_fract_x
 _atom_site_fract_y
 _atom_site_fract_z
 _atom_site_occupancy
 _atom_site_charge
  La  La1  1  0.000000  0.000000  0.000000  1.0  2.0592
  La  La2  1  0.666667  0.333333  0.333333  1.0  2.0591
  La  La3  1  0.333333  0.666667  0.666667  1.0  2.0595
  Co  Co4  1  0.666667  0.333333  0.918780  1.0  0.3413
  Co  Co5  1  0.333333  0.666667  0.252110  1.0  0.3407
  Co  Co6  1  0.000000  0.000000  0.585440  1.0  0.3417
  Co  Co7  1  0.333333  0.666667  0.081220  1.0  0.3436
  Co  Co8  1  0.000000  0.000000  0.414560  1.0  0.3438
  Co  Co9  1  0.666667  0.333333  0.747890  1.0  0.3429
  Co  Co10  1  0.666667  0.333333  0.833330  1.0  0.3397
  Co  Co11  1  0.000000  0.000000  0.500000  1.0  0.3402
  Co  Co12  1  0.333333  0.666667  0.166670  1.0  0.3387
  H  H13  1  0.538600  0.361400  0.976400  1.0  0.2521
  H  H14  1  0.605200  0.501600  0.953400  1.0  0.2697
  H  H15  1  0.467100  0.450400  0.877600  1.0  0.1261
  H  H16  1  0.302100  0.311100  0.878600  1.0  0.1269
  H  H17  1  0.382700  0.441100  0.942000  1.0  0.1039
  H  H18  1  0.205270  0.694730  0.309730  1.0  0.252
  H  H19  1  0.271870  0.834930  0.286730  1.0  0.2698
  H  H20  1  0.133770  0.783730  0.210930  1.0  0.1261
  H  H21  1  0.968770  0.644430  0.211930  1.0  0.1269
  H  H22  1  0.049370  0.774430  0.275330  1.0  0.1039
  H  H23  1  0.871930  0.028070  0.643070  1.0  0.2521
  H  H24  1  0.938530  0.168270  0.620070  1.0  0.2698
  H  H25  1  0.800430  0.117070  0.544270  1.0  0.1276
  H  H26  1  0.635430  0.977770  0.545270  1.0  0.1248
  H  H27  1  0.716030  0.107770  0.608670  1.0  0.1039
  H  H28  1  0.638600  0.177200  0.976400  1.0  0.2505
  H  H29  1  0.498400  0.103600  0.953400  1.0  0.2733
  H  H30  1  0.549600  0.016700  0.877600  1.0  0.1304
  H  H31  1  0.688900  0.991000  0.878600  1.0  0.1278
  H  H32  1  0.558900  0.941600  0.942000  1.0  0.1
  H  H33  1  0.305270  0.510530  0.309730  1.0  0.2505
  H  H34  1  0.165070  0.436930  0.286730  1.0  0.2733
  H  H35  1  0.216270  0.350030  0.210930  1.0  0.1304
  H  H36  1  0.355570  0.324330  0.211930  1.0  0.1278
  H  H37  1  0.225570  0.274930  0.275330  1.0  0.1
  H  H38  1  0.971930  0.843870  0.643070  1.0  0.2505
  H  H39  1  0.831730  0.770270  0.620070  1.0  0.2734
  H  H40  1  0.882930  0.683370  0.544270  1.0  0.1289
  H  H41  1  0.022230  0.657670  0.545270  1.0  0.1264
  H  H42  1  0.892230  0.608270  0.608670  1.0  0.1
  H  H43  1  0.822800  0.461400  0.976400  1.0  0.2512
  H  H44  1  0.896400  0.394800  0.953400  1.0  0.2736
  H  H45  1  0.983300  0.532900  0.877600  1.0  0.1296
  H  H46  1  0.009000  0.697900  0.878600  1.0  0.1275
  H  H47  1  0.058400  0.617300  0.942000  1.0  0.1018
  H  H48  1  0.489470  0.794730  0.309730  1.0  0.2512
  H  H49  1  0.563070  0.728130  0.286730  1.0  0.2736
  H  H50  1  0.649970  0.866230  0.210930  1.0  0.1296
  H  H51  1  0.675670  0.031230  0.211930  1.0  0.1275
  H  H52  1  0.725070  0.950630  0.275330  1.0  0.1018
  H  H53  1  0.156130  0.128070  0.643070  1.0  0.2512
  H  H54  1  0.229730  0.061470  0.620070  1.0  0.2736
  H  H55  1  0.316630  0.199570  0.544270  1.0  0.1275
  H  H56  1  0.342330  0.364570  0.545270  1.0  0.1266
  H  H57  1  0.391730  0.283970  0.608670  1.0  0.1018
  H  H58  1  0.361400  0.538600  0.023600  1.0  0.2522
  H  H59  1  0.501600  0.605200  0.046600  1.0  0.2736
  H  H60  1  0.450400  0.467100  0.122400  1.0  0.1263
  H  H61  1  0.311100  0.302100  0.121400  1.0  0.1285
  H  H62  1  0.441100  0.382700  0.058000  1.0  0.1009
  H  H63  1  0.028070  0.871930  0.356930  1.0  0.2522
  H  H64  1  0.168270  0.938530  0.379930  1.0  0.2736
  H  H65  1  0.117070  0.800430  0.455730  1.0  0.1282
  H  H66  1  0.977770  0.635430  0.454730  1.0  0.1279
  H  H67  1  0.107770  0.716030  0.391330  1.0  0.1009
  H  H68  1  0.694730  0.205270  0.690270  1.0  0.2522
  H  H69  1  0.834930  0.271870  0.713270  1.0  0.2737
  H  H70  1  0.783730  0.133770  0.789070  1.0  0.1263
  H  H71  1  0.644430  0.968770  0.788070  1.0  0.1285
  H  H72  1  0.774430  0.049370  0.724670  1.0  0.1009
  H  H73  1  0.177200  0.638600  0.023600  1.0  0.2531
  H  H74  1  0.103600  0.498400  0.046600  1.0  0.2686
  H  H75  1  0.016700  0.549600  0.122400  1.0  0.1295
  H  H76  1  0.991000  0.688900  0.121400  1.0  0.1275
  H  H77  1  0.941600  0.558900  0.058000  1.0  0.1043
  H  H78  1  0.843870  0.971930  0.356930  1.0  0.2531
  H  H79  1  0.770270  0.831730  0.379930  1.0  0.2686
  H  H80  1  0.683370  0.882930  0.455730  1.0  0.1281
  H  H81  1  0.657670  0.022230  0.454730  1.0  0.1262
  H  H82  1  0.608270  0.892230  0.391330  1.0  0.1043
  H  H83  1  0.510530  0.305270  0.690270  1.0  0.2531
  H  H84  1  0.436930  0.165070  0.713270  1.0  0.2686
  H  H85  1  0.350030  0.216270  0.789070  1.0  0.1295
  H  H86  1  0.324330  0.355570  0.788070  1.0  0.1275
  H  H87  1  0.274930  0.225570  0.724670  1.0  0.1043
  H  H88  1  0.461400  0.822800  0.023600  1.0  0.2515
  H  H89  1  0.394800  0.896400  0.046600  1.0  0.2747
  H  H90  1  0.532900  0.983300  0.122400  1.0  0.1297
  H  H91  1  0.697900  0.009000  0.121400  1.0  0.1268
  H  H92  1  0.617300  0.058400  0.058000  1.0  0.1037
  H  H93  1  0.128070  0.156130  0.356930  1.0  0.2515
  H  H94  1  0.061470  0.229730  0.379930  1.0  0.2747
  H  H95  1  0.199570  0.316630  0.455730  1.0  0.1277
  H  H96  1  0.364570  0.342330  0.454730  1.0  0.1271
  H  H97  1  0.283970  0.391730  0.391330  1.0  0.1037
  H  H98  1  0.794730  0.489470  0.690270  1.0  0.2515
  H  H99  1  0.728130  0.563070  0.713270  1.0  0.2747
  H  H100  1  0.866230  0.649970  0.789070  1.0  0.1297
  H  H101  1  0.031230  0.675670  0.788070  1.0  0.1268
  H  H102  1  0.950630  0.725070  0.724670  1.0  0.1037
  C  C103  1  0.403400  0.351100  0.889230  1.0  -0.2141
  C  C104  1  0.402800  0.359900  0.934810  1.0  0.0062
  C  C105  1  0.280700  0.217800  0.953420  1.0  0.6719
  C  C106  1  0.070070  0.684430  0.222560  1.0  -0.2142
  C  C107  1  0.069470  0.693230  0.268140  1.0  0.0062
  C  C108  1  0.947370  0.551130  0.286750  1.0  0.6719
  C  C109  1  0.736730  0.017770  0.555900  1.0  -0.2141
  C  C110  1  0.736130  0.026570  0.601480  1.0  0.0062
  C  C111  1  0.614030  0.884470  0.620090  1.0  0.6719
  C  C112  1  0.648900  0.052300  0.889230  1.0  -0.2106
  C  C113  1  0.640100  0.042900  0.934810  1.0  0.007
  C  C114  1  0.782200  0.062900  0.953420  1.0  0.6725
  C  C115  1  0.315570  0.385630  0.222560  1.0  -0.2106
  C  C116  1  0.306770  0.376230  0.268140  1.0  0.007
  C  C117  1  0.448870  0.396230  0.286750  1.0  0.6725
  C  C118  1  0.982230  0.718970  0.555900  1.0  -0.2106
  C  C119  1  0.973430  0.709570  0.601480  1.0  0.0069
  C  C120  1  0.115530  0.729570  0.620090  1.0  0.6725
  C  C121  1  0.947700  0.596600  0.889230  1.0  -0.2127
  C  C122  1  0.957100  0.597200  0.934810  1.0  0.0076
  C  C123  1  0.937100  0.719300  0.953420  1.0  0.672
  C  C124  1  0.614370  0.929930  0.222560  1.0  -0.2127
  C  C125  1  0.623770  0.930530  0.268140  1.0  0.0076
  C  C126  1  0.603770  0.052630  0.286750  1.0  0.672
  C  C127  1  0.281030  0.263270  0.555900  1.0  -0.2126
  C  C128  1  0.290430  0.263870  0.601480  1.0  0.0075
  C  C129  1  0.270430  0.385970  0.620090  1.0  0.672
  C  C130  1  0.351100  0.403400  0.110770  1.0  -0.2105
  C  C131  1  0.359900  0.402800  0.065190  1.0  0.0083
  C  C132  1  0.217800  0.280700  0.046580  1.0  0.6703
  C  C133  1  0.017770  0.736730  0.444100  1.0  -0.2105
  C  C134  1  0.026570  0.736130  0.398520  1.0  0.0083
  C  C135  1  0.884470  0.614030  0.379910  1.0  0.6703
  C  C136  1  0.684430  0.070070  0.777440  1.0  -0.2105
  C  C137  1  0.693230  0.069470  0.731860  1.0  0.0084
  C  C138  1  0.551130  0.947370  0.713250  1.0  0.6703
  C  C139  1  0.052300  0.648900  0.110770  1.0  -0.2132
  C  C140  1  0.042900  0.640100  0.065190  1.0  0.0058
  C  C141  1  0.062900  0.782200  0.046580  1.0  0.6741
  C  C142  1  0.718970  0.982230  0.444100  1.0  -0.2132
  C  C143  1  0.709570  0.973430  0.398520  1.0  0.0058
  C  C144  1  0.729570  0.115530  0.379910  1.0  0.6741
  C  C145  1  0.385630  0.315570  0.777440  1.0  -0.2132
  C  C146  1  0.376230  0.306770  0.731860  1.0  0.0059
  C  C147  1  0.396230  0.448870  0.713250  1.0  0.6741
  C  C148  1  0.596600  0.947700  0.110770  1.0  -0.2117
  C  C149  1  0.597200  0.957100  0.065190  1.0  0.0088
  C  C150  1  0.719300  0.937100  0.046580  1.0  0.6722
  C  C151  1  0.263270  0.281030  0.444100  1.0  -0.2117
  C  C152  1  0.263870  0.290430  0.398520  1.0  0.0088
  C  C153  1  0.385970  0.270430  0.379910  1.0  0.6722
  C  C154  1  0.929930  0.614370  0.777440  1.0  -0.2118
  C  C155  1  0.930530  0.623770  0.731860  1.0  0.0088
  C  C156  1  0.052630  0.603770  0.713250  1.0  0.6722
  S  S157  1  0.474950  0.228910  0.876580  1.0  -0.0332
  S  S158  1  0.141620  0.562240  0.209910  1.0  -0.0332
  S  S159  1  0.808280  0.895580  0.543240  1.0  -0.0334
  S  S160  1  0.771090  0.246040  0.876580  1.0  -0.0308
  S  S161  1  0.437760  0.579370  0.209910  1.0  -0.0308
  S  S162  1  0.104420  0.912710  0.543240  1.0  -0.0324
  S  S163  1  0.753960  0.525050  0.876580  1.0  -0.0336
  S  S164  1  0.420630  0.858380  0.209910  1.0  -0.0336
  S  S165  1  0.087290  0.191720  0.543240  1.0  -0.0337
  S  S166  1  0.228910  0.474950  0.123430  1.0  -0.0353
  S  S167  1  0.895580  0.808280  0.456760  1.0  -0.034
  S  S168  1  0.562240  0.141620  0.790090  1.0  -0.0338
  S  S169  1  0.246040  0.771090  0.123430  1.0  -0.0363
  S  S170  1  0.912710  0.104420  0.456760  1.0  -0.0364
  S  S171  1  0.579370  0.437760  0.790090  1.0  -0.0348
  S  S172  1  0.525050  0.753960  0.123430  1.0  -0.0324
  S  S173  1  0.191720  0.087290  0.456760  1.0  -0.031
  S  S174  1  0.858380  0.420630  0.790090  1.0  -0.0308
  N  N175  1  0.550800  0.400500  0.951090  1.0  -0.6007
  N  N176  1  0.217470  0.733830  0.284420  1.0  -0.6007
  N  N177  1  0.884130  0.067170  0.617760  1.0  -0.6007
  N  N178  1  0.599500  0.150300  0.951090  1.0  -0.6005
  N  N179  1  0.266170  0.483630  0.284420  1.0  -0.6005
  N  N180  1  0.932830  0.816970  0.617760  1.0  -0.6005
  N  N181  1  0.849700  0.449200  0.951090  1.0  -0.6006
  N  N182  1  0.516370  0.782530  0.284420  1.0  -0.6006
  N  N183  1  0.183030  0.115870  0.617760  1.0  -0.6006
  N  N184  1  0.400500  0.550800  0.048910  1.0  -0.5966
  N  N185  1  0.067170  0.884130  0.382240  1.0  -0.5966
  N  N186  1  0.733830  0.217470  0.715580  1.0  -0.5966
  N  N187  1  0.150300  0.599500  0.048910  1.0  -0.5969
  N  N188  1  0.816970  0.932830  0.382240  1.0  -0.5969
  N  N189  1  0.483630  0.266170  0.715580  1.0  -0.5969
  N  N190  1  0.449200  0.849700  0.048910  1.0  -0.5973
  N  N191  1  0.115870  0.183030  0.382240  1.0  -0.5973
  N  N192  1  0.782530  0.516370  0.715580  1.0  -0.5973
  O  O193  1  0.150320  0.174860  0.941530  1.0  -0.672
  O  O194  1  0.310240  0.154700  0.980360  1.0  -0.5599
  O  O195  1  0.816990  0.508190  0.274860  1.0  -0.672
  O  O196  1  0.976910  0.488030  0.313690  1.0  -0.5599
  O  O197  1  0.483650  0.841530  0.608200  1.0  -0.672
  O  O198  1  0.643570  0.821370  0.647030  1.0  -0.5599
  O  O199  1  0.825140  0.975460  0.941530  1.0  -0.6735
  O  O200  1  0.845300  0.155540  0.980360  1.0  -0.5598
  O  O201  1  0.491810  0.308790  0.274860  1.0  -0.6735
  O  O202  1  0.511970  0.488870  0.313690  1.0  -0.5598
  O  O203  1  0.158470  0.642130  0.608200  1.0  -0.6735
  O  O204  1  0.178630  0.822210  0.647030  1.0  -0.5598
  O  O205  1  0.024540  0.849680  0.941530  1.0  -0.6683
  O  O206  1  0.844460  0.689760  0.980360  1.0  -0.5584
  O  O207  1  0.691210  0.183010  0.274860  1.0  -0.6683
  O  O208  1  0.511130  0.023090  0.313690  1.0  -0.5584
  O  O209  1  0.357870  0.516350  0.608200  1.0  -0.6683
  O  O210  1  0.177790  0.356430  0.647030  1.0  -0.5584
  O  O211  1  0.174860  0.150320  0.058470  1.0  -0.671
  O  O212  1  0.154700  0.310240  0.019640  1.0  -0.559
  O  O213  1  0.841530  0.483650  0.391800  1.0  -0.671
  O  O214  1  0.821370  0.643570  0.352970  1.0  -0.559
  O  O215  1  0.508190  0.816990  0.725140  1.0  -0.671
  O  O216  1  0.488030  0.976910  0.686310  1.0  -0.559
  O  O217  1  0.975460  0.825140  0.058470  1.0  -0.6718
  O  O218  1  0.155540  0.845300  0.019640  1.0  -0.5601
  O  O219  1  0.642130  0.158470  0.391800  1.0  -0.6718
  O  O220  1  0.822210  0.178630  0.352970  1.0  -0.5601
  O  O221  1  0.308790  0.491810  0.725140  1.0  -0.6718
  O  O222  1  0.488870  0.511970  0.686310  1.0  -0.5601
  O  O223  1  0.849680  0.024540  0.058470  1.0  -0.6729
  O  O224  1  0.689760  0.844460  0.019640  1.0  -0.5603
  O  O225  1  0.516350  0.357870  0.391800  1.0  -0.6729
  O  O226  1  0.356430  0.177790  0.352970  1.0  -0.5603
  O  O227  1  0.183010  0.691210  0.725140  1.0  -0.6729
  O  O228  1  0.023090  0.511130  0.686310  1.0  -0.5603
