# generated using pymatgen
data_YbCo3H30C18S6(NO2)6
_symmetry_space_group_name_H-M   'P 1'
_cell_length_a   13.54510000
_cell_length_b   13.54510000
_cell_length_c   23.03940000
_cell_angle_alpha   90.00000000
_cell_angle_beta   90.00000000
_cell_angle_gamma   120.00000000
_symmetry_Int_Tables_number   1
_chemical_formula_structural   YbCo3H30C18S6(NO2)6
_chemical_formula_sum   'Yb3 Co9 H90 C54 S18 N18 O36'
_cell_volume   3660.71760535
_cell_formula_units_Z   3
loop_
 _symmetry_equiv_pos_site_id
 _symmetry_equiv_pos_as_xyz
  1  'x, y, z'
loop_
 _atom_site_type_symbol
 _atom_site_label
 _atom_site_symmetry_multiplicity
 _atom_site_fract_x
 _atom_site_fract_y
 _atom_site_fract_z
 _atom_site_occupancy
 _atom_site_charge
  Yb  Yb1  1  0.602580  0.000000  0.000000  1.0  1.6713
  Yb  Yb2  1  0.397420  0.397420  0.666667  1.0  1.6718
  Yb  Yb3  1  0.000000  0.602580  0.333333  1.0  1.6726
  Co  Co4  1  0.231850  0.900740  0.793040  1.0  0.1072
  Co  Co5  1  0.668890  0.768150  0.459710  1.0  0.1049
  Co  Co6  1  0.099260  0.331110  0.126370  1.0  0.1079
  Co  Co7  1  0.331110  0.099260  0.206960  1.0  0.1066
  Co  Co8  1  0.900740  0.231850  0.540290  1.0  0.1058
  Co  Co9  1  0.768150  0.668890  0.873630  1.0  0.1079
  Co  Co10  1  0.000000  0.796530  0.833330  1.0  -0.0479
  Co  Co11  1  0.796530  0.000000  0.500000  1.0  -0.0262
  Co  Co12  1  0.203470  0.203470  0.166670  1.0  -0.0499
  H  H13  1  0.382600  0.939900  0.863100  1.0  0.3025
  H  H14  1  0.428300  0.035600  0.821100  1.0  0.3106
  H  H15  1  0.316800  0.088600  0.749300  1.0  0.2998
  H  H16  1  0.361700  0.023300  0.718400  1.0  0.3127
  H  H17  1  0.261500  0.782200  0.720200  1.0  0.3031
  H  H18  1  0.370400  0.848900  0.752600  1.0  0.3123
  H  H19  1  0.218900  0.062000  0.933300  1.0  0.1299
  H  H20  1  0.205800  0.937400  0.929200  1.0  0.1192
  H  H21  1  0.376200  0.138200  0.869700  1.0  0.0896
  H  H22  1  0.044300  0.926600  0.670900  1.0  0.1253
  H  H23  1  0.086700  0.997000  0.730600  1.0  0.1208
  H  H24  1  0.226000  0.950000  0.654400  1.0  0.0946
  H  H25  1  0.122600  0.582200  0.837800  1.0  0.14
  H  H26  1  0.089100  0.628200  0.781000  1.0  0.1136
  H  H27  1  0.316200  0.729200  0.826900  1.0  0.0873
  H  H28  1  0.557300  0.617400  0.529770  1.0  0.3064
  H  H29  1  0.607300  0.571700  0.487770  1.0  0.3091
  H  H30  1  0.771800  0.683200  0.415970  1.0  0.3048
  H  H31  1  0.661600  0.638300  0.385070  1.0  0.3046
  H  H32  1  0.520700  0.738500  0.386870  1.0  0.304
  H  H33  1  0.478500  0.629600  0.419270  1.0  0.3082
  H  H34  1  0.843100  0.781100  0.599970  1.0  0.1301
  H  H35  1  0.731600  0.794200  0.595870  1.0  0.1187
  H  H36  1  0.762000  0.623800  0.536370  1.0  0.0909
  H  H37  1  0.882300  0.955700  0.337570  1.0  0.1258
  H  H38  1  0.910300  0.913300  0.397270  1.0  0.1196
  H  H39  1  0.724000  0.774000  0.321070  1.0  0.0943
  H  H40  1  0.459600  0.877400  0.504470  1.0  0.1392
  H  H41  1  0.539100  0.910900  0.447670  1.0  0.1145
  H  H42  1  0.413000  0.683800  0.493570  1.0  0.0889
  H  H43  1  0.060100  0.442700  0.196430  1.0  0.304
  H  H44  1  0.964400  0.392700  0.154430  1.0  0.3114
  H  H45  1  0.911400  0.228200  0.082630  1.0  0.2994
  H  H46  1  0.976700  0.338400  0.051730  1.0  0.3058
  H  H47  1  0.217800  0.479300  0.053530  1.0  0.3033
  H  H48  1  0.151100  0.521500  0.085930  1.0  0.3121
  H  H49  1  0.938000  0.156900  0.266630  1.0  0.1315
  H  H50  1  0.062600  0.268400  0.262530  1.0  0.1193
  H  H51  1  0.861800  0.238000  0.203030  1.0  0.0947
  H  H52  1  0.073400  0.117700  0.004230  1.0  0.125
  H  H53  1  0.003000  0.089700  0.063930  1.0  0.1209
  H  H54  1  0.050000  0.276000  0.987730  1.0  0.0949
  H  H55  1  0.417800  0.540400  0.171130  1.0  0.1383
  H  H56  1  0.371800  0.460900  0.114330  1.0  0.1137
  H  H57  1  0.270800  0.587000  0.160230  1.0  0.0897
  H  H58  1  0.442700  0.060100  0.136900  1.0  0.3025
  H  H59  1  0.392700  0.964400  0.178900  1.0  0.3096
  H  H60  1  0.228200  0.911400  0.250700  1.0  0.3003
  H  H61  1  0.338400  0.976700  0.281600  1.0  0.3125
  H  H62  1  0.479300  0.217800  0.279800  1.0  0.3019
  H  H63  1  0.521500  0.151100  0.247400  1.0  0.3115
  H  H64  1  0.156900  0.938000  0.066700  1.0  0.1302
  H  H65  1  0.268400  0.062600  0.070800  1.0  0.1194
  H  H66  1  0.238000  0.861800  0.130300  1.0  0.0883
  H  H67  1  0.117700  0.073400  0.329100  1.0  0.1244
  H  H68  1  0.089700  0.003000  0.269400  1.0  0.1202
  H  H69  1  0.276000  0.050000  0.345600  1.0  0.0949
  H  H70  1  0.540400  0.417800  0.162200  1.0  0.1396
  H  H71  1  0.460900  0.371800  0.219000  1.0  0.1145
  H  H72  1  0.587000  0.270800  0.173100  1.0  0.0871
  H  H73  1  0.939900  0.382600  0.470230  1.0  0.3067
  H  H74  1  0.035600  0.428300  0.512230  1.0  0.3081
  H  H75  1  0.088600  0.316800  0.584030  1.0  0.3055
  H  H76  1  0.023300  0.361700  0.614930  1.0  0.306
  H  H77  1  0.782200  0.261500  0.613130  1.0  0.3041
  H  H78  1  0.848900  0.370400  0.580730  1.0  0.3044
  H  H79  1  0.062000  0.218900  0.400030  1.0  0.1311
  H  H80  1  0.937400  0.205800  0.404130  1.0  0.1188
  H  H81  1  0.138200  0.376200  0.463630  1.0  0.0909
  H  H82  1  0.926600  0.044300  0.662430  1.0  0.126
  H  H83  1  0.997000  0.086700  0.602730  1.0  0.1192
  H  H84  1  0.950000  0.226000  0.678930  1.0  0.0949
  H  H85  1  0.582200  0.122600  0.495530  1.0  0.1391
  H  H86  1  0.628200  0.089100  0.552330  1.0  0.1163
  H  H87  1  0.729200  0.316200  0.506430  1.0  0.0875
  H  H88  1  0.617400  0.557300  0.803570  1.0  0.3025
  H  H89  1  0.571700  0.607300  0.845570  1.0  0.3098
  H  H90  1  0.683200  0.771800  0.917370  1.0  0.3002
  H  H91  1  0.638300  0.661600  0.948270  1.0  0.3057
  H  H92  1  0.738500  0.520700  0.946470  1.0  0.3033
  H  H93  1  0.629600  0.478500  0.914070  1.0  0.3123
  H  H94  1  0.781100  0.843100  0.733370  1.0  0.1305
  H  H95  1  0.794200  0.731600  0.737470  1.0  0.1194
  H  H96  1  0.623800  0.762000  0.796970  1.0  0.0937
  H  H97  1  0.955700  0.882300  0.995770  1.0  0.1247
  H  H98  1  0.913300  0.910300  0.936070  1.0  0.1205
  H  H99  1  0.774000  0.724000  0.012270  1.0  0.0954
  H  H100  1  0.877400  0.459600  0.828870  1.0  0.1389
  H  H101  1  0.910900  0.539100  0.885670  1.0  0.114
  H  H102  1  0.683800  0.413000  0.839770  1.0  0.0887
  C  C103  1  0.229100  0.009000  0.907700  1.0  -0.1862
  C  C104  1  0.353600  0.062900  0.888000  1.0  0.0276
  C  C105  1  0.432300  0.083700  0.940800  1.0  0.6863
  C  C106  1  0.097200  0.945500  0.704000  1.0  -0.1802
  C  C107  1  0.219500  0.002300  0.682800  1.0  0.0273
  C  C108  1  0.253300  0.114200  0.652000  1.0  0.6772
  C  C109  1  0.143000  0.650500  0.813900  1.0  -0.188
  C  C110  1  0.264700  0.703500  0.792400  1.0  0.0346
  C  C111  1  0.279800  0.611800  0.760400  1.0  0.6013
  C  C112  1  0.779900  0.770900  0.574370  1.0  -0.1868
  C  C113  1  0.709300  0.646400  0.554670  1.0  0.0297
  C  C114  1  0.651400  0.567700  0.607470  1.0  0.6886
  C  C115  1  0.848300  0.902800  0.370670  1.0  -0.1784
  C  C116  1  0.782800  0.780500  0.349470  1.0  0.0288
  C  C117  1  0.860900  0.746700  0.318670  1.0  0.6757
  C  C118  1  0.507500  0.857000  0.480570  1.0  -0.1881
  C  C119  1  0.438800  0.735300  0.459070  1.0  0.0355
  C  C120  1  0.332000  0.720200  0.427070  1.0  0.6029
  C  C121  1  0.991000  0.220100  0.241030  1.0  -0.1868
  C  C122  1  0.937100  0.290700  0.221330  1.0  0.0288
  C  C123  1  0.916300  0.348600  0.274130  1.0  0.687
  C  C124  1  0.054500  0.151700  0.037330  1.0  -0.1799
  C  C125  1  0.997700  0.217200  0.016130  1.0  0.0267
  C  C126  1  0.885800  0.139100  0.985330  1.0  0.6773
  C  C127  1  0.349500  0.492500  0.147230  1.0  -0.1874
  C  C128  1  0.296500  0.561200  0.125730  1.0  0.0352
  C  C129  1  0.388200  0.668000  0.093730  1.0  0.6037
  C  C130  1  0.220100  0.991000  0.092300  1.0  -0.1868
  C  C131  1  0.290700  0.937100  0.112000  1.0  0.0276
  C  C132  1  0.348600  0.916300  0.059200  1.0  0.6866
  C  C133  1  0.151700  0.054500  0.296000  1.0  -0.1783
  C  C134  1  0.217200  0.997700  0.317200  1.0  0.028
  C  C135  1  0.139100  0.885800  0.348000  1.0  0.6781
  C  C136  1  0.492500  0.349500  0.186100  1.0  -0.187
  C  C137  1  0.561200  0.296500  0.207600  1.0  0.0343
  C  C138  1  0.668000  0.388200  0.239600  1.0  0.6019
  C  C139  1  0.009000  0.229100  0.425630  1.0  -0.1858
  C  C140  1  0.062900  0.353600  0.445330  1.0  0.0299
  C  C141  1  0.083700  0.432300  0.392530  1.0  0.6882
  C  C142  1  0.945500  0.097200  0.629330  1.0  -0.1776
  C  C143  1  0.002300  0.219500  0.650530  1.0  0.0284
  C  C144  1  0.114200  0.253300  0.681330  1.0  0.6765
  C  C145  1  0.650500  0.143000  0.519430  1.0  -0.1869
  C  C146  1  0.703500  0.264700  0.540930  1.0  0.0338
  C  C147  1  0.611800  0.279800  0.572930  1.0  0.6041
  C  C148  1  0.770900  0.779900  0.758970  1.0  -0.1849
  C  C149  1  0.646400  0.709300  0.778670  1.0  0.029
  C  C150  1  0.567700  0.651400  0.725870  1.0  0.6867
  C  C151  1  0.902800  0.848300  0.962670  1.0  -0.179
  C  C152  1  0.780500  0.782800  0.983870  1.0  0.0279
  C  C153  1  0.746700  0.860900  0.014670  1.0  0.677
  C  C154  1  0.857000  0.507500  0.852770  1.0  -0.1863
  C  C155  1  0.735300  0.438800  0.874270  1.0  0.0356
  C  C156  1  0.720200  0.332000  0.906270  1.0  0.6056
  S  S157  1  0.144240  0.980190  0.841420  1.0  0.0122
  S  S158  1  0.069540  0.815990  0.742070  1.0  -0.0475
  S  S159  1  0.139880  0.760400  0.856880  1.0  0.0044
  S  S160  1  0.835950  0.855760  0.508090  1.0  0.0116
  S  S161  1  0.746450  0.930460  0.408740  1.0  -0.0483
  S  S162  1  0.620520  0.860120  0.523550  1.0  0.0036
  S  S163  1  0.019810  0.164050  0.174750  1.0  0.0117
  S  S164  1  0.184010  0.253550  0.075400  1.0  -0.0478
  S  S165  1  0.239600  0.379480  0.190210  1.0  0.0054
  S  S166  1  0.164050  0.019810  0.158580  1.0  0.0112
  S  S167  1  0.253550  0.184010  0.257930  1.0  -0.0471
  S  S168  1  0.379480  0.239600  0.143120  1.0  0.0046
  S  S169  1  0.980190  0.144240  0.491910  1.0  0.0098
  S  S170  1  0.815990  0.069540  0.591260  1.0  -0.0496
  S  S171  1  0.760400  0.139880  0.476450  1.0  0.0039
  S  S172  1  0.855760  0.835950  0.825250  1.0  0.0089
  S  S173  1  0.930460  0.746450  0.924600  1.0  -0.0471
  S  S174  1  0.860120  0.620520  0.809790  1.0  0.0042
  N  N175  1  0.366600  0.990000  0.844100  1.0  -0.4676
  N  N176  1  0.296300  0.019400  0.732500  1.0  -0.4672
  N  N177  1  0.292500  0.805200  0.756600  1.0  -0.4762
  N  N178  1  0.623400  0.633400  0.510770  1.0  -0.4703
  N  N179  1  0.723100  0.703700  0.399170  1.0  -0.4678
  N  N180  1  0.512700  0.707500  0.423270  1.0  -0.4752
  N  N181  1  0.010000  0.376600  0.177430  1.0  -0.4684
  N  N182  1  0.980600  0.276900  0.065830  1.0  -0.4678
  N  N183  1  0.194800  0.487300  0.089930  1.0  -0.4771
  N  N184  1  0.376600  0.010000  0.155900  1.0  -0.4685
  N  N185  1  0.276900  0.980600  0.267500  1.0  -0.4666
  N  N186  1  0.487300  0.194800  0.243400  1.0  -0.4763
  N  N187  1  0.990000  0.366600  0.489230  1.0  -0.4703
  N  N188  1  0.019400  0.296300  0.600830  1.0  -0.4682
  N  N189  1  0.805200  0.292500  0.576730  1.0  -0.4756
  N  N190  1  0.633400  0.623400  0.822570  1.0  -0.4703
  N  N191  1  0.703700  0.723100  0.934170  1.0  -0.4673
  N  N192  1  0.707500  0.512700  0.910070  1.0  -0.4776
  O  O193  1  0.483500  0.028900  0.940980  1.0  -0.7519
  O  O194  1  0.435900  0.150700  0.979150  1.0  -0.607
  O  O195  1  0.322600  0.203300  0.678830  1.0  -0.7489
  O  O196  1  0.211700  0.110500  0.603080  1.0  -0.5872
  O  O197  1  0.323100  0.563400  0.788300  1.0  -0.554
  O  O198  1  0.241800  0.589000  0.709600  1.0  -0.5871
  O  O199  1  0.545400  0.516500  0.607650  1.0  -0.7474
  O  O200  1  0.714800  0.564100  0.645820  1.0  -0.6132
  O  O201  1  0.880700  0.677400  0.345500  1.0  -0.7526
  O  O202  1  0.898800  0.788300  0.269750  1.0  -0.5858
  O  O203  1  0.240300  0.676900  0.454970  1.0  -0.5567
  O  O204  1  0.347200  0.758200  0.376270  1.0  -0.5884
  O  O205  1  0.971100  0.454600  0.274310  1.0  -0.7492
  O  O206  1  0.849300  0.285200  0.312480  1.0  -0.6089
  O  O207  1  0.796700  0.119300  0.012160  1.0  -0.7556
  O  O208  1  0.889500  0.101200  0.936410  1.0  -0.5872
  O  O209  1  0.436600  0.759700  0.121630  1.0  -0.5554
  O  O210  1  0.411000  0.652800  0.042930  1.0  -0.5889
  O  O211  1  0.454600  0.971100  0.059020  1.0  -0.7537
  O  O212  1  0.285200  0.849300  0.020850  1.0  -0.6071
  O  O213  1  0.119300  0.796700  0.321170  1.0  -0.7519
  O  O214  1  0.101200  0.889500  0.396920  1.0  -0.5875
  O  O215  1  0.759700  0.436600  0.211700  1.0  -0.5547
  O  O216  1  0.652800  0.411000  0.290400  1.0  -0.5872
  O  O217  1  0.028900  0.483500  0.392350  1.0  -0.7483
  O  O218  1  0.150700  0.435900  0.354180  1.0  -0.6114
  O  O219  1  0.203300  0.322600  0.654500  1.0  -0.7467
  O  O220  1  0.110500  0.211700  0.730250  1.0  -0.5857
  O  O221  1  0.563400  0.323100  0.545030  1.0  -0.5581
  O  O222  1  0.589000  0.241800  0.623730  1.0  -0.5891
  O  O223  1  0.516500  0.545400  0.725690  1.0  -0.7527
  O  O224  1  0.564100  0.714800  0.687520  1.0  -0.6095
  O  O225  1  0.677400  0.880700  0.987840  1.0  -0.7553
  O  O226  1  0.788300  0.898800  0.063590  1.0  -0.5866
  O  O227  1  0.676900  0.240300  0.878370  1.0  -0.5566
  O  O228  1  0.758200  0.347200  0.957070  1.0  -0.5888
