# generated using pymatgen
data_YbH9(C3O)6
_symmetry_space_group_name_H-M   'P 1'
_cell_length_a   8.25680000
_cell_length_b   12.35240000
_cell_length_c   17.50100000
_cell_angle_alpha   97.38280000
_cell_angle_beta   90.00000000
_cell_angle_gamma   109.52500000
_symmetry_Int_Tables_number   1
_chemical_formula_structural   YbH9(C3O)6
_chemical_formula_sum   'Yb4 H36 C72 O24'
_cell_volume   1666.59875879
_cell_formula_units_Z   4
loop_
 _symmetry_equiv_pos_site_id
 _symmetry_equiv_pos_as_xyz
  1  'x, y, z'
loop_
 _atom_site_type_symbol
 _atom_site_label
 _atom_site_symmetry_multiplicity
 _atom_site_fract_x
 _atom_site_fract_y
 _atom_site_fract_z
 _atom_site_occupancy
 _atom_site_charge
  Yb  Yb1  1  0.314690  0.000000  0.750000  1.0  1.5649
  Yb  Yb2  1  0.685310  0.000000  0.250000  1.0  1.566
  Yb  Yb3  1  0.500000  0.000000  0.000000  1.0  1.4304
  Yb  Yb4  1  0.500000  0.000000  0.500000  1.0  1.4304
  H  H5  1  0.830000  0.505400  0.735000  1.0  0.1252
  H  H6  1  0.003300  0.697200  0.762100  1.0  0.1292
  H  H7  1  0.244000  0.622400  0.940300  1.0  0.1138
  H  H8  1  0.143600  0.421200  0.974900  1.0  0.1134
  H  H9  1  0.949400  0.234200  0.956400  1.0  0.1254
  H  H10  1  0.726500  0.305000  0.771200  1.0  0.1219
  H  H11  1  0.383200  0.431000  0.132600  1.0  0.1131
  H  H12  1  0.301900  0.242400  0.072200  1.0  0.1379
  H  H13  1  0.476700  0.357200  0.870200  1.0  0.1209
  H  H14  1  0.324600  0.494600  0.765000  1.0  0.1251
  H  H15  1  0.306100  0.302800  0.737900  1.0  0.1286
  H  H16  1  0.621600  0.377600  0.559700  1.0  0.1139
  H  H17  1  0.722400  0.578800  0.525100  1.0  0.1134
  H  H18  1  0.715200  0.765800  0.543600  1.0  0.1252
  H  H19  1  0.421500  0.695000  0.728800  1.0  0.1215
  H  H20  1  0.952200  0.569000  0.367400  1.0  0.114
  H  H21  1  0.059500  0.757600  0.427800  1.0  0.1385
  H  H22  1  0.119500  0.642800  0.629800  1.0  0.1199
  H  H23  1  0.170000  0.494600  0.265000  1.0  0.125
  H  H24  1  0.996700  0.302800  0.237900  1.0  0.1288
  H  H25  1  0.756000  0.377600  0.059700  1.0  0.1138
  H  H26  1  0.856400  0.578800  0.025100  1.0  0.1135
  H  H27  1  0.050600  0.765800  0.043600  1.0  0.1256
  H  H28  1  0.273500  0.695000  0.228800  1.0  0.1219
  H  H29  1  0.616800  0.569000  0.867400  1.0  0.1139
  H  H30  1  0.698100  0.757600  0.927800  1.0  0.1382
  H  H31  1  0.523300  0.642800  0.129800  1.0  0.1198
  H  H32  1  0.675400  0.505400  0.235000  1.0  0.1252
  H  H33  1  0.693900  0.697200  0.262100  1.0  0.1289
  H  H34  1  0.378400  0.622400  0.440300  1.0  0.1138
  H  H35  1  0.277600  0.421200  0.474900  1.0  0.1134
  H  H36  1  0.284800  0.234200  0.456400  1.0  0.1255
  H  H37  1  0.578500  0.305000  0.271200  1.0  0.1224
  H  H38  1  0.047800  0.431000  0.632600  1.0  0.1132
  H  H39  1  0.940500  0.242400  0.572200  1.0  0.1378
  H  H40  1  0.880500  0.357200  0.370200  1.0  0.1205
  C  C41  1  0.253700  0.801400  0.871100  1.0  0.7446
  C  C42  1  0.681800  0.135200  0.853300  1.0  0.738
  C  C43  1  0.923000  0.445800  0.824600  1.0  0.0527
  C  C44  1  0.911200  0.528800  0.777500  1.0  -0.1008
  C  C45  1  0.015200  0.641800  0.792800  1.0  -0.0343
  C  C46  1  0.141800  0.677200  0.854600  1.0  -0.1184
  C  C47  1  0.158150  0.598100  0.899600  1.0  -0.0829
  C  C48  1  0.048800  0.480400  0.886300  1.0  0.0526
  C  C49  1  0.057600  0.398800  0.934300  1.0  -0.1076
  C  C50  1  0.943300  0.287600  0.923000  1.0  -0.024
  C  C51  1  0.817000  0.252200  0.862400  1.0  -0.1014
  C  C52  1  0.809200  0.329800  0.813100  1.0  -0.0999
  C  C53  1  0.332500  0.160400  0.924200  1.0  0.7688
  C  C54  1  0.484700  0.510200  0.039900  1.0  0.0466
  C  C55  1  0.403900  0.416400  0.079500  1.0  -0.0603
  C  C56  1  0.354100  0.304800  0.043800  1.0  -0.0632
  C  C57  1  0.380700  0.281800  0.963300  1.0  -0.0876
  C  C58  1  0.459200  0.372600  0.923600  1.0  -0.0997
  C  C59  1  0.452300  0.198600  0.628900  1.0  0.7427
  C  C60  1  0.546600  0.864800  0.646700  1.0  0.739
  C  C61  1  0.477200  0.554200  0.675400  1.0  0.0526
  C  C62  1  0.382400  0.471200  0.722500  1.0  -0.1012
  C  C63  1  0.373400  0.358200  0.707200  1.0  -0.0335
  C  C64  1  0.464600  0.322800  0.645400  1.0  -0.1177
  C  C65  1  0.560050  0.401900  0.600400  1.0  -0.0829
  C  C66  1  0.568400  0.519600  0.613700  1.0  0.053
  C  C67  1  0.658800  0.601200  0.565700  1.0  -0.1065
  C  C68  1  0.655700  0.712400  0.577000  1.0  -0.0254
  C  C69  1  0.564800  0.747800  0.637600  1.0  -0.0993
  C  C70  1  0.479400  0.670200  0.686900  1.0  -0.1006
  C  C71  1  0.172100  0.839600  0.575800  1.0  0.7699
  C  C72  1  0.974500  0.489800  0.460100  1.0  0.0464
  C  C73  1  0.987500  0.583600  0.420500  1.0  -0.06
  C  C74  1  0.049300  0.695200  0.456200  1.0  -0.0642
  C  C75  1  0.098900  0.718200  0.536700  1.0  -0.0886
  C  C76  1  0.086600  0.627400  0.576400  1.0  -0.1012
  C  C77  1  0.746300  0.198600  0.128900  1.0  0.7426
  C  C78  1  0.318200  0.864800  0.146700  1.0  0.7393
  C  C79  1  0.077000  0.554200  0.175400  1.0  0.0522
  C  C80  1  0.088800  0.471200  0.222500  1.0  -0.1022
  C  C81  1  0.984800  0.358200  0.207200  1.0  -0.0353
  C  C82  1  0.858200  0.322800  0.145400  1.0  -0.1171
  C  C83  1  0.841850  0.401900  0.100400  1.0  -0.0831
  C  C84  1  0.951200  0.519600  0.113700  1.0  0.0534
  C  C85  1  0.942400  0.601200  0.065700  1.0  -0.1063
  C  C86  1  0.056700  0.712400  0.077000  1.0  -0.0247
  C  C87  1  0.183000  0.747800  0.137600  1.0  -0.0993
  C  C88  1  0.190800  0.670200  0.186900  1.0  -0.0995
  C  C89  1  0.667500  0.839600  0.075800  1.0  0.7687
  C  C90  1  0.515300  0.489800  0.960100  1.0  0.0464
  C  C91  1  0.596100  0.583600  0.920500  1.0  -0.0602
  C  C92  1  0.645900  0.695200  0.956200  1.0  -0.0639
  C  C93  1  0.619300  0.718200  0.036700  1.0  -0.0882
  C  C94  1  0.540800  0.627400  0.076400  1.0  -0.1015
  C  C95  1  0.547700  0.801400  0.371100  1.0  0.7452
  C  C96  1  0.453400  0.135200  0.353300  1.0  0.7366
  C  C97  1  0.522800  0.445800  0.324600  1.0  0.0522
  C  C98  1  0.617600  0.528800  0.277500  1.0  -0.1016
  C  C99  1  0.626600  0.641800  0.292800  1.0  -0.0356
  C  C100  1  0.535400  0.677200  0.354600  1.0  -0.1174
  C  C101  1  0.439950  0.598100  0.399600  1.0  -0.0835
  C  C102  1  0.431600  0.480400  0.386300  1.0  0.053
  C  C103  1  0.341200  0.398800  0.434300  1.0  -0.1068
  C  C104  1  0.344300  0.287600  0.423000  1.0  -0.0219
  C  C105  1  0.435200  0.252200  0.362400  1.0  -0.1011
  C  C106  1  0.520600  0.329800  0.313100  1.0  -0.0998
  C  C107  1  0.827900  0.160400  0.424200  1.0  0.77
  C  C108  1  0.025500  0.510200  0.539900  1.0  0.0466
  C  C109  1  0.012500  0.416400  0.579500  1.0  -0.0602
  C  C110  1  0.950700  0.304800  0.543800  1.0  -0.0628
  C  C111  1  0.901100  0.281800  0.463300  1.0  -0.0872
  C  C112  1  0.913400  0.372600  0.423600  1.0  -0.0998
  O  O113  1  0.237680  0.869560  0.827300  1.0  -0.6747
  O  O114  1  0.358570  0.832540  0.929000  1.0  -0.6421
  O  O115  1  0.590180  0.102960  0.792500  1.0  -0.6244
  O  O116  1  0.664440  0.074280  0.907900  1.0  -0.6941
  O  O117  1  0.311810  0.140820  0.852450  1.0  -0.6978
  O  O118  1  0.314150  0.080300  0.966840  1.0  -0.6897
  O  O119  1  0.368120  0.130440  0.672700  1.0  -0.6746
  O  O120  1  0.526030  0.167460  0.571000  1.0  -0.6425
  O  O121  1  0.487220  0.897040  0.707500  1.0  -0.6243
  O  O122  1  0.590160  0.925720  0.592100  1.0  -0.6944
  O  O123  1  0.170990  0.859180  0.647550  1.0  -0.6968
  O  O124  1  0.233850  0.919700  0.533160  1.0  -0.6904
  O  O125  1  0.762320  0.130440  0.172700  1.0  -0.6747
  O  O126  1  0.641430  0.167460  0.071000  1.0  -0.6419
  O  O127  1  0.409820  0.897040  0.207500  1.0  -0.6235
  O  O128  1  0.335560  0.925720  0.092100  1.0  -0.6953
  O  O129  1  0.688190  0.859180  0.147550  1.0  -0.6957
  O  O130  1  0.685850  0.919700  0.033160  1.0  -0.6888
  O  O131  1  0.631880  0.869560  0.327300  1.0  -0.6739
  O  O132  1  0.473970  0.832540  0.429000  1.0  -0.6414
  O  O133  1  0.512780  0.102960  0.292500  1.0  -0.6254
  O  O134  1  0.409840  0.074280  0.407900  1.0  -0.694
  O  O135  1  0.829010  0.140820  0.352450  1.0  -0.6965
  O  O136  1  0.766150  0.080300  0.466840  1.0  -0.6902
