# generated using pymatgen
data_YbH9(C3O)6
_symmetry_space_group_name_H-M   'P 1'
_cell_length_a   8.34400000
_cell_length_b   12.31940000
_cell_length_c   17.55800000
_cell_angle_alpha   98.05830000
_cell_angle_beta   90.00000000
_cell_angle_gamma   109.79500000
_symmetry_Int_Tables_number   1
_chemical_formula_structural   YbH9(C3O)6
_chemical_formula_sum   'Yb4 H36 C72 O24'
_cell_volume   1679.24080795
_cell_formula_units_Z   4
loop_
 _symmetry_equiv_pos_site_id
 _symmetry_equiv_pos_as_xyz
  1  'x, y, z'
loop_
 _atom_site_type_symbol
 _atom_site_label
 _atom_site_symmetry_multiplicity
 _atom_site_fract_x
 _atom_site_fract_y
 _atom_site_fract_z
 _atom_site_occupancy
 _atom_site_charge
  Yb  Yb1  1  0.817730  0.000000  0.750000  1.0  1.5433
  Yb  Yb2  1  0.182270  0.000000  0.250000  1.0  1.5439
  Yb  Yb3  1  0.000000  0.000000  0.000000  1.0  1.4157
  Yb  Yb4  1  0.000000  0.000000  0.500000  1.0  1.4157
  H  H5  1  0.744800  0.621800  0.936300  1.0  0.1152
  H  H6  1  0.507300  0.691400  0.761400  1.0  0.1266
  H  H7  1  0.327500  0.501200  0.737600  1.0  0.1311
  H  H8  1  0.643300  0.420000  0.973000  1.0  0.1299
  H  H9  1  0.448100  0.238200  0.956700  1.0  0.1212
  H  H10  1  0.229200  0.303200  0.774000  1.0  0.1178
  H  H11  1  0.976400  0.357800  0.871200  1.0  0.1182
  H  H12  1  0.800100  0.244000  0.069700  1.0  0.1518
  H  H13  1  0.882500  0.430200  0.131000  1.0  0.1283
  H  H14  1  0.123000  0.378200  0.563700  1.0  0.1153
  H  H15  1  0.815900  0.308600  0.738600  1.0  0.1261
  H  H16  1  0.826300  0.498800  0.762400  1.0  0.1313
  H  H17  1  0.223300  0.580000  0.527000  1.0  0.1302
  H  H18  1  0.209900  0.761800  0.543300  1.0  0.1199
  H  H19  1  0.926000  0.696800  0.726000  1.0  0.118
  H  H20  1  0.618600  0.642200  0.628800  1.0  0.1185
  H  H21  1  0.556100  0.756000  0.430300  1.0  0.1522
  H  H22  1  0.452300  0.569800  0.369000  1.0  0.1293
  H  H23  1  0.255200  0.378200  0.063700  1.0  0.1151
  H  H24  1  0.492700  0.308600  0.238600  1.0  0.1262
  H  H25  1  0.672500  0.498800  0.262400  1.0  0.1313
  H  H26  1  0.356700  0.580000  0.027000  1.0  0.1302
  H  H27  1  0.551900  0.761800  0.043300  1.0  0.1202
  H  H28  1  0.770800  0.696800  0.226000  1.0  0.1183
  H  H29  1  0.023600  0.642200  0.128800  1.0  0.1193
  H  H30  1  0.199900  0.756000  0.930300  1.0  0.1517
  H  H31  1  0.117500  0.569800  0.869000  1.0  0.129
  H  H32  1  0.877000  0.621800  0.436300  1.0  0.1151
  H  H33  1  0.184100  0.691400  0.261400  1.0  0.1264
  H  H34  1  0.173700  0.501200  0.237600  1.0  0.1311
  H  H35  1  0.776700  0.420000  0.473000  1.0  0.1298
  H  H36  1  0.790100  0.238200  0.456700  1.0  0.1213
  H  H37  1  0.074000  0.303200  0.274000  1.0  0.1183
  H  H38  1  0.381400  0.357800  0.371200  1.0  0.1191
  H  H39  1  0.443900  0.244000  0.569700  1.0  0.1516
  H  H40  1  0.547700  0.430200  0.631000  1.0  0.1281
  C  C41  1  0.658900  0.596800  0.897500  1.0  -0.025
  C  C42  1  0.642300  0.673600  0.852500  1.0  -0.1336
  C  C43  1  0.517000  0.637800  0.792100  1.0  -0.0141
  C  C44  1  0.409200  0.524400  0.778100  1.0  -0.1342
  C  C45  1  0.420500  0.443000  0.824300  1.0  0.0474
  C  C46  1  0.548300  0.479600  0.886500  1.0  0.0536
  C  C47  1  0.557800  0.398200  0.934200  1.0  -0.1023
  C  C48  1  0.443900  0.289800  0.923500  1.0  -0.0504
  C  C49  1  0.317300  0.252400  0.862500  1.0  -0.138
  C  C50  1  0.310700  0.328800  0.814700  1.0  -0.0731
  C  C51  1  0.753400  0.799200  0.868800  1.0  0.7447
  C  C52  1  0.181400  0.134800  0.856300  1.0  0.7445
  C  C53  1  0.959500  0.373400  0.923300  1.0  -0.0846
  C  C54  1  0.882100  0.283400  0.962300  1.0  -0.0997
  C  C55  1  0.853000  0.305600  0.042900  1.0  -0.1057
  C  C56  1  0.902800  0.416000  0.079100  1.0  -0.0965
  C  C57  1  0.014400  0.489000  0.960000  1.0  0.0588
  C  C58  1  0.832700  0.157000  0.922200  1.0  0.717
  C  C59  1  0.062100  0.403200  0.602500  1.0  -0.0261
  C  C60  1  0.968700  0.326400  0.647500  1.0  -0.1325
  C  C61  1  0.879200  0.362200  0.707900  1.0  -0.0137
  C  C62  1  0.884800  0.475600  0.721900  1.0  -0.1335
  C  C63  1  0.977500  0.557000  0.675700  1.0  0.0473
  C  C64  1  0.068700  0.520400  0.613500  1.0  0.0533
  C  C65  1  0.159600  0.601800  0.565800  1.0  -0.1012
  C  C66  1  0.154100  0.710200  0.576500  1.0  -0.0519
  C  C67  1  0.064900  0.747600  0.637500  1.0  -0.1375
  C  C68  1  0.981900  0.671200  0.685300  1.0  -0.0724
  C  C69  1  0.954200  0.200800  0.631200  1.0  0.743
  C  C70  1  0.046600  0.865200  0.643700  1.0  0.7451
  C  C71  1  0.586100  0.626600  0.576700  1.0  -0.0867
  C  C72  1  0.598700  0.716600  0.537700  1.0  -0.0981
  C  C73  1  0.547400  0.694400  0.457100  1.0  -0.107
  C  C74  1  0.486800  0.584000  0.420900  1.0  -0.097
  C  C75  1  0.525400  0.511000  0.540000  1.0  0.0584
  C  C76  1  0.675700  0.843000  0.577800  1.0  0.7168
  C  C77  1  0.341100  0.403200  0.102500  1.0  -0.0265
  C  C78  1  0.357700  0.326400  0.147500  1.0  -0.1316
  C  C79  1  0.483000  0.362200  0.207900  1.0  -0.0148
  C  C80  1  0.590800  0.475600  0.221900  1.0  -0.1341
  C  C81  1  0.579500  0.557000  0.175700  1.0  0.048
  C  C82  1  0.451700  0.520400  0.113500  1.0  0.0535
  C  C83  1  0.442200  0.601800  0.065800  1.0  -0.1003
  C  C84  1  0.556100  0.710200  0.076500  1.0  -0.0517
  C  C85  1  0.682700  0.747600  0.137500  1.0  -0.1367
  C  C86  1  0.689300  0.671200  0.185300  1.0  -0.0717
  C  C87  1  0.246600  0.200800  0.131200  1.0  0.7441
  C  C88  1  0.818600  0.865200  0.143700  1.0  0.7463
  C  C89  1  0.040500  0.626600  0.076700  1.0  -0.0882
  C  C90  1  0.117900  0.716600  0.037700  1.0  -0.0982
  C  C91  1  0.147000  0.694400  0.957100  1.0  -0.1013
  C  C92  1  0.097200  0.584000  0.920900  1.0  -0.0949
  C  C93  1  0.985600  0.511000  0.040000  1.0  0.0584
  C  C94  1  0.167300  0.843000  0.077800  1.0  0.7168
  C  C95  1  0.937900  0.596800  0.397500  1.0  -0.026
  C  C96  1  0.031300  0.673600  0.352500  1.0  -0.1326
  C  C97  1  0.120800  0.637800  0.292100  1.0  -0.0152
  C  C98  1  0.115200  0.524400  0.278100  1.0  -0.1343
  C  C99  1  0.022500  0.443000  0.324300  1.0  0.048
  C  C100  1  0.931300  0.479600  0.386500  1.0  0.0538
  C  C101  1  0.840400  0.398200  0.434200  1.0  -0.1004
  C  C102  1  0.845900  0.289800  0.423500  1.0  -0.0492
  C  C103  1  0.935100  0.252400  0.362500  1.0  -0.1379
  C  C104  1  0.018100  0.328800  0.314700  1.0  -0.0723
  C  C105  1  0.045800  0.799200  0.368800  1.0  0.7454
  C  C106  1  0.953400  0.134800  0.356300  1.0  0.7441
  C  C107  1  0.413900  0.373400  0.423300  1.0  -0.0858
  C  C108  1  0.401300  0.283400  0.462300  1.0  -0.0991
  C  C109  1  0.452600  0.305600  0.542900  1.0  -0.1002
  C  C110  1  0.513200  0.416000  0.579100  1.0  -0.0942
  C  C111  1  0.474600  0.489000  0.460000  1.0  0.0588
  C  C112  1  0.324300  0.157000  0.422200  1.0  0.7173
  O  O113  1  0.741100  0.866400  0.824200  1.0  -0.6496
  O  O114  1  0.858200  0.831800  0.926000  1.0  -0.6288
  O  O115  1  0.085400  0.100600  0.797200  1.0  -0.631
  O  O116  1  0.169500  0.075400  0.910300  1.0  -0.6808
  O  O117  1  0.809400  0.139600  0.851500  1.0  -0.6814
  O  O118  1  0.819300  0.080000  0.965700  1.0  -0.6621
  O  O119  1  0.874700  0.133600  0.675800  1.0  -0.6493
  O  O120  1  0.026400  0.168200  0.574000  1.0  -0.6308
  O  O121  1  0.984800  0.899400  0.702800  1.0  -0.6316
  O  O122  1  0.094100  0.924600  0.589700  1.0  -0.6809
  O  O123  1  0.669800  0.860400  0.648500  1.0  -0.681
  O  O124  1  0.739300  0.920000  0.534300  1.0  -0.6626
  O  O125  1  0.258900  0.133600  0.175800  1.0  -0.6492
  O  O126  1  0.141800  0.168200  0.074000  1.0  -0.6301
  O  O127  1  0.914600  0.899400  0.202800  1.0  -0.63
  O  O128  1  0.830500  0.924600  0.089700  1.0  -0.6822
  O  O129  1  0.190600  0.860400  0.148500  1.0  -0.6798
  O  O130  1  0.180700  0.920000  0.034300  1.0  -0.6609
  O  O131  1  0.125300  0.866400  0.324200  1.0  -0.6492
  O  O132  1  0.973600  0.831800  0.426000  1.0  -0.6282
  O  O133  1  0.015200  0.100600  0.297200  1.0  -0.6307
  O  O134  1  0.905900  0.075400  0.410300  1.0  -0.6815
  O  O135  1  0.330200  0.139600  0.351500  1.0  -0.6796
  O  O136  1  0.260700  0.080000  0.465700  1.0  -0.6622
