# generated using pymatgen
data_Cu2(CN)3
_symmetry_space_group_name_H-M   'P 1'
_cell_length_a   44.48200000
_cell_length_b   44.48200000
_cell_length_c   21.28300000
_cell_angle_alpha   90.00000000
_cell_angle_beta   90.00000000
_cell_angle_gamma   120.00000000
_symmetry_Int_Tables_number   1
_chemical_formula_structural   Cu2(CN)3
_chemical_formula_sum   'Cu90 C135 N135'
_cell_volume   36469.69138752
_cell_formula_units_Z   45
loop_
 _symmetry_equiv_pos_site_id
 _symmetry_equiv_pos_as_xyz
  1  'x, y, z'
loop_
 _atom_site_type_symbol
 _atom_site_label
 _atom_site_symmetry_multiplicity
 _atom_site_fract_x
 _atom_site_fract_y
 _atom_site_fract_z
 _atom_site_occupancy
 _atom_site_charge
  Cu  Cu1  1  0.740580  0.279660  0.417050  1.0  0.4724
  Cu  Cu2  1  0.827070  0.249400  0.491190  1.0  0.5255
  Cu  Cu3  1  0.801430  0.163250  0.648750  1.0  0.4823
  Cu  Cu4  1  0.709410  0.049620  0.583630  1.0  0.5385
  Cu  Cu5  1  0.643220  0.026180  0.385810  1.0  0.4965
  Cu  Cu6  1  0.583640  0.089080  0.321320  1.0  0.5219
  Cu  Cu7  1  0.613100  0.205520  0.393550  1.0  0.5751
  Cu  Cu8  1  0.950620  0.310210  0.424890  1.0  0.574
  Cu  Cu9  1  0.050210  0.341840  0.559790  1.0  0.3465
  Cu  Cu10  1  0.494930  0.023400  0.158300  1.0  0.5011
  Cu  Cu11  1  0.407250  0.612990  0.750380  1.0  0.4764
  Cu  Cu12  1  0.493740  0.582730  0.824520  1.0  0.5259
  Cu  Cu13  1  0.468100  0.496580  0.982080  1.0  0.4823
  Cu  Cu14  1  0.376080  0.382950  0.916960  1.0  0.5389
  Cu  Cu15  1  0.309890  0.359510  0.719140  1.0  0.4965
  Cu  Cu16  1  0.250310  0.422410  0.654650  1.0  0.5221
  Cu  Cu17  1  0.279770  0.538850  0.726880  1.0  0.5735
  Cu  Cu18  1  0.617290  0.643540  0.758220  1.0  0.574
  Cu  Cu19  1  0.716880  0.675170  0.893120  1.0  0.3465
  Cu  Cu20  1  0.161600  0.356730  0.491630  1.0  0.4997
  Cu  Cu21  1  0.073910  0.946330  0.083720  1.0  0.4768
  Cu  Cu22  1  0.160400  0.916070  0.157860  1.0  0.5256
  Cu  Cu23  1  0.134760  0.829920  0.315420  1.0  0.4823
  Cu  Cu24  1  0.042740  0.716290  0.250300  1.0  0.5385
  Cu  Cu25  1  0.976550  0.692850  0.052480  1.0  0.4966
  Cu  Cu26  1  0.916970  0.755750  0.987990  1.0  0.5232
  Cu  Cu27  1  0.946430  0.872190  0.060220  1.0  0.5751
  Cu  Cu28  1  0.283950  0.976880  0.091560  1.0  0.5794
  Cu  Cu29  1  0.383540  0.008510  0.226460  1.0  0.3465
  Cu  Cu30  1  0.828260  0.690070  0.824970  1.0  0.4979
  Cu  Cu31  1  0.720340  0.460920  0.417050  1.0  0.4725
  Cu  Cu32  1  0.750600  0.577670  0.491190  1.0  0.5262
  Cu  Cu33  1  0.836750  0.638180  0.648750  1.0  0.4817
  Cu  Cu34  1  0.950380  0.659790  0.583630  1.0  0.5385
  Cu  Cu35  1  0.973820  0.617040  0.385810  1.0  0.4972
  Cu  Cu36  1  0.910920  0.494560  0.321320  1.0  0.5219
  Cu  Cu37  1  0.794480  0.407580  0.393550  1.0  0.5751
  Cu  Cu38  1  0.689790  0.640410  0.424890  1.0  0.5755
  Cu  Cu39  1  0.658160  0.708370  0.559790  1.0  0.3456
  Cu  Cu40  1  0.976600  0.471530  0.158300  1.0  0.4965
  Cu  Cu41  1  0.387010  0.794250  0.750380  1.0  0.4764
  Cu  Cu42  1  0.417270  0.911000  0.824520  1.0  0.5267
  Cu  Cu43  1  0.503420  0.971510  0.982080  1.0  0.4817
  Cu  Cu44  1  0.617050  0.993120  0.916960  1.0  0.5385
  Cu  Cu45  1  0.640490  0.950370  0.719140  1.0  0.4974
  Cu  Cu46  1  0.577590  0.827890  0.654650  1.0  0.5217
  Cu  Cu47  1  0.461150  0.740910  0.726880  1.0  0.5735
  Cu  Cu48  1  0.356460  0.973740  0.758220  1.0  0.5776
  Cu  Cu49  1  0.324830  0.041700  0.893120  1.0  0.3466
  Cu  Cu50  1  0.643270  0.804860  0.491630  1.0  0.5006
  Cu  Cu51  1  0.053670  0.127590  0.083720  1.0  0.4686
  Cu  Cu52  1  0.083930  0.244340  0.157860  1.0  0.5262
  Cu  Cu53  1  0.170080  0.304850  0.315420  1.0  0.499
  Cu  Cu54  1  0.283710  0.326460  0.250300  1.0  0.5385
  Cu  Cu55  1  0.307150  0.283710  0.052480  1.0  0.497
  Cu  Cu56  1  0.244250  0.161230  0.987990  1.0  0.5228
  Cu  Cu57  1  0.127810  0.074250  0.060220  1.0  0.5751
  Cu  Cu58  1  0.023120  0.307080  0.091560  1.0  0.5786
  Cu  Cu59  1  0.991490  0.375040  0.226460  1.0  0.3456
  Cu  Cu60  1  0.309930  0.138200  0.824970  1.0  0.502
  Cu  Cu61  1  0.539080  0.259420  0.417050  1.0  0.4724
  Cu  Cu62  1  0.422330  0.172930  0.491190  1.0  0.5265
  Cu  Cu63  1  0.361820  0.198570  0.648750  1.0  0.4826
  Cu  Cu64  1  0.340210  0.290590  0.583630  1.0  0.5391
  Cu  Cu65  1  0.382960  0.356780  0.385810  1.0  0.4956
  Cu  Cu66  1  0.505440  0.416360  0.321320  1.0  0.523
  Cu  Cu67  1  0.592420  0.386900  0.393550  1.0  0.5749
  Cu  Cu68  1  0.359590  0.049380  0.424890  1.0  0.5751
  Cu  Cu69  1  0.291630  0.949790  0.559790  1.0  0.3466
  Cu  Cu70  1  0.528470  0.505070  0.158300  1.0  0.502
  Cu  Cu71  1  0.205750  0.592750  0.750380  1.0  0.4765
  Cu  Cu72  1  0.089000  0.506260  0.824520  1.0  0.526
  Cu  Cu73  1  0.028490  0.531900  0.982080  1.0  0.4826
  Cu  Cu74  1  0.006880  0.623920  0.916960  1.0  0.5386
  Cu  Cu75  1  0.049630  0.690110  0.719140  1.0  0.5022
  Cu  Cu76  1  0.172110  0.749690  0.654650  1.0  0.5228
  Cu  Cu77  1  0.259090  0.720230  0.726880  1.0  0.5733
  Cu  Cu78  1  0.026260  0.382710  0.758220  1.0  0.5768
  Cu  Cu79  1  0.958300  0.283120  0.893120  1.0  0.3474
  Cu  Cu80  1  0.195140  0.838400  0.491630  1.0  0.4998
  Cu  Cu81  1  0.872410  0.926090  0.083720  1.0  0.4771
  Cu  Cu82  1  0.755660  0.839600  0.157860  1.0  0.5269
  Cu  Cu83  1  0.695150  0.865240  0.315420  1.0  0.4826
  Cu  Cu84  1  0.673540  0.957260  0.250300  1.0  0.5391
  Cu  Cu85  1  0.716290  0.023450  0.052480  1.0  0.4958
  Cu  Cu86  1  0.838770  0.083030  0.987990  1.0  0.5242
  Cu  Cu87  1  0.925750  0.053570  0.060220  1.0  0.5749
  Cu  Cu88  1  0.692920  0.716050  0.091560  1.0  0.5806
  Cu  Cu89  1  0.624960  0.616460  0.226460  1.0  0.3459
  Cu  Cu90  1  0.861800  0.171740  0.824970  1.0  0.5006
  C  C91  1  0.774300  0.262800  0.427100  1.0  -0.0456
  C  C92  1  0.814000  0.224200  0.576100  1.0  -0.0113
  C  C93  1  0.750700  0.090700  0.604800  1.0  -0.0568
  C  C94  1  0.691200  0.044700  0.504900  1.0  0.0375
  C  C95  1  0.604800  0.059400  0.351800  1.0  -0.0591
  C  C96  1  0.591700  0.131600  0.367200  1.0  -0.0562
  C  C97  1  0.690900  0.251100  0.401100  1.0  -0.0347
  C  C98  1  0.899700  0.286500  0.451500  1.0  0.1221
  C  C99  1  0.986100  0.315700  0.472000  1.0  0.2334
  C  C100  1  0.967500  0.345300  0.301600  1.0  -0.0152
  C  C101  1  0.775500  0.359800  0.382400  1.0  -0.0003
  C  C102  1  0.537800  0.059100  0.222300  1.0  0.0055
  C  C103  1  0.837500  0.157600  0.744600  1.0  0.0254
  C  C104  1  0.098800  0.358000  0.533100  1.0  -0.0374
  C  C105  1  0.682500  0.986100  0.665700  1.0  0.1501
  C  C106  1  0.440970  0.596130  0.760430  1.0  -0.0456
  C  C107  1  0.480670  0.557530  0.909430  1.0  -0.0085
  C  C108  1  0.417370  0.424030  0.938130  1.0  -0.0543
  C  C109  1  0.357870  0.378030  0.838230  1.0  0.0373
  C  C110  1  0.271470  0.392730  0.685130  1.0  -0.0558
  C  C111  1  0.258370  0.464930  0.700530  1.0  -0.0507
  C  C112  1  0.357570  0.584430  0.734430  1.0  -0.0301
  C  C113  1  0.566370  0.619830  0.784830  1.0  0.1221
  C  C114  1  0.652770  0.649030  0.805330  1.0  0.2334
  C  C115  1  0.634170  0.678630  0.634930  1.0  -0.0152
  C  C116  1  0.442170  0.693130  0.715730  1.0  -0.01
  C  C117  1  0.204470  0.392430  0.555630  1.0  0.0054
  C  C118  1  0.504170  0.490930  0.077930  1.0  0.027
  C  C119  1  0.765470  0.691330  0.866430  1.0  -0.0372
  C  C120  1  0.349170  0.319430  0.999030  1.0  0.1565
  C  C121  1  0.107630  0.929470  0.093770  1.0  -0.0449
  C  C122  1  0.147330  0.890870  0.242770  1.0  -0.0118
  C  C123  1  0.084030  0.757370  0.271470  1.0  -0.0572
  C  C124  1  0.024530  0.711370  0.171570  1.0  0.0374
  C  C125  1  0.938130  0.726070  0.018470  1.0  -0.0591
  C  C126  1  0.925030  0.798270  0.033870  1.0  -0.0562
  C  C127  1  0.024230  0.917770  0.067770  1.0  -0.0386
  C  C128  1  0.233030  0.953170  0.118170  1.0  0.1226
  C  C129  1  0.319430  0.982370  0.138670  1.0  0.2334
  C  C130  1  0.300830  0.011970  0.968270  1.0  -0.0158
  C  C131  1  0.108830  0.026470  0.049070  1.0  -0.0039
  C  C132  1  0.871130  0.725770  0.888970  1.0  0.0055
  C  C133  1  0.170830  0.824270  0.411270  1.0  0.024
  C  C134  1  0.432130  0.024670  0.199770  1.0  -0.0374
  C  C135  1  0.015830  0.652770  0.332370  1.0  0.147
  C  C136  1  0.737200  0.511500  0.427100  1.0  -0.047
  C  C137  1  0.775800  0.589800  0.576100  1.0  -0.0115
  C  C138  1  0.909300  0.660000  0.604800  1.0  -0.0582
  C  C139  1  0.955300  0.646500  0.504900  1.0  0.0385
  C  C140  1  0.940600  0.545400  0.351800  1.0  -0.0583
  C  C141  1  0.868400  0.460100  0.367200  1.0  -0.0549
  C  C142  1  0.748900  0.439800  0.401100  1.0  -0.0345
  C  C143  1  0.713500  0.613200  0.451500  1.0  0.1232
  C  C144  1  0.684300  0.670400  0.472000  1.0  0.2338
  C  C145  1  0.654700  0.622200  0.301600  1.0  -0.0151
  C  C146  1  0.640200  0.415700  0.382400  1.0  0.0007
  C  C147  1  0.940900  0.478700  0.222300  1.0  0.0063
  C  C148  1  0.842400  0.679900  0.744600  1.0  0.0224
  C  C149  1  0.642000  0.740800  0.533100  1.0  -0.0384
  C  C150  1  0.013900  0.696400  0.665700  1.0  0.1508
  C  C151  1  0.403870  0.844830  0.760430  1.0  -0.047
  C  C152  1  0.442470  0.923130  0.909430  1.0  0.0015
  C  C153  1  0.575970  0.993330  0.938130  1.0  -0.0545
  C  C154  1  0.621970  0.979830  0.838230  1.0  0.0385
  C  C155  1  0.607270  0.878730  0.685130  1.0  -0.0583
  C  C156  1  0.535070  0.793430  0.700530  1.0  -0.0549
  C  C157  1  0.415570  0.773130  0.734430  1.0  -0.0298
  C  C158  1  0.380170  0.946530  0.784830  1.0  0.1224
  C  C159  1  0.350970  0.003730  0.805330  1.0  0.2338
  C  C160  1  0.321370  0.955530  0.634930  1.0  -0.0151
  C  C161  1  0.306870  0.749030  0.715730  1.0  -0.0089
  C  C162  1  0.607570  0.812030  0.555630  1.0  0.0063
  C  C163  1  0.509070  0.013230  0.077930  1.0  0.0244
  C  C164  1  0.308670  0.074130  0.866430  1.0  -0.0383
  C  C165  1  0.680570  0.029730  0.999030  1.0  0.1529
  C  C166  1  0.070530  0.178170  0.093770  1.0  -0.0469
  C  C167  1  0.109130  0.256470  0.242770  1.0  -0.0121
  C  C168  1  0.242630  0.326670  0.271470  1.0  -0.0577
  C  C169  1  0.288630  0.313170  0.171570  1.0  0.0382
  C  C170  1  0.273930  0.212070  0.018470  1.0  -0.0583
  C  C171  1  0.201730  0.126770  0.033870  1.0  -0.0549
  C  C172  1  0.082230  0.106470  0.067770  1.0  -0.0396
  C  C173  1  0.046830  0.279870  0.118170  1.0  0.1272
  C  C174  1  0.017630  0.337070  0.138670  1.0  0.2344
  C  C175  1  0.988030  0.288870  0.968270  1.0  -0.0158
  C  C176  1  0.973530  0.082370  0.049070  1.0  -0.0031
  C  C177  1  0.274230  0.145370  0.888970  1.0  0.0062
  C  C178  1  0.175730  0.346570  0.411270  1.0  0.0217
  C  C179  1  0.975330  0.407470  0.199770  1.0  -0.0381
  C  C180  1  0.347230  0.363070  0.332370  1.0  0.1454
  C  C181  1  0.488500  0.225700  0.427100  1.0  -0.0458
  C  C182  1  0.410200  0.186000  0.576100  1.0  -0.0096
  C  C183  1  0.340000  0.249300  0.604800  1.0  -0.0556
  C  C184  1  0.353500  0.308800  0.504900  1.0  0.0377
  C  C185  1  0.454600  0.395200  0.351800  1.0  -0.0581
  C  C186  1  0.539900  0.408300  0.367200  1.0  -0.0536
  C  C187  1  0.560200  0.309100  0.401100  1.0  -0.0336
  C  C188  1  0.386800  0.100300  0.451500  1.0  0.12
  C  C189  1  0.329600  0.013900  0.472000  1.0  0.2335
  C  C190  1  0.377800  0.032500  0.301600  1.0  -0.014
  C  C191  1  0.584300  0.224500  0.382400  1.0  -1e-04
  C  C192  1  0.521300  0.462200  0.222300  1.0  0.0049
  C  C193  1  0.320100  0.162500  0.744600  1.0  0.0254
  C  C194  1  0.259200  0.901200  0.533100  1.0  -0.0365
  C  C195  1  0.303600  0.317500  0.665700  1.0  0.1482
  C  C196  1  0.155170  0.559030  0.760430  1.0  -0.0458
  C  C197  1  0.076870  0.519330  0.909430  1.0  -0.0062
  C  C198  1  0.006670  0.582630  0.938130  1.0  -0.0516
  C  C199  1  0.020170  0.642130  0.838230  1.0  0.0379
  C  C200  1  0.121270  0.728530  0.685130  1.0  -0.0527
  C  C201  1  0.206570  0.741630  0.700530  1.0  -0.0479
  C  C202  1  0.226870  0.642430  0.734430  1.0  -0.0291
  C  C203  1  0.053470  0.433630  0.784830  1.0  0.1192
  C  C204  1  0.996270  0.347230  0.805330  1.0  0.2335
  C  C205  1  0.044470  0.365830  0.634930  1.0  -0.014
  C  C206  1  0.250970  0.557830  0.715730  1.0  -0.0099
  C  C207  1  0.187970  0.795530  0.555630  1.0  0.0049
  C  C208  1  0.986770  0.495830  0.077930  1.0  0.0269
  C  C209  1  0.925870  0.234530  0.866430  1.0  -0.0366
  C  C210  1  0.970270  0.650830  0.999030  1.0  0.155
  C  C211  1  0.821830  0.892370  0.093770  1.0  -0.0456
  C  C212  1  0.743530  0.852670  0.242770  1.0  -0.0098
  C  C213  1  0.673330  0.915970  0.271470  1.0  -0.0577
  C  C214  1  0.686830  0.975470  0.171570  1.0  0.0379
  C  C215  1  0.787930  0.061870  0.018470  1.0  -0.0581
  C  C216  1  0.873230  0.074970  0.033870  1.0  -0.0536
  C  C217  1  0.893530  0.975770  0.067770  1.0  -0.0325
  C  C218  1  0.720130  0.766970  0.118170  1.0  0.1205
  C  C219  1  0.662930  0.680570  0.138670  1.0  0.2335
  C  C220  1  0.711130  0.699170  0.968270  1.0  -0.014
  C  C221  1  0.917630  0.891170  0.049070  1.0  -0.0063
  C  C222  1  0.854630  0.128870  0.888970  1.0  0.0049
  C  C223  1  0.653430  0.829170  0.411270  1.0  0.0238
  C  C224  1  0.592530  0.567870  0.199770  1.0  -0.0365
  C  C225  1  0.636930  0.984170  0.332370  1.0  0.1482
  N  N226  1  0.792300  0.258700  0.467100  1.0  -0.4707
  N  N227  1  0.814600  0.200700  0.594400  1.0  -0.4384
  N  N228  1  0.763100  0.120400  0.625900  1.0  -0.4053
  N  N229  1  0.675800  0.040500  0.456600  1.0  -0.4244
  N  N230  1  0.621900  0.046600  0.366600  1.0  -0.3111
  N  N231  1  0.599900  0.161100  0.360400  1.0  -0.4447
  N  N232  1  0.661100  0.235500  0.385300  1.0  -0.4312
  N  N233  1  0.873000  0.272600  0.466200  1.0  -0.2441
  N  N234  1  0.002600  0.313200  0.497100  1.0  -0.1839
  N  N235  1  0.961000  0.330800  0.347000  1.0  -0.3492
  N  N236  1  0.762900  0.329700  0.387400  1.0  -0.4137
  N  N237  1  0.553400  0.067600  0.265800  1.0  -0.2848
  N  N238  1  0.823500  0.160500  0.701700  1.0  -0.1831
  N  N239  1  0.121900  0.341200  0.523500  1.0  -0.4663
  N  N240  1  0.691200  0.007200  0.638600  1.0  -0.2484
  N  N241  1  0.458970  0.592030  0.800430  1.0  -0.4707
  N  N242  1  0.481270  0.534030  0.927730  1.0  -0.4384
  N  N243  1  0.429770  0.453730  0.959230  1.0  -0.4053
  N  N244  1  0.342470  0.373830  0.789930  1.0  -0.424
  N  N245  1  0.288570  0.379930  0.699930  1.0  -0.3117
  N  N246  1  0.266570  0.494430  0.693730  1.0  -0.4447
  N  N247  1  0.327770  0.568830  0.718630  1.0  -0.4328
  N  N248  1  0.539670  0.605930  0.799530  1.0  -0.2441
  N  N249  1  0.669270  0.646530  0.830430  1.0  -0.1824
  N  N250  1  0.627670  0.664130  0.680330  1.0  -0.3492
  N  N251  1  0.429570  0.663030  0.720730  1.0  -0.4138
  N  N252  1  0.220070  0.400930  0.599130  1.0  -0.2847
  N  N253  1  0.490170  0.493830  0.035030  1.0  -0.1826
  N  N254  1  0.788570  0.674530  0.856830  1.0  -0.4683
  N  N255  1  0.357870  0.340530  0.971930  1.0  -0.2484
  N  N256  1  0.125630  0.925370  0.133770  1.0  -0.4707
  N  N257  1  0.147930  0.867370  0.261070  1.0  -0.4384
  N  N258  1  0.096430  0.787070  0.292570  1.0  -0.4053
  N  N259  1  0.009130  0.707170  0.123270  1.0  -0.4199
  N  N260  1  0.955230  0.713270  0.033270  1.0  -0.3112
  N  N261  1  0.933230  0.827770  0.027070  1.0  -0.4447
  N  N262  1  0.994430  0.902170  0.051970  1.0  -0.4476
  N  N263  1  0.206330  0.939270  0.132870  1.0  -0.2467
  N  N264  1  0.335930  0.979870  0.163770  1.0  -0.182
  N  N265  1  0.294330  0.997470  0.013670  1.0  -0.3485
  N  N266  1  0.096230  0.996370  0.054070  1.0  -0.4187
  N  N267  1  0.886730  0.734270  0.932470  1.0  -0.2847
  N  N268  1  0.156830  0.827170  0.368370  1.0  -0.1862
  N  N269  1  0.455230  0.007870  0.190170  1.0  -0.4652
  N  N270  1  0.024530  0.673870  0.305270  1.0  -0.2484
  N  N271  1  0.741300  0.533600  0.467100  1.0  -0.4702
  N  N272  1  0.799300  0.613900  0.594400  1.0  -0.441
  N  N273  1  0.879600  0.642700  0.625900  1.0  -0.4048
  N  N274  1  0.959500  0.635300  0.456600  1.0  -0.4247
  N  N275  1  0.953400  0.575300  0.366600  1.0  -0.311
  N  N276  1  0.838900  0.438800  0.360400  1.0  -0.4438
  N  N277  1  0.764500  0.425600  0.385300  1.0  -0.4318
  N  N278  1  0.727400  0.600400  0.466200  1.0  -0.2421
  N  N279  1  0.686800  0.689400  0.497100  1.0  -0.1875
  N  N280  1  0.669200  0.630200  0.347000  1.0  -0.3496
  N  N281  1  0.670300  0.433200  0.387400  1.0  -0.4122
  N  N282  1  0.932400  0.485800  0.265800  1.0  -0.2854
  N  N283  1  0.839500  0.663000  0.701700  1.0  -0.1836
  N  N284  1  0.658800  0.780700  0.523500  1.0  -0.4607
  N  N285  1  0.992800  0.684000  0.638600  1.0  -0.2466
  N  N286  1  0.407970  0.866930  0.800430  1.0  -0.4702
  N  N287  1  0.465970  0.947230  0.927730  1.0  -0.441
  N  N288  1  0.546270  0.976030  0.959230  1.0  -0.4048
  N  N289  1  0.626170  0.968630  0.789930  1.0  -0.4261
  N  N290  1  0.620070  0.908630  0.699930  1.0  -0.311
  N  N291  1  0.505570  0.772130  0.693730  1.0  -0.4438
  N  N292  1  0.431170  0.758930  0.718630  1.0  -0.4329
  N  N293  1  0.394070  0.933730  0.799530  1.0  -0.2421
  N  N294  1  0.353470  0.022730  0.830430  1.0  -0.1875
  N  N295  1  0.335870  0.963530  0.680330  1.0  -0.3496
  N  N296  1  0.336970  0.766530  0.720730  1.0  -0.4122
  N  N297  1  0.599070  0.819130  0.599130  1.0  -0.2852
  N  N298  1  0.506170  0.996330  0.035030  1.0  -0.1829
  N  N299  1  0.325470  0.114030  0.856830  1.0  -0.4636
  N  N300  1  0.659470  0.017330  0.971930  1.0  -0.2466
  N  N301  1  0.074630  0.200270  0.133770  1.0  -0.4702
  N  N302  1  0.132630  0.280570  0.261070  1.0  -0.441
  N  N303  1  0.212930  0.309370  0.292570  1.0  -0.4048
  N  N304  1  0.292830  0.301970  0.123270  1.0  -0.422
  N  N305  1  0.286730  0.241970  0.033270  1.0  -0.3114
  N  N306  1  0.172230  0.105470  0.027070  1.0  -0.4438
  N  N307  1  0.097830  0.092270  0.051970  1.0  -0.4461
  N  N308  1  0.060730  0.267070  0.132870  1.0  -0.2447
  N  N309  1  0.020130  0.356070  0.163770  1.0  -0.1871
  N  N310  1  0.002530  0.296870  0.013670  1.0  -0.3514
  N  N311  1  0.003630  0.099870  0.054070  1.0  -0.4168
  N  N312  1  0.265730  0.152470  0.932470  1.0  -0.2852
  N  N313  1  0.172830  0.329670  0.368370  1.0  -0.1864
  N  N314  1  0.992130  0.447370  0.190170  1.0  -0.4685
  N  N315  1  0.326130  0.350670  0.305270  1.0  -0.2466
  N  N316  1  0.466400  0.207700  0.467100  1.0  -0.4712
  N  N317  1  0.386100  0.185400  0.594400  1.0  -0.437
  N  N318  1  0.357300  0.236900  0.625900  1.0  -0.4049
  N  N319  1  0.364700  0.324200  0.456600  1.0  -0.4245
  N  N320  1  0.424700  0.378100  0.366600  1.0  -0.3113
  N  N321  1  0.561200  0.400100  0.360400  1.0  -0.4442
  N  N322  1  0.574400  0.338900  0.385300  1.0  -0.4312
  N  N323  1  0.399600  0.127000  0.466200  1.0  -0.2443
  N  N324  1  0.310600  0.997400  0.497100  1.0  -0.1823
  N  N325  1  0.369800  0.039000  0.347000  1.0  -0.3487
  N  N326  1  0.566800  0.237100  0.387400  1.0  -0.411
  N  N327  1  0.514200  0.446600  0.265800  1.0  -0.2861
  N  N328  1  0.337000  0.176500  0.701700  1.0  -0.1837
  N  N329  1  0.219300  0.878100  0.523500  1.0  -0.4694
  N  N330  1  0.316000  0.308800  0.638600  1.0  -0.2446
  N  N331  1  0.133070  0.541030  0.800430  1.0  -0.4712
  N  N332  1  0.052770  0.518730  0.927730  1.0  -0.437
  N  N333  1  0.023970  0.570230  0.959230  1.0  -0.4049
  N  N334  1  0.031370  0.657530  0.789930  1.0  -0.4257
  N  N335  1  0.091370  0.711430  0.699930  1.0  -0.3056
  N  N336  1  0.227870  0.733430  0.693730  1.0  -0.4442
  N  N337  1  0.241070  0.672230  0.718630  1.0  -0.433
  N  N338  1  0.066270  0.460330  0.799530  1.0  -0.2443
  N  N339  1  0.977270  0.330730  0.830430  1.0  -0.1807
  N  N340  1  0.036470  0.372330  0.680330  1.0  -0.3487
  N  N341  1  0.233470  0.570430  0.720730  1.0  -0.411
  N  N342  1  0.180870  0.779930  0.599130  1.0  -0.2859
  N  N343  1  0.003670  0.509830  0.035030  1.0  -0.1833
  N  N344  1  0.885970  0.211430  0.856830  1.0  -0.4649
  N  N345  1  0.982670  0.642130  0.971930  1.0  -0.2446
  N  N346  1  0.799730  0.874370  0.133770  1.0  -0.4712
  N  N347  1  0.719430  0.852070  0.261070  1.0  -0.437
  N  N348  1  0.690630  0.903570  0.292570  1.0  -0.4049
  N  N349  1  0.698030  0.990870  0.123270  1.0  -0.4211
  N  N350  1  0.758030  0.044770  0.033270  1.0  -0.3105
  N  N351  1  0.894530  0.066770  0.027070  1.0  -0.4442
  N  N352  1  0.907730  0.005570  0.051970  1.0  -0.4482
  N  N353  1  0.732930  0.793670  0.132870  1.0  -0.2467
  N  N354  1  0.643930  0.664070  0.163770  1.0  -0.1799
  N  N355  1  0.703130  0.705670  0.013670  1.0  -0.348
  N  N356  1  0.900130  0.903770  0.054070  1.0  -0.4151
  N  N357  1  0.847530  0.113270  0.932470  1.0  -0.2859
  N  N358  1  0.670330  0.843170  0.368370  1.0  -0.1867
  N  N359  1  0.552630  0.544770  0.190170  1.0  -0.4597
  N  N360  1  0.649330  0.975470  0.305270  1.0  -0.2446
