# generated using pymatgen
data_HoSO5
_symmetry_space_group_name_H-M   'P 1'
_cell_length_a   16.73800000
_cell_length_b   17.16200000
_cell_length_c   17.20900000
_cell_angle_alpha   90.00000000
_cell_angle_beta   90.00000000
_cell_angle_gamma   90.00000000
_symmetry_Int_Tables_number   1
_chemical_formula_structural   HoSO5
_chemical_formula_sum   'Ho32 S32 O160'
_cell_volume   4943.41528120
_cell_formula_units_Z   32
loop_
 _symmetry_equiv_pos_site_id
 _symmetry_equiv_pos_as_xyz
  1  'x, y, z'
loop_
 _atom_site_type_symbol
 _atom_site_label
 _atom_site_symmetry_multiplicity
 _atom_site_fract_x
 _atom_site_fract_y
 _atom_site_fract_z
 _atom_site_occupancy
 _atom_site_charge
  Ho  Ho1  1  0.084200  0.039920  0.349060  1.0  2.1719
  Ho  Ho2  1  0.909170  0.914670  0.310110  1.0  2.2131
  Ho  Ho3  1  0.966390  0.060490  0.155060  1.0  2.1974
  Ho  Ho4  1  0.095900  0.886190  0.184750  1.0  2.0931
  Ho  Ho5  1  0.415800  0.460080  0.349060  1.0  2.1713
  Ho  Ho6  1  0.590830  0.585330  0.310110  1.0  2.2126
  Ho  Ho7  1  0.533610  0.439510  0.155060  1.0  2.1977
  Ho  Ho8  1  0.404100  0.613810  0.184750  1.0  2.0998
  Ho  Ho9  1  0.915800  0.539920  0.150950  1.0  2.1711
  Ho  Ho10  1  0.090830  0.414670  0.189890  1.0  2.2107
  Ho  Ho11  1  0.033610  0.560490  0.344940  1.0  2.1978
  Ho  Ho12  1  0.904100  0.386190  0.315250  1.0  2.0949
  Ho  Ho13  1  0.584200  0.960080  0.150950  1.0  2.1719
  Ho  Ho14  1  0.409170  0.085330  0.189890  1.0  2.2112
  Ho  Ho15  1  0.466390  0.939510  0.344940  1.0  2.1976
  Ho  Ho16  1  0.595900  0.113810  0.315250  1.0  2.1015
  Ho  Ho17  1  0.915800  0.960080  0.650950  1.0  2.1709
  Ho  Ho18  1  0.090830  0.085330  0.689890  1.0  2.2109
  Ho  Ho19  1  0.033610  0.939510  0.844940  1.0  2.1977
  Ho  Ho20  1  0.904100  0.113810  0.815250  1.0  2.1016
  Ho  Ho21  1  0.584200  0.539920  0.650950  1.0  2.1718
  Ho  Ho22  1  0.409170  0.414670  0.689890  1.0  2.2108
  Ho  Ho23  1  0.466390  0.560490  0.844940  1.0  2.1974
  Ho  Ho24  1  0.595900  0.386190  0.815250  1.0  2.0947
  Ho  Ho25  1  0.084200  0.460080  0.849060  1.0  2.1722
  Ho  Ho26  1  0.909170  0.585330  0.810110  1.0  2.213
  Ho  Ho27  1  0.966390  0.439510  0.655060  1.0  2.1975
  Ho  Ho28  1  0.095900  0.613810  0.684750  1.0  2.0996
  Ho  Ho29  1  0.415800  0.039920  0.849060  1.0  2.1712
  Ho  Ho30  1  0.590830  0.914670  0.810110  1.0  2.2129
  Ho  Ho31  1  0.533610  0.060490  0.655060  1.0  2.1978
  Ho  Ho32  1  0.404100  0.886190  0.684750  1.0  2.0931
  S  S33  1  0.975490  0.112350  0.516820  1.0  1.5452
  S  S34  1  0.266110  0.965470  0.282920  1.0  1.5357
  S  S35  1  0.913020  0.706590  0.271440  1.0  1.5639
  S  S36  1  0.881450  0.985930  0.975290  1.0  1.5868
  S  S37  1  0.524510  0.387650  0.516820  1.0  1.5453
  S  S38  1  0.233890  0.534530  0.282920  1.0  1.5359
  S  S39  1  0.586980  0.793410  0.271440  1.0  1.5652
  S  S40  1  0.618550  0.514070  0.975290  1.0  1.5865
  S  S41  1  0.024510  0.612350  0.983180  1.0  1.5455
  S  S42  1  0.733890  0.465470  0.217080  1.0  1.5361
  S  S43  1  0.086980  0.206590  0.228560  1.0  1.5661
  S  S44  1  0.118550  0.485930  0.524710  1.0  1.5863
  S  S45  1  0.475490  0.887650  0.983180  1.0  1.5457
  S  S46  1  0.766110  0.034530  0.217080  1.0  1.5357
  S  S47  1  0.413020  0.293410  0.228560  1.0  1.5664
  S  S48  1  0.381450  0.014070  0.524710  1.0  1.5861
  S  S49  1  0.024510  0.887650  0.483180  1.0  1.5455
  S  S50  1  0.733890  0.034530  0.717080  1.0  1.5359
  S  S51  1  0.086980  0.293410  0.728560  1.0  1.5657
  S  S52  1  0.118550  0.014070  0.024710  1.0  1.5861
  S  S53  1  0.475490  0.612350  0.483180  1.0  1.5453
  S  S54  1  0.766110  0.465470  0.717080  1.0  1.536
  S  S55  1  0.413020  0.206590  0.728560  1.0  1.5643
  S  S56  1  0.381450  0.485930  0.024710  1.0  1.5859
  S  S57  1  0.975490  0.387650  0.016820  1.0  1.5453
  S  S58  1  0.266110  0.534530  0.782920  1.0  1.5354
  S  S59  1  0.913020  0.793410  0.771440  1.0  1.566
  S  S60  1  0.881450  0.514070  0.475290  1.0  1.5866
  S  S61  1  0.524510  0.112350  0.016820  1.0  1.5455
  S  S62  1  0.233890  0.965470  0.782920  1.0  1.5361
  S  S63  1  0.586980  0.706590  0.771440  1.0  1.5656
  S  S64  1  0.618550  0.985930  0.475290  1.0  1.5862
  O  O65  1  0.958300  0.039900  0.294300  1.0  -0.8263
  O  O66  1  0.997900  0.111100  0.434100  1.0  -0.7387
  O  O67  1  0.091500  0.023300  0.211000  1.0  -0.9326
  O  O68  1  0.051000  0.910600  0.309700  1.0  -0.8176
  O  O69  1  0.210300  0.982500  0.346800  1.0  -0.7647
  O  O70  1  0.069500  0.959800  0.463600  1.0  -0.8376
  O  O71  1  0.109000  0.166500  0.301300  1.0  -0.771
  O  O72  1  0.962200  0.928000  0.181500  1.0  -0.8557
  O  O73  1  0.918300  0.790900  0.256700  1.0  -0.7168
  O  O74  1  0.951400  0.883800  0.435900  1.0  -0.7425
  O  O75  1  0.795700  0.960700  0.249000  1.0  -0.7236
  O  O76  1  0.889400  0.997000  0.058900  1.0  -0.7087
  O  O77  1  0.007100  0.179600  0.203800  1.0  -0.7337
  O  O78  1  0.056200  0.067400  0.052000  1.0  -0.7182
  O  O79  1  0.832700  0.081200  0.188100  1.0  -0.697
  O  O80  1  0.924800  0.179400  0.533100  1.0  -0.6144
  O  O81  1  0.224100  0.920600  0.222900  1.0  -0.689
  O  O82  1  0.107900  0.937500  0.063000  1.0  -0.7797
  O  O83  1  0.854600  0.690200  0.331800  1.0  -0.6257
  O  O84  1  0.803100  0.953600  0.957600  1.0  -0.6194
  O  O85  1  0.541700  0.460100  0.294300  1.0  -0.8266
  O  O86  1  0.502100  0.388900  0.434100  1.0  -0.7382
  O  O87  1  0.408500  0.476700  0.211000  1.0  -0.9338
  O  O88  1  0.449000  0.589400  0.309700  1.0  -0.8165
  O  O89  1  0.289700  0.517500  0.346800  1.0  -0.7662
  O  O90  1  0.430500  0.540200  0.463600  1.0  -0.8381
  O  O91  1  0.391000  0.333500  0.301300  1.0  -0.7705
  O  O92  1  0.537800  0.572000  0.181500  1.0  -0.8557
  O  O93  1  0.581700  0.709100  0.256700  1.0  -0.7189
  O  O94  1  0.548600  0.616200  0.435900  1.0  -0.7437
  O  O95  1  0.704300  0.539300  0.249000  1.0  -0.7228
  O  O96  1  0.610600  0.503000  0.058900  1.0  -0.7084
  O  O97  1  0.492900  0.320400  0.203800  1.0  -0.7331
  O  O98  1  0.443800  0.432600  0.052000  1.0  -0.7186
  O  O99  1  0.667300  0.418800  0.188100  1.0  -0.6952
  O  O100  1  0.575200  0.320600  0.533100  1.0  -0.614
  O  O101  1  0.275900  0.579400  0.222900  1.0  -0.6869
  O  O102  1  0.392100  0.562500  0.063000  1.0  -0.7801
  O  O103  1  0.645400  0.809800  0.331800  1.0  -0.6258
  O  O104  1  0.696900  0.546400  0.957600  1.0  -0.6224
  O  O105  1  0.041700  0.539900  0.205700  1.0  -0.8261
  O  O106  1  0.002100  0.611100  0.065900  1.0  -0.7395
  O  O107  1  0.908500  0.523300  0.289000  1.0  -0.9334
  O  O108  1  0.949000  0.410600  0.190300  1.0  -0.8172
  O  O109  1  0.789700  0.482500  0.153200  1.0  -0.7619
  O  O110  1  0.930500  0.459800  0.036400  1.0  -0.8369
  O  O111  1  0.891000  0.666500  0.198700  1.0  -0.7712
  O  O112  1  0.037800  0.428000  0.318500  1.0  -0.8559
  O  O113  1  0.081700  0.290900  0.243300  1.0  -0.717
  O  O114  1  0.048600  0.383800  0.064100  1.0  -0.7443
  O  O115  1  0.204300  0.460700  0.251000  1.0  -0.7234
  O  O116  1  0.110600  0.497000  0.441100  1.0  -0.7098
  O  O117  1  0.992900  0.679600  0.296200  1.0  -0.7325
  O  O118  1  0.943800  0.567400  0.448000  1.0  -0.719
  O  O119  1  0.167300  0.581200  0.311900  1.0  -0.6946
  O  O120  1  0.075200  0.679400  0.966900  1.0  -0.6131
  O  O121  1  0.775900  0.420600  0.277100  1.0  -0.6865
  O  O122  1  0.892100  0.437500  0.437000  1.0  -0.7784
  O  O123  1  0.145400  0.190200  0.168200  1.0  -0.625
  O  O124  1  0.196900  0.453600  0.542400  1.0  -0.6236
  O  O125  1  0.458300  0.960100  0.205700  1.0  -0.826
  O  O126  1  0.497900  0.888900  0.065900  1.0  -0.7388
  O  O127  1  0.591500  0.976700  0.289000  1.0  -0.9327
  O  O128  1  0.551000  0.089400  0.190300  1.0  -0.8171
  O  O129  1  0.710300  0.017500  0.153200  1.0  -0.7609
  O  O130  1  0.569500  0.040200  0.036400  1.0  -0.8367
  O  O131  1  0.609000  0.833500  0.198700  1.0  -0.7694
  O  O132  1  0.462200  0.072000  0.318500  1.0  -0.8573
  O  O133  1  0.418300  0.209100  0.243300  1.0  -0.7195
  O  O134  1  0.451400  0.116200  0.064100  1.0  -0.7439
  O  O135  1  0.295700  0.039300  0.251000  1.0  -0.7229
  O  O136  1  0.389400  0.003000  0.441100  1.0  -0.7104
  O  O137  1  0.507100  0.820400  0.296200  1.0  -0.7326
  O  O138  1  0.556200  0.932600  0.448000  1.0  -0.7187
  O  O139  1  0.332700  0.918800  0.311900  1.0  -0.6965
  O  O140  1  0.424800  0.820600  0.966900  1.0  -0.613
  O  O141  1  0.724100  0.079400  0.277100  1.0  -0.6864
  O  O142  1  0.607900  0.062500  0.437000  1.0  -0.7799
  O  O143  1  0.354600  0.309800  0.168200  1.0  -0.6241
  O  O144  1  0.303100  0.046400  0.542400  1.0  -0.6201
  O  O145  1  0.041700  0.960100  0.705700  1.0  -0.8264
  O  O146  1  0.002100  0.888900  0.565900  1.0  -0.7399
  O  O147  1  0.908500  0.976700  0.789000  1.0  -0.9336
  O  O148  1  0.949000  0.089400  0.690300  1.0  -0.8168
  O  O149  1  0.789700  0.017500  0.653200  1.0  -0.7618
  O  O150  1  0.930500  0.040200  0.536400  1.0  -0.8371
  O  O151  1  0.891000  0.833500  0.698700  1.0  -0.7697
  O  O152  1  0.037800  0.072000  0.818500  1.0  -0.8561
  O  O153  1  0.081700  0.209100  0.743300  1.0  -0.7197
  O  O154  1  0.048600  0.116200  0.564100  1.0  -0.7446
  O  O155  1  0.204300  0.039300  0.751000  1.0  -0.7235
  O  O156  1  0.110600  0.003000  0.941100  1.0  -0.7099
  O  O157  1  0.992900  0.820400  0.796200  1.0  -0.7326
  O  O158  1  0.943800  0.932600  0.948000  1.0  -0.719
  O  O159  1  0.167300  0.918800  0.811900  1.0  -0.6956
  O  O160  1  0.075200  0.820600  0.466900  1.0  -0.613
  O  O161  1  0.775900  0.079400  0.777100  1.0  -0.6851
  O  O162  1  0.892100  0.062500  0.937000  1.0  -0.78
  O  O163  1  0.145400  0.309800  0.668200  1.0  -0.6249
  O  O164  1  0.196900  0.046400  0.042400  1.0  -0.623
  O  O165  1  0.458300  0.539900  0.705700  1.0  -0.8254
  O  O166  1  0.497900  0.611100  0.565900  1.0  -0.7392
  O  O167  1  0.591500  0.523300  0.789000  1.0  -0.9324
  O  O168  1  0.551000  0.410600  0.690300  1.0  -0.8181
  O  O169  1  0.710300  0.482500  0.653200  1.0  -0.7609
  O  O170  1  0.569500  0.459800  0.536400  1.0  -0.8368
  O  O171  1  0.609000  0.666500  0.698700  1.0  -0.771
  O  O172  1  0.462200  0.428000  0.818500  1.0  -0.8565
  O  O173  1  0.418300  0.290900  0.743300  1.0  -0.7172
  O  O174  1  0.451400  0.383800  0.564100  1.0  -0.7433
  O  O175  1  0.295700  0.460700  0.751000  1.0  -0.7234
  O  O176  1  0.389400  0.497000  0.941100  1.0  -0.7105
  O  O177  1  0.507100  0.679600  0.796200  1.0  -0.7329
  O  O178  1  0.556200  0.567400  0.948000  1.0  -0.7185
  O  O179  1  0.332700  0.581200  0.811900  1.0  -0.6963
  O  O180  1  0.424800  0.679400  0.466900  1.0  -0.6139
  O  O181  1  0.724100  0.420600  0.777100  1.0  -0.6883
  O  O182  1  0.607900  0.437500  0.937000  1.0  -0.7792
  O  O183  1  0.354600  0.190200  0.668200  1.0  -0.6244
  O  O184  1  0.303100  0.453600  0.042400  1.0  -0.62
  O  O185  1  0.958300  0.460100  0.794300  1.0  -0.8263
  O  O186  1  0.997900  0.388900  0.934100  1.0  -0.7376
  O  O187  1  0.091500  0.476700  0.711000  1.0  -0.9327
  O  O188  1  0.051000  0.589400  0.809700  1.0  -0.8166
  O  O189  1  0.210300  0.517500  0.846800  1.0  -0.7648
  O  O190  1  0.069500  0.540200  0.963600  1.0  -0.8377
  O  O191  1  0.109000  0.333500  0.801300  1.0  -0.7694
  O  O192  1  0.962200  0.572000  0.681500  1.0  -0.8563
  O  O193  1  0.918300  0.709100  0.756700  1.0  -0.7187
  O  O194  1  0.951400  0.616200  0.935900  1.0  -0.743
  O  O195  1  0.795700  0.539300  0.749000  1.0  -0.7223
  O  O196  1  0.889400  0.503000  0.558900  1.0  -0.7087
  O  O197  1  0.007100  0.320400  0.703800  1.0  -0.7333
  O  O198  1  0.056200  0.432600  0.552000  1.0  -0.7182
  O  O199  1  0.832700  0.418800  0.688100  1.0  -0.6962
  O  O200  1  0.924800  0.320600  0.033100  1.0  -0.6138
  O  O201  1  0.224100  0.579400  0.722900  1.0  -0.6886
  O  O202  1  0.107900  0.562500  0.563000  1.0  -0.78
  O  O203  1  0.854600  0.809800  0.831800  1.0  -0.6254
  O  O204  1  0.803100  0.546400  0.457600  1.0  -0.6197
  O  O205  1  0.541700  0.039900  0.794300  1.0  -0.8269
  O  O206  1  0.502100  0.111100  0.934100  1.0  -0.7395
  O  O207  1  0.408500  0.023300  0.711000  1.0  -0.9338
  O  O208  1  0.449000  0.910600  0.809700  1.0  -0.8169
  O  O209  1  0.289700  0.982500  0.846800  1.0  -0.7661
  O  O210  1  0.430500  0.959800  0.963600  1.0  -0.8378
  O  O211  1  0.391000  0.166500  0.801300  1.0  -0.772
  O  O212  1  0.537800  0.928000  0.681500  1.0  -0.8554
  O  O213  1  0.581700  0.790900  0.756700  1.0  -0.7168
  O  O214  1  0.548600  0.883800  0.935900  1.0  -0.7435
  O  O215  1  0.704300  0.960700  0.749000  1.0  -0.7236
  O  O216  1  0.610600  0.997000  0.558900  1.0  -0.7086
  O  O217  1  0.492900  0.179600  0.703800  1.0  -0.7329
  O  O218  1  0.443800  0.067400  0.552000  1.0  -0.7188
  O  O219  1  0.667300  0.081200  0.688100  1.0  -0.6951
  O  O220  1  0.575200  0.179400  0.033100  1.0  -0.6138
  O  O221  1  0.275900  0.920600  0.722900  1.0  -0.687
  O  O222  1  0.392100  0.937500  0.563000  1.0  -0.7787
  O  O223  1  0.645400  0.690200  0.831800  1.0  -0.626
  O  O224  1  0.696900  0.953600  0.457600  1.0  -0.6228
