# generated using pymatgen
data_ErSO5
_symmetry_space_group_name_H-M   'P 1'
_cell_length_a   16.71800000
_cell_length_b   17.13000000
_cell_length_c   17.17000000
_cell_angle_alpha   90.00000000
_cell_angle_beta   90.00000000
_cell_angle_gamma   90.00000000
_symmetry_Int_Tables_number   1
_chemical_formula_structural   ErSO5
_chemical_formula_sum   'Er32 S32 O160'
_cell_volume   4917.13326780
_cell_formula_units_Z   32
loop_
 _symmetry_equiv_pos_site_id
 _symmetry_equiv_pos_as_xyz
  1  'x, y, z'
loop_
 _atom_site_type_symbol
 _atom_site_label
 _atom_site_symmetry_multiplicity
 _atom_site_fract_x
 _atom_site_fract_y
 _atom_site_fract_z
 _atom_site_occupancy
 _atom_site_charge
  Er  Er1  1  0.590440  0.914580  0.310160  1.0  1.6625
  Er  Er2  1  0.415860  0.039850  0.348930  1.0  1.5882
  Er  Er3  1  0.404060  0.886490  0.184760  1.0  1.6726
  Er  Er4  1  0.533740  0.060270  0.155250  1.0  1.6133
  Er  Er5  1  0.909560  0.585420  0.310160  1.0  1.6625
  Er  Er6  1  0.084140  0.460150  0.348930  1.0  1.5891
  Er  Er7  1  0.095940  0.613510  0.184760  1.0  1.6768
  Er  Er8  1  0.966260  0.439730  0.155250  1.0  1.6129
  Er  Er9  1  0.409560  0.414580  0.189840  1.0  1.6622
  Er  Er10  1  0.584140  0.539850  0.151070  1.0  1.5886
  Er  Er11  1  0.595940  0.386490  0.315240  1.0  1.6746
  Er  Er12  1  0.466260  0.560270  0.344750  1.0  1.6128
  Er  Er13  1  0.090440  0.085420  0.189840  1.0  1.6622
  Er  Er14  1  0.915860  0.960150  0.151070  1.0  1.5879
  Er  Er15  1  0.904060  0.113510  0.315240  1.0  1.6757
  Er  Er16  1  0.033740  0.939730  0.344750  1.0  1.6129
  Er  Er17  1  0.409560  0.085420  0.689840  1.0  1.6624
  Er  Er18  1  0.584140  0.960150  0.651070  1.0  1.5886
  Er  Er19  1  0.595940  0.113510  0.815240  1.0  1.6772
  Er  Er20  1  0.466260  0.939730  0.844750  1.0  1.6129
  Er  Er21  1  0.090440  0.414580  0.689840  1.0  1.6621
  Er  Er22  1  0.915860  0.539850  0.651070  1.0  1.588
  Er  Er23  1  0.904060  0.386490  0.815240  1.0  1.6732
  Er  Er24  1  0.033740  0.560270  0.844750  1.0  1.6131
  Er  Er25  1  0.590440  0.585420  0.810160  1.0  1.662
  Er  Er26  1  0.415860  0.460150  0.848930  1.0  1.5884
  Er  Er27  1  0.404060  0.613510  0.684760  1.0  1.6751
  Er  Er28  1  0.533740  0.439730  0.655250  1.0  1.6131
  Er  Er29  1  0.909560  0.914580  0.810160  1.0  1.6628
  Er  Er30  1  0.084140  0.039850  0.848930  1.0  1.5888
  Er  Er31  1  0.095940  0.886490  0.684760  1.0  1.6743
  Er  Er32  1  0.966260  0.060270  0.655250  1.0  1.6129
  S  S33  1  0.524600  0.112450  0.516820  1.0  1.6385
  S  S34  1  0.413160  0.206490  0.228570  1.0  1.6662
  S  S35  1  0.618310  0.985810  0.975220  1.0  1.6822
  S  S36  1  0.733710  0.034060  0.217340  1.0  1.6237
  S  S37  1  0.975400  0.387550  0.516820  1.0  1.6379
  S  S38  1  0.086840  0.293510  0.228570  1.0  1.6679
  S  S39  1  0.881690  0.514190  0.975220  1.0  1.6827
  S  S40  1  0.766290  0.465940  0.217340  1.0  1.624
  S  S41  1  0.475400  0.612450  0.983180  1.0  1.6383
  S  S42  1  0.586840  0.706490  0.271430  1.0  1.6664
  S  S43  1  0.381690  0.485810  0.524780  1.0  1.6823
  S  S44  1  0.266290  0.534060  0.282660  1.0  1.6236
  S  S45  1  0.024600  0.887550  0.983180  1.0  1.6385
  S  S46  1  0.913160  0.793510  0.271430  1.0  1.6666
  S  S47  1  0.118310  0.014190  0.524780  1.0  1.682
  S  S48  1  0.233710  0.965940  0.282660  1.0  1.6239
  S  S49  1  0.475400  0.887550  0.483180  1.0  1.6384
  S  S50  1  0.586840  0.793510  0.771430  1.0  1.6673
  S  S51  1  0.381690  0.014190  0.024780  1.0  1.6869
  S  S52  1  0.266290  0.965940  0.782660  1.0  1.6238
  S  S53  1  0.024600  0.612450  0.483180  1.0  1.6385
  S  S54  1  0.913160  0.706490  0.771430  1.0  1.6658
  S  S55  1  0.118310  0.485810  0.024780  1.0  1.6868
  S  S56  1  0.233710  0.534060  0.782660  1.0  1.6237
  S  S57  1  0.524600  0.387550  0.016820  1.0  1.6382
  S  S58  1  0.413160  0.293510  0.728570  1.0  1.6671
  S  S59  1  0.618310  0.514190  0.475220  1.0  1.687
  S  S60  1  0.733710  0.465940  0.717340  1.0  1.6239
  S  S61  1  0.975400  0.112450  0.016820  1.0  1.6381
  S  S62  1  0.086840  0.206490  0.728570  1.0  1.6669
  S  S63  1  0.881690  0.985810  0.475220  1.0  1.6874
  S  S64  1  0.766290  0.034060  0.717340  1.0  1.6239
  O  O65  1  0.502100  0.110900  0.433800  1.0  -0.654
  O  O66  1  0.448870  0.910400  0.309490  1.0  -0.7298
  O  O67  1  0.569800  0.040400  0.536700  1.0  -0.7383
  O  O68  1  0.408720  0.023300  0.210990  1.0  -0.8494
  O  O69  1  0.575700  0.179700  0.532600  1.0  -0.5149
  O  O70  1  0.537660  0.928100  0.181360  1.0  -0.7609
  O  O71  1  0.451400  0.116700  0.564700  1.0  -0.6737
  O  O72  1  0.541860  0.039750  0.294510  1.0  -0.7236
  O  O73  1  0.391300  0.166000  0.301700  1.0  -0.6752
  O  O74  1  0.493400  0.179600  0.203600  1.0  -0.6372
  O  O75  1  0.354500  0.190100  0.167900  1.0  -0.5259
  O  O76  1  0.418700  0.291100  0.243000  1.0  -0.677
  O  O77  1  0.610300  0.997100  0.059100  1.0  -0.6087
  O  O78  1  0.697000  0.953300  0.957400  1.0  -0.5244
  O  O79  1  0.555800  0.932300  0.947400  1.0  -0.649
  O  O80  1  0.607300  0.062600  0.936700  1.0  -0.6835
  O  O81  1  0.704100  0.959900  0.249300  1.0  -0.6526
  O  O82  1  0.667100  0.081300  0.188200  1.0  -0.6106
  O  O83  1  0.789600  0.016700  0.153200  1.0  -0.6649
  O  O84  1  0.775900  0.078900  0.277600  1.0  -0.5992
  O  O85  1  0.997900  0.389100  0.433800  1.0  -0.6529
  O  O86  1  0.051130  0.589600  0.309490  1.0  -0.7299
  O  O87  1  0.930200  0.459600  0.536700  1.0  -0.7387
  O  O88  1  0.091280  0.476700  0.210990  1.0  -0.8485
  O  O89  1  0.924300  0.320300  0.532600  1.0  -0.5147
  O  O90  1  0.962340  0.571900  0.181360  1.0  -0.7615
  O  O91  1  0.048600  0.383300  0.564700  1.0  -0.6724
  O  O92  1  0.958140  0.460250  0.294510  1.0  -0.7235
  O  O93  1  0.108700  0.334000  0.301700  1.0  -0.6729
  O  O94  1  0.006600  0.320400  0.203600  1.0  -0.6369
  O  O95  1  0.145500  0.309900  0.167900  1.0  -0.5266
  O  O96  1  0.081300  0.208900  0.243000  1.0  -0.6776
  O  O97  1  0.889700  0.502900  0.059100  1.0  -0.6088
  O  O98  1  0.803000  0.546700  0.957400  1.0  -0.5215
  O  O99  1  0.944200  0.567700  0.947400  1.0  -0.6496
  O  O100  1  0.892700  0.437400  0.936700  1.0  -0.6813
  O  O101  1  0.795900  0.540100  0.249300  1.0  -0.6508
  O  O102  1  0.832900  0.418700  0.188200  1.0  -0.6127
  O  O103  1  0.710400  0.483300  0.153200  1.0  -0.6642
  O  O104  1  0.724100  0.421100  0.277600  1.0  -0.6018
  O  O105  1  0.497900  0.610900  0.066200  1.0  -0.6537
  O  O106  1  0.551130  0.410400  0.190510  1.0  -0.7309
  O  O107  1  0.430200  0.540400  0.963300  1.0  -0.7395
  O  O108  1  0.591280  0.523300  0.289010  1.0  -0.8482
  O  O109  1  0.424300  0.679700  0.967400  1.0  -0.5152
  O  O110  1  0.462340  0.428100  0.318640  1.0  -0.7619
  O  O111  1  0.548600  0.616700  0.935300  1.0  -0.6721
  O  O112  1  0.458140  0.539750  0.205490  1.0  -0.7227
  O  O113  1  0.608700  0.666000  0.198300  1.0  -0.6739
  O  O114  1  0.506600  0.679600  0.296400  1.0  -0.6364
  O  O115  1  0.645500  0.690100  0.332100  1.0  -0.5272
  O  O116  1  0.581300  0.791100  0.257000  1.0  -0.6757
  O  O117  1  0.389700  0.497100  0.440900  1.0  -0.6107
  O  O118  1  0.303000  0.453300  0.542600  1.0  -0.5218
  O  O119  1  0.444200  0.432300  0.552600  1.0  -0.6489
  O  O120  1  0.392700  0.562600  0.563300  1.0  -0.6836
  O  O121  1  0.295900  0.459900  0.250700  1.0  -0.6525
  O  O122  1  0.332900  0.581300  0.311800  1.0  -0.6122
  O  O123  1  0.210400  0.516700  0.346800  1.0  -0.6677
  O  O124  1  0.224100  0.578900  0.222400  1.0  -0.6027
  O  O125  1  0.002100  0.889100  0.066200  1.0  -0.6548
  O  O126  1  0.948870  0.089600  0.190510  1.0  -0.7305
  O  O127  1  0.069800  0.959600  0.963300  1.0  -0.7388
  O  O128  1  0.908720  0.976700  0.289010  1.0  -0.8495
  O  O129  1  0.075700  0.820300  0.967400  1.0  -0.5144
  O  O130  1  0.037660  0.071900  0.318640  1.0  -0.7616
  O  O131  1  0.951400  0.883300  0.935300  1.0  -0.6719
  O  O132  1  0.041860  0.960250  0.205490  1.0  -0.7237
  O  O133  1  0.891300  0.834000  0.198300  1.0  -0.6729
  O  O134  1  0.993400  0.820400  0.296400  1.0  -0.6367
  O  O135  1  0.854500  0.809900  0.332100  1.0  -0.5262
  O  O136  1  0.918700  0.708900  0.257000  1.0  -0.6764
  O  O137  1  0.110300  0.002900  0.440900  1.0  -0.6101
  O  O138  1  0.197000  0.046700  0.542600  1.0  -0.5248
  O  O139  1  0.055800  0.067700  0.552600  1.0  -0.6485
  O  O140  1  0.107300  0.937400  0.563300  1.0  -0.6828
  O  O141  1  0.204100  0.040100  0.250700  1.0  -0.6521
  O  O142  1  0.167100  0.918700  0.311800  1.0  -0.6105
  O  O143  1  0.289600  0.983300  0.346800  1.0  -0.6685
  O  O144  1  0.275900  0.921100  0.222400  1.0  -0.6011
  O  O145  1  0.497900  0.889100  0.566200  1.0  -0.6535
  O  O146  1  0.551130  0.089600  0.690510  1.0  -0.7304
  O  O147  1  0.430200  0.959600  0.463300  1.0  -0.7392
  O  O148  1  0.591280  0.976700  0.789010  1.0  -0.8486
  O  O149  1  0.424300  0.820300  0.467400  1.0  -0.5142
  O  O150  1  0.462340  0.071900  0.818640  1.0  -0.7625
  O  O151  1  0.548600  0.883300  0.435300  1.0  -0.6719
  O  O152  1  0.458140  0.960250  0.705490  1.0  -0.7236
  O  O153  1  0.608700  0.834000  0.698300  1.0  -0.6726
  O  O154  1  0.506600  0.820400  0.796400  1.0  -0.636
  O  O155  1  0.645500  0.809900  0.832100  1.0  -0.5268
  O  O156  1  0.581300  0.708900  0.757000  1.0  -0.6763
  O  O157  1  0.389700  0.002900  0.940900  1.0  -0.6094
  O  O158  1  0.303000  0.046700  0.042600  1.0  -0.522
  O  O159  1  0.444200  0.067700  0.052600  1.0  -0.6489
  O  O160  1  0.392700  0.937400  0.063300  1.0  -0.6816
  O  O161  1  0.295900  0.040100  0.750700  1.0  -0.6517
  O  O162  1  0.332900  0.918700  0.811800  1.0  -0.6125
  O  O163  1  0.210400  0.983300  0.846800  1.0  -0.6678
  O  O164  1  0.224100  0.921100  0.722400  1.0  -0.6027
  O  O165  1  0.002100  0.610900  0.566200  1.0  -0.6534
  O  O166  1  0.948870  0.410400  0.690510  1.0  -0.7304
  O  O167  1  0.069800  0.540400  0.463300  1.0  -0.739
  O  O168  1  0.908720  0.523300  0.789010  1.0  -0.8491
  O  O169  1  0.075700  0.679700  0.467400  1.0  -0.5147
  O  O170  1  0.037660  0.428100  0.818640  1.0  -0.7614
  O  O171  1  0.951400  0.616700  0.435300  1.0  -0.6729
  O  O172  1  0.041860  0.539750  0.705490  1.0  -0.7231
  O  O173  1  0.891300  0.666000  0.698300  1.0  -0.6739
  O  O174  1  0.993400  0.679600  0.796400  1.0  -0.6367
  O  O175  1  0.854500  0.690100  0.832100  1.0  -0.5266
  O  O176  1  0.918700  0.791100  0.757000  1.0  -0.6761
  O  O177  1  0.110300  0.497100  0.940900  1.0  -0.6087
  O  O178  1  0.197000  0.453300  0.042600  1.0  -0.5253
  O  O179  1  0.055800  0.432300  0.052600  1.0  -0.6485
  O  O180  1  0.107300  0.562600  0.063300  1.0  -0.6835
  O  O181  1  0.204100  0.459900  0.750700  1.0  -0.6527
  O  O182  1  0.167100  0.581300  0.811800  1.0  -0.6095
  O  O183  1  0.289600  0.516700  0.846800  1.0  -0.6685
  O  O184  1  0.275900  0.578900  0.722400  1.0  -0.6015
  O  O185  1  0.502100  0.389100  0.933800  1.0  -0.6531
  O  O186  1  0.448870  0.589600  0.809490  1.0  -0.7303
  O  O187  1  0.569800  0.459600  0.036700  1.0  -0.7382
  O  O188  1  0.408720  0.476700  0.710990  1.0  -0.8496
  O  O189  1  0.575700  0.320300  0.032600  1.0  -0.5151
  O  O190  1  0.537660  0.571900  0.681360  1.0  -0.7611
  O  O191  1  0.451400  0.383300  0.064700  1.0  -0.6726
  O  O192  1  0.541860  0.460250  0.794510  1.0  -0.7236
  O  O193  1  0.391300  0.334000  0.801700  1.0  -0.6739
  O  O194  1  0.493400  0.320400  0.703600  1.0  -0.6372
  O  O195  1  0.354500  0.309900  0.667900  1.0  -0.5255
  O  O196  1  0.418700  0.208900  0.743000  1.0  -0.6777
  O  O197  1  0.610300  0.502900  0.559100  1.0  -0.6072
  O  O198  1  0.697000  0.546700  0.457400  1.0  -0.524
  O  O199  1  0.555800  0.567700  0.447400  1.0  -0.6492
  O  O200  1  0.607300  0.437400  0.436700  1.0  -0.6822
  O  O201  1  0.704100  0.540100  0.749300  1.0  -0.6511
  O  O202  1  0.667100  0.418700  0.688200  1.0  -0.6106
  O  O203  1  0.789600  0.483300  0.653200  1.0  -0.6647
  O  O204  1  0.775900  0.421100  0.777600  1.0  -0.6005
  O  O205  1  0.997900  0.110900  0.933800  1.0  -0.6529
  O  O206  1  0.051130  0.910400  0.809490  1.0  -0.7301
  O  O207  1  0.930200  0.040400  0.036700  1.0  -0.739
  O  O208  1  0.091280  0.023300  0.710990  1.0  -0.8482
  O  O209  1  0.924300  0.179700  0.032600  1.0  -0.5153
  O  O210  1  0.962340  0.928100  0.681360  1.0  -0.7611
  O  O211  1  0.048600  0.116700  0.064700  1.0  -0.6728
  O  O212  1  0.958140  0.039750  0.794510  1.0  -0.7234
  O  O213  1  0.108700  0.166000  0.801700  1.0  -0.6745
  O  O214  1  0.006600  0.179600  0.703600  1.0  -0.6374
  O  O215  1  0.145500  0.190100  0.667900  1.0  -0.5268
  O  O216  1  0.081300  0.291100  0.743000  1.0  -0.6766
  O  O217  1  0.889700  0.997100  0.559100  1.0  -0.6076
  O  O218  1  0.803000  0.953300  0.457400  1.0  -0.5212
  O  O219  1  0.944200  0.932300  0.447400  1.0  -0.6495
  O  O220  1  0.892700  0.062600  0.436700  1.0  -0.6837
  O  O221  1  0.795900  0.959900  0.749300  1.0  -0.6523
  O  O222  1  0.832900  0.081300  0.688200  1.0  -0.6134
  O  O223  1  0.710400  0.016700  0.653200  1.0  -0.6644
  O  O224  1  0.724100  0.078900  0.777600  1.0  -0.6
