# generated using pymatgen
data_NdH8(C3O2)3
_symmetry_space_group_name_H-M   'P 1'
_cell_length_a   8.72530000
_cell_length_b   12.78090000
_cell_length_c   19.47460000
_cell_angle_alpha   90.00000000
_cell_angle_beta   90.00000000
_cell_angle_gamma   109.95900000
_symmetry_Int_Tables_number   1
_chemical_formula_structural   NdH8(C3O2)3
_chemical_formula_sum   'Nd4 H32 C36 O24'
_cell_volume   2041.31089945
_cell_formula_units_Z   4
loop_
 _symmetry_equiv_pos_site_id
 _symmetry_equiv_pos_as_xyz
  1  'x, y, z'
loop_
 _atom_site_type_symbol
 _atom_site_label
 _atom_site_symmetry_multiplicity
 _atom_site_fract_x
 _atom_site_fract_y
 _atom_site_fract_z
 _atom_site_occupancy
 _atom_site_charge
  Nd  Nd1  1  0.258070  0.516140  0.500000  1.0  2.2689
  Nd  Nd2  1  0.741930  0.483860  0.000000  1.0  2.2691
  Nd  Nd3  1  0.741930  0.483860  0.500000  1.0  2.269
  Nd  Nd4  1  0.258070  0.516140  0.000000  1.0  2.2688
  H  H5  1  0.239000  0.903200  0.541600  1.0  0.1106
  H  H6  1  0.662800  0.666000  0.686800  1.0  0.1286
  H  H7  1  0.660200  0.540400  0.684000  1.0  0.125
  H  H8  1  0.761000  0.096800  0.041600  1.0  0.1107
  H  H9  1  0.337200  0.334000  0.186800  1.0  0.1289
  H  H10  1  0.339800  0.459600  0.184000  1.0  0.1242
  H  H11  1  0.335800  0.096800  0.958400  1.0  0.1115
  H  H12  1  0.996800  0.334000  0.813200  1.0  0.1279
  H  H13  1  0.119800  0.459600  0.816000  1.0  0.1245
  H  H14  1  0.664200  0.903200  0.458400  1.0  0.1117
  H  H15  1  0.003200  0.666000  0.313200  1.0  0.1278
  H  H16  1  0.880200  0.540400  0.316000  1.0  0.124
  H  H17  1  0.761000  0.096800  0.458400  1.0  0.1108
  H  H18  1  0.337200  0.334000  0.313200  1.0  0.1289
  H  H19  1  0.339800  0.459600  0.316000  1.0  0.1242
  H  H20  1  0.239000  0.903200  0.958400  1.0  0.1107
  H  H21  1  0.662800  0.666000  0.813200  1.0  0.1279
  H  H22  1  0.660200  0.540400  0.816000  1.0  0.1247
  H  H23  1  0.664200  0.903200  0.041600  1.0  0.1117
  H  H24  1  0.003200  0.666000  0.186800  1.0  0.1282
  H  H25  1  0.880200  0.540400  0.184000  1.0  0.124
  H  H26  1  0.335800  0.096800  0.541600  1.0  0.1114
  H  H27  1  0.996800  0.334000  0.686800  1.0  0.1282
  H  H28  1  0.119800  0.459600  0.684000  1.0  0.1246
  H  H29  1  0.412800  0.604200  0.750000  1.0  0.0772
  H  H30  1  0.420300  0.481000  0.750000  1.0  0.068
  H  H31  1  0.587200  0.395800  0.250000  1.0  0.0744
  H  H32  1  0.579700  0.519000  0.250000  1.0  0.0689
  H  H33  1  0.808600  0.395800  0.750000  1.0  0.0765
  H  H34  1  0.939300  0.519000  0.750000  1.0  0.0688
  H  H35  1  0.191400  0.604200  0.250000  1.0  0.0748
  H  H36  1  0.060700  0.481000  0.250000  1.0  0.0676
  C  C37  1  0.345310  0.942420  0.524660  1.0  -0.0678
  C  C38  1  0.492280  0.568760  0.619740  1.0  0.8113
  C  C39  1  0.590260  0.587320  0.685080  1.0  -0.3605
  C  C40  1  0.654690  0.057580  0.024660  1.0  -0.0675
  C  C41  1  0.507720  0.431240  0.119740  1.0  0.8111
  C  C42  1  0.409740  0.412680  0.185080  1.0  -0.3625
  C  C43  1  0.402890  0.057580  0.975340  1.0  -0.0694
  C  C44  1  0.923520  0.431240  0.880260  1.0  0.8098
  C  C45  1  0.002940  0.412680  0.814920  1.0  -0.361
  C  C46  1  0.597110  0.942420  0.475340  1.0  -0.0698
  C  C47  1  0.076480  0.568760  0.380260  1.0  0.8101
  C  C48  1  0.997060  0.587320  0.314920  1.0  -0.3625
  C  C49  1  0.654690  0.057580  0.475340  1.0  -0.0687
  C  C50  1  0.507720  0.431240  0.380260  1.0  0.81
  C  C51  1  0.409740  0.412680  0.314920  1.0  -0.3627
  C  C52  1  0.345310  0.942420  0.975340  1.0  -0.0682
  C  C53  1  0.492280  0.568760  0.880260  1.0  0.8101
  C  C54  1  0.590260  0.587320  0.814920  1.0  -0.3603
  C  C55  1  0.597110  0.942420  0.024660  1.0  -0.0688
  C  C56  1  0.076480  0.568760  0.119740  1.0  0.811
  C  C57  1  0.997060  0.587320  0.185080  1.0  -0.3622
  C  C58  1  0.402890  0.057580  0.524660  1.0  -0.069
  C  C59  1  0.923520  0.431240  0.619740  1.0  0.8113
  C  C60  1  0.002940  0.412680  0.685080  1.0  -0.3613
  C  C61  1  0.379580  0.759160  0.500000  1.0  0.6731
  C  C62  1  0.441750  0.883500  0.500000  1.0  -0.1024
  C  C63  1  0.620420  0.240840  0.000000  1.0  0.6733
  C  C64  1  0.558250  0.116500  0.000000  1.0  -0.1021
  C  C65  1  0.620420  0.240840  0.500000  1.0  0.6733
  C  C66  1  0.558250  0.116500  0.500000  1.0  -0.1021
  C  C67  1  0.379580  0.759160  0.000000  1.0  0.673
  C  C68  1  0.441750  0.883500  0.000000  1.0  -0.1024
  C  C69  1  0.487640  0.560880  0.750000  1.0  -0.0004
  C  C70  1  0.512360  0.439120  0.250000  1.0  0.0003
  C  C71  1  0.926760  0.439120  0.750000  1.0  -0.0002
  C  C72  1  0.073240  0.560880  0.250000  1.0  0.0
  O  O73  1  0.235090  0.706980  0.519540  1.0  -0.6837
  O  O74  1  0.355860  0.582720  0.618860  1.0  -0.6667
  O  O75  1  0.546540  0.539080  0.565430  1.0  -0.8866
  O  O76  1  0.764910  0.293020  0.019540  1.0  -0.684
  O  O77  1  0.644140  0.417280  0.118860  1.0  -0.6676
  O  O78  1  0.453460  0.460920  0.065430  1.0  -0.8849
  O  O79  1  0.528110  0.293020  0.980460  1.0  -0.6829
  O  O80  1  0.773140  0.417280  0.881140  1.0  -0.6664
  O  O81  1  0.007460  0.460920  0.934570  1.0  -0.8856
  O  O82  1  0.471890  0.706980  0.480460  1.0  -0.6835
  O  O83  1  0.226860  0.582720  0.381140  1.0  -0.6673
  O  O84  1  0.992540  0.539080  0.434570  1.0  -0.885
  O  O85  1  0.764910  0.293020  0.480460  1.0  -0.6837
  O  O86  1  0.644140  0.417280  0.381140  1.0  -0.6669
  O  O87  1  0.453460  0.460920  0.434570  1.0  -0.8847
  O  O88  1  0.235090  0.706980  0.980460  1.0  -0.6828
  O  O89  1  0.355860  0.582720  0.881140  1.0  -0.6667
  O  O90  1  0.546540  0.539080  0.934570  1.0  -0.8855
  O  O91  1  0.471890  0.706980  0.019540  1.0  -0.6845
  O  O92  1  0.226860  0.582720  0.118860  1.0  -0.6673
  O  O93  1  0.992540  0.539080  0.065430  1.0  -0.8858
  O  O94  1  0.528110  0.293020  0.519540  1.0  -0.683
  O  O95  1  0.773140  0.417280  0.618860  1.0  -0.6673
  O  O96  1  0.007460  0.460920  0.565430  1.0  -0.8861
