# generated using pymatgen
data_Mn4H21C15(N2O)6
_symmetry_space_group_name_H-M   'P 1'
_cell_length_a   13.52140000
_cell_length_b   13.52140000
_cell_length_c   8.06860000
_cell_angle_alpha   90.00000000
_cell_angle_beta   90.00000000
_cell_angle_gamma   120.00000000
_symmetry_Int_Tables_number   1
_chemical_formula_structural   Mn4H21C15(N2O)6
_chemical_formula_sum   'Mn8 H42 C30 N24 O12'
_cell_volume   1277.53303402
_cell_formula_units_Z   2
loop_
 _symmetry_equiv_pos_site_id
 _symmetry_equiv_pos_as_xyz
  1  'x, y, z'
loop_
 _atom_site_type_symbol
 _atom_site_label
 _atom_site_symmetry_multiplicity
 _atom_site_fract_x
 _atom_site_fract_y
 _atom_site_fract_z
 _atom_site_occupancy
 _atom_site_charge
  Mn  Mn1  1  0.301390  0.338020  0.545310  1.0  0.9615
  Mn  Mn2  1  0.661980  0.963370  0.545310  1.0  0.9591
  Mn  Mn3  1  0.036630  0.698610  0.545310  1.0  0.9614
  Mn  Mn4  1  0.698610  0.661980  0.045310  1.0  0.9625
  Mn  Mn5  1  0.338020  0.036630  0.045310  1.0  0.9606
  Mn  Mn6  1  0.963370  0.301390  0.045310  1.0  0.9593
  Mn  Mn7  1  0.333333  0.666667  0.921890  1.0  0.9057
  Mn  Mn8  1  0.666667  0.333333  0.421890  1.0  0.9057
  H  H9  1  0.411200  0.256700  0.945900  1.0  0.2804
  H  H10  1  0.286500  0.198700  0.940400  1.0  0.3043
  H  H11  1  0.423100  0.287200  0.208400  1.0  0.0643
  H  H12  1  0.348200  0.483400  0.295600  1.0  0.2897
  H  H13  1  0.442500  0.460800  0.302000  1.0  0.2563
  H  H14  1  0.352700  0.397000  0.057000  1.0  0.0623
  H  H15  1  0.237500  0.321300  0.151700  1.0  0.0723
  H  H16  1  0.743300  0.154500  0.945900  1.0  0.2865
  H  H17  1  0.801300  0.087800  0.940400  1.0  0.3025
  H  H18  1  0.712800  0.135900  0.208400  1.0  0.0623
  H  H19  1  0.516600  0.864800  0.295600  1.0  0.2878
  H  H20  1  0.539200  0.981700  0.302000  1.0  0.2554
  H  H21  1  0.603000  0.955700  0.057000  1.0  0.0622
  H  H22  1  0.678700  0.916200  0.151700  1.0  0.0737
  H  H23  1  0.845500  0.588800  0.945900  1.0  0.281
  H  H24  1  0.912200  0.713500  0.940400  1.0  0.3048
  H  H25  1  0.864100  0.576900  0.208400  1.0  0.0638
  H  H26  1  0.135200  0.651800  0.295600  1.0  0.2816
  H  H27  1  0.018300  0.557500  0.302000  1.0  0.2537
  H  H28  1  0.044300  0.647300  0.057000  1.0  0.063
  H  H29  1  0.083800  0.762500  0.151700  1.0  0.0724
  H  H30  1  0.588800  0.743300  0.445900  1.0  0.2808
  H  H31  1  0.713500  0.801300  0.440400  1.0  0.3066
  H  H32  1  0.576900  0.712800  0.708400  1.0  0.0632
  H  H33  1  0.651800  0.516600  0.795600  1.0  0.2883
  H  H34  1  0.557500  0.539200  0.802000  1.0  0.2554
  H  H35  1  0.647300  0.603000  0.557000  1.0  0.063
  H  H36  1  0.762500  0.678700  0.651700  1.0  0.0716
  H  H37  1  0.256700  0.845500  0.445900  1.0  0.2882
  H  H38  1  0.198700  0.912200  0.440400  1.0  0.3032
  H  H39  1  0.287200  0.864100  0.708400  1.0  0.0633
  H  H40  1  0.483400  0.135200  0.795600  1.0  0.2889
  H  H41  1  0.460800  0.018300  0.802000  1.0  0.2547
  H  H42  1  0.397000  0.044300  0.557000  1.0  0.0622
  H  H43  1  0.321300  0.083800  0.651700  1.0  0.0725
  H  H44  1  0.154500  0.411200  0.445900  1.0  0.2829
  H  H45  1  0.087800  0.286500  0.440400  1.0  0.3045
  H  H46  1  0.135900  0.423100  0.708400  1.0  0.0621
  H  H47  1  0.864800  0.348200  0.795600  1.0  0.2871
  H  H48  1  0.981700  0.442500  0.802000  1.0  0.2555
  H  H49  1  0.955700  0.352700  0.557000  1.0  0.0619
  H  H50  1  0.916200  0.237500  0.651700  1.0  0.0721
  C  C51  1  0.534820  0.322730  0.548600  1.0  0.0895
  C  C52  1  0.353700  0.559900  0.776600  1.0  0.1785
  C  C53  1  0.267700  0.157900  0.280300  1.0  0.7039
  C  C54  1  0.345600  0.254700  0.163900  1.0  0.0007
  C  C55  1  0.319500  0.352500  0.156700  1.0  -0.0062
  C  C56  1  0.677270  0.212090  0.548600  1.0  0.0889
  C  C57  1  0.440100  0.793800  0.776600  1.0  0.1791
  C  C58  1  0.842100  0.109800  0.280300  1.0  0.6997
  C  C59  1  0.745300  0.090900  0.163900  1.0  0.0003
  C  C60  1  0.647500  0.967000  0.156700  1.0  -0.0105
  C  C61  1  0.787910  0.465180  0.548600  1.0  0.0884
  C  C62  1  0.206200  0.646300  0.776600  1.0  0.178
  C  C63  1  0.890200  0.732300  0.280300  1.0  0.703
  C  C64  1  0.909100  0.654400  0.163900  1.0  -0.0009
  C  C65  1  0.033000  0.680500  0.156700  1.0  -0.0067
  C  C66  1  0.465180  0.677270  0.048600  1.0  0.091
  C  C67  1  0.646300  0.440100  0.276600  1.0  0.1774
  C  C68  1  0.732300  0.842100  0.780300  1.0  0.7025
  C  C69  1  0.654400  0.745300  0.663900  1.0  -1e-04
  C  C70  1  0.680500  0.647500  0.656700  1.0  -0.0081
  C  C71  1  0.322730  0.787910  0.048600  1.0  0.0876
  C  C72  1  0.559900  0.206200  0.276600  1.0  0.1798
  C  C73  1  0.157900  0.890200  0.780300  1.0  0.7019
  C  C74  1  0.254700  0.909100  0.663900  1.0  0.0008
  C  C75  1  0.352500  0.033000  0.656700  1.0  -0.0076
  C  C76  1  0.212090  0.534820  0.048600  1.0  0.0877
  C  C77  1  0.793800  0.353700  0.276600  1.0  0.1781
  C  C78  1  0.109800  0.267700  0.780300  1.0  0.7024
  C  C79  1  0.090900  0.345600  0.663900  1.0  -0.0005
  C  C80  1  0.967000  0.319500  0.656700  1.0  -0.0047
  N  N81  1  0.346800  0.208700  0.000700  1.0  -0.669
  N  N82  1  0.365800  0.427600  0.303300  1.0  -0.6968
  N  N83  1  0.456000  0.321400  0.603700  1.0  -0.4684
  N  N84  1  0.368000  0.500000  0.691000  1.0  -0.4689
  N  N85  1  0.791300  0.138100  0.000700  1.0  -0.6707
  N  N86  1  0.572400  0.938200  0.303300  1.0  -0.6907
  N  N87  1  0.678600  0.134600  0.603700  1.0  -0.4696
  N  N88  1  0.500000  0.868000  0.691000  1.0  -0.4688
  N  N89  1  0.861900  0.653200  0.000700  1.0  -0.6697
  N  N90  1  0.061800  0.634200  0.303300  1.0  -0.6929
  N  N91  1  0.865400  0.544000  0.603700  1.0  -0.4695
  N  N92  1  0.132000  0.632000  0.691000  1.0  -0.4691
  N  N93  1  0.653200  0.791300  0.500700  1.0  -0.6695
  N  N94  1  0.634200  0.572400  0.803300  1.0  -0.6945
  N  N95  1  0.544000  0.678600  0.103700  1.0  -0.4682
  N  N96  1  0.632000  0.500000  0.191000  1.0  -0.469
  N  N97  1  0.208700  0.861900  0.500700  1.0  -0.672
  N  N98  1  0.427600  0.061800  0.803300  1.0  -0.6905
  N  N99  1  0.321400  0.865400  0.103700  1.0  -0.4701
  N  N100  1  0.500000  0.132000  0.191000  1.0  -0.4688
  N  N101  1  0.138100  0.346800  0.500700  1.0  -0.6704
  N  N102  1  0.938200  0.365800  0.803300  1.0  -0.6936
  N  N103  1  0.134600  0.456000  0.103700  1.0  -0.4705
  N  N104  1  0.868000  0.368000  0.191000  1.0  -0.4687
  O  O105  1  0.230030  0.181420  0.406800  1.0  -0.6073
  O  O106  1  0.245780  0.058060  0.246800  1.0  -0.6448
  O  O107  1  0.818580  0.048610  0.406800  1.0  -0.6083
  O  O108  1  0.941940  0.187720  0.246800  1.0  -0.643
  O  O109  1  0.951390  0.769970  0.406800  1.0  -0.6081
  O  O110  1  0.812280  0.754220  0.246800  1.0  -0.6431
  O  O111  1  0.769970  0.818580  0.906800  1.0  -0.6085
  O  O112  1  0.754220  0.941940  0.746800  1.0  -0.6451
  O  O113  1  0.181420  0.951390  0.906800  1.0  -0.6066
  O  O114  1  0.058060  0.812280  0.746800  1.0  -0.6425
  O  O115  1  0.048610  0.230030  0.906800  1.0  -0.6078
  O  O116  1  0.187720  0.245780  0.746800  1.0  -0.6432
