# generated using pymatgen
data_Mn4H21C15(N2O)6
_symmetry_space_group_name_H-M   'P 1'
_cell_length_a   13.51600000
_cell_length_b   13.51600000
_cell_length_c   8.05330000
_cell_angle_alpha   90.00000000
_cell_angle_beta   90.00000000
_cell_angle_gamma   120.00000000
_symmetry_Int_Tables_number   1
_chemical_formula_structural   Mn4H21C15(N2O)6
_chemical_formula_sum   'Mn8 H42 C30 N24 O12'
_cell_volume   1274.09225452
_cell_formula_units_Z   2
loop_
 _symmetry_equiv_pos_site_id
 _symmetry_equiv_pos_as_xyz
  1  'x, y, z'
loop_
 _atom_site_type_symbol
 _atom_site_label
 _atom_site_symmetry_multiplicity
 _atom_site_fract_x
 _atom_site_fract_y
 _atom_site_fract_z
 _atom_site_occupancy
 _atom_site_charge
  Mn  Mn1  1  0.301630  0.338410  0.545180  1.0  1.0168
  Mn  Mn2  1  0.661590  0.963220  0.545180  1.0  1.0163
  Mn  Mn3  1  0.036780  0.698370  0.545180  1.0  1.0165
  Mn  Mn4  1  0.698370  0.661590  0.045180  1.0  1.0179
  Mn  Mn5  1  0.338410  0.036780  0.045180  1.0  1.0172
  Mn  Mn6  1  0.963220  0.301630  0.045180  1.0  1.0166
  Mn  Mn7  1  0.333333  0.666667  0.922630  1.0  0.9112
  Mn  Mn8  1  0.666667  0.333333  0.422630  1.0  0.9112
  H  H9  1  0.411800  0.257000  0.944800  1.0  0.2799
  H  H10  1  0.287000  0.199000  0.939000  1.0  0.3031
  H  H11  1  0.423200  0.287200  0.208500  1.0  0.0638
  H  H12  1  0.348600  0.483900  0.294800  1.0  0.2887
  H  H13  1  0.442900  0.461300  0.301400  1.0  0.2523
  H  H14  1  0.353700  0.397800  0.055900  1.0  0.0599
  H  H15  1  0.238100  0.322300  0.150200  1.0  0.0738
  H  H16  1  0.743000  0.154800  0.944800  1.0  0.2857
  H  H17  1  0.801000  0.088000  0.939000  1.0  0.3012
  H  H18  1  0.712800  0.136000  0.208500  1.0  0.0605
  H  H19  1  0.516100  0.864700  0.294800  1.0  0.2875
  H  H20  1  0.538700  0.981600  0.301400  1.0  0.2513
  H  H21  1  0.602200  0.955900  0.055900  1.0  0.0596
  H  H22  1  0.677700  0.915800  0.150200  1.0  0.0752
  H  H23  1  0.845200  0.588200  0.944800  1.0  0.2794
  H  H24  1  0.912000  0.713000  0.939000  1.0  0.3036
  H  H25  1  0.864000  0.576800  0.208500  1.0  0.0623
  H  H26  1  0.135300  0.651400  0.294800  1.0  0.2809
  H  H27  1  0.018400  0.557100  0.301400  1.0  0.2482
  H  H28  1  0.044100  0.646300  0.055900  1.0  0.0607
  H  H29  1  0.084200  0.761900  0.150200  1.0  0.074
  H  H30  1  0.588200  0.743000  0.444800  1.0  0.28
  H  H31  1  0.713000  0.801000  0.439000  1.0  0.3052
  H  H32  1  0.576800  0.712800  0.708500  1.0  0.0615
  H  H33  1  0.651400  0.516100  0.794800  1.0  0.288
  H  H34  1  0.557100  0.538700  0.801400  1.0  0.2514
  H  H35  1  0.646300  0.602200  0.555900  1.0  0.0607
  H  H36  1  0.761900  0.677700  0.650200  1.0  0.0732
  H  H37  1  0.257000  0.845200  0.444800  1.0  0.2876
  H  H38  1  0.199000  0.912000  0.439000  1.0  0.3021
  H  H39  1  0.287200  0.864000  0.708500  1.0  0.0617
  H  H40  1  0.483900  0.135300  0.794800  1.0  0.2882
  H  H41  1  0.461300  0.018400  0.801400  1.0  0.2506
  H  H42  1  0.397800  0.044100  0.555900  1.0  0.0599
  H  H43  1  0.322300  0.084200  0.650200  1.0  0.0741
  H  H44  1  0.154800  0.411800  0.444800  1.0  0.2805
  H  H45  1  0.088000  0.287000  0.439000  1.0  0.303
  H  H46  1  0.136000  0.423200  0.708500  1.0  0.0604
  H  H47  1  0.864700  0.348600  0.794800  1.0  0.2882
  H  H48  1  0.981600  0.442900  0.801400  1.0  0.2503
  H  H49  1  0.955900  0.353700  0.555900  1.0  0.0592
  H  H50  1  0.915800  0.238100  0.650200  1.0  0.0739
  C  C51  1  0.534500  0.322710  0.548600  1.0  0.0914
  C  C52  1  0.353700  0.560000  0.777100  1.0  0.1785
  C  C53  1  0.267100  0.158000  0.279300  1.0  0.6884
  C  C54  1  0.345800  0.255000  0.163300  1.0  -0.0011
  C  C55  1  0.320100  0.353300  0.155600  1.0  -0.0154
  C  C56  1  0.677290  0.211790  0.548600  1.0  0.0908
  C  C57  1  0.440000  0.793700  0.777100  1.0  0.1791
  C  C58  1  0.842000  0.109100  0.279300  1.0  0.6867
  C  C59  1  0.745000  0.090800  0.163300  1.0  -0.0013
  C  C60  1  0.646700  0.966800  0.155600  1.0  -0.0188
  C  C61  1  0.788210  0.465500  0.548600  1.0  0.0901
  C  C62  1  0.206300  0.646300  0.777100  1.0  0.1783
  C  C63  1  0.890900  0.732900  0.279300  1.0  0.6876
  C  C64  1  0.909200  0.654200  0.163300  1.0  -0.0027
  C  C65  1  0.033200  0.679900  0.155600  1.0  -0.0153
  C  C66  1  0.465500  0.677290  0.048600  1.0  0.0928
  C  C67  1  0.646300  0.440000  0.277100  1.0  0.1777
  C  C68  1  0.732900  0.842000  0.779300  1.0  0.6874
  C  C69  1  0.654200  0.745000  0.663300  1.0  -0.0015
  C  C70  1  0.679900  0.646700  0.655600  1.0  -0.0167
  C  C71  1  0.322710  0.788210  0.048600  1.0  0.0895
  C  C72  1  0.560000  0.206300  0.277100  1.0  0.1798
  C  C73  1  0.158000  0.890900  0.779300  1.0  0.688
  C  C74  1  0.255000  0.909200  0.663300  1.0  -0.0009
  C  C75  1  0.353300  0.033200  0.655600  1.0  -0.0163
  C  C76  1  0.211790  0.534500  0.048600  1.0  0.0896
  C  C77  1  0.793700  0.353700  0.277100  1.0  0.1783
  C  C78  1  0.109100  0.267100  0.779300  1.0  0.6872
  C  C79  1  0.090800  0.345800  0.663300  1.0  -0.0022
  C  C80  1  0.966800  0.320100  0.655600  1.0  -0.0134
  N  N81  1  0.347300  0.209000  0.999600  1.0  -0.6706
  N  N82  1  0.366300  0.428090  0.302600  1.0  -0.6982
  N  N83  1  0.455400  0.321300  0.603700  1.0  -0.4757
  N  N84  1  0.367800  0.500000  0.691300  1.0  -0.4804
  N  N85  1  0.791000  0.138300  0.999600  1.0  -0.6723
  N  N86  1  0.571910  0.938210  0.302600  1.0  -0.6923
  N  N87  1  0.678700  0.134100  0.603700  1.0  -0.4767
  N  N88  1  0.500000  0.867800  0.691300  1.0  -0.48
  N  N89  1  0.861700  0.652700  0.999600  1.0  -0.6713
  N  N90  1  0.061790  0.633700  0.302600  1.0  -0.6944
  N  N91  1  0.865900  0.544600  0.603700  1.0  -0.4764
  N  N92  1  0.132200  0.632200  0.691300  1.0  -0.4804
  N  N93  1  0.652700  0.791000  0.499600  1.0  -0.671
  N  N94  1  0.633700  0.571910  0.802600  1.0  -0.6957
  N  N95  1  0.544600  0.678700  0.103700  1.0  -0.4755
  N  N96  1  0.632200  0.500000  0.191300  1.0  -0.4799
  N  N97  1  0.209000  0.861700  0.499600  1.0  -0.6735
  N  N98  1  0.428090  0.061790  0.802600  1.0  -0.6922
  N  N99  1  0.321300  0.865900  0.103700  1.0  -0.477
  N  N100  1  0.500000  0.132200  0.191300  1.0  -0.4795
  N  N101  1  0.138300  0.347300  0.499600  1.0  -0.672
  N  N102  1  0.938210  0.366300  0.802600  1.0  -0.6945
  N  N103  1  0.134100  0.455400  0.103700  1.0  -0.4778
  N  N104  1  0.867800  0.367800  0.191300  1.0  -0.4801
  O  O105  1  0.229040  0.181400  0.405500  1.0  -0.6069
  O  O106  1  0.244830  0.058130  0.245900  1.0  -0.6498
  O  O107  1  0.818600  0.047640  0.405500  1.0  -0.6081
  O  O108  1  0.941870  0.186700  0.245900  1.0  -0.6471
  O  O109  1  0.952360  0.770960  0.405500  1.0  -0.6075
  O  O110  1  0.813300  0.755170  0.245900  1.0  -0.6472
  O  O111  1  0.770960  0.818600  0.905500  1.0  -0.6082
  O  O112  1  0.755170  0.941870  0.745900  1.0  -0.649
  O  O113  1  0.181400  0.952360  0.905500  1.0  -0.6068
  O  O114  1  0.058130  0.813300  0.745900  1.0  -0.6467
  O  O115  1  0.047640  0.229040  0.905500  1.0  -0.6081
  O  O116  1  0.186700  0.244830  0.745900  1.0  -0.6474
