# generated using pymatgen
data_Mn4H21C15(N2O)6
_symmetry_space_group_name_H-M   'P 1'
_cell_length_a   13.52930000
_cell_length_b   13.52930000
_cell_length_c   8.07070000
_cell_angle_alpha   90.00000000
_cell_angle_beta   90.00000000
_cell_angle_gamma   120.00000000
_symmetry_Int_Tables_number   1
_chemical_formula_structural   Mn4H21C15(N2O)6
_chemical_formula_sum   'Mn8 H42 C30 N24 O12'
_cell_volume   1279.35918040
_cell_formula_units_Z   2
loop_
 _symmetry_equiv_pos_site_id
 _symmetry_equiv_pos_as_xyz
  1  'x, y, z'
loop_
 _atom_site_type_symbol
 _atom_site_label
 _atom_site_symmetry_multiplicity
 _atom_site_fract_x
 _atom_site_fract_y
 _atom_site_fract_z
 _atom_site_occupancy
 _atom_site_charge
  Mn  Mn1  1  0.301990  0.338040  0.545550  1.0  0.9918
  Mn  Mn2  1  0.661960  0.963950  0.545550  1.0  0.99
  Mn  Mn3  1  0.036050  0.698010  0.545550  1.0  0.9918
  Mn  Mn4  1  0.698010  0.661960  0.045550  1.0  0.9928
  Mn  Mn5  1  0.338040  0.036050  0.045550  1.0  0.9909
  Mn  Mn6  1  0.963950  0.301990  0.045550  1.0  0.9905
  Mn  Mn7  1  0.333333  0.666667  0.921280  1.0  0.9294
  Mn  Mn8  1  0.666667  0.333333  0.421280  1.0  0.9294
  H  H9  1  0.410200  0.256000  0.945200  1.0  0.2789
  H  H10  1  0.285500  0.197800  0.941100  1.0  0.2994
  H  H11  1  0.423300  0.286500  0.208000  1.0  0.0617
  H  H12  1  0.348800  0.483300  0.294400  1.0  0.2882
  H  H13  1  0.442800  0.460400  0.300500  1.0  0.2518
  H  H14  1  0.351800  0.396200  0.057000  1.0  0.0589
  H  H15  1  0.237400  0.320800  0.153300  1.0  0.0687
  H  H16  1  0.744000  0.154200  0.945200  1.0  0.2843
  H  H17  1  0.802200  0.087700  0.941100  1.0  0.2974
  H  H18  1  0.713500  0.136800  0.208000  1.0  0.0596
  H  H19  1  0.516700  0.865500  0.294400  1.0  0.2877
  H  H20  1  0.539600  0.982400  0.300500  1.0  0.2493
  H  H21  1  0.603800  0.955600  0.057000  1.0  0.0589
  H  H22  1  0.679200  0.916600  0.153300  1.0  0.0699
  H  H23  1  0.845800  0.589800  0.945200  1.0  0.2784
  H  H24  1  0.912300  0.714500  0.941100  1.0  0.2998
  H  H25  1  0.863200  0.576700  0.208000  1.0  0.0614
  H  H26  1  0.134500  0.651200  0.294400  1.0  0.2802
  H  H27  1  0.017600  0.557200  0.300500  1.0  0.2494
  H  H28  1  0.044400  0.648200  0.057000  1.0  0.0596
  H  H29  1  0.083400  0.762600  0.153300  1.0  0.0684
  H  H30  1  0.589800  0.744000  0.445200  1.0  0.2783
  H  H31  1  0.714500  0.802200  0.441100  1.0  0.3012
  H  H32  1  0.576700  0.713500  0.708000  1.0  0.0602
  H  H33  1  0.651200  0.516700  0.794400  1.0  0.2873
  H  H34  1  0.557200  0.539600  0.800500  1.0  0.2503
  H  H35  1  0.648200  0.603800  0.557000  1.0  0.0596
  H  H36  1  0.762600  0.679200  0.653300  1.0  0.0689
  H  H37  1  0.256000  0.845800  0.445200  1.0  0.2859
  H  H38  1  0.197800  0.912300  0.441100  1.0  0.2981
  H  H39  1  0.286500  0.863200  0.708000  1.0  0.0607
  H  H40  1  0.483300  0.134500  0.794400  1.0  0.2878
  H  H41  1  0.460400  0.017600  0.800500  1.0  0.2498
  H  H42  1  0.396200  0.044400  0.557000  1.0  0.0587
  H  H43  1  0.320800  0.083400  0.653300  1.0  0.0687
  H  H44  1  0.154200  0.410200  0.445200  1.0  0.2796
  H  H45  1  0.087700  0.285500  0.441100  1.0  0.2994
  H  H46  1  0.136800  0.423300  0.708000  1.0  0.0593
  H  H47  1  0.865500  0.348800  0.794400  1.0  0.287
  H  H48  1  0.982400  0.442800  0.800500  1.0  0.2507
  H  H49  1  0.955600  0.351800  0.557000  1.0  0.0584
  H  H50  1  0.916600  0.237400  0.653300  1.0  0.0682
  C  C51  1  0.535100  0.322700  0.548800  1.0  0.0901
  C  C52  1  0.353900  0.560000  0.776000  1.0  0.1739
  C  C53  1  0.267800  0.157400  0.281100  1.0  0.6863
  C  C54  1  0.345700  0.254100  0.164100  1.0  -0.0011
  C  C55  1  0.319300  0.352100  0.157200  1.0  -0.0094
  C  C56  1  0.677300  0.212400  0.548800  1.0  0.0895
  C  C57  1  0.440000  0.793900  0.776000  1.0  0.1745
  C  C58  1  0.842600  0.110400  0.281100  1.0  0.6841
  C  C59  1  0.745900  0.091600  0.164100  1.0  -0.0015
  C  C60  1  0.647900  0.967200  0.157200  1.0  -0.0136
  C  C61  1  0.787600  0.464900  0.548800  1.0  0.089
  C  C62  1  0.206100  0.646100  0.776000  1.0  0.1721
  C  C63  1  0.889600  0.732200  0.281100  1.0  0.6846
  C  C64  1  0.908400  0.654300  0.164100  1.0  -0.0027
  C  C65  1  0.032800  0.680700  0.157200  1.0  -0.0098
  C  C66  1  0.464900  0.677300  0.048800  1.0  0.0911
  C  C67  1  0.646100  0.440000  0.276000  1.0  0.1722
  C  C68  1  0.732200  0.842600  0.781100  1.0  0.6849
  C  C69  1  0.654300  0.745900  0.664100  1.0  -0.0016
  C  C70  1  0.680700  0.647900  0.657200  1.0  -0.0112
  C  C71  1  0.322700  0.787600  0.048800  1.0  0.0882
  C  C72  1  0.560000  0.206100  0.276000  1.0  0.1755
  C  C73  1  0.157400  0.889600  0.781100  1.0  0.6837
  C  C74  1  0.254100  0.908400  0.664100  1.0  -0.001
  C  C75  1  0.352100  0.032800  0.657200  1.0  -0.0109
  C  C76  1  0.212400  0.535100  0.048800  1.0  0.0883
  C  C77  1  0.793900  0.353900  0.276000  1.0  0.1737
  C  C78  1  0.110400  0.267800  0.781100  1.0  0.6852
  C  C79  1  0.091600  0.345700  0.664100  1.0  -0.0023
  C  C80  1  0.967200  0.319300  0.657200  1.0  -0.0076
  N  N81  1  0.346200  0.208000  0.000600  1.0  -0.6738
  N  N82  1  0.366200  0.427400  0.302300  1.0  -0.6922
  N  N83  1  0.456300  0.321300  0.604700  1.0  -0.4766
  N  N84  1  0.368200  0.500600  0.690100  1.0  -0.4738
  N  N85  1  0.792000  0.138200  0.000600  1.0  -0.6757
  N  N86  1  0.572600  0.938800  0.302300  1.0  -0.6861
  N  N87  1  0.678700  0.135000  0.604700  1.0  -0.4775
  N  N88  1  0.499400  0.867600  0.690100  1.0  -0.4734
  N  N89  1  0.861800  0.653800  0.000600  1.0  -0.6743
  N  N90  1  0.061200  0.633800  0.302300  1.0  -0.6882
  N  N91  1  0.865000  0.543700  0.604700  1.0  -0.4778
  N  N92  1  0.132400  0.631800  0.690100  1.0  -0.4737
  N  N93  1  0.653800  0.792000  0.500600  1.0  -0.6747
  N  N94  1  0.633800  0.572600  0.802300  1.0  -0.6894
  N  N95  1  0.543700  0.678700  0.104700  1.0  -0.4761
  N  N96  1  0.631800  0.499400  0.190100  1.0  -0.473
  N  N97  1  0.208000  0.861800  0.500600  1.0  -0.6764
  N  N98  1  0.427400  0.061200  0.802300  1.0  -0.6863
  N  N99  1  0.321300  0.865000  0.104700  1.0  -0.4786
  N  N100  1  0.500600  0.132400  0.190100  1.0  -0.4728
  N  N101  1  0.138200  0.346200  0.500600  1.0  -0.6751
  N  N102  1  0.938800  0.366200  0.802300  1.0  -0.6891
  N  N103  1  0.135000  0.456300  0.104700  1.0  -0.4786
  N  N104  1  0.867600  0.368200  0.190100  1.0  -0.4736
  O  O105  1  0.230500  0.181510  0.407400  1.0  -0.6115
  O  O106  1  0.246200  0.058100  0.247400  1.0  -0.6172
  O  O107  1  0.818490  0.048990  0.407400  1.0  -0.612
  O  O108  1  0.941900  0.188100  0.247400  1.0  -0.6155
  O  O109  1  0.951010  0.769500  0.407400  1.0  -0.6122
  O  O110  1  0.811900  0.753800  0.247400  1.0  -0.6154
  O  O111  1  0.769500  0.818490  0.907400  1.0  -0.6118
  O  O112  1  0.753800  0.941900  0.747400  1.0  -0.6168
  O  O113  1  0.181510  0.951010  0.907400  1.0  -0.6102
  O  O114  1  0.058100  0.811900  0.747400  1.0  -0.6147
  O  O115  1  0.048990  0.230500  0.907400  1.0  -0.611
  O  O116  1  0.188100  0.246200  0.747400  1.0  -0.6158
