# generated using pymatgen
data_Mn4H21C15(N2O)6
_symmetry_space_group_name_H-M   'P 1'
_cell_length_a   13.52740000
_cell_length_b   13.52740000
_cell_length_c   8.07260000
_cell_angle_alpha   90.00000000
_cell_angle_beta   90.00000000
_cell_angle_gamma   120.00000000
_symmetry_Int_Tables_number   1
_chemical_formula_structural   Mn4H21C15(N2O)6
_chemical_formula_sum   'Mn8 H42 C30 N24 O12'
_cell_volume   1279.30097109
_cell_formula_units_Z   2
loop_
 _symmetry_equiv_pos_site_id
 _symmetry_equiv_pos_as_xyz
  1  'x, y, z'
loop_
 _atom_site_type_symbol
 _atom_site_label
 _atom_site_symmetry_multiplicity
 _atom_site_fract_x
 _atom_site_fract_y
 _atom_site_fract_z
 _atom_site_occupancy
 _atom_site_charge
  Mn  Mn1  1  0.301320  0.338220  0.545160  1.0  0.9825
  Mn  Mn2  1  0.661780  0.963100  0.545160  1.0  0.9823
  Mn  Mn3  1  0.036900  0.698680  0.545160  1.0  0.9828
  Mn  Mn4  1  0.698680  0.661780  0.045160  1.0  0.9834
  Mn  Mn5  1  0.338220  0.036900  0.045160  1.0  0.9826
  Mn  Mn6  1  0.963100  0.301320  0.045160  1.0  0.9826
  Mn  Mn7  1  0.333333  0.666667  0.922400  1.0  0.9048
  Mn  Mn8  1  0.666667  0.333333  0.422400  1.0  0.9048
  H  H9  1  0.411200  0.256800  0.945300  1.0  0.2838
  H  H10  1  0.286600  0.198800  0.939800  1.0  0.3038
  H  H11  1  0.423100  0.287300  0.208500  1.0  0.0664
  H  H12  1  0.348400  0.483700  0.295200  1.0  0.2932
  H  H13  1  0.442500  0.460900  0.301700  1.0  0.2573
  H  H14  1  0.353100  0.397600  0.056900  1.0  0.0633
  H  H15  1  0.237800  0.322000  0.151200  1.0  0.0723
  H  H16  1  0.743200  0.154400  0.945300  1.0  0.2894
  H  H17  1  0.801200  0.087800  0.939800  1.0  0.3009
  H  H18  1  0.712700  0.135800  0.208500  1.0  0.0638
  H  H19  1  0.516300  0.864700  0.295200  1.0  0.2911
  H  H20  1  0.539100  0.981600  0.301700  1.0  0.2567
  H  H21  1  0.602400  0.955500  0.056900  1.0  0.0631
  H  H22  1  0.678000  0.915800  0.151200  1.0  0.0735
  H  H23  1  0.845600  0.588800  0.945300  1.0  0.2831
  H  H24  1  0.912200  0.713400  0.939800  1.0  0.3034
  H  H25  1  0.864200  0.576900  0.208500  1.0  0.0659
  H  H26  1  0.135300  0.651600  0.295200  1.0  0.2855
  H  H27  1  0.018400  0.557500  0.301700  1.0  0.2546
  H  H28  1  0.044500  0.646900  0.056900  1.0  0.0641
  H  H29  1  0.084200  0.762200  0.151200  1.0  0.0726
  H  H30  1  0.588800  0.743200  0.445300  1.0  0.2826
  H  H31  1  0.713400  0.801200  0.439800  1.0  0.3056
  H  H32  1  0.576900  0.712700  0.708500  1.0  0.0648
  H  H33  1  0.651600  0.516300  0.795200  1.0  0.2919
  H  H34  1  0.557500  0.539100  0.801700  1.0  0.2563
  H  H35  1  0.646900  0.602400  0.556900  1.0  0.064
  H  H36  1  0.762200  0.678000  0.651200  1.0  0.0723
  H  H37  1  0.256800  0.845600  0.445300  1.0  0.2897
  H  H38  1  0.198800  0.912200  0.439800  1.0  0.302
  H  H39  1  0.287300  0.864200  0.708500  1.0  0.065
  H  H40  1  0.483700  0.135300  0.795200  1.0  0.2926
  H  H41  1  0.460900  0.018400  0.801700  1.0  0.2555
  H  H42  1  0.397600  0.044500  0.556900  1.0  0.0633
  H  H43  1  0.322000  0.084200  0.651200  1.0  0.0724
  H  H44  1  0.154400  0.411200  0.445300  1.0  0.2844
  H  H45  1  0.087800  0.286600  0.439800  1.0  0.303
  H  H46  1  0.135800  0.423100  0.708500  1.0  0.0637
  H  H47  1  0.864700  0.348400  0.795200  1.0  0.2914
  H  H48  1  0.981600  0.442500  0.801700  1.0  0.2564
  H  H49  1  0.955500  0.353100  0.556900  1.0  0.0628
  H  H50  1  0.915800  0.237800  0.651200  1.0  0.0721
  C  C51  1  0.534770  0.322920  0.548500  1.0  0.0911
  C  C52  1  0.353670  0.559800  0.776600  1.0  0.1682
  C  C53  1  0.267300  0.158000  0.280100  1.0  0.6829
  C  C54  1  0.345600  0.255000  0.163800  1.0  -0.0034
  C  C55  1  0.319700  0.353100  0.156400  1.0  -0.0095
  C  C56  1  0.677080  0.211850  0.548500  1.0  0.0904
  C  C57  1  0.440200  0.793870  0.776600  1.0  0.1691
  C  C58  1  0.842000  0.109300  0.280100  1.0  0.681
  C  C59  1  0.745000  0.090600  0.163800  1.0  -0.0039
  C  C60  1  0.646900  0.966600  0.156400  1.0  -0.013
  C  C61  1  0.788150  0.465230  0.548500  1.0  0.0898
  C  C62  1  0.206130  0.646330  0.776600  1.0  0.166
  C  C63  1  0.890700  0.732700  0.280100  1.0  0.682
  C  C64  1  0.909400  0.654400  0.163800  1.0  -0.005
  C  C65  1  0.033400  0.680300  0.156400  1.0  -0.0094
  C  C66  1  0.465230  0.677080  0.048500  1.0  0.0925
  C  C67  1  0.646330  0.440200  0.276600  1.0  0.1664
  C  C68  1  0.732700  0.842000  0.780100  1.0  0.6822
  C  C69  1  0.654400  0.745000  0.663800  1.0  -0.0044
  C  C70  1  0.680300  0.646900  0.656400  1.0  -0.011
  C  C71  1  0.322920  0.788150  0.048500  1.0  0.0891
  C  C72  1  0.559800  0.206130  0.276600  1.0  0.1696
  C  C73  1  0.158000  0.890700  0.780100  1.0  0.6801
  C  C74  1  0.255000  0.909400  0.663800  1.0  -0.0034
  C  C75  1  0.353100  0.033400  0.656400  1.0  -0.0104
  C  C76  1  0.211850  0.534770  0.048500  1.0  0.0892
  C  C77  1  0.793870  0.353670  0.276600  1.0  0.1682
  C  C78  1  0.109300  0.267300  0.780100  1.0  0.6815
  C  C79  1  0.090600  0.345600  0.663800  1.0  -0.0047
  C  C80  1  0.966600  0.319700  0.656400  1.0  -0.0076
  N  N81  1  0.346900  0.208800  0.000100  1.0  -0.6768
  N  N82  1  0.365930  0.427790  0.302900  1.0  -0.6843
  N  N83  1  0.455500  0.321500  0.603100  1.0  -0.4721
  N  N84  1  0.367800  0.500100  0.691900  1.0  -0.4666
  N  N85  1  0.791200  0.138100  0.000100  1.0  -0.6783
  N  N86  1  0.572210  0.938140  0.302900  1.0  -0.678
  N  N87  1  0.678500  0.134000  0.603100  1.0  -0.473
  N  N88  1  0.499900  0.867700  0.691900  1.0  -0.4667
  N  N89  1  0.861900  0.653100  0.000100  1.0  -0.6772
  N  N90  1  0.061860  0.634070  0.302900  1.0  -0.6799
  N  N91  1  0.866000  0.544500  0.603100  1.0  -0.4733
  N  N92  1  0.132300  0.632200  0.691900  1.0  -0.4667
  N  N93  1  0.653100  0.791200  0.500100  1.0  -0.6774
  N  N94  1  0.634070  0.572210  0.802900  1.0  -0.6811
  N  N95  1  0.544500  0.678500  0.103100  1.0  -0.4718
  N  N96  1  0.632200  0.499900  0.191900  1.0  -0.4658
  N  N97  1  0.208800  0.861900  0.500100  1.0  -0.6795
  N  N98  1  0.427790  0.061860  0.802900  1.0  -0.6781
  N  N99  1  0.321500  0.866000  0.103100  1.0  -0.474
  N  N100  1  0.500100  0.132300  0.191900  1.0  -0.4664
  N  N101  1  0.138100  0.346900  0.500100  1.0  -0.6781
  N  N102  1  0.938140  0.365930  0.802900  1.0  -0.6812
  N  N103  1  0.134000  0.455500  0.103100  1.0  -0.474
  N  N104  1  0.867700  0.367800  0.191900  1.0  -0.4665
  O  O105  1  0.229570  0.181510  0.406100  1.0  -0.6054
  O  O106  1  0.245630  0.058440  0.246500  1.0  -0.6447
  O  O107  1  0.818490  0.048060  0.406100  1.0  -0.6061
  O  O108  1  0.941560  0.187190  0.246500  1.0  -0.642
  O  O109  1  0.951940  0.770430  0.406100  1.0  -0.606
  O  O110  1  0.812810  0.754370  0.246500  1.0  -0.6421
  O  O111  1  0.770430  0.818490  0.906100  1.0  -0.6063
  O  O112  1  0.754370  0.941560  0.746500  1.0  -0.6439
  O  O113  1  0.181510  0.951940  0.906100  1.0  -0.6047
  O  O114  1  0.058440  0.812810  0.746500  1.0  -0.6423
  O  O115  1  0.048060  0.229570  0.906100  1.0  -0.6062
  O  O116  1  0.187190  0.245630  0.746500  1.0  -0.6422
