# generated using pymatgen
data_Mn4H21C15(N2O)6
_symmetry_space_group_name_H-M   'P 1'
_cell_length_a   13.48730000
_cell_length_b   13.48730000
_cell_length_c   8.02560000
_cell_angle_alpha   90.00000000
_cell_angle_beta   90.00000000
_cell_angle_gamma   120.00000000
_symmetry_Int_Tables_number   1
_chemical_formula_structural   Mn4H21C15(N2O)6
_chemical_formula_sum   'Mn8 H42 C30 N24 O12'
_cell_volume   1264.32340480
_cell_formula_units_Z   2
loop_
 _symmetry_equiv_pos_site_id
 _symmetry_equiv_pos_as_xyz
  1  'x, y, z'
loop_
 _atom_site_type_symbol
 _atom_site_label
 _atom_site_symmetry_multiplicity
 _atom_site_fract_x
 _atom_site_fract_y
 _atom_site_fract_z
 _atom_site_occupancy
 _atom_site_charge
  Mn  Mn1  1  0.301580  0.338590  0.544740  1.0  1.0172
  Mn  Mn2  1  0.661410  0.962990  0.544740  1.0  1.017
  Mn  Mn3  1  0.037010  0.698420  0.544740  1.0  1.0175
  Mn  Mn4  1  0.698420  0.661410  0.044740  1.0  1.0188
  Mn  Mn5  1  0.338590  0.037010  0.044740  1.0  1.0189
  Mn  Mn6  1  0.962990  0.301580  0.044740  1.0  1.0184
  Mn  Mn7  1  0.333333  0.666667  0.924470  1.0  0.9262
  Mn  Mn8  1  0.666667  0.333333  0.424470  1.0  0.9262
  H  H9  1  0.413500  0.258200  0.944700  1.0  0.2859
  H  H10  1  0.288500  0.200200  0.936000  1.0  0.2987
  H  H11  1  0.421900  0.286600  0.210400  1.0  0.0664
  H  H12  1  0.349100  0.484900  0.293700  1.0  0.2912
  H  H13  1  0.443400  0.462000  0.300100  1.0  0.2382
  H  H14  1  0.354900  0.398700  0.053600  1.0  0.0586
  H  H15  1  0.238400  0.324000  0.147100  1.0  0.0768
  H  H16  1  0.741800  0.155300  0.944700  1.0  0.2908
  H  H17  1  0.799800  0.088300  0.936000  1.0  0.2956
  H  H18  1  0.713400  0.135300  0.210400  1.0  0.0637
  H  H19  1  0.515100  0.864200  0.293700  1.0  0.2895
  H  H20  1  0.538000  0.981400  0.300100  1.0  0.2371
  H  H21  1  0.601300  0.956200  0.053600  1.0  0.0584
  H  H22  1  0.676000  0.914400  0.147100  1.0  0.078
  H  H23  1  0.844700  0.586500  0.944700  1.0  0.2853
  H  H24  1  0.911700  0.711500  0.936000  1.0  0.2978
  H  H25  1  0.864700  0.578100  0.210400  1.0  0.0647
  H  H26  1  0.135800  0.650900  0.293700  1.0  0.282
  H  H27  1  0.018600  0.556600  0.300100  1.0  0.2346
  H  H28  1  0.043800  0.645100  0.053600  1.0  0.0591
  H  H29  1  0.085600  0.761600  0.147100  1.0  0.0772
  H  H30  1  0.586500  0.741800  0.444700  1.0  0.2852
  H  H31  1  0.711500  0.799800  0.436000  1.0  0.3
  H  H32  1  0.578100  0.713400  0.710400  1.0  0.065
  H  H33  1  0.650900  0.515100  0.793700  1.0  0.2902
  H  H34  1  0.556600  0.538000  0.800100  1.0  0.2374
  H  H35  1  0.645100  0.601300  0.553600  1.0  0.0589
  H  H36  1  0.761600  0.676000  0.647100  1.0  0.0762
  H  H37  1  0.258200  0.844700  0.444700  1.0  0.2938
  H  H38  1  0.200200  0.911700  0.436000  1.0  0.2965
  H  H39  1  0.286600  0.864700  0.710400  1.0  0.0648
  H  H40  1  0.484900  0.135800  0.793700  1.0  0.2901
  H  H41  1  0.462000  0.018600  0.800100  1.0  0.2368
  H  H42  1  0.398700  0.043800  0.553600  1.0  0.0587
  H  H43  1  0.324000  0.085600  0.647100  1.0  0.0766
  H  H44  1  0.155300  0.413500  0.444700  1.0  0.2859
  H  H45  1  0.088300  0.288500  0.436000  1.0  0.2953
  H  H46  1  0.135300  0.421900  0.710400  1.0  0.0639
  H  H47  1  0.864200  0.349100  0.793700  1.0  0.2893
  H  H48  1  0.981400  0.443400  0.800100  1.0  0.2354
  H  H49  1  0.956200  0.354900  0.553600  1.0  0.0581
  H  H50  1  0.914400  0.238400  0.647100  1.0  0.076
  C  C51  1  0.533660  0.322240  0.548600  1.0  0.1062
  C  C52  1  0.353400  0.559700  0.778600  1.0  0.1749
  C  C53  1  0.264400  0.157800  0.277300  1.0  0.6826
  C  C54  1  0.345000  0.255100  0.163100  1.0  -0.0067
  C  C55  1  0.320400  0.354300  0.153500  1.0  -0.0246
  C  C56  1  0.677760  0.211420  0.548600  1.0  0.1056
  C  C57  1  0.440300  0.793700  0.778600  1.0  0.1757
  C  C58  1  0.842200  0.106600  0.277300  1.0  0.6834
  C  C59  1  0.744900  0.089900  0.163100  1.0  -0.0075
  C  C60  1  0.645700  0.966100  0.153500  1.0  -0.0283
  C  C61  1  0.788580  0.466340  0.548600  1.0  0.1052
  C  C62  1  0.206300  0.646600  0.778600  1.0  0.1743
  C  C63  1  0.893400  0.735600  0.277300  1.0  0.6836
  C  C64  1  0.910100  0.655000  0.163100  1.0  -0.0088
  C  C65  1  0.033900  0.679600  0.153500  1.0  -0.0243
  C  C66  1  0.466340  0.677760  0.048600  1.0  0.1074
  C  C67  1  0.646600  0.440300  0.278600  1.0  0.1742
  C  C68  1  0.735600  0.842200  0.777300  1.0  0.6831
  C  C69  1  0.655000  0.744900  0.663100  1.0  -0.0073
  C  C70  1  0.679600  0.645700  0.653500  1.0  -0.0263
  C  C71  1  0.322240  0.788580  0.048600  1.0  0.1051
  C  C72  1  0.559700  0.206300  0.278600  1.0  0.176
  C  C73  1  0.157800  0.893400  0.777300  1.0  0.6821
  C  C74  1  0.255100  0.910100  0.663100  1.0  -0.0072
  C  C75  1  0.354300  0.033900  0.653500  1.0  -0.0263
  C  C76  1  0.211420  0.533660  0.048600  1.0  0.1051
  C  C77  1  0.793700  0.353400  0.278600  1.0  0.1746
  C  C78  1  0.106600  0.264400  0.777300  1.0  0.6828
  C  C79  1  0.089900  0.345000  0.663100  1.0  -0.0084
  C  C80  1  0.966100  0.320400  0.653500  1.0  -0.0227
  N  N81  1  0.348200  0.209900  0.998200  1.0  -0.6533
  N  N82  1  0.366610  0.428870  0.301200  1.0  -0.6903
  N  N83  1  0.454400  0.320600  0.603900  1.0  -0.4988
  N  N84  1  0.366700  0.499200  0.692900  1.0  -0.4705
  N  N85  1  0.790100  0.138300  0.998200  1.0  -0.6547
  N  N86  1  0.571130  0.937740  0.301200  1.0  -0.6856
  N  N87  1  0.679400  0.133800  0.603900  1.0  -0.5002
  N  N88  1  0.500800  0.867500  0.692900  1.0  -0.4706
  N  N89  1  0.861700  0.651800  0.998200  1.0  -0.653
  N  N90  1  0.062260  0.633390  0.301200  1.0  -0.6862
  N  N91  1  0.866200  0.545600  0.603900  1.0  -0.5002
  N  N92  1  0.132500  0.633300  0.692900  1.0  -0.4706
  N  N93  1  0.651800  0.790100  0.498200  1.0  -0.653
  N  N94  1  0.633390  0.571130  0.801200  1.0  -0.6879
  N  N95  1  0.545600  0.679400  0.103900  1.0  -0.4986
  N  N96  1  0.633300  0.500800  0.192900  1.0  -0.4704
  N  N97  1  0.209900  0.861700  0.498200  1.0  -0.6547
  N  N98  1  0.428870  0.062260  0.801200  1.0  -0.6842
  N  N99  1  0.320600  0.866200  0.103900  1.0  -0.5008
  N  N100  1  0.499200  0.132500  0.192900  1.0  -0.4702
  N  N101  1  0.138300  0.348200  0.498200  1.0  -0.6543
  N  N102  1  0.937740  0.366610  0.801200  1.0  -0.6876
  N  N103  1  0.133800  0.454400  0.103900  1.0  -0.501
  N  N104  1  0.867500  0.366700  0.192900  1.0  -0.4702
  O  O105  1  0.226160  0.180840  0.403700  1.0  -0.6078
  O  O106  1  0.240230  0.057070  0.242200  1.0  -0.6507
  O  O107  1  0.819160  0.045320  0.403700  1.0  -0.6083
  O  O108  1  0.942930  0.183160  0.242200  1.0  -0.648
  O  O109  1  0.954680  0.773840  0.403700  1.0  -0.6086
  O  O110  1  0.816840  0.759770  0.242200  1.0  -0.6473
  O  O111  1  0.773840  0.819160  0.903700  1.0  -0.6089
  O  O112  1  0.759770  0.942930  0.742200  1.0  -0.6497
  O  O113  1  0.180840  0.954680  0.903700  1.0  -0.6073
  O  O114  1  0.057070  0.816840  0.742200  1.0  -0.6471
  O  O115  1  0.045320  0.226160  0.903700  1.0  -0.6091
  O  O116  1  0.183160  0.240230  0.742200  1.0  -0.648
