# generated using pymatgen
data_Mn4H21C15(N2O)6
_symmetry_space_group_name_H-M   'P 1'
_cell_length_a   13.52630000
_cell_length_b   13.52630000
_cell_length_c   8.05670000
_cell_angle_alpha   90.00000000
_cell_angle_beta   90.00000000
_cell_angle_gamma   120.00000000
_symmetry_Int_Tables_number   1
_chemical_formula_structural   Mn4H21C15(N2O)6
_chemical_formula_sum   'Mn8 H42 C30 N24 O12'
_cell_volume   1276.57358892
_cell_formula_units_Z   2
loop_
 _symmetry_equiv_pos_site_id
 _symmetry_equiv_pos_as_xyz
  1  'x, y, z'
loop_
 _atom_site_type_symbol
 _atom_site_label
 _atom_site_symmetry_multiplicity
 _atom_site_fract_x
 _atom_site_fract_y
 _atom_site_fract_z
 _atom_site_occupancy
 _atom_site_charge
  Mn  Mn1  1  0.302500  0.337910  0.954130  1.0  1.0167
  Mn  Mn2  1  0.662090  0.964590  0.954130  1.0  1.0157
  Mn  Mn3  1  0.035410  0.697500  0.954130  1.0  1.016
  Mn  Mn4  1  0.697500  0.662090  0.454130  1.0  1.0173
  Mn  Mn5  1  0.337910  0.035410  0.454130  1.0  1.0157
  Mn  Mn6  1  0.964590  0.302500  0.454130  1.0  1.0156
  Mn  Mn7  1  0.333333  0.666667  0.579420  1.0  0.929
  Mn  Mn8  1  0.666667  0.333333  0.079420  1.0  0.929
  H  H9  1  0.443300  0.460000  0.199400  1.0  0.254
  H  H10  1  0.349500  0.483300  0.205300  1.0  0.2906
  H  H11  1  0.237600  0.320800  0.348400  1.0  0.0729
  H  H12  1  0.352400  0.396000  0.444400  1.0  0.0647
  H  H13  1  0.423200  0.286700  0.291500  1.0  0.0711
  H  H14  1  0.286100  0.197500  0.559900  1.0  0.3025
  H  H15  1  0.410700  0.255500  0.555000  1.0  0.2818
  H  H16  1  0.540000  0.983300  0.199400  1.0  0.2508
  H  H17  1  0.516700  0.866200  0.205300  1.0  0.2892
  H  H18  1  0.679200  0.916800  0.348400  1.0  0.074
  H  H19  1  0.604000  0.956400  0.444400  1.0  0.0649
  H  H20  1  0.713300  0.136500  0.291500  1.0  0.0703
  H  H21  1  0.802500  0.088600  0.559900  1.0  0.3009
  H  H22  1  0.744500  0.155200  0.555000  1.0  0.2877
  H  H23  1  0.016700  0.556700  0.199400  1.0  0.2505
  H  H24  1  0.133800  0.650500  0.205300  1.0  0.2819
  H  H25  1  0.083200  0.762400  0.348400  1.0  0.0729
  H  H26  1  0.043600  0.647600  0.444400  1.0  0.0647
  H  H27  1  0.863500  0.576800  0.291500  1.0  0.071
  H  H28  1  0.911400  0.713900  0.559900  1.0  0.3013
  H  H29  1  0.844800  0.589300  0.555000  1.0  0.2826
  H  H30  1  0.556700  0.540000  0.699400  1.0  0.2523
  H  H31  1  0.650500  0.516700  0.705300  1.0  0.2889
  H  H32  1  0.762400  0.679200  0.848400  1.0  0.0717
  H  H33  1  0.647600  0.604000  0.944400  1.0  0.0648
  H  H34  1  0.576800  0.713300  0.791500  1.0  0.0695
  H  H35  1  0.713900  0.802500  0.059900  1.0  0.3034
  H  H36  1  0.589300  0.744500  0.055000  1.0  0.2822
  H  H37  1  0.460000  0.016700  0.699400  1.0  0.2516
  H  H38  1  0.483300  0.133800  0.705300  1.0  0.2908
  H  H39  1  0.320800  0.083200  0.848400  1.0  0.073
  H  H40  1  0.396000  0.043600  0.944400  1.0  0.0652
  H  H41  1  0.286700  0.863500  0.791500  1.0  0.0707
  H  H42  1  0.197500  0.911400  0.059900  1.0  0.2999
  H  H43  1  0.255500  0.844800  0.055000  1.0  0.2894
  H  H44  1  0.983300  0.443300  0.699400  1.0  0.2528
  H  H45  1  0.866200  0.349500  0.705300  1.0  0.2876
  H  H46  1  0.916800  0.237600  0.848400  1.0  0.0732
  H  H47  1  0.956400  0.352400  0.944400  1.0  0.0651
  H  H48  1  0.136500  0.423200  0.791500  1.0  0.07
  H  H49  1  0.088600  0.286100  0.059900  1.0  0.303
  H  H50  1  0.155200  0.410700  0.055000  1.0  0.2814
  C  C51  1  0.354260  0.560090  0.724200  1.0  0.1899
  C  C52  1  0.464650  0.677380  0.451100  1.0  0.0681
  C  C53  1  0.267240  0.156940  0.219100  1.0  0.685
  C  C54  1  0.319600  0.351900  0.344100  1.0  -0.0101
  C  C55  1  0.345660  0.254200  0.336000  1.0  -1e-04
  C  C56  1  0.439910  0.794170  0.724200  1.0  0.1903
  C  C57  1  0.322620  0.787270  0.451100  1.0  0.0662
  C  C58  1  0.843060  0.110300  0.219100  1.0  0.6817
  C  C59  1  0.648100  0.967700  0.344100  1.0  -0.0141
  C  C60  1  0.745800  0.091460  0.336000  1.0  0.0002
  C  C61  1  0.205830  0.645740  0.724200  1.0  0.1875
  C  C62  1  0.212730  0.535350  0.451100  1.0  0.0658
  C  C63  1  0.889700  0.732760  0.219100  1.0  0.6851
  C  C64  1  0.032300  0.680400  0.344100  1.0  -0.01
  C  C65  1  0.908540  0.654340  0.336000  1.0  -0.001
  C  C66  1  0.645740  0.439910  0.224200  1.0  0.1878
  C  C67  1  0.535350  0.322620  0.951100  1.0  0.0674
  C  C68  1  0.732760  0.843060  0.719100  1.0  0.6854
  C  C69  1  0.680400  0.648100  0.844100  1.0  -0.0115
  C  C70  1  0.654340  0.745800  0.836000  1.0  -0.0003
  C  C71  1  0.560090  0.205830  0.224200  1.0  0.1918
  C  C72  1  0.677380  0.212730  0.951100  1.0  0.0666
  C  C73  1  0.156940  0.889700  0.719100  1.0  0.6843
  C  C74  1  0.351900  0.032300  0.844100  1.0  -0.0114
  C  C75  1  0.254200  0.908540  0.836000  1.0  0.0005
  C  C76  1  0.794170  0.354260  0.224200  1.0  0.1901
  C  C77  1  0.787270  0.464650  0.951100  1.0  0.0669
  C  C78  1  0.110300  0.267240  0.719100  1.0  0.684
  C  C79  1  0.967700  0.319600  0.844100  1.0  -0.0079
  C  C80  1  0.091460  0.345660  0.836000  1.0  -0.0007
  N  N81  1  0.368590  0.500320  0.810200  1.0  -0.4798
  N  N82  1  0.366780  0.427240  0.197600  1.0  -0.6969
  N  N83  1  0.456320  0.320840  0.893700  1.0  -0.4979
  N  N84  1  0.138880  0.346510  0.999700  1.0  -0.675
  N  N85  1  0.499680  0.868270  0.810200  1.0  -0.4798
  N  N86  1  0.572760  0.939540  0.197600  1.0  -0.6915
  N  N87  1  0.679160  0.135480  0.893700  1.0  -0.4988
  N  N88  1  0.653490  0.792370  0.999700  1.0  -0.6749
  N  N89  1  0.131730  0.631410  0.810200  1.0  -0.4799
  N  N90  1  0.060460  0.633220  0.197600  1.0  -0.6933
  N  N91  1  0.864520  0.543680  0.893700  1.0  -0.4985
  N  N92  1  0.207630  0.861120  0.999700  1.0  -0.6754
  N  N93  1  0.631410  0.499680  0.310200  1.0  -0.4798
  N  N94  1  0.633220  0.572760  0.697600  1.0  -0.6945
  N  N95  1  0.543680  0.679160  0.393700  1.0  -0.4967
  N  N96  1  0.861120  0.653490  0.499700  1.0  -0.674
  N  N97  1  0.500320  0.131730  0.310200  1.0  -0.4795
  N  N98  1  0.427240  0.060460  0.697600  1.0  -0.6911
  N  N99  1  0.320840  0.864520  0.393700  1.0  -0.4989
  N  N100  1  0.346510  0.207630  0.499700  1.0  -0.6733
  N  N101  1  0.868270  0.368590  0.310200  1.0  -0.4799
  N  N102  1  0.939540  0.366780  0.697600  1.0  -0.6946
  N  N103  1  0.135480  0.456320  0.393700  1.0  -0.4997
  N  N104  1  0.792370  0.138880  0.499700  1.0  -0.6756
  O  O105  1  0.229910  0.180780  0.092800  1.0  -0.6035
  O  O106  1  0.187840  0.245170  0.753100  1.0  -0.6398
  O  O107  1  0.819220  0.049130  0.092800  1.0  -0.6028
  O  O108  1  0.754830  0.942670  0.753100  1.0  -0.6408
  O  O109  1  0.950870  0.770090  0.092800  1.0  -0.6039
  O  O110  1  0.057330  0.812160  0.753100  1.0  -0.6396
  O  O111  1  0.770090  0.819220  0.592800  1.0  -0.6034
  O  O112  1  0.812160  0.754830  0.253100  1.0  -0.6395
  O  O113  1  0.180780  0.950870  0.592800  1.0  -0.6019
  O  O114  1  0.245170  0.057330  0.253100  1.0  -0.6412
  O  O115  1  0.049130  0.229910  0.592800  1.0  -0.6041
  O  O116  1  0.942670  0.187840  0.253100  1.0  -0.6397
