# generated using pymatgen
data_Mn4H21C15(N2O)6
_symmetry_space_group_name_H-M   'P 1'
_cell_length_a   13.51140000
_cell_length_b   13.51140000
_cell_length_c   8.05890000
_cell_angle_alpha   90.00000000
_cell_angle_beta   90.00000000
_cell_angle_gamma   120.00000000
_symmetry_Int_Tables_number   1
_chemical_formula_structural   Mn4H21C15(N2O)6
_chemical_formula_sum   'Mn8 H42 C30 N24 O12'
_cell_volume   1274.11051858
_cell_formula_units_Z   2
loop_
 _symmetry_equiv_pos_site_id
 _symmetry_equiv_pos_as_xyz
  1  'x, y, z'
loop_
 _atom_site_type_symbol
 _atom_site_label
 _atom_site_symmetry_multiplicity
 _atom_site_fract_x
 _atom_site_fract_y
 _atom_site_fract_z
 _atom_site_occupancy
 _atom_site_charge
  Mn  Mn1  1  0.302470  0.338080  0.545680  1.0  1.0149
  Mn  Mn2  1  0.661920  0.964390  0.545680  1.0  1.0141
  Mn  Mn3  1  0.035610  0.697530  0.545680  1.0  1.0148
  Mn  Mn4  1  0.697530  0.661920  0.045680  1.0  1.0157
  Mn  Mn5  1  0.338080  0.035610  0.045680  1.0  1.015
  Mn  Mn6  1  0.964390  0.302470  0.045680  1.0  1.015
  Mn  Mn7  1  0.333333  0.666667  0.921250  1.0  0.9054
  Mn  Mn8  1  0.666667  0.333333  0.421250  1.0  0.9054
  H  H9  1  0.411200  0.255900  0.944800  1.0  0.2805
  H  H10  1  0.286400  0.197700  0.939100  1.0  0.3024
  H  H11  1  0.422700  0.286500  0.208600  1.0  0.0693
  H  H12  1  0.349900  0.484100  0.294700  1.0  0.2891
  H  H13  1  0.443700  0.460600  0.300400  1.0  0.2525
  H  H14  1  0.352800  0.396600  0.055000  1.0  0.0624
  H  H15  1  0.237600  0.321500  0.150600  1.0  0.0723
  H  H16  1  0.744100  0.155300  0.944800  1.0  0.2862
  H  H17  1  0.802300  0.088700  0.939100  1.0  0.3002
  H  H18  1  0.713500  0.136200  0.208600  1.0  0.0671
  H  H19  1  0.515900  0.865800  0.294700  1.0  0.2889
  H  H20  1  0.539400  0.983100  0.300400  1.0  0.2495
  H  H21  1  0.603400  0.956200  0.055000  1.0  0.0618
  H  H22  1  0.678500  0.916100  0.150600  1.0  0.0737
  H  H23  1  0.844700  0.588800  0.944800  1.0  0.2797
  H  H24  1  0.911300  0.713600  0.939100  1.0  0.3024
  H  H25  1  0.863800  0.577300  0.208600  1.0  0.0681
  H  H26  1  0.134200  0.650100  0.294700  1.0  0.2804
  H  H27  1  0.016900  0.556300  0.300400  1.0  0.2485
  H  H28  1  0.043800  0.647200  0.055000  1.0  0.0629
  H  H29  1  0.083900  0.762400  0.150600  1.0  0.0726
  H  H30  1  0.588800  0.744100  0.444800  1.0  0.2801
  H  H31  1  0.713600  0.802300  0.439100  1.0  0.3042
  H  H32  1  0.577300  0.713500  0.708600  1.0  0.067
  H  H33  1  0.650100  0.515900  0.794700  1.0  0.2882
  H  H34  1  0.556300  0.539400  0.800400  1.0  0.2513
  H  H35  1  0.647200  0.603400  0.555000  1.0  0.0626
  H  H36  1  0.762400  0.678500  0.650600  1.0  0.0713
  H  H37  1  0.255900  0.844700  0.444800  1.0  0.2874
  H  H38  1  0.197700  0.911300  0.439100  1.0  0.301
  H  H39  1  0.286500  0.863800  0.708600  1.0  0.0682
  H  H40  1  0.484100  0.134200  0.794700  1.0  0.2886
  H  H41  1  0.460600  0.016900  0.800400  1.0  0.2505
  H  H42  1  0.396600  0.043800  0.555000  1.0  0.0625
  H  H43  1  0.321500  0.083900  0.650600  1.0  0.0717
  H  H44  1  0.155300  0.411200  0.444800  1.0  0.2809
  H  H45  1  0.088700  0.286400  0.439100  1.0  0.3018
  H  H46  1  0.136200  0.422700  0.708600  1.0  0.0673
  H  H47  1  0.865800  0.349900  0.794700  1.0  0.287
  H  H48  1  0.983100  0.443700  0.800400  1.0  0.2501
  H  H49  1  0.956200  0.352800  0.555000  1.0  0.0617
  H  H50  1  0.916100  0.237600  0.650600  1.0  0.0719
  C  C51  1  0.535110  0.322530  0.548800  1.0  0.0855
  C  C52  1  0.354070  0.559930  0.776500  1.0  0.1911
  C  C53  1  0.266350  0.156930  0.279900  1.0  0.6832
  C  C54  1  0.345330  0.254230  0.163500  1.0  -0.0044
  C  C55  1  0.319600  0.352420  0.155100  1.0  -0.0059
  C  C56  1  0.677470  0.212580  0.548800  1.0  0.0844
  C  C57  1  0.440070  0.794140  0.776500  1.0  0.1915
  C  C58  1  0.843070  0.109420  0.279900  1.0  0.6821
  C  C59  1  0.745770  0.091100  0.163500  1.0  -0.0045
  C  C60  1  0.647580  0.967180  0.155100  1.0  -0.0087
  C  C61  1  0.787420  0.464890  0.548800  1.0  0.0843
  C  C62  1  0.205860  0.645930  0.776500  1.0  0.1904
  C  C63  1  0.890580  0.733650  0.279900  1.0  0.6827
  C  C64  1  0.908900  0.654670  0.163500  1.0  -0.006
  C  C65  1  0.032820  0.680400  0.155100  1.0  -0.0047
  C  C66  1  0.464890  0.677470  0.048800  1.0  0.0861
  C  C67  1  0.645930  0.440070  0.276500  1.0  0.1899
  C  C68  1  0.733650  0.843070  0.779900  1.0  0.6833
  C  C69  1  0.654670  0.745770  0.663500  1.0  -0.0049
  C  C70  1  0.680400  0.647580  0.655100  1.0  -0.0068
  C  C71  1  0.322530  0.787420  0.048800  1.0  0.0844
  C  C72  1  0.559930  0.205860  0.276500  1.0  0.1933
  C  C73  1  0.156930  0.890580  0.779900  1.0  0.6812
  C  C74  1  0.254230  0.908900  0.663500  1.0  -0.0044
  C  C75  1  0.352420  0.032820  0.655100  1.0  -0.0071
  C  C76  1  0.212580  0.535110  0.048800  1.0  0.0842
  C  C77  1  0.794140  0.354070  0.276500  1.0  0.1912
  C  C78  1  0.109420  0.266350  0.779900  1.0  0.6824
  C  C79  1  0.091100  0.345330  0.663500  1.0  -0.0056
  C  C80  1  0.967180  0.319600  0.655100  1.0  -0.0037
  N  N81  1  0.346740  0.207870  0.999700  1.0  -0.6681
  N  N82  1  0.367060  0.427880  0.302200  1.0  -0.6945
  N  N83  1  0.455710  0.320510  0.605800  1.0  -0.4985
  N  N84  1  0.368180  0.499680  0.690400  1.0  -0.4781
  N  N85  1  0.792130  0.138870  0.999700  1.0  -0.6697
  N  N86  1  0.572120  0.939180  0.302200  1.0  -0.6889
  N  N87  1  0.679490  0.135200  0.605800  1.0  -0.4998
  N  N88  1  0.500320  0.868500  0.690400  1.0  -0.4778
  N  N89  1  0.861130  0.653260  0.999700  1.0  -0.6689
  N  N90  1  0.060820  0.632940  0.302200  1.0  -0.691
  N  N91  1  0.864800  0.544290  0.605800  1.0  -0.4999
  N  N92  1  0.131500  0.631820  0.690400  1.0  -0.4783
  N  N93  1  0.653260  0.792130  0.499700  1.0  -0.6688
  N  N94  1  0.632940  0.572120  0.802200  1.0  -0.6923
  N  N95  1  0.544290  0.679490  0.105800  1.0  -0.4978
  N  N96  1  0.631820  0.500320  0.190400  1.0  -0.4778
  N  N97  1  0.207870  0.861130  0.499700  1.0  -0.671
  N  N98  1  0.427880  0.060820  0.802200  1.0  -0.6887
  N  N99  1  0.320510  0.864800  0.105800  1.0  -0.5
  N  N100  1  0.499680  0.131500  0.190400  1.0  -0.4776
  N  N101  1  0.138870  0.346740  0.499700  1.0  -0.6694
  N  N102  1  0.939180  0.367060  0.802200  1.0  -0.6915
  N  N103  1  0.135200  0.455710  0.105800  1.0  -0.5008
  N  N104  1  0.868500  0.368180  0.190400  1.0  -0.478
  O  O105  1  0.228900  0.180470  0.406500  1.0  -0.607
  O  O106  1  0.243450  0.057170  0.245140  1.0  -0.6451
  O  O107  1  0.819530  0.048430  0.406500  1.0  -0.6079
  O  O108  1  0.942830  0.186280  0.245140  1.0  -0.6429
  O  O109  1  0.951570  0.771100  0.406500  1.0  -0.6074
  O  O110  1  0.813720  0.756550  0.245140  1.0  -0.6425
  O  O111  1  0.771100  0.819530  0.906500  1.0  -0.6076
  O  O112  1  0.756550  0.942830  0.745140  1.0  -0.6438
  O  O113  1  0.180470  0.951570  0.906500  1.0  -0.6061
  O  O114  1  0.057170  0.813720  0.745140  1.0  -0.6429
  O  O115  1  0.048430  0.228900  0.906500  1.0  -0.6074
  O  O116  1  0.186280  0.243450  0.745140  1.0  -0.6429
