# generated using pymatgen
data_Mn4H21C15(N2O)6
_symmetry_space_group_name_H-M   'P 1'
_cell_length_a   13.48460000
_cell_length_b   13.48460000
_cell_length_c   8.03200000
_cell_angle_alpha   90.00000000
_cell_angle_beta   90.00000000
_cell_angle_gamma   120.00000000
_symmetry_Int_Tables_number   1
_chemical_formula_structural   Mn4H21C15(N2O)6
_chemical_formula_sum   'Mn8 H42 C30 N24 O12'
_cell_volume   1264.82507865
_cell_formula_units_Z   2
loop_
 _symmetry_equiv_pos_site_id
 _symmetry_equiv_pos_as_xyz
  1  'x, y, z'
loop_
 _atom_site_type_symbol
 _atom_site_label
 _atom_site_symmetry_multiplicity
 _atom_site_fract_x
 _atom_site_fract_y
 _atom_site_fract_z
 _atom_site_occupancy
 _atom_site_charge
  Mn  Mn1  1  0.301420  0.338730  0.544630  1.0  1.0183
  Mn  Mn2  1  0.661270  0.962690  0.544630  1.0  1.0178
  Mn  Mn3  1  0.037310  0.698580  0.544630  1.0  1.0187
  Mn  Mn4  1  0.698580  0.661270  0.044630  1.0  1.0199
  Mn  Mn5  1  0.338730  0.037310  0.044630  1.0  1.0196
  Mn  Mn6  1  0.962690  0.301420  0.044630  1.0  1.019
  Mn  Mn7  1  0.333333  0.666667  0.924800  1.0  0.9259
  Mn  Mn8  1  0.666667  0.333333  0.424800  1.0  0.9259
  H  H9  1  0.413900  0.258800  0.946000  1.0  0.2809
  H  H10  1  0.288900  0.200900  0.936900  1.0  0.2921
  H  H11  1  0.422100  0.286600  0.209900  1.0  0.0639
  H  H12  1  0.348800  0.485000  0.294700  1.0  0.289
  H  H13  1  0.443300  0.462300  0.301300  1.0  0.2367
  H  H14  1  0.355500  0.399600  0.054600  1.0  0.0574
  H  H15  1  0.238700  0.324600  0.147200  1.0  0.0755
  H  H16  1  0.741200  0.155100  0.946000  1.0  0.2856
  H  H17  1  0.799100  0.088000  0.936900  1.0  0.2891
  H  H18  1  0.713400  0.135500  0.209900  1.0  0.0612
  H  H19  1  0.515000  0.863800  0.294700  1.0  0.2878
  H  H20  1  0.537700  0.981000  0.301300  1.0  0.2359
  H  H21  1  0.600400  0.955900  0.054600  1.0  0.0571
  H  H22  1  0.675400  0.914100  0.147200  1.0  0.0766
  H  H23  1  0.844900  0.586100  0.946000  1.0  0.2809
  H  H24  1  0.912000  0.711100  0.936900  1.0  0.2913
  H  H25  1  0.864500  0.577900  0.209900  1.0  0.062
  H  H26  1  0.136200  0.651200  0.294700  1.0  0.2786
  H  H27  1  0.019000  0.556700  0.301300  1.0  0.233
  H  H28  1  0.044100  0.644500  0.054600  1.0  0.0576
  H  H29  1  0.085900  0.761300  0.147200  1.0  0.0752
  H  H30  1  0.586100  0.741200  0.446000  1.0  0.2808
  H  H31  1  0.711100  0.799100  0.436900  1.0  0.2934
  H  H32  1  0.577900  0.713400  0.709900  1.0  0.0625
  H  H33  1  0.651200  0.515000  0.794700  1.0  0.2885
  H  H34  1  0.556700  0.537700  0.801300  1.0  0.236
  H  H35  1  0.644500  0.600400  0.554600  1.0  0.0576
  H  H36  1  0.761300  0.675400  0.647200  1.0  0.0745
  H  H37  1  0.258800  0.844900  0.446000  1.0  0.2893
  H  H38  1  0.200900  0.912000  0.436900  1.0  0.2899
  H  H39  1  0.286600  0.864500  0.709900  1.0  0.0622
  H  H40  1  0.485000  0.136200  0.794700  1.0  0.288
  H  H41  1  0.462300  0.019000  0.801300  1.0  0.2349
  H  H42  1  0.399600  0.044100  0.554600  1.0  0.0575
  H  H43  1  0.324600  0.085900  0.647200  1.0  0.0751
  H  H44  1  0.155100  0.413900  0.446000  1.0  0.281
  H  H45  1  0.088000  0.288900  0.436900  1.0  0.2887
  H  H46  1  0.135500  0.422100  0.709900  1.0  0.0615
  H  H47  1  0.863800  0.348800  0.794700  1.0  0.287
  H  H48  1  0.981000  0.443300  0.801300  1.0  0.2342
  H  H49  1  0.955900  0.355500  0.554600  1.0  0.0568
  H  H50  1  0.914100  0.238700  0.647200  1.0  0.0747
  C  C51  1  0.533600  0.322500  0.548100  1.0  0.1027
  C  C52  1  0.353300  0.559300  0.778600  1.0  0.166
  C  C53  1  0.264500  0.157700  0.277000  1.0  0.6814
  C  C54  1  0.345200  0.255200  0.162600  1.0  0.0162
  C  C55  1  0.320700  0.354800  0.154100  1.0  -0.0257
  C  C56  1  0.677500  0.211100  0.548100  1.0  0.1024
  C  C57  1  0.440700  0.794000  0.778600  1.0  0.1668
  C  C58  1  0.842300  0.106800  0.277000  1.0  0.6822
  C  C59  1  0.744800  0.090000  0.162600  1.0  0.0161
  C  C60  1  0.645200  0.965900  0.154100  1.0  -0.0294
  C  C61  1  0.788900  0.466400  0.548100  1.0  0.1021
  C  C62  1  0.206000  0.646700  0.778600  1.0  0.1655
  C  C63  1  0.893200  0.735500  0.277000  1.0  0.6815
  C  C64  1  0.910000  0.654800  0.162600  1.0  0.0156
  C  C65  1  0.034100  0.679300  0.154100  1.0  -0.0256
  C  C66  1  0.466400  0.677500  0.048100  1.0  0.1041
  C  C67  1  0.646700  0.440700  0.278600  1.0  0.1657
  C  C68  1  0.735500  0.842300  0.777000  1.0  0.6813
  C  C69  1  0.654800  0.744800  0.662600  1.0  0.0163
  C  C70  1  0.679300  0.645200  0.654100  1.0  -0.0276
  C  C71  1  0.322500  0.788900  0.048100  1.0  0.1016
  C  C72  1  0.559300  0.206000  0.278600  1.0  0.1669
  C  C73  1  0.157700  0.893200  0.777000  1.0  0.6814
  C  C74  1  0.255200  0.910000  0.662600  1.0  0.0162
  C  C75  1  0.354800  0.034100  0.654100  1.0  -0.0269
  C  C76  1  0.211100  0.533600  0.048100  1.0  0.1015
  C  C77  1  0.794000  0.353300  0.278600  1.0  0.1659
  C  C78  1  0.106800  0.264500  0.777000  1.0  0.6817
  C  C79  1  0.090000  0.345200  0.662600  1.0  0.0159
  C  C80  1  0.965900  0.320700  0.654100  1.0  -0.0237
  N  N81  1  0.348500  0.210400  0.999300  1.0  -0.6565
  N  N82  1  0.366500  0.429000  0.302100  1.0  -0.6985
  N  N83  1  0.454000  0.320300  0.603700  1.0  -0.4751
  N  N84  1  0.366900  0.499300  0.692900  1.0  -0.4706
  N  N85  1  0.789600  0.138100  0.999300  1.0  -0.6576
  N  N86  1  0.571000  0.937500  0.302100  1.0  -0.6929
  N  N87  1  0.679700  0.133700  0.603700  1.0  -0.4766
  N  N88  1  0.500700  0.867600  0.692900  1.0  -0.4712
  N  N89  1  0.861900  0.651500  0.999300  1.0  -0.6568
  N  N90  1  0.062500  0.633500  0.302100  1.0  -0.6939
  N  N91  1  0.866300  0.546000  0.603700  1.0  -0.4763
  N  N92  1  0.132400  0.633100  0.692900  1.0  -0.4712
  N  N93  1  0.651500  0.789600  0.499300  1.0  -0.6558
  N  N94  1  0.633500  0.571000  0.802100  1.0  -0.6954
  N  N95  1  0.546000  0.679700  0.103700  1.0  -0.4754
  N  N96  1  0.633100  0.500700  0.192900  1.0  -0.4706
  N  N97  1  0.210400  0.861900  0.499300  1.0  -0.6584
  N  N98  1  0.429000  0.062500  0.802100  1.0  -0.6928
  N  N99  1  0.320300  0.866300  0.103700  1.0  -0.4772
  N  N100  1  0.499300  0.132400  0.192900  1.0  -0.471
  N  N101  1  0.138100  0.348500  0.499300  1.0  -0.6576
  N  N102  1  0.937500  0.366500  0.802100  1.0  -0.6953
  N  N103  1  0.133700  0.454000  0.103700  1.0  -0.4777
  N  N104  1  0.867600  0.366900  0.192900  1.0  -0.4704
  O  O105  1  0.226200  0.181270  0.403200  1.0  -0.6121
  O  O106  1  0.240400  0.057490  0.242400  1.0  -0.6478
  O  O107  1  0.818730  0.044930  0.403200  1.0  -0.613
  O  O108  1  0.942510  0.182910  0.242400  1.0  -0.6456
  O  O109  1  0.955070  0.773800  0.403200  1.0  -0.6127
  O  O110  1  0.817090  0.759600  0.242400  1.0  -0.6447
  O  O111  1  0.773800  0.818730  0.903200  1.0  -0.6133
  O  O112  1  0.759600  0.942510  0.742400  1.0  -0.6469
  O  O113  1  0.181270  0.955070  0.903200  1.0  -0.6115
  O  O114  1  0.057490  0.817090  0.742400  1.0  -0.6441
  O  O115  1  0.044930  0.226200  0.903200  1.0  -0.6129
  O  O116  1  0.182910  0.240400  0.742400  1.0  -0.6455
