# generated using pymatgen
data_Mn4H21C15(N2O)6
_symmetry_space_group_name_H-M   'P 1'
_cell_length_a   13.53240000
_cell_length_b   13.53240000
_cell_length_c   8.06680000
_cell_angle_alpha   90.00000000
_cell_angle_beta   90.00000000
_cell_angle_gamma   120.00000000
_symmetry_Int_Tables_number   1
_chemical_formula_structural   Mn4H21C15(N2O)6
_chemical_formula_sum   'Mn8 H42 C30 N24 O12'
_cell_volume   1279.32702527
_cell_formula_units_Z   2
loop_
 _symmetry_equiv_pos_site_id
 _symmetry_equiv_pos_as_xyz
  1  'x, y, z'
loop_
 _atom_site_type_symbol
 _atom_site_label
 _atom_site_symmetry_multiplicity
 _atom_site_fract_x
 _atom_site_fract_y
 _atom_site_fract_z
 _atom_site_occupancy
 _atom_site_charge
  Mn  Mn1  1  0.301920  0.337870  0.545610  1.0  0.9591
  Mn  Mn2  1  0.662130  0.964050  0.545610  1.0  0.9569
  Mn  Mn3  1  0.035950  0.698080  0.545610  1.0  0.9588
  Mn  Mn4  1  0.698080  0.662130  0.045610  1.0  0.9599
  Mn  Mn5  1  0.337870  0.035950  0.045610  1.0  0.958
  Mn  Mn6  1  0.964050  0.301920  0.045610  1.0  0.9572
  Mn  Mn7  1  0.333333  0.666667  0.921010  1.0  0.9349
  Mn  Mn8  1  0.666667  0.333333  0.421010  1.0  0.9349
  H  H9  1  0.410200  0.255900  0.945000  1.0  0.2836
  H  H10  1  0.285600  0.197800  0.940900  1.0  0.3031
  H  H11  1  0.423400  0.287000  0.207700  1.0  0.0656
  H  H12  1  0.348400  0.482800  0.294700  1.0  0.2927
  H  H13  1  0.442600  0.460200  0.300900  1.0  0.2579
  H  H14  1  0.352600  0.396400  0.056300  1.0  0.0629
  H  H15  1  0.237600  0.320800  0.151500  1.0  0.0704
  H  H16  1  0.744100  0.154300  0.945000  1.0  0.2898
  H  H17  1  0.802200  0.087800  0.940900  1.0  0.3015
  H  H18  1  0.713000  0.136400  0.207700  1.0  0.0634
  H  H19  1  0.517200  0.865600  0.294700  1.0  0.2914
  H  H20  1  0.539800  0.982400  0.300900  1.0  0.2566
  H  H21  1  0.603600  0.956200  0.056300  1.0  0.0629
  H  H22  1  0.679200  0.916800  0.151500  1.0  0.0719
  H  H23  1  0.845700  0.589800  0.945000  1.0  0.2826
  H  H24  1  0.912200  0.714400  0.940900  1.0  0.3035
  H  H25  1  0.863600  0.576600  0.207700  1.0  0.0651
  H  H26  1  0.134400  0.651600  0.294700  1.0  0.2852
  H  H27  1  0.017600  0.557400  0.300900  1.0  0.255
  H  H28  1  0.043800  0.647400  0.056300  1.0  0.0638
  H  H29  1  0.083200  0.762400  0.151500  1.0  0.0711
  H  H30  1  0.589800  0.744100  0.445000  1.0  0.2838
  H  H31  1  0.714400  0.802200  0.440900  1.0  0.3051
  H  H32  1  0.576600  0.713000  0.707700  1.0  0.0643
  H  H33  1  0.651600  0.517200  0.794700  1.0  0.2912
  H  H34  1  0.557400  0.539800  0.800900  1.0  0.2567
  H  H35  1  0.647400  0.603600  0.556300  1.0  0.0638
  H  H36  1  0.762400  0.679200  0.651500  1.0  0.0701
  H  H37  1  0.255900  0.845700  0.445000  1.0  0.2916
  H  H38  1  0.197800  0.912200  0.440900  1.0  0.302
  H  H39  1  0.287000  0.863600  0.707700  1.0  0.0645
  H  H40  1  0.482800  0.134400  0.794700  1.0  0.2927
  H  H41  1  0.460200  0.017600  0.800900  1.0  0.2559
  H  H42  1  0.396400  0.043800  0.556300  1.0  0.0629
  H  H43  1  0.320800  0.083200  0.651500  1.0  0.0706
  H  H44  1  0.154300  0.410200  0.445000  1.0  0.285
  H  H45  1  0.087800  0.285600  0.440900  1.0  0.3035
  H  H46  1  0.136400  0.423400  0.707700  1.0  0.0631
  H  H47  1  0.865600  0.348400  0.794700  1.0  0.2899
  H  H48  1  0.982400  0.442600  0.800900  1.0  0.2566
  H  H49  1  0.956200  0.352600  0.556300  1.0  0.0626
  H  H50  1  0.916800  0.237600  0.651500  1.0  0.07
  C  C51  1  0.535120  0.322760  0.548400  1.0  0.0777
  C  C52  1  0.354110  0.560290  0.776100  1.0  0.1956
  C  C53  1  0.268100  0.157820  0.281300  1.0  0.6772
  C  C54  1  0.345790  0.254440  0.163900  1.0  0.0036
  C  C55  1  0.319500  0.352100  0.156200  1.0  -0.0101
  C  C56  1  0.677240  0.212360  0.548400  1.0  0.0768
  C  C57  1  0.439710  0.793820  0.776100  1.0  0.1961
  C  C58  1  0.842180  0.110280  0.281300  1.0  0.6742
  C  C59  1  0.745560  0.091350  0.163900  1.0  0.0036
  C  C60  1  0.647900  0.967400  0.156200  1.0  -0.0138
  C  C61  1  0.787640  0.464880  0.548400  1.0  0.0772
  C  C62  1  0.206180  0.645890  0.776100  1.0  0.1947
  C  C63  1  0.889720  0.731900  0.281300  1.0  0.6766
  C  C64  1  0.908650  0.654210  0.163900  1.0  0.0023
  C  C65  1  0.032600  0.680500  0.156200  1.0  -0.0105
  C  C66  1  0.464880  0.677240  0.048400  1.0  0.0786
  C  C67  1  0.645890  0.439710  0.276100  1.0  0.1946
  C  C68  1  0.731900  0.842180  0.781300  1.0  0.6762
  C  C69  1  0.654210  0.745560  0.663900  1.0  0.0032
  C  C70  1  0.680500  0.647900  0.656200  1.0  -0.0114
  C  C71  1  0.322760  0.787640  0.048400  1.0  0.0767
  C  C72  1  0.560290  0.206180  0.276100  1.0  0.1974
  C  C73  1  0.157820  0.889720  0.781300  1.0  0.6751
  C  C74  1  0.254440  0.908650  0.663900  1.0  0.004
  C  C75  1  0.352100  0.032600  0.656200  1.0  -0.0111
  C  C76  1  0.212360  0.535120  0.048400  1.0  0.0757
  C  C77  1  0.793820  0.354110  0.276100  1.0  0.1961
  C  C78  1  0.110280  0.268100  0.781300  1.0  0.6756
  C  C79  1  0.091350  0.345790  0.663900  1.0  0.0026
  C  C80  1  0.967400  0.319500  0.656200  1.0  -0.0081
  N  N81  1  0.346190  0.208010  0.000600  1.0  -0.6678
  N  N82  1  0.366010  0.427030  0.302500  1.0  -0.6922
  N  N83  1  0.456410  0.321350  0.605200  1.0  -0.477
  N  N84  1  0.368510  0.500530  0.689700  1.0  -0.466
  N  N85  1  0.791990  0.138180  0.000600  1.0  -0.6695
  N  N86  1  0.572970  0.938980  0.302500  1.0  -0.6857
  N  N87  1  0.678650  0.135060  0.605200  1.0  -0.4781
  N  N88  1  0.499470  0.867980  0.689700  1.0  -0.4657
  N  N89  1  0.861820  0.653810  0.000600  1.0  -0.6683
  N  N90  1  0.061020  0.633990  0.302500  1.0  -0.688
  N  N91  1  0.864940  0.543590  0.605200  1.0  -0.4783
  N  N92  1  0.132020  0.631490  0.689700  1.0  -0.466
  N  N93  1  0.653810  0.791990  0.500600  1.0  -0.6685
  N  N94  1  0.633990  0.572970  0.802500  1.0  -0.6898
  N  N95  1  0.543590  0.678650  0.105200  1.0  -0.4766
  N  N96  1  0.631490  0.499470  0.189700  1.0  -0.4657
  N  N97  1  0.208010  0.861820  0.500600  1.0  -0.6704
  N  N98  1  0.427030  0.061020  0.802500  1.0  -0.686
  N  N99  1  0.321350  0.864940  0.105200  1.0  -0.4788
  N  N100  1  0.500530  0.132020  0.189700  1.0  -0.4653
  N  N101  1  0.138180  0.346190  0.500600  1.0  -0.6691
  N  N102  1  0.938980  0.366010  0.802500  1.0  -0.6884
  N  N103  1  0.135060  0.456410  0.105200  1.0  -0.4792
  N  N104  1  0.867980  0.368510  0.189700  1.0  -0.4655
  O  O105  1  0.230440  0.181110  0.407100  1.0  -0.6014
  O  O106  1  0.246100  0.057570  0.247400  1.0  -0.6446
  O  O107  1  0.818890  0.049330  0.407100  1.0  -0.6015
  O  O108  1  0.942430  0.188530  0.247400  1.0  -0.6424
  O  O109  1  0.950670  0.769560  0.407100  1.0  -0.6012
  O  O110  1  0.811470  0.753900  0.247400  1.0  -0.6426
  O  O111  1  0.769560  0.818890  0.907100  1.0  -0.6015
  O  O112  1  0.753900  0.942430  0.747400  1.0  -0.6446
  O  O113  1  0.181110  0.950670  0.907100  1.0  -0.6
  O  O114  1  0.057570  0.811470  0.747400  1.0  -0.6411
  O  O115  1  0.049330  0.230440  0.907100  1.0  -0.6016
  O  O116  1  0.188530  0.246100  0.747400  1.0  -0.6434
