# generated using pymatgen
data_Mn4H21C15(N2O)6
_symmetry_space_group_name_H-M   'P 1'
_cell_length_a   13.49170000
_cell_length_b   13.49170000
_cell_length_c   8.06440000
_cell_angle_alpha   90.00000000
_cell_angle_beta   90.00000000
_cell_angle_gamma   120.00000000
_symmetry_Int_Tables_number   1
_chemical_formula_structural   Mn4H21C15(N2O)6
_chemical_formula_sum   'Mn8 H42 C30 N24 O12'
_cell_volume   1271.26486455
_cell_formula_units_Z   2
loop_
 _symmetry_equiv_pos_site_id
 _symmetry_equiv_pos_as_xyz
  1  'x, y, z'
loop_
 _atom_site_type_symbol
 _atom_site_label
 _atom_site_symmetry_multiplicity
 _atom_site_fract_x
 _atom_site_fract_y
 _atom_site_fract_z
 _atom_site_occupancy
 _atom_site_charge
  Mn  Mn1  1  0.302590  0.338010  0.954200  1.0  1.0178
  Mn  Mn2  1  0.661990  0.964580  0.954200  1.0  1.0174
  Mn  Mn3  1  0.035420  0.697410  0.954200  1.0  1.0182
  Mn  Mn4  1  0.697410  0.661990  0.454200  1.0  1.02
  Mn  Mn5  1  0.338010  0.035420  0.454200  1.0  1.0187
  Mn  Mn6  1  0.964580  0.302590  0.454200  1.0  1.0189
  Mn  Mn7  1  0.333333  0.666667  0.578880  1.0  0.9091
  Mn  Mn8  1  0.666667  0.333333  0.078880  1.0  0.9091
  H  H9  1  0.286800  0.198400  0.560700  1.0  0.3027
  H  H10  1  0.411700  0.256500  0.554400  1.0  0.2811
  H  H11  1  0.422700  0.286300  0.290400  1.0  0.069
  H  H12  1  0.443700  0.461100  0.198900  1.0  0.2479
  H  H13  1  0.349500  0.484200  0.204500  1.0  0.2907
  H  H14  1  0.237700  0.322100  0.348800  1.0  0.0754
  H  H15  1  0.353200  0.397300  0.443900  1.0  0.0616
  H  H16  1  0.801600  0.088400  0.560700  1.0  0.3006
  H  H17  1  0.743500  0.155200  0.554400  1.0  0.2863
  H  H18  1  0.713700  0.136400  0.290400  1.0  0.0669
  H  H19  1  0.538900  0.982600  0.198900  1.0  0.2463
  H  H20  1  0.515800  0.865300  0.204500  1.0  0.2885
  H  H21  1  0.677900  0.915600  0.348800  1.0  0.0766
  H  H22  1  0.602700  0.955900  0.443900  1.0  0.062
  H  H23  1  0.911600  0.713200  0.560700  1.0  0.3015
  H  H24  1  0.844800  0.588300  0.554400  1.0  0.2816
  H  H25  1  0.863600  0.577300  0.290400  1.0  0.0679
  H  H26  1  0.017400  0.556300  0.198900  1.0  0.2436
  H  H27  1  0.134700  0.650500  0.204500  1.0  0.2815
  H  H28  1  0.084400  0.762300  0.348800  1.0  0.0754
  H  H29  1  0.044100  0.646800  0.443900  1.0  0.0617
  H  H30  1  0.713200  0.801600  0.060700  1.0  0.3038
  H  H31  1  0.588300  0.743500  0.054400  1.0  0.2818
  H  H32  1  0.577300  0.713700  0.790400  1.0  0.0682
  H  H33  1  0.556300  0.538900  0.698900  1.0  0.2464
  H  H34  1  0.650500  0.515800  0.704500  1.0  0.2896
  H  H35  1  0.762300  0.677900  0.848800  1.0  0.0746
  H  H36  1  0.646800  0.602700  0.943900  1.0  0.0618
  H  H37  1  0.198400  0.911600  0.060700  1.0  0.3
  H  H38  1  0.256500  0.844800  0.054400  1.0  0.2886
  H  H39  1  0.286300  0.863600  0.790400  1.0  0.0676
  H  H40  1  0.461100  0.017400  0.698900  1.0  0.2457
  H  H41  1  0.484200  0.134700  0.704500  1.0  0.2904
  H  H42  1  0.322100  0.084400  0.848800  1.0  0.0748
  H  H43  1  0.397300  0.044100  0.943900  1.0  0.0619
  H  H44  1  0.088400  0.286800  0.060700  1.0  0.3021
  H  H45  1  0.155200  0.411700  0.054400  1.0  0.2809
  H  H46  1  0.136400  0.422700  0.790400  1.0  0.0668
  H  H47  1  0.982600  0.443700  0.698900  1.0  0.2453
  H  H48  1  0.865300  0.349500  0.704500  1.0  0.2884
  H  H49  1  0.915600  0.237700  0.848800  1.0  0.0749
  H  H50  1  0.955900  0.353200  0.943900  1.0  0.0616
  C  C51  1  0.535170  0.322370  0.950900  1.0  0.0919
  C  C52  1  0.353980  0.559830  0.723400  1.0  0.1888
  C  C53  1  0.265910  0.156910  0.220500  1.0  0.6838
  C  C54  1  0.345310  0.254250  0.335900  1.0  -0.0051
  C  C55  1  0.319800  0.352900  0.344000  1.0  -0.0111
  C  C56  1  0.677630  0.212800  0.950900  1.0  0.0912
  C  C57  1  0.440170  0.794150  0.723400  1.0  0.1891
  C  C58  1  0.843090  0.109000  0.220500  1.0  0.6815
  C  C59  1  0.745750  0.091060  0.335900  1.0  -0.0054
  C  C60  1  0.647100  0.966900  0.344000  1.0  -0.0147
  C  C61  1  0.787200  0.464830  0.950900  1.0  0.0906
  C  C62  1  0.205850  0.646020  0.723400  1.0  0.1878
  C  C63  1  0.891000  0.734090  0.220500  1.0  0.6843
  C  C64  1  0.908940  0.654690  0.335900  1.0  -0.0067
  C  C65  1  0.033100  0.680200  0.344000  1.0  -0.0111
  C  C66  1  0.464830  0.677630  0.450900  1.0  0.0925
  C  C67  1  0.646020  0.440170  0.223400  1.0  0.1872
  C  C68  1  0.734090  0.843090  0.720500  1.0  0.6846
  C  C69  1  0.654690  0.745750  0.835900  1.0  -0.0057
  C  C70  1  0.680200  0.647100  0.844000  1.0  -0.0126
  C  C71  1  0.322370  0.787200  0.450900  1.0  0.0907
  C  C72  1  0.559830  0.205850  0.223400  1.0  0.1907
  C  C73  1  0.156910  0.891000  0.720500  1.0  0.6835
  C  C74  1  0.254250  0.908940  0.835900  1.0  -0.0051
  C  C75  1  0.352900  0.033100  0.844000  1.0  -0.0126
  C  C76  1  0.212800  0.535170  0.450900  1.0  0.0906
  C  C77  1  0.794150  0.353980  0.223400  1.0  0.1887
  C  C78  1  0.109000  0.265910  0.720500  1.0  0.683
  C  C79  1  0.091060  0.345310  0.835900  1.0  -0.0061
  C  C80  1  0.966900  0.319800  0.844000  1.0  -0.0091
  N  N81  1  0.347030  0.208360  0.500000  1.0  -0.6687
  N  N82  1  0.366930  0.428070  0.197200  1.0  -0.6954
  N  N83  1  0.455630  0.320380  0.894100  1.0  -0.5
  N  N84  1  0.368200  0.499310  0.809100  1.0  -0.4767
  N  N85  1  0.791640  0.138670  0.500000  1.0  -0.6712
  N  N86  1  0.571930  0.938860  0.197200  1.0  -0.6903
  N  N87  1  0.679620  0.135250  0.894100  1.0  -0.5009
  N  N88  1  0.500690  0.868890  0.809100  1.0  -0.4767
  N  N89  1  0.861330  0.652970  0.500000  1.0  -0.6694
  N  N90  1  0.061140  0.633070  0.197200  1.0  -0.6921
  N  N91  1  0.864750  0.544370  0.894100  1.0  -0.5009
  N  N92  1  0.131110  0.631800  0.809100  1.0  -0.4762
  N  N93  1  0.652970  0.791640  0.000000  1.0  -0.6702
  N  N94  1  0.633070  0.571930  0.697200  1.0  -0.6934
  N  N95  1  0.544370  0.679620  0.394100  1.0  -0.4991
  N  N96  1  0.631800  0.500690  0.309100  1.0  -0.4761
  N  N97  1  0.208360  0.861330  0.000000  1.0  -0.6709
  N  N98  1  0.428070  0.061140  0.697200  1.0  -0.6899
  N  N99  1  0.320380  0.864750  0.394100  1.0  -0.5015
  N  N100  1  0.499310  0.131110  0.309100  1.0  -0.4759
  N  N101  1  0.138670  0.347030  0.000000  1.0  -0.6707
  N  N102  1  0.938860  0.366930  0.697200  1.0  -0.6929
  N  N103  1  0.135250  0.455630  0.394100  1.0  -0.5022
  N  N104  1  0.868890  0.368200  0.309100  1.0  -0.4766
  O  O105  1  0.228560  0.180340  0.093600  1.0  -0.6065
  O  O106  1  0.242250  0.056690  0.255900  1.0  -0.6473
  O  O107  1  0.819660  0.048220  0.093600  1.0  -0.6057
  O  O108  1  0.943310  0.185560  0.255900  1.0  -0.6454
  O  O109  1  0.951780  0.771440  0.093600  1.0  -0.6063
  O  O110  1  0.814440  0.757750  0.255900  1.0  -0.6452
  O  O111  1  0.771440  0.819660  0.593600  1.0  -0.6062
  O  O112  1  0.757750  0.943310  0.755900  1.0  -0.6462
  O  O113  1  0.180340  0.951780  0.593600  1.0  -0.6046
  O  O114  1  0.056690  0.814440  0.755900  1.0  -0.6454
  O  O115  1  0.048220  0.228560  0.593600  1.0  -0.6069
  O  O116  1  0.185560  0.242250  0.755900  1.0  -0.6455
