# generated using pymatgen
data_Mn4H21C15(N2O)6
_symmetry_space_group_name_H-M   'P 1'
_cell_length_a   13.50680000
_cell_length_b   13.50680000
_cell_length_c   8.06760000
_cell_angle_alpha   90.00000000
_cell_angle_beta   90.00000000
_cell_angle_gamma   120.00000000
_symmetry_Int_Tables_number   1
_chemical_formula_structural   Mn4H21C15(N2O)6
_chemical_formula_sum   'Mn8 H42 C30 N24 O12'
_cell_volume   1274.61764803
_cell_formula_units_Z   2
loop_
 _symmetry_equiv_pos_site_id
 _symmetry_equiv_pos_as_xyz
  1  'x, y, z'
loop_
 _atom_site_type_symbol
 _atom_site_label
 _atom_site_symmetry_multiplicity
 _atom_site_fract_x
 _atom_site_fract_y
 _atom_site_fract_z
 _atom_site_occupancy
 _atom_site_charge
  Mn  Mn1  1  0.302490  0.337870  0.545950  1.0  1.0165
  Mn  Mn2  1  0.662130  0.964620  0.545950  1.0  1.0153
  Mn  Mn3  1  0.035380  0.697510  0.545950  1.0  1.016
  Mn  Mn4  1  0.697510  0.662130  0.045950  1.0  1.0156
  Mn  Mn5  1  0.337870  0.035380  0.045950  1.0  1.0151
  Mn  Mn6  1  0.964620  0.302490  0.045950  1.0  1.0147
  Mn  Mn7  1  0.333333  0.666667  0.920560  1.0  0.935
  Mn  Mn8  1  0.666667  0.333333  0.420560  1.0  0.935
  H  H9  1  0.411200  0.255900  0.945400  1.0  0.2802
  H  H10  1  0.286400  0.197900  0.940000  1.0  0.301
  H  H11  1  0.423100  0.286700  0.208700  1.0  0.0695
  H  H12  1  0.349700  0.483800  0.295500  1.0  0.2877
  H  H13  1  0.443600  0.460500  0.301200  1.0  0.2515
  H  H14  1  0.352800  0.396800  0.056300  1.0  0.0615
  H  H15  1  0.237600  0.321500  0.151700  1.0  0.0718
  H  H16  1  0.744100  0.155300  0.945400  1.0  0.2859
  H  H17  1  0.802100  0.088500  0.940000  1.0  0.299
  H  H18  1  0.713300  0.136400  0.208700  1.0  0.0672
  H  H19  1  0.516200  0.865900  0.295500  1.0  0.2877
  H  H20  1  0.539500  0.983100  0.301200  1.0  0.2486
  H  H21  1  0.603200  0.956000  0.056300  1.0  0.0607
  H  H22  1  0.678500  0.916100  0.151700  1.0  0.0735
  H  H23  1  0.844700  0.588800  0.945400  1.0  0.2795
  H  H24  1  0.911500  0.713600  0.940000  1.0  0.301
  H  H25  1  0.863600  0.576900  0.208700  1.0  0.0683
  H  H26  1  0.134100  0.650300  0.295500  1.0  0.2798
  H  H27  1  0.016900  0.556400  0.301200  1.0  0.2473
  H  H28  1  0.044000  0.647200  0.056300  1.0  0.062
  H  H29  1  0.083900  0.762400  0.151700  1.0  0.0723
  H  H30  1  0.588800  0.744100  0.445400  1.0  0.2796
  H  H31  1  0.713600  0.802100  0.440000  1.0  0.303
  H  H32  1  0.576900  0.713300  0.708700  1.0  0.0669
  H  H33  1  0.650300  0.516200  0.795500  1.0  0.2866
  H  H34  1  0.556400  0.539500  0.801200  1.0  0.2503
  H  H35  1  0.647200  0.603200  0.556300  1.0  0.0616
  H  H36  1  0.762400  0.678500  0.651700  1.0  0.0711
  H  H37  1  0.255900  0.844700  0.445400  1.0  0.2875
  H  H38  1  0.197900  0.911500  0.440000  1.0  0.2998
  H  H39  1  0.286700  0.863600  0.708700  1.0  0.0681
  H  H40  1  0.483800  0.134100  0.795500  1.0  0.2874
  H  H41  1  0.460500  0.016900  0.801200  1.0  0.2496
  H  H42  1  0.396800  0.044000  0.556300  1.0  0.0616
  H  H43  1  0.321500  0.083900  0.651700  1.0  0.072
  H  H44  1  0.155300  0.411200  0.445400  1.0  0.2804
  H  H45  1  0.088500  0.286400  0.440000  1.0  0.3004
  H  H46  1  0.136400  0.423100  0.708700  1.0  0.0673
  H  H47  1  0.865900  0.349700  0.795500  1.0  0.2852
  H  H48  1  0.983100  0.443600  0.801200  1.0  0.2496
  H  H49  1  0.956000  0.352800  0.556300  1.0  0.0609
  H  H50  1  0.916100  0.237600  0.651700  1.0  0.0722
  C  C51  1  0.535390  0.322670  0.548600  1.0  0.091
  C  C52  1  0.354240  0.560070  0.776200  1.0  0.1889
  C  C53  1  0.266850  0.156900  0.280600  1.0  0.6831
  C  C54  1  0.345530  0.254340  0.164000  1.0  -0.007
  C  C55  1  0.319700  0.352470  0.156200  1.0  -0.009
  C  C56  1  0.677330  0.212720  0.548600  1.0  0.0899
  C  C57  1  0.439930  0.794170  0.776200  1.0  0.1894
  C  C58  1  0.843100  0.109950  0.280600  1.0  0.6819
  C  C59  1  0.745660  0.091190  0.164000  1.0  -0.0074
  C  C60  1  0.647530  0.967230  0.156200  1.0  -0.0121
  C  C61  1  0.787280  0.464610  0.548600  1.0  0.0899
  C  C62  1  0.205830  0.645760  0.776200  1.0  0.1881
  C  C63  1  0.890050  0.733150  0.280600  1.0  0.6823
  C  C64  1  0.908810  0.654470  0.164000  1.0  -0.0088
  C  C65  1  0.032770  0.680300  0.156200  1.0  -0.0083
  C  C66  1  0.464610  0.677330  0.048600  1.0  0.0915
  C  C67  1  0.645760  0.439930  0.276200  1.0  0.1878
  C  C68  1  0.733150  0.843100  0.780600  1.0  0.6828
  C  C69  1  0.654470  0.745660  0.664000  1.0  -0.0078
  C  C70  1  0.680300  0.647530  0.656200  1.0  -0.01
  C  C71  1  0.322670  0.787280  0.048600  1.0  0.09
  C  C72  1  0.560070  0.205830  0.276200  1.0  0.1912
  C  C73  1  0.156900  0.890050  0.780600  1.0  0.681
  C  C74  1  0.254340  0.908810  0.664000  1.0  -0.0071
  C  C75  1  0.352470  0.032770  0.656200  1.0  -0.0101
  C  C76  1  0.212720  0.535390  0.048600  1.0  0.0895
  C  C77  1  0.794170  0.354240  0.276200  1.0  0.189
  C  C78  1  0.109950  0.266850  0.780600  1.0  0.6822
  C  C79  1  0.091190  0.345530  0.664000  1.0  -0.0082
  C  C80  1  0.967230  0.319700  0.656200  1.0  -0.0071
  N  N81  1  0.346720  0.207930  0.000350  1.0  -0.6726
  N  N82  1  0.366950  0.427650  0.303000  1.0  -0.6901
  N  N83  1  0.456180  0.320680  0.605800  1.0  -0.4998
  N  N84  1  0.368400  0.499850  0.690100  1.0  -0.4797
  N  N85  1  0.792070  0.138790  0.000350  1.0  -0.6744
  N  N86  1  0.572350  0.939300  0.303000  1.0  -0.6843
  N  N87  1  0.679320  0.135500  0.605800  1.0  -0.5012
  N  N88  1  0.500150  0.868550  0.690100  1.0  -0.4794
  N  N89  1  0.861210  0.653280  0.000350  1.0  -0.6731
  N  N90  1  0.060700  0.633050  0.303000  1.0  -0.6861
  N  N91  1  0.864500  0.543820  0.605800  1.0  -0.5012
  N  N92  1  0.131450  0.631600  0.690100  1.0  -0.4794
  N  N93  1  0.653280  0.792070  0.500350  1.0  -0.6733
  N  N94  1  0.633050  0.572350  0.803000  1.0  -0.6874
  N  N95  1  0.543820  0.679320  0.105800  1.0  -0.4991
  N  N96  1  0.631600  0.500150  0.190100  1.0  -0.479
  N  N97  1  0.207930  0.861210  0.500350  1.0  -0.6753
  N  N98  1  0.427650  0.060700  0.803000  1.0  -0.6839
  N  N99  1  0.320680  0.864500  0.105800  1.0  -0.5013
  N  N100  1  0.499850  0.131450  0.190100  1.0  -0.4785
  N  N101  1  0.138790  0.346720  0.500350  1.0  -0.6737
  N  N102  1  0.939300  0.366950  0.803000  1.0  -0.6868
  N  N103  1  0.135500  0.456180  0.105800  1.0  -0.5021
  N  N104  1  0.868550  0.368400  0.190100  1.0  -0.4793
  O  O105  1  0.229700  0.180510  0.407020  1.0  -0.6073
  O  O106  1  0.244200  0.057080  0.246000  1.0  -0.6449
  O  O107  1  0.819490  0.049190  0.407020  1.0  -0.6077
  O  O108  1  0.942920  0.187120  0.246000  1.0  -0.6431
  O  O109  1  0.950810  0.770300  0.407020  1.0  -0.6077
  O  O110  1  0.812880  0.755800  0.246000  1.0  -0.6427
  O  O111  1  0.770300  0.819490  0.907020  1.0  -0.6074
  O  O112  1  0.755800  0.942920  0.746000  1.0  -0.6441
  O  O113  1  0.180510  0.950810  0.907020  1.0  -0.606
  O  O114  1  0.057080  0.812880  0.746000  1.0  -0.6435
  O  O115  1  0.049190  0.229700  0.907020  1.0  -0.6078
  O  O116  1  0.187120  0.244200  0.746000  1.0  -0.6433
