# generated using pymatgen
data_Mn4H21C15(N2O)6
_symmetry_space_group_name_H-M   'P 1'
_cell_length_a   13.51050000
_cell_length_b   13.51050000
_cell_length_c   8.04630000
_cell_angle_alpha   90.00000000
_cell_angle_beta   90.00000000
_cell_angle_gamma   120.00000000
_symmetry_Int_Tables_number   1
_chemical_formula_structural   Mn4H21C15(N2O)6
_chemical_formula_sum   'Mn8 H42 C30 N24 O12'
_cell_volume   1271.94899399
_cell_formula_units_Z   2
loop_
 _symmetry_equiv_pos_site_id
 _symmetry_equiv_pos_as_xyz
  1  'x, y, z'
loop_
 _atom_site_type_symbol
 _atom_site_label
 _atom_site_symmetry_multiplicity
 _atom_site_fract_x
 _atom_site_fract_y
 _atom_site_fract_z
 _atom_site_occupancy
 _atom_site_charge
  Mn  Mn1  1  0.302490  0.338110  0.954330  1.0  1.0181
  Mn  Mn2  1  0.661890  0.964380  0.954330  1.0  1.0176
  Mn  Mn3  1  0.035620  0.697510  0.954330  1.0  1.0179
  Mn  Mn4  1  0.697510  0.661890  0.454330  1.0  1.0199
  Mn  Mn5  1  0.338110  0.035620  0.454330  1.0  1.0186
  Mn  Mn6  1  0.964380  0.302490  0.454330  1.0  1.0188
  Mn  Mn7  1  0.333333  0.666667  0.578770  1.0  0.903
  Mn  Mn8  1  0.666667  0.333333  0.078770  1.0  0.903
  H  H9  1  0.286100  0.197800  0.560600  1.0  0.3026
  H  H10  1  0.411000  0.256000  0.555400  1.0  0.2825
  H  H11  1  0.423000  0.286400  0.291200  1.0  0.0687
  H  H12  1  0.443500  0.460400  0.199800  1.0  0.2447
  H  H13  1  0.349600  0.483700  0.205600  1.0  0.2899
  H  H14  1  0.237700  0.321500  0.349200  1.0  0.0758
  H  H15  1  0.352900  0.396600  0.444900  1.0  0.0634
  H  H16  1  0.802200  0.088300  0.560600  1.0  0.3011
  H  H17  1  0.744000  0.155000  0.555400  1.0  0.288
  H  H18  1  0.713600  0.136600  0.291200  1.0  0.0678
  H  H19  1  0.539600  0.983100  0.199800  1.0  0.2417
  H  H20  1  0.516300  0.865900  0.205600  1.0  0.2884
  H  H21  1  0.678500  0.916200  0.349200  1.0  0.0766
  H  H22  1  0.603400  0.956300  0.444900  1.0  0.0637
  H  H23  1  0.911700  0.713900  0.560600  1.0  0.3021
  H  H24  1  0.845000  0.589000  0.555400  1.0  0.2826
  H  H25  1  0.863400  0.577000  0.291200  1.0  0.0686
  H  H26  1  0.016900  0.556500  0.199800  1.0  0.2402
  H  H27  1  0.134100  0.650400  0.205600  1.0  0.2808
  H  H28  1  0.083800  0.762300  0.349200  1.0  0.0758
  H  H29  1  0.043700  0.647100  0.444900  1.0  0.0636
  H  H30  1  0.713900  0.802200  0.060600  1.0  0.304
  H  H31  1  0.589000  0.744000  0.055400  1.0  0.2833
  H  H32  1  0.577000  0.713600  0.791200  1.0  0.0671
  H  H33  1  0.556500  0.539600  0.699800  1.0  0.2433
  H  H34  1  0.650400  0.516300  0.705600  1.0  0.2881
  H  H35  1  0.762300  0.678500  0.849200  1.0  0.0746
  H  H36  1  0.647100  0.603400  0.944900  1.0  0.0636
  H  H37  1  0.197800  0.911700  0.060600  1.0  0.3004
  H  H38  1  0.256000  0.845000  0.055400  1.0  0.2909
  H  H39  1  0.286400  0.863400  0.791200  1.0  0.0685
  H  H40  1  0.460400  0.016900  0.699800  1.0  0.2428
  H  H41  1  0.483700  0.134100  0.705600  1.0  0.2902
  H  H42  1  0.321500  0.083800  0.849200  1.0  0.0752
  H  H43  1  0.396600  0.043700  0.944900  1.0  0.0637
  H  H44  1  0.088300  0.286100  0.060600  1.0  0.3028
  H  H45  1  0.155000  0.411000  0.055400  1.0  0.2817
  H  H46  1  0.136600  0.423000  0.791200  1.0  0.0676
  H  H47  1  0.983100  0.443500  0.699800  1.0  0.2431
  H  H48  1  0.865900  0.349600  0.705600  1.0  0.287
  H  H49  1  0.916200  0.237700  0.849200  1.0  0.075
  H  H50  1  0.956300  0.352900  0.944900  1.0  0.0634
  C  C51  1  0.535060  0.322460  0.951200  1.0  0.091
  C  C52  1  0.354100  0.559900  0.723700  1.0  0.1912
  C  C53  1  0.266900  0.157400  0.219900  1.0  0.6848
  C  C54  1  0.345500  0.254200  0.336100  1.0  -0.0053
  C  C55  1  0.319700  0.352400  0.344500  1.0  -0.0129
  C  C56  1  0.677540  0.212600  0.951200  1.0  0.0901
  C  C57  1  0.440100  0.794200  0.723700  1.0  0.1916
  C  C58  1  0.842600  0.109500  0.219900  1.0  0.6826
  C  C59  1  0.745800  0.091300  0.336100  1.0  -0.0055
  C  C60  1  0.647600  0.967300  0.344500  1.0  -0.0167
  C  C61  1  0.787400  0.464940  0.951200  1.0  0.0894
  C  C62  1  0.205800  0.645900  0.723700  1.0  0.1904
  C  C63  1  0.890500  0.733100  0.219900  1.0  0.6855
  C  C64  1  0.908700  0.654500  0.336100  1.0  -0.0068
  C  C65  1  0.032700  0.680300  0.344500  1.0  -0.0131
  C  C66  1  0.464940  0.677540  0.451200  1.0  0.0916
  C  C67  1  0.645900  0.440100  0.223700  1.0  0.1898
  C  C68  1  0.733100  0.842600  0.719900  1.0  0.6856
  C  C69  1  0.654500  0.745800  0.836100  1.0  -0.0057
  C  C70  1  0.680300  0.647600  0.844500  1.0  -0.0142
  C  C71  1  0.322460  0.787400  0.451200  1.0  0.0899
  C  C72  1  0.559900  0.205800  0.223700  1.0  0.193
  C  C73  1  0.157400  0.890500  0.719900  1.0  0.6845
  C  C74  1  0.254200  0.908700  0.836100  1.0  -0.0052
  C  C75  1  0.352400  0.032700  0.844500  1.0  -0.0143
  C  C76  1  0.212600  0.535060  0.451200  1.0  0.0895
  C  C77  1  0.794200  0.354100  0.223700  1.0  0.1912
  C  C78  1  0.109500  0.266900  0.719900  1.0  0.684
  C  C79  1  0.091300  0.345500  0.836100  1.0  -0.0063
  C  C80  1  0.967300  0.319700  0.844500  1.0  -0.0109
  N  N81  1  0.346600  0.208000  0.500200  1.0  -0.6704
  N  N82  1  0.366800  0.427570  0.198000  1.0  -0.6961
  N  N83  1  0.455900  0.320800  0.893900  1.0  -0.4984
  N  N84  1  0.368400  0.500000  0.810000  1.0  -0.4801
  N  N85  1  0.792000  0.138600  0.500200  1.0  -0.6729
  N  N86  1  0.572430  0.939230  0.198000  1.0  -0.6901
  N  N87  1  0.679200  0.135100  0.893900  1.0  -0.4993
  N  N88  1  0.500000  0.868400  0.810000  1.0  -0.4798
  N  N89  1  0.861400  0.653400  0.500200  1.0  -0.6711
  N  N90  1  0.060770  0.633200  0.198000  1.0  -0.6922
  N  N91  1  0.864900  0.544100  0.893900  1.0  -0.4992
  N  N92  1  0.131600  0.631600  0.810000  1.0  -0.4802
  N  N93  1  0.653400  0.792000  0.000200  1.0  -0.672
  N  N94  1  0.633200  0.572430  0.698000  1.0  -0.6936
  N  N95  1  0.544100  0.679200  0.393900  1.0  -0.4974
  N  N96  1  0.631600  0.500000  0.310000  1.0  -0.48
  N  N97  1  0.208000  0.861400  0.000200  1.0  -0.6725
  N  N98  1  0.427570  0.060770  0.698000  1.0  -0.6894
  N  N99  1  0.320800  0.864900  0.393900  1.0  -0.4997
  N  N100  1  0.500000  0.131600  0.310000  1.0  -0.4795
  N  N101  1  0.138600  0.346600  0.000200  1.0  -0.6724
  N  N102  1  0.939230  0.366800  0.698000  1.0  -0.6932
  N  N103  1  0.135100  0.455900  0.393900  1.0  -0.5005
  N  N104  1  0.868400  0.368400  0.310000  1.0  -0.4804
  O  O105  1  0.229350  0.180850  0.093500  1.0  -0.6036
  O  O106  1  0.244070  0.057200  0.254100  1.0  -0.6444
  O  O107  1  0.819150  0.048500  0.093500  1.0  -0.6029
  O  O108  1  0.942800  0.186870  0.254100  1.0  -0.6429
  O  O109  1  0.951500  0.770650  0.093500  1.0  -0.6037
  O  O110  1  0.813130  0.755930  0.254100  1.0  -0.6428
  O  O111  1  0.770650  0.819150  0.593500  1.0  -0.6034
  O  O112  1  0.755930  0.942800  0.754100  1.0  -0.6441
  O  O113  1  0.180850  0.951500  0.593500  1.0  -0.6018
  O  O114  1  0.057200  0.813130  0.754100  1.0  -0.6423
  O  O115  1  0.048500  0.229350  0.593500  1.0  -0.6045
  O  O116  1  0.186870  0.244070  0.754100  1.0  -0.6435
