# generated using pymatgen
data_Mn4H21C15(N2O)6
_symmetry_space_group_name_H-M   'P 1'
_cell_length_a   13.53290000
_cell_length_b   13.53290000
_cell_length_c   8.08160000
_cell_angle_alpha   90.00000000
_cell_angle_beta   90.00000000
_cell_angle_gamma   120.00000000
_symmetry_Int_Tables_number   1
_chemical_formula_structural   Mn4H21C15(N2O)6
_chemical_formula_sum   'Mn8 H42 C30 N24 O12'
_cell_volume   1281.76889478
_cell_formula_units_Z   2
loop_
 _symmetry_equiv_pos_site_id
 _symmetry_equiv_pos_as_xyz
  1  'x, y, z'
loop_
 _atom_site_type_symbol
 _atom_site_label
 _atom_site_symmetry_multiplicity
 _atom_site_fract_x
 _atom_site_fract_y
 _atom_site_fract_z
 _atom_site_occupancy
 _atom_site_charge
  Mn  Mn1  1  0.300860  0.337990  0.545140  1.0  0.9773
  Mn  Mn2  1  0.662010  0.962870  0.545140  1.0  0.9756
  Mn  Mn3  1  0.037130  0.699140  0.545140  1.0  0.9764
  Mn  Mn4  1  0.699140  0.662010  0.045140  1.0  0.9773
  Mn  Mn5  1  0.337990  0.037130  0.045140  1.0  0.9766
  Mn  Mn6  1  0.962870  0.300860  0.045140  1.0  0.9769
  Mn  Mn7  1  0.333333  0.666667  0.922370  1.0  0.9085
  Mn  Mn8  1  0.666667  0.333333  0.422370  1.0  0.9085
  H  H9  1  0.411100  0.257000  0.946000  1.0  0.2824
  H  H10  1  0.286500  0.199100  0.940500  1.0  0.3074
  H  H11  1  0.422900  0.287400  0.208400  1.0  0.0656
  H  H12  1  0.348200  0.483800  0.296200  1.0  0.2934
  H  H13  1  0.442400  0.461100  0.302900  1.0  0.2637
  H  H14  1  0.352900  0.397700  0.057900  1.0  0.0635
  H  H15  1  0.237700  0.322000  0.152300  1.0  0.0731
  H  H16  1  0.743000  0.154100  0.946000  1.0  0.2885
  H  H17  1  0.800900  0.087400  0.940500  1.0  0.305
  H  H18  1  0.712600  0.135500  0.208400  1.0  0.0635
  H  H19  1  0.516200  0.864400  0.296200  1.0  0.2921
  H  H20  1  0.538900  0.981300  0.302900  1.0  0.2628
  H  H21  1  0.602300  0.955200  0.057900  1.0  0.0635
  H  H22  1  0.678000  0.915700  0.152300  1.0  0.0744
  H  H23  1  0.845900  0.588900  0.946000  1.0  0.2816
  H  H24  1  0.912600  0.713500  0.940500  1.0  0.3072
  H  H25  1  0.864500  0.577100  0.208400  1.0  0.0654
  H  H26  1  0.135600  0.651800  0.296200  1.0  0.2864
  H  H27  1  0.018700  0.557600  0.302900  1.0  0.2615
  H  H28  1  0.044800  0.647100  0.057900  1.0  0.0644
  H  H29  1  0.084300  0.762300  0.152300  1.0  0.0727
  H  H30  1  0.588900  0.743000  0.446000  1.0  0.282
  H  H31  1  0.713500  0.800900  0.440500  1.0  0.3096
  H  H32  1  0.577100  0.712600  0.708400  1.0  0.0644
  H  H33  1  0.651800  0.516200  0.796200  1.0  0.2924
  H  H34  1  0.557600  0.538900  0.802900  1.0  0.2629
  H  H35  1  0.647100  0.602300  0.557900  1.0  0.0644
  H  H36  1  0.762300  0.678000  0.652300  1.0  0.0722
  H  H37  1  0.257000  0.845900  0.446000  1.0  0.29
  H  H38  1  0.199100  0.912600  0.440500  1.0  0.306
  H  H39  1  0.287400  0.864500  0.708400  1.0  0.0647
  H  H40  1  0.483800  0.135600  0.796200  1.0  0.293
  H  H41  1  0.461100  0.018700  0.802900  1.0  0.2621
  H  H42  1  0.397700  0.044800  0.557900  1.0  0.0635
  H  H43  1  0.322000  0.084300  0.652300  1.0  0.0731
  H  H44  1  0.154100  0.411100  0.446000  1.0  0.2843
  H  H45  1  0.087400  0.286500  0.440500  1.0  0.3066
  H  H46  1  0.135500  0.422900  0.708400  1.0  0.0633
  H  H47  1  0.864400  0.348200  0.796200  1.0  0.2915
  H  H48  1  0.981300  0.442400  0.802900  1.0  0.2629
  H  H49  1  0.955200  0.352900  0.557900  1.0  0.0631
  H  H50  1  0.915700  0.237700  0.652300  1.0  0.0727
  C  C51  1  0.534740  0.322950  0.547900  1.0  0.0656
  C  C52  1  0.353600  0.559700  0.776700  1.0  0.1758
  C  C53  1  0.267100  0.158100  0.280000  1.0  0.682
  C  C54  1  0.345500  0.255200  0.163800  1.0  0.003
  C  C55  1  0.319600  0.353100  0.157400  1.0  -0.0022
  C  C56  1  0.677050  0.211790  0.547900  1.0  0.065
  C  C57  1  0.440300  0.793900  0.776700  1.0  0.1766
  C  C58  1  0.841900  0.109000  0.280000  1.0  0.68
  C  C59  1  0.744800  0.090300  0.163800  1.0  0.0028
  C  C60  1  0.646900  0.966500  0.157400  1.0  -0.0063
  C  C61  1  0.788210  0.465260  0.547900  1.0  0.0651
  C  C62  1  0.206100  0.646400  0.776700  1.0  0.1734
  C  C63  1  0.891000  0.732900  0.280000  1.0  0.6811
  C  C64  1  0.909700  0.654500  0.163800  1.0  0.0014
  C  C65  1  0.033500  0.680400  0.157400  1.0  -0.0027
  C  C66  1  0.465260  0.677050  0.047900  1.0  0.0673
  C  C67  1  0.646400  0.440300  0.276700  1.0  0.1737
  C  C68  1  0.732900  0.841900  0.780000  1.0  0.681
  C  C69  1  0.654500  0.744800  0.663800  1.0  0.0022
  C  C70  1  0.680400  0.646900  0.657400  1.0  -0.0041
  C  C71  1  0.322950  0.788210  0.047900  1.0  0.0644
  C  C72  1  0.559700  0.206100  0.276700  1.0  0.1767
  C  C73  1  0.158100  0.891000  0.780000  1.0  0.679
  C  C74  1  0.255200  0.909700  0.663800  1.0  0.0032
  C  C75  1  0.353100  0.033500  0.657400  1.0  -0.0035
  C  C76  1  0.211790  0.534740  0.047900  1.0  0.0636
  C  C77  1  0.793900  0.353600  0.276700  1.0  0.1759
  C  C78  1  0.109000  0.267100  0.780000  1.0  0.6809
  C  C79  1  0.090300  0.345500  0.663800  1.0  0.0019
  C  C80  1  0.966500  0.319600  0.657400  1.0  -0.0004
  N  N81  1  0.346700  0.209000  0.000700  1.0  -0.6775
  N  N82  1  0.365800  0.427970  0.303900  1.0  -0.6908
  N  N83  1  0.455600  0.321800  0.602500  1.0  -0.4761
  N  N84  1  0.367400  0.499800  0.692200  1.0  -0.4567
  N  N85  1  0.791000  0.137700  0.000700  1.0  -0.6791
  N  N86  1  0.572030  0.937830  0.303900  1.0  -0.6846
  N  N87  1  0.678200  0.133800  0.602500  1.0  -0.4771
  N  N88  1  0.500200  0.867600  0.692200  1.0  -0.4574
  N  N89  1  0.862300  0.653300  0.000700  1.0  -0.6779
  N  N90  1  0.062170  0.634200  0.303900  1.0  -0.6862
  N  N91  1  0.866200  0.544400  0.602500  1.0  -0.4774
  N  N92  1  0.132400  0.632600  0.692200  1.0  -0.4571
  N  N93  1  0.653300  0.791000  0.500700  1.0  -0.6781
  N  N94  1  0.634200  0.572030  0.803900  1.0  -0.688
  N  N95  1  0.544400  0.678200  0.102500  1.0  -0.4755
  N  N96  1  0.632600  0.500200  0.192200  1.0  -0.4568
  N  N97  1  0.209000  0.862300  0.500700  1.0  -0.6803
  N  N98  1  0.427970  0.062170  0.803900  1.0  -0.6846
  N  N99  1  0.321800  0.866200  0.102500  1.0  -0.4779
  N  N100  1  0.499800  0.132400  0.192200  1.0  -0.4575
  N  N101  1  0.137700  0.346700  0.500700  1.0  -0.6787
  N  N102  1  0.937830  0.365800  0.803900  1.0  -0.6876
  N  N103  1  0.133800  0.455600  0.102500  1.0  -0.4782
  N  N104  1  0.867600  0.367400  0.192200  1.0  -0.4567
  O  O105  1  0.229370  0.181330  0.405900  1.0  -0.6029
  O  O106  1  0.245590  0.058550  0.246300  1.0  -0.6454
  O  O107  1  0.818670  0.048040  0.405900  1.0  -0.6037
  O  O108  1  0.941450  0.187040  0.246300  1.0  -0.6433
  O  O109  1  0.951960  0.770630  0.405900  1.0  -0.6036
  O  O110  1  0.812960  0.754410  0.246300  1.0  -0.6433
  O  O111  1  0.770630  0.818670  0.905900  1.0  -0.6039
  O  O112  1  0.754410  0.941450  0.746300  1.0  -0.6457
  O  O113  1  0.181330  0.951960  0.905900  1.0  -0.6021
  O  O114  1  0.058550  0.812960  0.746300  1.0  -0.6432
  O  O115  1  0.048040  0.229370  0.905900  1.0  -0.6038
  O  O116  1  0.187040  0.245590  0.746300  1.0  -0.6434
