# generated using pymatgen
data_Mn4H21C15(N2O)6
_symmetry_space_group_name_H-M   'P 1'
_cell_length_a   13.47500000
_cell_length_b   13.47500000
_cell_length_c   8.02910000
_cell_angle_alpha   90.00000000
_cell_angle_beta   90.00000000
_cell_angle_gamma   120.00000000
_symmetry_Int_Tables_number   1
_chemical_formula_structural   Mn4H21C15(N2O)6
_chemical_formula_sum   'Mn8 H42 C30 N24 O12'
_cell_volume   1262.56878059
_cell_formula_units_Z   2
loop_
 _symmetry_equiv_pos_site_id
 _symmetry_equiv_pos_as_xyz
  1  'x, y, z'
loop_
 _atom_site_type_symbol
 _atom_site_label
 _atom_site_symmetry_multiplicity
 _atom_site_fract_x
 _atom_site_fract_y
 _atom_site_fract_z
 _atom_site_occupancy
 _atom_site_charge
  Mn  Mn1  1  0.302650  0.337390  0.954160  1.0  1.0083
  Mn  Mn2  1  0.662610  0.965260  0.954160  1.0  1.0079
  Mn  Mn3  1  0.034740  0.697350  0.954160  1.0  1.0087
  Mn  Mn4  1  0.697350  0.662610  0.454160  1.0  1.0105
  Mn  Mn5  1  0.337390  0.034740  0.454160  1.0  1.0101
  Mn  Mn6  1  0.965260  0.302650  0.454160  1.0  1.0109
  Mn  Mn7  1  0.333333  0.666667  0.579000  1.0  0.9139
  Mn  Mn8  1  0.666667  0.333333  0.079000  1.0  0.9139
  H  H9  1  0.286100  0.197700  0.562900  1.0  0.2973
  H  H10  1  0.411300  0.256100  0.555700  1.0  0.287
  H  H11  1  0.421100  0.285000  0.289800  1.0  0.0715
  H  H12  1  0.443700  0.460700  0.200400  1.0  0.2444
  H  H13  1  0.349500  0.484100  0.205300  1.0  0.2926
  H  H14  1  0.236800  0.321900  0.349900  1.0  0.0785
  H  H15  1  0.352500  0.396500  0.445900  1.0  0.0654
  H  H16  1  0.802300  0.088400  0.562900  1.0  0.2946
  H  H17  1  0.743900  0.155200  0.555700  1.0  0.2928
  H  H18  1  0.715000  0.136100  0.289800  1.0  0.0686
  H  H19  1  0.539300  0.983000  0.200400  1.0  0.2402
  H  H20  1  0.515900  0.865400  0.205300  1.0  0.291
  H  H21  1  0.678100  0.914900  0.349900  1.0  0.0801
  H  H22  1  0.603500  0.956000  0.445900  1.0  0.0655
  H  H23  1  0.911600  0.713900  0.562900  1.0  0.2946
  H  H24  1  0.844800  0.588700  0.555700  1.0  0.2866
  H  H25  1  0.863900  0.578900  0.289800  1.0  0.0697
  H  H26  1  0.017000  0.556300  0.200400  1.0  0.2401
  H  H27  1  0.134600  0.650500  0.205300  1.0  0.2829
  H  H28  1  0.085100  0.763200  0.349900  1.0  0.08
  H  H29  1  0.044000  0.647500  0.445900  1.0  0.0654
  H  H30  1  0.713900  0.802300  0.062900  1.0  0.2977
  H  H31  1  0.588700  0.743900  0.055700  1.0  0.2874
  H  H32  1  0.578900  0.715000  0.789800  1.0  0.0703
  H  H33  1  0.556300  0.539300  0.700400  1.0  0.2423
  H  H34  1  0.650500  0.515900  0.705300  1.0  0.2917
  H  H35  1  0.763200  0.678100  0.849900  1.0  0.075
  H  H36  1  0.647500  0.603500  0.945900  1.0  0.0655
  H  H37  1  0.197700  0.911600  0.062900  1.0  0.2938
  H  H38  1  0.256100  0.844800  0.055700  1.0  0.2953
  H  H39  1  0.285000  0.863900  0.789800  1.0  0.0691
  H  H40  1  0.460700  0.017000  0.700400  1.0  0.2419
  H  H41  1  0.484100  0.134600  0.705300  1.0  0.2922
  H  H42  1  0.321900  0.085100  0.849900  1.0  0.0792
  H  H43  1  0.396500  0.044000  0.945900  1.0  0.0659
  H  H44  1  0.088400  0.286100  0.062900  1.0  0.2946
  H  H45  1  0.155200  0.411300  0.055700  1.0  0.2871
  H  H46  1  0.136100  0.421100  0.789800  1.0  0.0683
  H  H47  1  0.983000  0.443700  0.700400  1.0  0.2417
  H  H48  1  0.865400  0.349500  0.705300  1.0  0.2905
  H  H49  1  0.914900  0.236800  0.849900  1.0  0.0791
  H  H50  1  0.956000  0.352500  0.945900  1.0  0.0653
  C  C51  1  0.534970  0.321880  0.949900  1.0  0.0987
  C  C52  1  0.354070  0.559600  0.724300  1.0  0.1689
  C  C53  1  0.263420  0.155800  0.221500  1.0  0.6868
  C  C54  1  0.343940  0.253370  0.336400  1.0  -0.0024
  C  C55  1  0.318990  0.352390  0.345300  1.0  -0.0179
  C  C56  1  0.678120  0.213090  0.949900  1.0  0.0974
  C  C57  1  0.440400  0.794470  0.724300  1.0  0.1695
  C  C58  1  0.844200  0.107620  0.221500  1.0  0.6847
  C  C59  1  0.746630  0.090570  0.336400  1.0  -0.0025
  C  C60  1  0.647610  0.966600  0.345300  1.0  -0.0207
  C  C61  1  0.786910  0.465030  0.949900  1.0  0.0967
  C  C62  1  0.205530  0.645930  0.724300  1.0  0.1655
  C  C63  1  0.892380  0.736580  0.221500  1.0  0.688
  C  C64  1  0.909430  0.656060  0.336400  1.0  -0.004
  C  C65  1  0.033400  0.681010  0.345300  1.0  -0.0172
  C  C66  1  0.465030  0.678120  0.449900  1.0  0.0985
  C  C67  1  0.645930  0.440400  0.224300  1.0  0.1662
  C  C68  1  0.736580  0.844200  0.721500  1.0  0.6865
  C  C69  1  0.656060  0.746630  0.836400  1.0  -0.003
  C  C70  1  0.681010  0.647610  0.845300  1.0  -0.0185
  C  C71  1  0.321880  0.786910  0.449900  1.0  0.0975
  C  C72  1  0.559600  0.205530  0.224300  1.0  0.1695
  C  C73  1  0.155800  0.892380  0.721500  1.0  0.6864
  C  C74  1  0.253370  0.909430  0.836400  1.0  -0.0026
  C  C75  1  0.352390  0.033400  0.845300  1.0  -0.0192
  C  C76  1  0.213090  0.534970  0.449900  1.0  0.0975
  C  C77  1  0.794470  0.354070  0.224300  1.0  0.1686
  C  C78  1  0.107620  0.263420  0.721500  1.0  0.6868
  C  C79  1  0.090570  0.343940  0.836400  1.0  -0.0034
  C  C80  1  0.966600  0.318990  0.845300  1.0  -0.0153
  N  N81  1  0.346320  0.207770  0.501500  1.0  -0.6658
  N  N82  1  0.366830  0.427810  0.198200  1.0  -0.6918
  N  N83  1  0.455530  0.319730  0.892600  1.0  -0.5087
  N  N84  1  0.367770  0.498520  0.808700  1.0  -0.4752
  N  N85  1  0.792230  0.138550  0.501500  1.0  -0.6687
  N  N86  1  0.572190  0.939020  0.198200  1.0  -0.6876
  N  N87  1  0.680270  0.135800  0.892600  1.0  -0.5101
  N  N88  1  0.501480  0.869250  0.808700  1.0  -0.4757
  N  N89  1  0.861450  0.653680  0.501500  1.0  -0.667
  N  N90  1  0.060980  0.633170  0.198200  1.0  -0.6897
  N  N91  1  0.864200  0.544470  0.892600  1.0  -0.5103
  N  N92  1  0.130750  0.632230  0.808700  1.0  -0.4752
  N  N93  1  0.653680  0.792230  0.001500  1.0  -0.667
  N  N94  1  0.633170  0.572190  0.698200  1.0  -0.6908
  N  N95  1  0.544470  0.680270  0.392600  1.0  -0.5086
  N  N96  1  0.632230  0.501480  0.308700  1.0  -0.4752
  N  N97  1  0.207770  0.861450  0.001500  1.0  -0.6677
  N  N98  1  0.427810  0.060980  0.698200  1.0  -0.6872
  N  N99  1  0.319730  0.864200  0.392600  1.0  -0.5104
  N  N100  1  0.498520  0.130750  0.308700  1.0  -0.4749
  N  N101  1  0.138550  0.346320  0.001500  1.0  -0.6687
  N  N102  1  0.939020  0.366830  0.698200  1.0  -0.6898
  N  N103  1  0.135800  0.455530  0.392600  1.0  -0.5111
  N  N104  1  0.869250  0.367770  0.308700  1.0  -0.4761
  O  O105  1  0.226560  0.179020  0.093500  1.0  -0.6059
  O  O106  1  0.239110  0.054980  0.257400  1.0  -0.6297
  O  O107  1  0.820980  0.047540  0.093500  1.0  -0.6044
  O  O108  1  0.945020  0.184130  0.257400  1.0  -0.6271
  O  O109  1  0.952460  0.773440  0.093500  1.0  -0.6052
  O  O110  1  0.815870  0.760890  0.257400  1.0  -0.6272
  O  O111  1  0.773440  0.820980  0.593500  1.0  -0.6051
  O  O112  1  0.760890  0.945020  0.757400  1.0  -0.6289
  O  O113  1  0.179020  0.952460  0.593500  1.0  -0.6037
  O  O114  1  0.054980  0.815870  0.757400  1.0  -0.6274
  O  O115  1  0.047540  0.226560  0.593500  1.0  -0.6062
  O  O116  1  0.184130  0.239110  0.757400  1.0  -0.6295
