# generated using pymatgen
data_Mn3CrH21C15(N2O)6
_symmetry_space_group_name_H-M   'P 1'
_cell_length_a   13.57390000
_cell_length_b   13.57390000
_cell_length_c   8.11560000
_cell_angle_alpha   90.00000000
_cell_angle_beta   90.00000000
_cell_angle_gamma   120.00000000
_symmetry_Int_Tables_number   1
_chemical_formula_structural   Mn3CrH21C15(N2O)6
_chemical_formula_sum   'Mn6 Cr2 H42 C30 N24 O12'
_cell_volume   1294.97253009
_cell_formula_units_Z   2
loop_
 _symmetry_equiv_pos_site_id
 _symmetry_equiv_pos_as_xyz
  1  'x, y, z'
loop_
 _atom_site_type_symbol
 _atom_site_label
 _atom_site_symmetry_multiplicity
 _atom_site_fract_x
 _atom_site_fract_y
 _atom_site_fract_z
 _atom_site_occupancy
 _atom_site_charge
  Mn  Mn1  1  0.295400  0.331820  0.544380  1.0  0.9116
  Mn  Mn2  1  0.668180  0.963580  0.544380  1.0  0.9122
  Mn  Mn3  1  0.036420  0.704600  0.544380  1.0  0.9125
  Mn  Mn4  1  0.704600  0.668180  0.044380  1.0  0.913
  Mn  Mn5  1  0.331820  0.036420  0.044380  1.0  0.9116
  Mn  Mn6  1  0.963580  0.295400  0.044380  1.0  0.9115
  Cr  Cr7  1  0.333333  0.666667  0.923300  1.0  0.3425
  Cr  Cr8  1  0.666667  0.333333  0.423300  1.0  0.3425
  H  H9  1  0.403400  0.255100  0.945200  1.0  0.3071
  H  H10  1  0.279100  0.197200  0.942300  1.0  0.3132
  H  H11  1  0.417400  0.284800  0.208200  1.0  0.0788
  H  H12  1  0.346600  0.480200  0.298000  1.0  0.3052
  H  H13  1  0.438800  0.455000  0.303900  1.0  0.285
  H  H14  1  0.347800  0.393700  0.060000  1.0  0.0733
  H  H15  1  0.233400  0.318800  0.155500  1.0  0.0845
  H  H16  1  0.744900  0.148300  0.945200  1.0  0.3134
  H  H17  1  0.802800  0.081900  0.942300  1.0  0.312
  H  H18  1  0.715200  0.132600  0.208200  1.0  0.0794
  H  H19  1  0.519800  0.866400  0.298000  1.0  0.305
  H  H20  1  0.545000  0.983800  0.303900  1.0  0.2811
  H  H21  1  0.606300  0.954100  0.060000  1.0  0.0733
  H  H22  1  0.681200  0.914600  0.155500  1.0  0.0868
  H  H23  1  0.851700  0.596600  0.945200  1.0  0.3056
  H  H24  1  0.918100  0.720900  0.942300  1.0  0.3148
  H  H25  1  0.867400  0.582600  0.208200  1.0  0.0795
  H  H26  1  0.133600  0.653400  0.298000  1.0  0.3016
  H  H27  1  0.016200  0.561200  0.303900  1.0  0.2814
  H  H28  1  0.045900  0.652200  0.060000  1.0  0.0739
  H  H29  1  0.085400  0.766600  0.155500  1.0  0.0863
  H  H30  1  0.596600  0.744900  0.445200  1.0  0.3071
  H  H31  1  0.720900  0.802800  0.442300  1.0  0.3153
  H  H32  1  0.582600  0.715200  0.708200  1.0  0.0776
  H  H33  1  0.653400  0.519800  0.798000  1.0  0.3057
  H  H34  1  0.561200  0.545000  0.803900  1.0  0.2841
  H  H35  1  0.652200  0.606300  0.560000  1.0  0.0733
  H  H36  1  0.766600  0.681200  0.655500  1.0  0.0848
  H  H37  1  0.255100  0.851700  0.445200  1.0  0.3135
  H  H38  1  0.197200  0.918100  0.442300  1.0  0.3125
  H  H39  1  0.284800  0.867400  0.708200  1.0  0.0793
  H  H40  1  0.480200  0.133600  0.798000  1.0  0.3049
  H  H41  1  0.455000  0.016200  0.803900  1.0  0.2807
  H  H42  1  0.393700  0.045900  0.560000  1.0  0.0737
  H  H43  1  0.318800  0.085400  0.655500  1.0  0.086
  H  H44  1  0.148300  0.403400  0.445200  1.0  0.3074
  H  H45  1  0.081900  0.279100  0.442300  1.0  0.3135
  H  H46  1  0.132600  0.417400  0.708200  1.0  0.079
  H  H47  1  0.866400  0.346600  0.798000  1.0  0.3056
  H  H48  1  0.983800  0.438800  0.803900  1.0  0.2837
  H  H49  1  0.954100  0.347800  0.560000  1.0  0.0728
  H  H50  1  0.914600  0.233400  0.655500  1.0  0.0846
  C  C51  1  0.530700  0.320800  0.559100  1.0  0.0662
  C  C52  1  0.352400  0.554200  0.773300  1.0  0.1309
  C  C53  1  0.262500  0.155500  0.280800  1.0  0.7048
  C  C54  1  0.339900  0.252900  0.165100  1.0  0.0146
  C  C55  1  0.315100  0.349300  0.159300  1.0  0.0087
  C  C56  1  0.679200  0.209900  0.559100  1.0  0.0652
  C  C57  1  0.445800  0.798200  0.773300  1.0  0.1311
  C  C58  1  0.844500  0.107000  0.280800  1.0  0.7032
  C  C59  1  0.747100  0.087000  0.165100  1.0  0.0143
  C  C60  1  0.650700  0.965800  0.159300  1.0  0.0046
  C  C61  1  0.790100  0.469300  0.559100  1.0  0.0659
  C  C62  1  0.201800  0.647600  0.773300  1.0  0.1314
  C  C63  1  0.893000  0.737500  0.280800  1.0  0.704
  C  C64  1  0.913000  0.660100  0.165100  1.0  0.0122
  C  C65  1  0.034200  0.684900  0.159300  1.0  0.0083
  C  C66  1  0.469300  0.679200  0.059100  1.0  0.0675
  C  C67  1  0.647600  0.445800  0.273300  1.0  0.1306
  C  C68  1  0.737500  0.844500  0.780800  1.0  0.7034
  C  C69  1  0.660100  0.747100  0.665100  1.0  0.0145
  C  C70  1  0.684900  0.650700  0.659300  1.0  0.0074
  C  C71  1  0.320800  0.790100  0.059100  1.0  0.0664
  C  C72  1  0.554200  0.201800  0.273300  1.0  0.1314
  C  C73  1  0.155500  0.893000  0.780800  1.0  0.7042
  C  C74  1  0.252900  0.913000  0.665100  1.0  0.0142
  C  C75  1  0.349300  0.034200  0.659300  1.0  0.0069
  C  C76  1  0.209900  0.530700  0.059100  1.0  0.0643
  C  C77  1  0.798200  0.352400  0.273300  1.0  0.1321
  C  C78  1  0.107000  0.262500  0.780800  1.0  0.7028
  C  C79  1  0.087000  0.339900  0.665100  1.0  0.0122
  C  C80  1  0.965800  0.315100  0.659300  1.0  0.0086
  N  N81  1  0.339800  0.207200  0.000800  1.0  -0.6526
  N  N82  1  0.362600  0.423500  0.304900  1.0  -0.6815
  N  N83  1  0.451800  0.318900  0.611300  1.0  -0.4628
  N  N84  1  0.363100  0.493800  0.691000  1.0  -0.4123
  N  N85  1  0.792800  0.132600  0.000800  1.0  -0.6546
  N  N86  1  0.576500  0.939100  0.304900  1.0  -0.6755
  N  N87  1  0.681100  0.132900  0.611300  1.0  -0.4631
  N  N88  1  0.506200  0.869300  0.691000  1.0  -0.4135
  N  N89  1  0.867400  0.660200  0.000800  1.0  -0.6539
  N  N90  1  0.060900  0.637400  0.304900  1.0  -0.6775
  N  N91  1  0.867100  0.548200  0.611300  1.0  -0.4622
  N  N92  1  0.130700  0.636900  0.691000  1.0  -0.4135
  N  N93  1  0.660200  0.792800  0.500800  1.0  -0.6528
  N  N94  1  0.637400  0.576500  0.804900  1.0  -0.6792
  N  N95  1  0.548200  0.681100  0.111300  1.0  -0.4631
  N  N96  1  0.636900  0.506200  0.191000  1.0  -0.4122
  N  N97  1  0.207200  0.867400  0.500800  1.0  -0.6562
  N  N98  1  0.423500  0.060900  0.804900  1.0  -0.675
  N  N99  1  0.318900  0.867100  0.111300  1.0  -0.4638
  N  N100  1  0.493800  0.130700  0.191000  1.0  -0.4142
  N  N101  1  0.132600  0.339800  0.500800  1.0  -0.6546
  N  N102  1  0.939100  0.362600  0.804900  1.0  -0.6784
  N  N103  1  0.132900  0.451800  0.111300  1.0  -0.4628
  N  N104  1  0.869300  0.363100  0.191000  1.0  -0.4135
  O  O105  1  0.227200  0.177500  0.406400  1.0  -0.5779
  O  O106  1  0.239300  0.055000  0.246400  1.0  -0.6112
  O  O107  1  0.822500  0.049700  0.406400  1.0  -0.5769
  O  O108  1  0.945000  0.184300  0.246400  1.0  -0.609
  O  O109  1  0.950300  0.772800  0.406400  1.0  -0.579
  O  O110  1  0.815700  0.760700  0.246400  1.0  -0.6099
  O  O111  1  0.772800  0.822500  0.906400  1.0  -0.5779
  O  O112  1  0.760700  0.945000  0.746400  1.0  -0.6097
  O  O113  1  0.177500  0.950300  0.906400  1.0  -0.5772
  O  O114  1  0.055000  0.815700  0.746400  1.0  -0.6088
  O  O115  1  0.049700  0.227200  0.906400  1.0  -0.5788
  O  O116  1  0.184300  0.239300  0.746400  1.0  -0.6102
