# generated using pymatgen
data_Mn3CrH21C15(N2O)6
_symmetry_space_group_name_H-M   'P 1'
_cell_length_a   13.61440000
_cell_length_b   13.61440000
_cell_length_c   8.18420000
_cell_angle_alpha   90.00000000
_cell_angle_beta   90.00000000
_cell_angle_gamma   120.00000000
_symmetry_Int_Tables_number   1
_chemical_formula_structural   Mn3CrH21C15(N2O)6
_chemical_formula_sum   'Mn6 Cr2 H42 C30 N24 O12'
_cell_volume   1313.72322616
_cell_formula_units_Z   2
loop_
 _symmetry_equiv_pos_site_id
 _symmetry_equiv_pos_as_xyz
  1  'x, y, z'
loop_
 _atom_site_type_symbol
 _atom_site_label
 _atom_site_symmetry_multiplicity
 _atom_site_fract_x
 _atom_site_fract_y
 _atom_site_fract_z
 _atom_site_occupancy
 _atom_site_charge
  Mn  Mn1  1  0.295390  0.334380  0.543680  1.0  0.964
  Mn  Mn2  1  0.665620  0.961010  0.543680  1.0  0.9651
  Mn  Mn3  1  0.038990  0.704610  0.543680  1.0  0.9645
  Mn  Mn4  1  0.704610  0.665620  0.043680  1.0  0.9649
  Mn  Mn5  1  0.334380  0.038990  0.043680  1.0  0.9643
  Mn  Mn6  1  0.961010  0.295390  0.043680  1.0  0.9648
  Cr  Cr7  1  0.333333  0.666667  0.924970  1.0  0.3394
  Cr  Cr8  1  0.666667  0.333333  0.424970  1.0  0.3394
  H  H9  1  0.409500  0.257900  0.951000  1.0  0.309
  H  H10  1  0.285800  0.201500  0.944800  1.0  0.3341
  H  H11  1  0.420900  0.287100  0.210500  1.0  0.0898
  H  H12  1  0.346400  0.481500  0.300200  1.0  0.3121
  H  H13  1  0.439100  0.457800  0.308400  1.0  0.2972
  H  H14  1  0.352300  0.397900  0.064400  1.0  0.0723
  H  H15  1  0.237100  0.321800  0.155300  1.0  0.0807
  H  H16  1  0.742100  0.151600  0.951000  1.0  0.3147
  H  H17  1  0.798500  0.084300  0.944800  1.0  0.331
  H  H18  1  0.712900  0.133800  0.210500  1.0  0.0895
  H  H19  1  0.518500  0.864900  0.300200  1.0  0.3108
  H  H20  1  0.542200  0.981300  0.308400  1.0  0.2942
  H  H21  1  0.602100  0.954400  0.064400  1.0  0.0727
  H  H22  1  0.678200  0.915300  0.155300  1.0  0.0846
  H  H23  1  0.848400  0.590500  0.951000  1.0  0.308
  H  H24  1  0.915700  0.714200  0.944800  1.0  0.3333
  H  H25  1  0.866200  0.579100  0.210500  1.0  0.0898
  H  H26  1  0.135100  0.653600  0.300200  1.0  0.311
  H  H27  1  0.018700  0.560900  0.308400  1.0  0.2963
  H  H28  1  0.045600  0.647700  0.064400  1.0  0.073
  H  H29  1  0.084700  0.762900  0.155300  1.0  0.084
  H  H30  1  0.590500  0.742100  0.451000  1.0  0.3091
  H  H31  1  0.714200  0.798500  0.444800  1.0  0.3358
  H  H32  1  0.579100  0.712900  0.710500  1.0  0.0882
  H  H33  1  0.653600  0.518500  0.800200  1.0  0.3123
  H  H34  1  0.560900  0.542200  0.808400  1.0  0.296
  H  H35  1  0.647700  0.602100  0.564400  1.0  0.0732
  H  H36  1  0.762900  0.678200  0.655300  1.0  0.0816
  H  H37  1  0.257900  0.848400  0.451000  1.0  0.316
  H  H38  1  0.201500  0.915700  0.444800  1.0  0.332
  H  H39  1  0.287100  0.866200  0.710500  1.0  0.0881
  H  H40  1  0.481500  0.135100  0.800200  1.0  0.3121
  H  H41  1  0.457800  0.018700  0.808400  1.0  0.2949
  H  H42  1  0.397900  0.045600  0.564400  1.0  0.0724
  H  H43  1  0.321800  0.084700  0.655300  1.0  0.0829
  H  H44  1  0.151600  0.409500  0.451000  1.0  0.3109
  H  H45  1  0.084300  0.285800  0.444800  1.0  0.3323
  H  H46  1  0.133800  0.420900  0.710500  1.0  0.0886
  H  H47  1  0.864900  0.346400  0.800200  1.0  0.3134
  H  H48  1  0.981300  0.439100  0.808400  1.0  0.2961
  H  H49  1  0.954400  0.352300  0.564400  1.0  0.0719
  H  H50  1  0.915300  0.237100  0.655300  1.0  0.0835
  C  C51  1  0.529800  0.321100  0.554300  1.0  0.0569
  C  C52  1  0.354000  0.555700  0.775900  1.0  0.0934
  C  C53  1  0.266700  0.159000  0.280400  1.0  0.687
  C  C54  1  0.344000  0.255300  0.166700  1.0  0.0135
  C  C55  1  0.318400  0.352600  0.161600  1.0  0.0223
  C  C56  1  0.678900  0.208700  0.554300  1.0  0.0565
  C  C57  1  0.444300  0.798300  0.775900  1.0  0.0934
  C  C58  1  0.841000  0.107700  0.280400  1.0  0.6839
  C  C59  1  0.744700  0.088700  0.166700  1.0  0.0128
  C  C60  1  0.647400  0.965800  0.161600  1.0  0.0181
  C  C61  1  0.791300  0.470200  0.554300  1.0  0.0573
  C  C62  1  0.201700  0.646000  0.775900  1.0  0.0933
  C  C63  1  0.892300  0.733300  0.280400  1.0  0.6866
  C  C64  1  0.911300  0.656000  0.166700  1.0  0.0101
  C  C65  1  0.034200  0.681600  0.161600  1.0  0.0222
  C  C66  1  0.470200  0.678900  0.054300  1.0  0.0581
  C  C67  1  0.646000  0.444300  0.275900  1.0  0.0927
  C  C68  1  0.733300  0.841000  0.780400  1.0  0.6866
  C  C69  1  0.656000  0.744700  0.666667  1.0  0.0126
  C  C70  1  0.681600  0.647400  0.661600  1.0  0.0204
  C  C71  1  0.321100  0.791300  0.054300  1.0  0.0571
  C  C72  1  0.555700  0.201700  0.275900  1.0  0.0932
  C  C73  1  0.159000  0.892300  0.780400  1.0  0.6838
  C  C74  1  0.255300  0.911300  0.666667  1.0  0.0121
  C  C75  1  0.352600  0.034200  0.661600  1.0  0.021
  C  C76  1  0.208700  0.529800  0.054300  1.0  0.0558
  C  C77  1  0.798300  0.354000  0.275900  1.0  0.094
  C  C78  1  0.107700  0.266700  0.780400  1.0  0.6848
  C  C79  1  0.088700  0.344000  0.666667  1.0  0.0107
  C  C80  1  0.965800  0.318400  0.661600  1.0  0.0238
  N  N81  1  0.345200  0.210200  0.004300  1.0  -0.6622
  N  N82  1  0.363100  0.425500  0.307700  1.0  -0.6787
  N  N83  1  0.449500  0.319500  0.602700  1.0  -0.4428
  N  N84  1  0.365900  0.495200  0.691900  1.0  -0.4432
  N  N85  1  0.789800  0.135000  0.004300  1.0  -0.6648
  N  N86  1  0.574500  0.937600  0.307700  1.0  -0.6731
  N  N87  1  0.680500  0.130000  0.602700  1.0  -0.4433
  N  N88  1  0.504800  0.870700  0.691900  1.0  -0.4437
  N  N89  1  0.865000  0.654800  0.004300  1.0  -0.6622
  N  N90  1  0.062400  0.636900  0.307700  1.0  -0.6744
  N  N91  1  0.870000  0.550500  0.602700  1.0  -0.444
  N  N92  1  0.129300  0.634100  0.691900  1.0  -0.4439
  N  N93  1  0.654800  0.789800  0.504300  1.0  -0.6623
  N  N94  1  0.636900  0.574500  0.807700  1.0  -0.6765
  N  N95  1  0.550500  0.680500  0.102700  1.0  -0.4428
  N  N96  1  0.634100  0.504800  0.191900  1.0  -0.4435
  N  N97  1  0.210200  0.865000  0.504300  1.0  -0.6654
  N  N98  1  0.425500  0.062400  0.807700  1.0  -0.6723
  N  N99  1  0.319500  0.870000  0.102700  1.0  -0.4444
  N  N100  1  0.495200  0.129300  0.191900  1.0  -0.4437
  N  N101  1  0.135000  0.345200  0.504300  1.0  -0.6634
  N  N102  1  0.937600  0.363100  0.807700  1.0  -0.6754
  N  N103  1  0.130000  0.449500  0.102700  1.0  -0.4437
  N  N104  1  0.870700  0.365900  0.191900  1.0  -0.4437
  O  O105  1  0.228500  0.180600  0.404600  1.0  -0.5875
  O  O106  1  0.244600  0.059000  0.246100  1.0  -0.632
  O  O107  1  0.819400  0.047900  0.404600  1.0  -0.5864
  O  O108  1  0.941000  0.185600  0.246100  1.0  -0.6292
  O  O109  1  0.952100  0.771500  0.404600  1.0  -0.5879
  O  O110  1  0.814400  0.755400  0.246100  1.0  -0.63
  O  O111  1  0.771500  0.819400  0.904600  1.0  -0.5882
  O  O112  1  0.755400  0.941000  0.746100  1.0  -0.6307
  O  O113  1  0.180600  0.952100  0.904600  1.0  -0.5877
  O  O114  1  0.059000  0.814400  0.746100  1.0  -0.6286
  O  O115  1  0.047900  0.228500  0.904600  1.0  -0.5878
  O  O116  1  0.185600  0.244600  0.746100  1.0  -0.6306
