# generated using pymatgen
data_Mn3CrH21C15(N2O)6
_symmetry_space_group_name_H-M   'P 1'
_cell_length_a   13.55540000
_cell_length_b   13.55540000
_cell_length_c   8.13510000
_cell_angle_alpha   90.00000000
_cell_angle_beta   90.00000000
_cell_angle_gamma   120.00000000
_symmetry_Int_Tables_number   1
_chemical_formula_structural   Mn3CrH21C15(N2O)6
_chemical_formula_sum   'Mn6 Cr2 H42 C30 N24 O12'
_cell_volume   1294.54813245
_cell_formula_units_Z   2
loop_
 _symmetry_equiv_pos_site_id
 _symmetry_equiv_pos_as_xyz
  1  'x, y, z'
loop_
 _atom_site_type_symbol
 _atom_site_label
 _atom_site_symmetry_multiplicity
 _atom_site_fract_x
 _atom_site_fract_y
 _atom_site_fract_z
 _atom_site_occupancy
 _atom_site_charge
  Mn  Mn1  1  0.294700  0.331150  0.544500  1.0  0.9178
  Mn  Mn2  1  0.668850  0.963550  0.544500  1.0  0.9188
  Mn  Mn3  1  0.036450  0.705300  0.544500  1.0  0.9189
  Mn  Mn4  1  0.705300  0.668850  0.044500  1.0  0.9193
  Mn  Mn5  1  0.331150  0.036450  0.044500  1.0  0.9185
  Mn  Mn6  1  0.963550  0.294700  0.044500  1.0  0.9189
  Cr  Cr7  1  0.333333  0.666667  0.923000  1.0  0.3291
  Cr  Cr8  1  0.666667  0.333333  0.423000  1.0  0.3291
  H  H9  1  0.402500  0.254700  0.945200  1.0  0.3053
  H  H10  1  0.278000  0.196500  0.942200  1.0  0.3242
  H  H11  1  0.416600  0.284700  0.208400  1.0  0.08
  H  H12  1  0.345900  0.479800  0.298100  1.0  0.3019
  H  H13  1  0.437900  0.454200  0.303400  1.0  0.2928
  H  H14  1  0.345300  0.393000  0.062100  1.0  0.0725
  H  H15  1  0.231800  0.317700  0.159300  1.0  0.0834
  H  H16  1  0.745300  0.147800  0.945200  1.0  0.3114
  H  H17  1  0.803500  0.081500  0.942200  1.0  0.3224
  H  H18  1  0.715300  0.131900  0.208400  1.0  0.0806
  H  H19  1  0.520200  0.866100  0.298100  1.0  0.3012
  H  H20  1  0.545800  0.983700  0.303400  1.0  0.2875
  H  H21  1  0.607000  0.952300  0.062100  1.0  0.0722
  H  H22  1  0.682300  0.914100  0.159300  1.0  0.0854
  H  H23  1  0.852200  0.597500  0.945200  1.0  0.3039
  H  H24  1  0.918500  0.722000  0.942200  1.0  0.3249
  H  H25  1  0.868100  0.583400  0.208400  1.0  0.0809
  H  H26  1  0.133900  0.654100  0.298100  1.0  0.2984
  H  H27  1  0.016300  0.562100  0.303400  1.0  0.2891
  H  H28  1  0.047700  0.654700  0.062100  1.0  0.0727
  H  H29  1  0.085900  0.768200  0.159300  1.0  0.0848
  H  H30  1  0.597500  0.745300  0.445200  1.0  0.3031
  H  H31  1  0.722000  0.803500  0.442200  1.0  0.3257
  H  H32  1  0.583400  0.715300  0.708400  1.0  0.0787
  H  H33  1  0.654100  0.520200  0.798100  1.0  0.3028
  H  H34  1  0.562100  0.545800  0.803400  1.0  0.2916
  H  H35  1  0.654700  0.607000  0.562100  1.0  0.0727
  H  H36  1  0.768200  0.682300  0.659300  1.0  0.0832
  H  H37  1  0.254700  0.852200  0.445200  1.0  0.3118
  H  H38  1  0.196500  0.918500  0.442200  1.0  0.3231
  H  H39  1  0.284700  0.868100  0.708400  1.0  0.0806
  H  H40  1  0.479800  0.133900  0.798100  1.0  0.3011
  H  H41  1  0.454200  0.016300  0.803400  1.0  0.2885
  H  H42  1  0.393000  0.047700  0.562100  1.0  0.0726
  H  H43  1  0.317700  0.085900  0.659300  1.0  0.0842
  H  H44  1  0.147800  0.402500  0.445200  1.0  0.3048
  H  H45  1  0.081500  0.278000  0.442200  1.0  0.3245
  H  H46  1  0.131900  0.416600  0.708400  1.0  0.0801
  H  H47  1  0.866100  0.345900  0.798100  1.0  0.3026
  H  H48  1  0.983700  0.437900  0.803400  1.0  0.2903
  H  H49  1  0.952300  0.345300  0.562100  1.0  0.0718
  H  H50  1  0.914100  0.231800  0.659300  1.0  0.0845
  C  C51  1  0.531300  0.321000  0.559500  1.0  0.0679
  C  C52  1  0.352000  0.553500  0.772800  1.0  0.1193
  C  C53  1  0.261200  0.154600  0.281300  1.0  0.7021
  C  C54  1  0.339000  0.252700  0.165500  1.0  0.0136
  C  C55  1  0.313600  0.348700  0.161500  1.0  0.0103
  C  C56  1  0.679000  0.210300  0.559500  1.0  0.0675
  C  C57  1  0.446500  0.798500  0.772800  1.0  0.1193
  C  C58  1  0.845400  0.106600  0.281300  1.0  0.7016
  C  C59  1  0.747300  0.086300  0.165500  1.0  0.0134
  C  C60  1  0.651300  0.964900  0.161500  1.0  0.0064
  C  C61  1  0.789700  0.468700  0.559500  1.0  0.0684
  C  C62  1  0.201500  0.648000  0.772800  1.0  0.12
  C  C63  1  0.893400  0.738800  0.281300  1.0  0.7005
  C  C64  1  0.913700  0.661000  0.165500  1.0  0.0108
  C  C65  1  0.035100  0.686400  0.161500  1.0  0.009
  C  C66  1  0.468700  0.679000  0.059500  1.0  0.0691
  C  C67  1  0.648000  0.446500  0.272800  1.0  0.1191
  C  C68  1  0.738800  0.845400  0.781300  1.0  0.7009
  C  C69  1  0.661000  0.747300  0.665500  1.0  0.0137
  C  C70  1  0.686400  0.651300  0.661500  1.0  0.009
  C  C71  1  0.321000  0.789700  0.059500  1.0  0.0682
  C  C72  1  0.553500  0.201500  0.272800  1.0  0.1198
  C  C73  1  0.154600  0.893400  0.781300  1.0  0.702
  C  C74  1  0.252700  0.913700  0.665500  1.0  0.0133
  C  C75  1  0.348700  0.035100  0.661500  1.0  0.0098
  C  C76  1  0.210300  0.531300  0.059500  1.0  0.0662
  C  C77  1  0.798500  0.352000  0.272800  1.0  0.1201
  C  C78  1  0.106600  0.261200  0.781300  1.0  0.7002
  C  C79  1  0.086300  0.339000  0.665500  1.0  0.0113
  C  C80  1  0.964900  0.313600  0.661500  1.0  0.0111
  N  N81  1  0.338800  0.206700  0.000600  1.0  -0.6624
  N  N82  1  0.361700  0.422900  0.305000  1.0  -0.682
  N  N83  1  0.452100  0.319300  0.611100  1.0  -0.4544
  N  N84  1  0.361600  0.492400  0.690900  1.0  -0.4156
  N  N85  1  0.793300  0.132100  0.000600  1.0  -0.6645
  N  N86  1  0.577100  0.938800  0.305000  1.0  -0.6754
  N  N87  1  0.680700  0.132800  0.611100  1.0  -0.454
  N  N88  1  0.507600  0.869200  0.690900  1.0  -0.417
  N  N89  1  0.867900  0.661200  0.000600  1.0  -0.6629
  N  N90  1  0.061200  0.638300  0.305000  1.0  -0.6773
  N  N91  1  0.867200  0.547900  0.611100  1.0  -0.4549
  N  N92  1  0.130800  0.638400  0.690900  1.0  -0.4162
  N  N93  1  0.661200  0.793300  0.500600  1.0  -0.6625
  N  N94  1  0.638300  0.577100  0.805000  1.0  -0.6794
  N  N95  1  0.547900  0.680700  0.111100  1.0  -0.4551
  N  N96  1  0.638400  0.507600  0.190900  1.0  -0.4147
  N  N97  1  0.206700  0.867900  0.500600  1.0  -0.6651
  N  N98  1  0.422900  0.061200  0.805000  1.0  -0.6752
  N  N99  1  0.319300  0.867200  0.111100  1.0  -0.4553
  N  N100  1  0.492400  0.130800  0.190900  1.0  -0.4164
  N  N101  1  0.132100  0.338800  0.500600  1.0  -0.6643
  N  N102  1  0.938800  0.361700  0.805000  1.0  -0.6782
  N  N103  1  0.132800  0.452100  0.111100  1.0  -0.454
  N  N104  1  0.869200  0.361600  0.190900  1.0  -0.4165
  O  O105  1  0.226800  0.176800  0.407300  1.0  -0.58
  O  O106  1  0.237500  0.054600  0.244900  1.0  -0.6073
  O  O107  1  0.823200  0.050000  0.407300  1.0  -0.5796
  O  O108  1  0.945400  0.182900  0.244900  1.0  -0.6045
  O  O109  1  0.950000  0.773200  0.407300  1.0  -0.581
  O  O110  1  0.817100  0.762500  0.244900  1.0  -0.6056
  O  O111  1  0.773200  0.823200  0.907300  1.0  -0.5801
  O  O112  1  0.762500  0.945400  0.744900  1.0  -0.6055
  O  O113  1  0.176800  0.950000  0.907300  1.0  -0.58
  O  O114  1  0.054600  0.817100  0.744900  1.0  -0.6051
  O  O115  1  0.050000  0.226800  0.907300  1.0  -0.5809
  O  O116  1  0.182900  0.237500  0.744900  1.0  -0.606
