# generated using pymatgen
data_Mn3CrH21C15(N2O)6
_symmetry_space_group_name_H-M   'P 1'
_cell_length_a   13.53920000
_cell_length_b   13.53920000
_cell_length_c   8.06920000
_cell_angle_alpha   90.00000000
_cell_angle_beta   90.00000000
_cell_angle_gamma   120.00000000
_symmetry_Int_Tables_number   1
_chemical_formula_structural   Mn3CrH21C15(N2O)6
_chemical_formula_sum   'Mn6 Cr2 H42 C30 N24 O12'
_cell_volume   1280.99406865
_cell_formula_units_Z   2
loop_
 _symmetry_equiv_pos_site_id
 _symmetry_equiv_pos_as_xyz
  1  'x, y, z'
loop_
 _atom_site_type_symbol
 _atom_site_label
 _atom_site_symmetry_multiplicity
 _atom_site_fract_x
 _atom_site_fract_y
 _atom_site_fract_z
 _atom_site_occupancy
 _atom_site_charge
  Mn  Mn1  1  0.296730  0.332380  0.543810  1.0  0.9411
  Mn  Mn2  1  0.667620  0.964350  0.543810  1.0  0.9406
  Mn  Mn3  1  0.035650  0.703270  0.543810  1.0  0.9428
  Mn  Mn4  1  0.703270  0.667620  0.043810  1.0  0.9439
  Mn  Mn5  1  0.332380  0.035650  0.043810  1.0  0.9431
  Mn  Mn6  1  0.964350  0.296730  0.043810  1.0  0.9409
  Cr  Cr7  1  0.333333  0.666667  0.924400  1.0  0.3596
  Cr  Cr8  1  0.666667  0.333333  0.424400  1.0  0.3596
  H  H9  1  0.404100  0.252700  0.942600  1.0  0.3013
  H  H10  1  0.279600  0.194600  0.939600  1.0  0.3099
  H  H11  1  0.418000  0.283700  0.207400  1.0  0.0911
  H  H12  1  0.347900  0.481100  0.296800  1.0  0.3076
  H  H13  1  0.440200  0.455600  0.302400  1.0  0.2824
  H  H14  1  0.348100  0.393700  0.057600  1.0  0.0777
  H  H15  1  0.233800  0.318900  0.154500  1.0  0.0918
  H  H16  1  0.747300  0.151400  0.942600  1.0  0.3086
  H  H17  1  0.805400  0.085000  0.939600  1.0  0.3069
  H  H18  1  0.716300  0.134300  0.207400  1.0  0.0921
  H  H19  1  0.518900  0.866800  0.296800  1.0  0.3088
  H  H20  1  0.544400  0.984600  0.302400  1.0  0.2789
  H  H21  1  0.606300  0.954400  0.057600  1.0  0.0774
  H  H22  1  0.681100  0.914900  0.154500  1.0  0.0935
  H  H23  1  0.848600  0.595900  0.942600  1.0  0.3011
  H  H24  1  0.915000  0.720400  0.939600  1.0  0.3092
  H  H25  1  0.865700  0.582000  0.207400  1.0  0.0915
  H  H26  1  0.133200  0.652100  0.296800  1.0  0.2992
  H  H27  1  0.015400  0.559800  0.302400  1.0  0.2804
  H  H28  1  0.045600  0.651900  0.057600  1.0  0.0781
  H  H29  1  0.085100  0.766200  0.154500  1.0  0.0937
  H  H30  1  0.595900  0.747300  0.442600  1.0  0.3007
  H  H31  1  0.720400  0.805400  0.439600  1.0  0.3111
  H  H32  1  0.582000  0.716300  0.707400  1.0  0.0905
  H  H33  1  0.652100  0.518900  0.796800  1.0  0.3083
  H  H34  1  0.559800  0.544400  0.802400  1.0  0.2804
  H  H35  1  0.651900  0.606300  0.557600  1.0  0.0779
  H  H36  1  0.766200  0.681100  0.654500  1.0  0.0893
  H  H37  1  0.252700  0.848600  0.442600  1.0  0.3088
  H  H38  1  0.194600  0.915000  0.439600  1.0  0.3079
  H  H39  1  0.283700  0.865700  0.707400  1.0  0.0904
  H  H40  1  0.481100  0.133200  0.796800  1.0  0.3078
  H  H41  1  0.455600  0.015400  0.802400  1.0  0.2804
  H  H42  1  0.393700  0.045600  0.557600  1.0  0.0777
  H  H43  1  0.318900  0.085100  0.654500  1.0  0.0927
  H  H44  1  0.151400  0.404100  0.442600  1.0  0.3023
  H  H45  1  0.085000  0.279600  0.439600  1.0  0.3081
  H  H46  1  0.134300  0.418000  0.707400  1.0  0.091
  H  H47  1  0.866800  0.347900  0.796800  1.0  0.3073
  H  H48  1  0.984600  0.440200  0.802400  1.0  0.2801
  H  H49  1  0.954400  0.348100  0.557600  1.0  0.0772
  H  H50  1  0.914900  0.233800  0.654500  1.0  0.0931
  C  C51  1  0.530700  0.319500  0.561300  1.0  0.0602
  C  C52  1  0.354100  0.554900  0.773100  1.0  0.1236
  C  C53  1  0.261500  0.154100  0.280300  1.0  0.6927
  C  C54  1  0.340600  0.252000  0.163400  1.0  0.0122
  C  C55  1  0.315700  0.349500  0.157700  1.0  0.0096
  C  C56  1  0.680500  0.211200  0.561300  1.0  0.0591
  C  C57  1  0.445100  0.799200  0.773100  1.0  0.1237
  C  C58  1  0.845900  0.107400  0.280300  1.0  0.6922
  C  C59  1  0.748000  0.088600  0.163400  1.0  0.0127
  C  C60  1  0.650500  0.966200  0.157700  1.0  0.0057
  C  C61  1  0.788800  0.469300  0.561300  1.0  0.0599
  C  C62  1  0.200800  0.645900  0.773100  1.0  0.1243
  C  C63  1  0.892600  0.738500  0.280300  1.0  0.6916
  C  C64  1  0.911400  0.659400  0.163400  1.0  0.01
  C  C65  1  0.033800  0.684300  0.157700  1.0  0.0093
  C  C66  1  0.469300  0.680500  0.061300  1.0  0.0604
  C  C67  1  0.645900  0.445100  0.273100  1.0  0.1229
  C  C68  1  0.738500  0.845900  0.780300  1.0  0.6908
  C  C69  1  0.659400  0.748000  0.663400  1.0  0.0129
  C  C70  1  0.684300  0.650500  0.657700  1.0  0.0085
  C  C71  1  0.319500  0.788800  0.061300  1.0  0.0603
  C  C72  1  0.554900  0.200800  0.273100  1.0  0.1239
  C  C73  1  0.154100  0.892600  0.780300  1.0  0.6929
  C  C74  1  0.252000  0.911400  0.663400  1.0  0.0116
  C  C75  1  0.349500  0.033800  0.657700  1.0  0.0085
  C  C76  1  0.211200  0.530700  0.061300  1.0  0.0584
  C  C77  1  0.799200  0.354100  0.273100  1.0  0.1244
  C  C78  1  0.107400  0.261500  0.780300  1.0  0.6919
  C  C79  1  0.088600  0.340600  0.663400  1.0  0.0107
  C  C80  1  0.966200  0.315700  0.657700  1.0  0.0107
  N  N81  1  0.340400  0.205000  0.998700  1.0  -0.6575
  N  N82  1  0.363900  0.424200  0.303700  1.0  -0.681
  N  N83  1  0.450600  0.317400  0.612600  1.0  -0.471
  N  N84  1  0.364900  0.494100  0.688700  1.0  -0.4207
  N  N85  1  0.795000  0.135400  0.998700  1.0  -0.6625
  N  N86  1  0.575800  0.939700  0.303700  1.0  -0.6723
  N  N87  1  0.682600  0.133200  0.612600  1.0  -0.4718
  N  N88  1  0.505900  0.870800  0.688700  1.0  -0.4213
  N  N89  1  0.864600  0.659600  0.998700  1.0  -0.6595
  N  N90  1  0.060300  0.636100  0.303700  1.0  -0.6768
  N  N91  1  0.866800  0.549400  0.612600  1.0  -0.4714
  N  N92  1  0.129200  0.635100  0.688700  1.0  -0.4217
  N  N93  1  0.659600  0.795000  0.498700  1.0  -0.6585
  N  N94  1  0.636100  0.575800  0.803700  1.0  -0.6758
  N  N95  1  0.549400  0.682600  0.112600  1.0  -0.471
  N  N96  1  0.635100  0.505900  0.188700  1.0  -0.4209
  N  N97  1  0.205000  0.864600  0.498700  1.0  -0.66
  N  N98  1  0.424200  0.060300  0.803700  1.0  -0.6734
  N  N99  1  0.317400  0.866800  0.112600  1.0  -0.4722
  N  N100  1  0.494100  0.129200  0.188700  1.0  -0.4223
  N  N101  1  0.135400  0.340400  0.498700  1.0  -0.6609
  N  N102  1  0.939700  0.363900  0.803700  1.0  -0.6764
  N  N103  1  0.133200  0.450600  0.112600  1.0  -0.472
  N  N104  1  0.870800  0.364900  0.188700  1.0  -0.4213
  O  O105  1  0.225900  0.176900  0.406700  1.0  -0.5771
  O  O106  1  0.239700  0.053300  0.245300  1.0  -0.6131
  O  O107  1  0.823100  0.049000  0.406700  1.0  -0.5771
  O  O108  1  0.946700  0.186400  0.245300  1.0  -0.6125
  O  O109  1  0.951000  0.774100  0.406700  1.0  -0.5777
  O  O110  1  0.813600  0.760300  0.245300  1.0  -0.6123
  O  O111  1  0.774100  0.823100  0.906700  1.0  -0.5771
  O  O112  1  0.760300  0.946700  0.745300  1.0  -0.6125
  O  O113  1  0.176900  0.951000  0.906700  1.0  -0.5764
  O  O114  1  0.053300  0.813600  0.745300  1.0  -0.6118
  O  O115  1  0.049000  0.225900  0.906700  1.0  -0.5777
  O  O116  1  0.186400  0.239700  0.745300  1.0  -0.6137
