# generated using pymatgen
data_Mn3CrH21C15(N2O)6
_symmetry_space_group_name_H-M   'P 1'
_cell_length_a   13.55760000
_cell_length_b   13.55760000
_cell_length_c   8.09940000
_cell_angle_alpha   90.00000000
_cell_angle_beta   90.00000000
_cell_angle_gamma   120.00000000
_symmetry_Int_Tables_number   1
_chemical_formula_structural   Mn3CrH21C15(N2O)6
_chemical_formula_sum   'Mn6 Cr2 H42 C30 N24 O12'
_cell_volume   1289.28554137
_cell_formula_units_Z   2
loop_
 _symmetry_equiv_pos_site_id
 _symmetry_equiv_pos_as_xyz
  1  'x, y, z'
loop_
 _atom_site_type_symbol
 _atom_site_label
 _atom_site_symmetry_multiplicity
 _atom_site_fract_x
 _atom_site_fract_y
 _atom_site_fract_z
 _atom_site_occupancy
 _atom_site_charge
  Mn  Mn1  1  0.295730  0.331900  0.544150  1.0  0.936
  Mn  Mn2  1  0.668100  0.963830  0.544150  1.0  0.9359
  Mn  Mn3  1  0.036170  0.704270  0.544150  1.0  0.935
  Mn  Mn4  1  0.704270  0.668100  0.044150  1.0  0.9361
  Mn  Mn5  1  0.331900  0.036170  0.044150  1.0  0.9362
  Mn  Mn6  1  0.963830  0.295730  0.044150  1.0  0.936
  Cr  Cr7  1  0.333333  0.666667  0.923800  1.0  0.3425
  Cr  Cr8  1  0.666667  0.333333  0.423800  1.0  0.3425
  H  H9  1  0.404100  0.254500  0.944900  1.0  0.3049
  H  H10  1  0.279700  0.196600  0.940700  1.0  0.3165
  H  H11  1  0.417000  0.284400  0.208600  1.0  0.0791
  H  H12  1  0.346800  0.480300  0.297700  1.0  0.305
  H  H13  1  0.439000  0.454900  0.303300  1.0  0.3028
  H  H14  1  0.347300  0.393300  0.059200  1.0  0.0782
  H  H15  1  0.233000  0.318400  0.155500  1.0  0.0847
  H  H16  1  0.745500  0.149600  0.944900  1.0  0.3128
  H  H17  1  0.803400  0.083100  0.940700  1.0  0.3146
  H  H18  1  0.715600  0.132600  0.208600  1.0  0.0796
  H  H19  1  0.519700  0.866500  0.297700  1.0  0.3061
  H  H20  1  0.545100  0.984100  0.303300  1.0  0.2983
  H  H21  1  0.606700  0.954000  0.059200  1.0  0.0782
  H  H22  1  0.681600  0.914600  0.155500  1.0  0.086
  H  H23  1  0.850400  0.595900  0.944900  1.0  0.3036
  H  H24  1  0.916900  0.720300  0.940700  1.0  0.3171
  H  H25  1  0.867400  0.583000  0.208600  1.0  0.08
  H  H26  1  0.133500  0.653200  0.297700  1.0  0.3024
  H  H27  1  0.015900  0.561000  0.303300  1.0  0.2992
  H  H28  1  0.046000  0.652700  0.059200  1.0  0.0788
  H  H29  1  0.085400  0.767000  0.155500  1.0  0.0847
  H  H30  1  0.595900  0.745500  0.444900  1.0  0.3051
  H  H31  1  0.720300  0.803400  0.440700  1.0  0.3182
  H  H32  1  0.583000  0.715600  0.708600  1.0  0.078
  H  H33  1  0.653200  0.519700  0.797700  1.0  0.3054
  H  H34  1  0.561000  0.545100  0.803300  1.0  0.3028
  H  H35  1  0.652700  0.606700  0.559200  1.0  0.0786
  H  H36  1  0.767000  0.681600  0.655500  1.0  0.0834
  H  H37  1  0.254500  0.850400  0.444900  1.0  0.3125
  H  H38  1  0.196600  0.916900  0.440700  1.0  0.3153
  H  H39  1  0.284400  0.867400  0.708600  1.0  0.0798
  H  H40  1  0.480300  0.133500  0.797700  1.0  0.3051
  H  H41  1  0.454900  0.015900  0.803300  1.0  0.3001
  H  H42  1  0.393300  0.046000  0.559200  1.0  0.0788
  H  H43  1  0.318400  0.085400  0.655500  1.0  0.0839
  H  H44  1  0.149600  0.404100  0.444900  1.0  0.3052
  H  H45  1  0.083100  0.279700  0.440700  1.0  0.3166
  H  H46  1  0.132600  0.417000  0.708600  1.0  0.0793
  H  H47  1  0.866500  0.346800  0.797700  1.0  0.3072
  H  H48  1  0.984100  0.439000  0.803300  1.0  0.3008
  H  H49  1  0.954000  0.347300  0.559200  1.0  0.0778
  H  H50  1  0.914600  0.233000  0.655500  1.0  0.0842
  C  C51  1  0.530800  0.320300  0.560600  1.0  0.0626
  C  C52  1  0.353000  0.554600  0.773000  1.0  0.1211
  C  C53  1  0.261400  0.154600  0.280500  1.0  0.703
  C  C54  1  0.339600  0.252500  0.164700  1.0  0.0138
  C  C55  1  0.314800  0.349000  0.158900  1.0  0.0078
  C  C56  1  0.679700  0.210500  0.560600  1.0  0.0623
  C  C57  1  0.445400  0.798400  0.773000  1.0  0.1205
  C  C58  1  0.845400  0.106800  0.280500  1.0  0.7003
  C  C59  1  0.747500  0.087100  0.164700  1.0  0.0136
  C  C60  1  0.651000  0.965800  0.158900  1.0  0.0039
  C  C61  1  0.789500  0.469200  0.560600  1.0  0.0633
  C  C62  1  0.201600  0.647000  0.773000  1.0  0.1212
  C  C63  1  0.893200  0.738600  0.280500  1.0  0.7018
  C  C64  1  0.912900  0.660400  0.164700  1.0  0.0115
  C  C65  1  0.034200  0.685200  0.158900  1.0  0.0074
  C  C66  1  0.469200  0.679700  0.060600  1.0  0.0638
  C  C67  1  0.647000  0.445400  0.273000  1.0  0.1199
  C  C68  1  0.738600  0.845400  0.780500  1.0  0.7014
  C  C69  1  0.660400  0.747500  0.664700  1.0  0.0136
  C  C70  1  0.685200  0.651000  0.658900  1.0  0.0067
  C  C71  1  0.320300  0.789500  0.060600  1.0  0.063
  C  C72  1  0.554600  0.201600  0.273000  1.0  0.1209
  C  C73  1  0.154600  0.893200  0.780500  1.0  0.7008
  C  C74  1  0.252500  0.912900  0.664700  1.0  0.0133
  C  C75  1  0.349000  0.034200  0.658900  1.0  0.0062
  C  C76  1  0.210500  0.530800  0.060600  1.0  0.0611
  C  C77  1  0.798400  0.353000  0.273000  1.0  0.1214
  C  C78  1  0.106800  0.261400  0.780500  1.0  0.702
  C  C79  1  0.087100  0.339600  0.664700  1.0  0.0116
  C  C80  1  0.965800  0.314800  0.658900  1.0  0.0076
  N  N81  1  0.340100  0.206600  0.000000  1.0  -0.6615
  N  N82  1  0.362700  0.423500  0.304500  1.0  -0.6816
  N  N83  1  0.451300  0.318800  0.610900  1.0  -0.4716
  N  N84  1  0.363400  0.493300  0.689600  1.0  -0.4217
  N  N85  1  0.793400  0.133500  0.000000  1.0  -0.6636
  N  N86  1  0.576500  0.939200  0.304500  1.0  -0.6764
  N  N87  1  0.681200  0.132500  0.610900  1.0  -0.4716
  N  N88  1  0.506700  0.870100  0.689600  1.0  -0.4225
  N  N89  1  0.866500  0.659900  0.000000  1.0  -0.6628
  N  N90  1  0.060800  0.637300  0.304500  1.0  -0.6786
  N  N91  1  0.867500  0.548700  0.610900  1.0  -0.4711
  N  N92  1  0.129900  0.636600  0.689600  1.0  -0.423
  N  N93  1  0.659900  0.793400  0.500000  1.0  -0.6618
  N  N94  1  0.637300  0.576500  0.804500  1.0  -0.6797
  N  N95  1  0.548700  0.681200  0.110900  1.0  -0.4724
  N  N96  1  0.636600  0.506700  0.189600  1.0  -0.4217
  N  N97  1  0.206600  0.866500  0.500000  1.0  -0.6646
  N  N98  1  0.423500  0.060800  0.804500  1.0  -0.6755
  N  N99  1  0.318800  0.867500  0.110900  1.0  -0.4727
  N  N100  1  0.493300  0.129900  0.189600  1.0  -0.4236
  N  N101  1  0.133500  0.340100  0.500000  1.0  -0.6636
  N  N102  1  0.939200  0.362700  0.804500  1.0  -0.6797
  N  N103  1  0.132500  0.451300  0.110900  1.0  -0.4713
  N  N104  1  0.870100  0.363400  0.189600  1.0  -0.4231
  O  O105  1  0.226200  0.176700  0.407100  1.0  -0.5803
  O  O106  1  0.239700  0.054400  0.245200  1.0  -0.6107
  O  O107  1  0.823300  0.049500  0.407100  1.0  -0.58
  O  O108  1  0.945600  0.185300  0.245200  1.0  -0.6088
  O  O109  1  0.950500  0.773800  0.407100  1.0  -0.5818
  O  O110  1  0.814700  0.760300  0.245200  1.0  -0.6092
  O  O111  1  0.773800  0.823300  0.907100  1.0  -0.5811
  O  O112  1  0.760300  0.945600  0.745200  1.0  -0.6099
  O  O113  1  0.176700  0.950500  0.907100  1.0  -0.5803
  O  O114  1  0.054400  0.814700  0.745200  1.0  -0.6088
  O  O115  1  0.049500  0.226200  0.907100  1.0  -0.5818
  O  O116  1  0.185300  0.239700  0.745200  1.0  -0.6099
