# generated using pymatgen
data_Mn3CrH21C15(N2O)6
_symmetry_space_group_name_H-M   'P 1'
_cell_length_a   13.54160000
_cell_length_b   13.54160000
_cell_length_c   8.11400000
_cell_angle_alpha   90.00000000
_cell_angle_beta   90.00000000
_cell_angle_gamma   120.00000000
_symmetry_Int_Tables_number   1
_chemical_formula_structural   Mn3CrH21C15(N2O)6
_chemical_formula_sum   'Mn6 Cr2 H42 C30 N24 O12'
_cell_volume   1288.56282396
_cell_formula_units_Z   2
loop_
 _symmetry_equiv_pos_site_id
 _symmetry_equiv_pos_as_xyz
  1  'x, y, z'
loop_
 _atom_site_type_symbol
 _atom_site_label
 _atom_site_symmetry_multiplicity
 _atom_site_fract_x
 _atom_site_fract_y
 _atom_site_fract_z
 _atom_site_occupancy
 _atom_site_charge
  Mn  Mn1  1  0.295300  0.331420  0.544250  1.0  0.9259
  Mn  Mn2  1  0.668580  0.963880  0.544250  1.0  0.9253
  Mn  Mn3  1  0.036120  0.704700  0.544250  1.0  0.9255
  Mn  Mn4  1  0.704700  0.668580  0.044250  1.0  0.9267
  Mn  Mn5  1  0.331420  0.036120  0.044250  1.0  0.9261
  Mn  Mn6  1  0.963880  0.295300  0.044250  1.0  0.9253
  Cr  Cr7  1  0.333333  0.666667  0.923500  1.0  0.3387
  Cr  Cr8  1  0.666667  0.333333  0.423500  1.0  0.3387
  H  H9  1  0.403700  0.254100  0.945500  1.0  0.3045
  H  H10  1  0.279200  0.196100  0.941100  1.0  0.3189
  H  H11  1  0.416500  0.284100  0.208100  1.0  0.0783
  H  H12  1  0.346200  0.480200  0.297900  1.0  0.3071
  H  H13  1  0.438700  0.455000  0.303400  1.0  0.2761
  H  H14  1  0.346900  0.393600  0.061100  1.0  0.0772
  H  H15  1  0.232800  0.318600  0.157500  1.0  0.0881
  H  H16  1  0.745900  0.149600  0.945500  1.0  0.3113
  H  H17  1  0.803900  0.083100  0.941100  1.0  0.3178
  H  H18  1  0.715900  0.132400  0.208100  1.0  0.0786
  H  H19  1  0.519800  0.866000  0.297900  1.0  0.3078
  H  H20  1  0.545000  0.983700  0.303400  1.0  0.2715
  H  H21  1  0.606400  0.953300  0.061100  1.0  0.0774
  H  H22  1  0.681400  0.914200  0.157500  1.0  0.0888
  H  H23  1  0.850400  0.596300  0.945500  1.0  0.3033
  H  H24  1  0.916900  0.720800  0.941100  1.0  0.3204
  H  H25  1  0.867600  0.583500  0.208100  1.0  0.0788
  H  H26  1  0.134000  0.653800  0.297900  1.0  0.3046
  H  H27  1  0.016300  0.561300  0.303400  1.0  0.2759
  H  H28  1  0.046700  0.653100  0.061100  1.0  0.0779
  H  H29  1  0.085800  0.767200  0.157500  1.0  0.0885
  H  H30  1  0.596300  0.745900  0.445500  1.0  0.3028
  H  H31  1  0.720800  0.803900  0.441100  1.0  0.3213
  H  H32  1  0.583500  0.715900  0.708100  1.0  0.0775
  H  H33  1  0.653800  0.519800  0.797900  1.0  0.307
  H  H34  1  0.561300  0.545000  0.803400  1.0  0.275
  H  H35  1  0.653100  0.606400  0.561100  1.0  0.078
  H  H36  1  0.767200  0.681400  0.657500  1.0  0.0875
  H  H37  1  0.254100  0.850400  0.445500  1.0  0.3111
  H  H38  1  0.196100  0.916900  0.441100  1.0  0.3184
  H  H39  1  0.284100  0.867600  0.708100  1.0  0.0785
  H  H40  1  0.480200  0.134000  0.797900  1.0  0.3072
  H  H41  1  0.455000  0.016300  0.803400  1.0  0.272
  H  H42  1  0.393600  0.046700  0.561100  1.0  0.0776
  H  H43  1  0.318600  0.085800  0.657500  1.0  0.0873
  H  H44  1  0.149600  0.403700  0.445500  1.0  0.3046
  H  H45  1  0.083100  0.279200  0.441100  1.0  0.3193
  H  H46  1  0.132400  0.416500  0.708100  1.0  0.0784
  H  H47  1  0.866000  0.346200  0.797900  1.0  0.3091
  H  H48  1  0.983700  0.438700  0.803400  1.0  0.2744
  H  H49  1  0.953300  0.346900  0.561100  1.0  0.0771
  H  H50  1  0.914200  0.232800  0.657500  1.0  0.0882
  C  C51  1  0.530900  0.320400  0.560700  1.0  0.0618
  C  C52  1  0.352800  0.553800  0.773200  1.0  0.124
  C  C53  1  0.261100  0.154000  0.280800  1.0  0.7079
  C  C54  1  0.339000  0.252300  0.164600  1.0  0.0166
  C  C55  1  0.314600  0.349200  0.160500  1.0  0.0124
  C  C56  1  0.679600  0.210500  0.560700  1.0  0.0616
  C  C57  1  0.446200  0.799000  0.773200  1.0  0.1238
  C  C58  1  0.846000  0.107100  0.280800  1.0  0.7054
  C  C59  1  0.747700  0.086700  0.164600  1.0  0.0164
  C  C60  1  0.650800  0.965400  0.160500  1.0  0.0085
  C  C61  1  0.789500  0.469100  0.560700  1.0  0.0627
  C  C62  1  0.201000  0.647200  0.773200  1.0  0.1246
  C  C63  1  0.892900  0.738900  0.280800  1.0  0.7063
  C  C64  1  0.913300  0.661000  0.164600  1.0  0.0144
  C  C65  1  0.034600  0.685400  0.160500  1.0  0.0118
  C  C66  1  0.469100  0.679600  0.060700  1.0  0.063
  C  C67  1  0.647200  0.446200  0.273200  1.0  0.1236
  C  C68  1  0.738900  0.846000  0.780800  1.0  0.7061
  C  C69  1  0.661000  0.747700  0.664600  1.0  0.0168
  C  C70  1  0.685400  0.650800  0.660500  1.0  0.0114
  C  C71  1  0.320400  0.789500  0.060700  1.0  0.0621
  C  C72  1  0.553800  0.201000  0.273200  1.0  0.1243
  C  C73  1  0.154000  0.892900  0.780800  1.0  0.7056
  C  C74  1  0.252300  0.913300  0.664600  1.0  0.0159
  C  C75  1  0.349200  0.034600  0.660500  1.0  0.0117
  C  C76  1  0.210500  0.530900  0.060700  1.0  0.0601
  C  C77  1  0.799000  0.352800  0.273200  1.0  0.1248
  C  C78  1  0.107100  0.261100  0.780800  1.0  0.7061
  C  C79  1  0.086700  0.339000  0.664600  1.0  0.0147
  C  C80  1  0.965400  0.314600  0.660500  1.0  0.0133
  N  N81  1  0.339700  0.206200  0.000500  1.0  -0.6586
  N  N82  1  0.362400  0.423400  0.304700  1.0  -0.6786
  N  N83  1  0.451200  0.318500  0.611600  1.0  -0.4727
  N  N84  1  0.362600  0.493200  0.690200  1.0  -0.4151
  N  N85  1  0.793800  0.133500  0.000500  1.0  -0.6605
  N  N86  1  0.576600  0.939000  0.304700  1.0  -0.673
  N  N87  1  0.681500  0.132700  0.611600  1.0  -0.473
  N  N88  1  0.506800  0.869400  0.690200  1.0  -0.416
  N  N89  1  0.866500  0.660300  0.000500  1.0  -0.6595
  N  N90  1  0.061000  0.637600  0.304700  1.0  -0.6761
  N  N91  1  0.867300  0.548800  0.611600  1.0  -0.4726
  N  N92  1  0.130600  0.637400  0.690200  1.0  -0.4157
  N  N93  1  0.660300  0.793800  0.500500  1.0  -0.6587
  N  N94  1  0.637600  0.576600  0.804700  1.0  -0.6762
  N  N95  1  0.548800  0.681500  0.111600  1.0  -0.4731
  N  N96  1  0.637400  0.506800  0.190200  1.0  -0.4145
  N  N97  1  0.206200  0.866500  0.500500  1.0  -0.6619
  N  N98  1  0.423400  0.061000  0.804700  1.0  -0.673
  N  N99  1  0.318500  0.867300  0.111600  1.0  -0.4743
  N  N100  1  0.493200  0.130600  0.190200  1.0  -0.4164
  N  N101  1  0.133500  0.339700  0.500500  1.0  -0.6606
  N  N102  1  0.939000  0.362400  0.804700  1.0  -0.6766
  N  N103  1  0.132700  0.451200  0.111600  1.0  -0.4723
  N  N104  1  0.869400  0.362600  0.190200  1.0  -0.4158
  O  O105  1  0.226400  0.176300  0.407500  1.0  -0.5788
  O  O106  1  0.237900  0.054100  0.244300  1.0  -0.607
  O  O107  1  0.823700  0.050100  0.407500  1.0  -0.5783
  O  O108  1  0.945900  0.183800  0.244300  1.0  -0.6053
  O  O109  1  0.949900  0.773600  0.407500  1.0  -0.58
  O  O110  1  0.816200  0.762100  0.244300  1.0  -0.6053
  O  O111  1  0.773600  0.823700  0.907500  1.0  -0.5793
  O  O112  1  0.762100  0.945900  0.744300  1.0  -0.6054
  O  O113  1  0.176300  0.949900  0.907500  1.0  -0.5789
  O  O114  1  0.054100  0.816200  0.744300  1.0  -0.6054
  O  O115  1  0.050100  0.226400  0.907500  1.0  -0.58
  O  O116  1  0.183800  0.237900  0.744300  1.0  -0.6064
