# generated using pymatgen
data_Cu2H20W(C7N3)4
_symmetry_space_group_name_H-M   'P 1'
_cell_length_a   12.54770000
_cell_length_b   15.38930000
_cell_length_c   15.38930000
_cell_angle_alpha   80.43300000
_cell_angle_beta   65.94100000
_cell_angle_gamma   65.94100000
_symmetry_Int_Tables_number   1
_chemical_formula_structural   Cu2H20W(C7N3)4
_chemical_formula_sum   'Cu4 H40 W2 C56 N24'
_cell_volume   2477.78379433
_cell_formula_units_Z   2
loop_
 _symmetry_equiv_pos_site_id
 _symmetry_equiv_pos_as_xyz
  1  'x, y, z'
loop_
 _atom_site_type_symbol
 _atom_site_label
 _atom_site_symmetry_multiplicity
 _atom_site_fract_x
 _atom_site_fract_y
 _atom_site_fract_z
 _atom_site_occupancy
 _atom_site_charge
  Cu  Cu1  1  0.500000  0.000000  0.000000  1.0  0.7344
  Cu  Cu2  1  0.000000  0.500000  0.500000  1.0  0.7344
  Cu  Cu3  1  0.500000  0.000000  0.500000  1.0  0.7344
  Cu  Cu4  1  0.500000  0.500000  0.000000  1.0  0.7344
  H  H5  1  0.566500  0.046400  0.786800  1.0  0.0873
  H  H6  1  0.321400  0.207600  0.012400  1.0  0.09
  H  H7  1  0.273800  0.338500  0.916100  1.0  0.1149
  H  H8  1  0.371200  0.322300  0.752300  1.0  0.116
  H  H9  1  0.520700  0.172200  0.687000  1.0  0.1191
  H  H10  1  0.899700  0.453600  0.713200  1.0  0.0881
  H  H11  1  0.041400  0.292400  0.487600  1.0  0.0907
  H  H12  1  0.028400  0.161500  0.583900  1.0  0.1162
  H  H13  1  0.945800  0.177700  0.747700  1.0  0.1159
  H  H14  1  0.879900  0.327800  0.813000  1.0  0.1194
  H  H15  1  0.353300  0.213200  0.546400  1.0  0.0865
  H  H16  1  0.333800  0.987600  0.707600  1.0  0.0896
  H  H17  1  0.189900  0.083900  0.838500  1.0  0.1162
  H  H18  1  0.123500  0.247700  0.822300  1.0  0.1163
  H  H19  1  0.207700  0.313000  0.672200  1.0  0.1176
  H  H20  1  0.612900  0.286800  0.953600  1.0  0.0871
  H  H21  1  0.529000  0.512400  0.792400  1.0  0.0892
  H  H22  1  0.612300  0.416100  0.661500  1.0  0.1153
  H  H23  1  0.693500  0.252300  0.677700  1.0  0.1158
  H  H24  1  0.692900  0.187000  0.827800  1.0  0.1177
  H  H25  1  0.433500  0.953600  0.213200  1.0  0.0874
  H  H26  1  0.678600  0.792400  0.987600  1.0  0.0897
  H  H27  1  0.726200  0.661500  0.083900  1.0  0.1161
  H  H28  1  0.628800  0.677700  0.247700  1.0  0.1161
  H  H29  1  0.479300  0.827800  0.313000  1.0  0.1186
  H  H30  1  0.100300  0.546400  0.286800  1.0  0.088
  H  H31  1  0.958600  0.707600  0.512400  1.0  0.0905
  H  H32  1  0.971600  0.838500  0.416100  1.0  0.1159
  H  H33  1  0.054200  0.822300  0.252300  1.0  0.1165
  H  H34  1  0.120100  0.672200  0.187000  1.0  0.1191
  H  H35  1  0.646700  0.786800  0.453600  1.0  0.0869
  H  H36  1  0.666200  0.012400  0.292400  1.0  0.0894
  H  H37  1  0.810100  0.916100  0.161500  1.0  0.1157
  H  H38  1  0.876500  0.752300  0.177700  1.0  0.1159
  H  H39  1  0.792300  0.687000  0.327800  1.0  0.119
  H  H40  1  0.387100  0.713200  0.046400  1.0  0.0872
  H  H41  1  0.471000  0.487600  0.207600  1.0  0.0896
  H  H42  1  0.387700  0.583900  0.338500  1.0  0.1155
  H  H43  1  0.306500  0.747700  0.322300  1.0  0.1159
  H  H44  1  0.307100  0.813000  0.172200  1.0  0.1174
  W  W45  1  0.625000  0.750000  0.750000  1.0  0.1773
  W  W46  1  0.375000  0.250000  0.250000  1.0  0.1775
  C  C47  1  0.567600  0.855500  0.850100  1.0  0.168
  C  C48  1  0.505700  0.106400  0.814000  1.0  0.1613
  C  C49  1  0.762000  0.690000  0.818000  1.0  0.158
  C  C50  1  0.363500  0.200300  0.945300  1.0  0.151
  C  C51  1  0.333900  0.278600  0.888200  1.0  -0.129
  C  C52  1  0.391000  0.269300  0.792500  1.0  -0.1201
  C  C53  1  0.479300  0.180700  0.754100  1.0  -0.1571
  C  C54  1  0.773200  0.644500  0.649900  1.0  0.1675
  C  C55  1  0.926100  0.393600  0.686000  1.0  0.1633
  C  C56  1  0.770000  0.810000  0.682000  1.0  0.1551
  C  C57  1  0.009100  0.299700  0.554700  1.0  0.1516
  C  C58  1  0.000700  0.221400  0.611800  1.0  -0.1249
  C  C59  1  0.952800  0.230700  0.707500  1.0  -0.1215
  C  C60  1  0.914100  0.319300  0.745900  1.0  -0.1575
  C  C61  1  0.417700  0.149900  0.355500  1.0  0.1693
  C  C62  1  0.319700  0.186000  0.606400  1.0  0.1639
  C  C63  1  0.580000  0.182000  0.190000  1.0  0.1555
  C  C64  1  0.308800  0.054700  0.700300  1.0  0.151
  C  C65  1  0.222100  0.111800  0.778600  1.0  -0.1279
  C  C66  1  0.183500  0.207500  0.769300  1.0  -0.122
  C  C67  1  0.233400  0.245900  0.680700  1.0  -0.1555
  C  C68  1  0.423100  0.350100  0.144500  1.0  0.1658
  C  C69  1  0.612100  0.314000  0.893600  1.0  0.1641
  C  C70  1  0.452000  0.318000  0.310000  1.0  0.1531
  C  C71  1  0.563800  0.445300  0.799700  1.0  0.1497
  C  C72  1  0.612500  0.388200  0.721400  1.0  -0.1218
  C  C73  1  0.660300  0.292500  0.730700  1.0  -0.1217
  C  C74  1  0.660000  0.254100  0.819300  1.0  -0.1556
  C  C75  1  0.432400  0.144500  0.149900  1.0  0.1671
  C  C76  1  0.494300  0.893600  0.186000  1.0  0.1619
  C  C77  1  0.238000  0.310000  0.182000  1.0  0.1591
  C  C78  1  0.636500  0.799700  0.054700  1.0  0.1511
  C  C79  1  0.666100  0.721400  0.111800  1.0  -0.1275
  C  C80  1  0.609000  0.730700  0.207500  1.0  -0.1189
  C  C81  1  0.520700  0.819300  0.245900  1.0  -0.1582
  C  C82  1  0.226800  0.355500  0.350100  1.0  0.1662
  C  C83  1  0.073900  0.606400  0.314000  1.0  0.1629
  C  C84  1  0.230000  0.190000  0.318000  1.0  0.1572
  C  C85  1  0.990900  0.700300  0.445300  1.0  0.1502
  C  C86  1  0.999300  0.778600  0.388200  1.0  -0.1228
  C  C87  1  0.047200  0.769300  0.292500  1.0  -0.1206
  C  C88  1  0.085900  0.680700  0.254100  1.0  -0.1573
  C  C89  1  0.582300  0.850100  0.644500  1.0  0.1677
  C  C90  1  0.680300  0.814000  0.393600  1.0  0.1635
  C  C91  1  0.420000  0.818000  0.810000  1.0  0.1557
  C  C92  1  0.691200  0.945300  0.299700  1.0  0.1497
  C  C93  1  0.777900  0.888200  0.221400  1.0  -0.1243
  C  C94  1  0.816500  0.792500  0.230700  1.0  -0.1214
  C  C95  1  0.766600  0.754100  0.319300  1.0  -0.1548
  C  C96  1  0.576900  0.649900  0.855500  1.0  0.1665
  C  C97  1  0.387900  0.686000  0.106400  1.0  0.1639
  C  C98  1  0.548000  0.682000  0.690000  1.0  0.1531
  C  C99  1  0.436200  0.554700  0.200300  1.0  0.1506
  C  C100  1  0.387500  0.611800  0.278600  1.0  -0.1213
  C  C101  1  0.339700  0.707500  0.269300  1.0  -0.1204
  C  C102  1  0.340000  0.745900  0.180700  1.0  -0.1553
  N  N103  1  0.449900  0.113500  0.909700  1.0  -0.3433
  N  N104  1  0.537900  0.911100  0.905500  1.0  -0.395
  N  N105  1  0.834100  0.660500  0.855300  1.0  -0.4387
  N  N106  1  0.973100  0.386500  0.590300  1.0  -0.3409
  N  N107  1  0.854500  0.588900  0.594500  1.0  -0.3938
  N  N108  1  0.849900  0.839500  0.644700  1.0  -0.4377
  N  N109  1  0.359600  0.090300  0.613500  1.0  -0.3435
  N  N110  1  0.443400  0.094500  0.411100  1.0  -0.3914
  N  N111  1  0.689400  0.144700  0.160500  1.0  -0.4372
  N  N112  1  0.563400  0.409700  0.886500  1.0  -0.3463
  N  N113  1  0.449000  0.405500  0.088900  1.0  -0.3938
  N  N114  1  0.494600  0.355300  0.339500  1.0  -0.4393
  N  N115  1  0.550100  0.886500  0.090300  1.0  -0.342
  N  N116  1  0.462100  0.088900  0.094500  1.0  -0.3934
  N  N117  1  0.165900  0.339500  0.144700  1.0  -0.4362
  N  N118  1  0.026900  0.613500  0.409700  1.0  -0.3429
  N  N119  1  0.145500  0.411100  0.405500  1.0  -0.3929
  N  N120  1  0.150100  0.160500  0.355300  1.0  -0.4329
  N  N121  1  0.640400  0.909700  0.386500  1.0  -0.3435
  N  N122  1  0.556600  0.905500  0.588900  1.0  -0.3928
  N  N123  1  0.310600  0.855300  0.839500  1.0  -0.4345
  N  N124  1  0.436600  0.590300  0.113500  1.0  -0.3503
  N  N125  1  0.551000  0.594500  0.911100  1.0  -0.3914
  N  N126  1  0.505400  0.644700  0.660500  1.0  -0.4352
