# generated using pymatgen
data_Cu3P4H14(C7O12)2
_symmetry_space_group_name_H-M   'P 1'
_cell_length_a   16.13400000
_cell_length_b   16.13400000
_cell_length_c   4.54890000
_cell_angle_alpha   90.00000000
_cell_angle_beta   90.00000000
_cell_angle_gamma   90.00000000
_symmetry_Int_Tables_number   1
_chemical_formula_structural   Cu3P4H14(C7O12)2
_chemical_formula_sum   'Cu6 P8 H28 C28 O48'
_cell_volume   1184.10576325
_cell_formula_units_Z   2
loop_
 _symmetry_equiv_pos_site_id
 _symmetry_equiv_pos_as_xyz
  1  'x, y, z'
loop_
 _atom_site_type_symbol
 _atom_site_label
 _atom_site_symmetry_multiplicity
 _atom_site_fract_x
 _atom_site_fract_y
 _atom_site_fract_z
 _atom_site_occupancy
 _atom_site_charge
  Cu  Cu1  1  0.199060  0.538580  0.501600  1.0  0.8322
  Cu  Cu2  1  0.800940  0.461420  0.501600  1.0  0.8348
  Cu  Cu3  1  0.538580  0.800940  0.498400  1.0  0.8295
  Cu  Cu4  1  0.461420  0.199060  0.498400  1.0  0.8239
  Cu  Cu5  1  0.500000  0.000000  0.500500  1.0  0.8621
  Cu  Cu6  1  0.000000  0.500000  0.499500  1.0  0.8626
  P  P7  1  0.159280  0.664620  0.998000  1.0  1.3546
  P  P8  1  0.424880  0.884500  0.999500  1.0  1.3751
  P  P9  1  0.840720  0.335380  0.998000  1.0  1.338
  P  P10  1  0.575120  0.115500  0.999500  1.0  1.3758
  P  P11  1  0.664620  0.840720  0.002000  1.0  1.3482
  P  P12  1  0.884500  0.575120  0.000500  1.0  1.3665
  P  P13  1  0.335380  0.159280  0.002000  1.0  1.3616
  P  P14  1  0.115500  0.424880  0.000500  1.0  1.3617
  H  H15  1  0.045500  0.654900  0.180800  1.0  0.2846
  H  H16  1  0.310600  0.752300  0.149400  1.0  0.2024
  H  H17  1  0.302500  0.958200  0.632000  1.0  0.2142
  H  H18  1  0.115900  0.795300  0.604700  1.0  0.1973
  H  H19  1  0.101000  0.913000  0.333900  1.0  0.1835
  H  H20  1  0.184400  0.946700  0.203700  1.0  0.1917
  H  H21  1  0.143100  0.991500  0.472000  1.0  0.1893
  H  H22  1  0.954500  0.345100  0.180800  1.0  0.285
  H  H23  1  0.689400  0.247700  0.149400  1.0  0.2
  H  H24  1  0.697500  0.041800  0.632000  1.0  0.2147
  H  H25  1  0.884100  0.204700  0.604700  1.0  0.1973
  H  H26  1  0.899000  0.087000  0.333900  1.0  0.1864
  H  H27  1  0.815600  0.053300  0.203700  1.0  0.1939
  H  H28  1  0.856900  0.008500  0.472000  1.0  0.1884
  H  H29  1  0.654900  0.954500  0.819200  1.0  0.2858
  H  H30  1  0.752300  0.689400  0.850600  1.0  0.201
  H  H31  1  0.958200  0.697500  0.368000  1.0  0.2151
  H  H32  1  0.795300  0.884100  0.395300  1.0  0.1976
  H  H33  1  0.913000  0.899000  0.666100  1.0  0.1847
  H  H34  1  0.946700  0.815600  0.796300  1.0  0.1926
  H  H35  1  0.991500  0.856900  0.528000  1.0  0.1881
  H  H36  1  0.345100  0.045500  0.819200  1.0  0.2847
  H  H37  1  0.247700  0.310600  0.850600  1.0  0.201
  H  H38  1  0.041800  0.302500  0.368000  1.0  0.2134
  H  H39  1  0.204700  0.115900  0.395300  1.0  0.1969
  H  H40  1  0.087000  0.101000  0.666100  1.0  0.184
  H  H41  1  0.053300  0.184400  0.796300  1.0  0.1922
  H  H42  1  0.008500  0.143100  0.528000  1.0  0.188
  C  C43  1  0.207200  0.760600  0.894000  1.0  -0.1129
  C  C44  1  0.283900  0.784000  0.007000  1.0  -0.0054
  C  C45  1  0.320000  0.858600  0.897000  1.0  -0.1432
  C  C46  1  0.278600  0.908800  0.695000  1.0  -0.0274
  C  C47  1  0.200600  0.884400  0.587000  1.0  0.1227
  C  C48  1  0.166700  0.812000  0.681000  1.0  -0.0219
  C  C49  1  0.153000  0.938800  0.381000  1.0  -0.3136
  C  C50  1  0.792800  0.239400  0.894000  1.0  -0.116
  C  C51  1  0.716100  0.216000  0.007000  1.0  -0.0066
  C  C52  1  0.680000  0.141400  0.897000  1.0  -0.1457
  C  C53  1  0.721400  0.091200  0.695000  1.0  -0.0272
  C  C54  1  0.799400  0.115600  0.587000  1.0  0.1227
  C  C55  1  0.833300  0.188000  0.681000  1.0  -0.0228
  C  C56  1  0.847000  0.061200  0.381000  1.0  -0.315
  C  C57  1  0.760600  0.792800  0.106000  1.0  -0.1181
  C  C58  1  0.784000  0.716100  0.993000  1.0  -0.0049
  C  C59  1  0.858600  0.680000  0.103000  1.0  -0.1419
  C  C60  1  0.908800  0.721400  0.305000  1.0  -0.0285
  C  C61  1  0.884400  0.799400  0.413000  1.0  0.1222
  C  C62  1  0.812000  0.833300  0.319000  1.0  -0.0215
  C  C63  1  0.938800  0.847000  0.619000  1.0  -0.3143
  C  C64  1  0.239400  0.207200  0.106000  1.0  -0.1154
  C  C65  1  0.216000  0.283900  0.993000  1.0  -0.005
  C  C66  1  0.141400  0.320000  0.103000  1.0  -0.1426
  C  C67  1  0.091200  0.278600  0.305000  1.0  -0.028
  C  C68  1  0.115600  0.200600  0.413000  1.0  0.1223
  C  C69  1  0.188000  0.166700  0.319000  1.0  -0.0204
  C  C70  1  0.061200  0.153000  0.619000  1.0  -0.3139
  O  O71  1  0.078600  0.693300  0.173000  1.0  -0.3527
  O  O72  1  0.131900  0.618400  0.754000  1.0  -0.3323
  O  O73  1  0.219700  0.621300  0.205000  1.0  -0.5323
  O  O74  1  0.424000  0.963700  0.781000  1.0  -0.2572
  O  O75  1  0.476500  0.902300  0.272000  1.0  -0.2766
  O  O76  1  0.454900  0.810000  0.826000  1.0  -0.5908
  O  O77  1  0.221000  0.621000  0.782000  1.0  -0.5109
  O  O78  1  0.134000  0.609200  0.283000  1.0  -0.3667
  O  O79  1  0.081000  0.694000  0.852000  1.0  -0.3735
  O  O80  1  0.457300  0.805100  0.172000  1.0  -0.6172
  O  O81  1  0.477000  0.904000  0.758000  1.0  -0.2175
  O  O82  1  0.416200  0.961500  0.207000  1.0  -0.5133
  O  O83  1  0.921400  0.306700  0.173000  1.0  -0.3529
  O  O84  1  0.868100  0.381600  0.754000  1.0  -0.3328
  O  O85  1  0.780300  0.378700  0.205000  1.0  -0.53
  O  O86  1  0.576000  0.036300  0.781000  1.0  -0.2554
  O  O87  1  0.523500  0.097700  0.272000  1.0  -0.277
  O  O88  1  0.545100  0.190000  0.826000  1.0  -0.5938
  O  O89  1  0.779000  0.379000  0.782000  1.0  -0.5086
  O  O90  1  0.866000  0.390800  0.283000  1.0  -0.3666
  O  O91  1  0.919000  0.306000  0.852000  1.0  -0.3743
  O  O92  1  0.542700  0.194900  0.172000  1.0  -0.617
  O  O93  1  0.523000  0.096000  0.758000  1.0  -0.2159
  O  O94  1  0.583800  0.038500  0.207000  1.0  -0.5109
  O  O95  1  0.693300  0.921400  0.827000  1.0  -0.3538
  O  O96  1  0.618400  0.868100  0.246000  1.0  -0.3295
  O  O97  1  0.621300  0.780300  0.795000  1.0  -0.5333
  O  O98  1  0.963700  0.576000  0.219000  1.0  -0.2569
  O  O99  1  0.902300  0.523500  0.728000  1.0  -0.2756
  O  O100  1  0.810000  0.545100  0.174000  1.0  -0.5918
  O  O101  1  0.621000  0.779000  0.218000  1.0  -0.5152
  O  O102  1  0.609200  0.866000  0.717000  1.0  -0.3607
  O  O103  1  0.694000  0.919000  0.148000  1.0  -0.3754
  O  O104  1  0.805100  0.542700  0.828000  1.0  -0.6176
  O  O105  1  0.904000  0.523000  0.242000  1.0  -0.2183
  O  O106  1  0.961500  0.583800  0.793000  1.0  -0.5124
  O  O107  1  0.306700  0.078600  0.827000  1.0  -0.3524
  O  O108  1  0.381600  0.131900  0.246000  1.0  -0.3323
  O  O109  1  0.378700  0.219700  0.795000  1.0  -0.5285
  O  O110  1  0.036300  0.424000  0.219000  1.0  -0.2577
  O  O111  1  0.097700  0.476500  0.728000  1.0  -0.2751
  O  O112  1  0.190000  0.454900  0.174000  1.0  -0.5929
  O  O113  1  0.379000  0.221000  0.218000  1.0  -0.5177
  O  O114  1  0.390800  0.134000  0.717000  1.0  -0.3626
  O  O115  1  0.306000  0.081000  0.148000  1.0  -0.3751
  O  O116  1  0.194900  0.457300  0.828000  1.0  -0.6146
  O  O117  1  0.096000  0.477000  0.242000  1.0  -0.2178
  O  O118  1  0.038500  0.416200  0.793000  1.0  -0.5142
