# generated using pymatgen
data_Zn7H36(CN2)24
_symmetry_space_group_name_H-M   'P 1'
_cell_length_a   22.38190000
_cell_length_b   22.38190000
_cell_length_c   22.38190000
_cell_angle_alpha   90.00000000
_cell_angle_beta   90.00000000
_cell_angle_gamma   90.00000000
_symmetry_Int_Tables_number   1
_chemical_formula_structural   Zn7H36(CN2)24
_chemical_formula_sum   'Zn28 H144 C96 N192'
_cell_volume   11212.20044146
_cell_formula_units_Z   4
loop_
 _symmetry_equiv_pos_site_id
 _symmetry_equiv_pos_as_xyz
  1  'x, y, z'
loop_
 _atom_site_type_symbol
 _atom_site_label
 _atom_site_symmetry_multiplicity
 _atom_site_fract_x
 _atom_site_fract_y
 _atom_site_fract_z
 _atom_site_occupancy
 _atom_site_charge
  Zn  Zn1  1  0.500000  0.750000  0.875000  1.0  0.8051
  Zn  Zn2  1  0.000000  0.250000  0.375000  1.0  0.8051
  Zn  Zn3  1  0.500000  0.250000  0.625000  1.0  0.8051
  Zn  Zn4  1  0.000000  0.750000  0.125000  1.0  0.8051
  Zn  Zn5  1  0.875000  0.500000  0.750000  1.0  0.8051
  Zn  Zn6  1  0.375000  0.000000  0.250000  1.0  0.8051
  Zn  Zn7  1  0.625000  0.500000  0.250000  1.0  0.8051
  Zn  Zn8  1  0.125000  0.000000  0.750000  1.0  0.8051
  Zn  Zn9  1  0.750000  0.875000  0.500000  1.0  0.8051
  Zn  Zn10  1  0.250000  0.375000  0.000000  1.0  0.8051
  Zn  Zn11  1  0.250000  0.625000  0.500000  1.0  0.8051
  Zn  Zn12  1  0.750000  0.125000  0.000000  1.0  0.8051
  Zn  Zn13  1  0.696770  0.696770  0.696770  1.0  0.6461
  Zn  Zn14  1  0.196770  0.196770  0.196770  1.0  0.6461
  Zn  Zn15  1  0.803230  0.303230  0.196770  1.0  0.6452
  Zn  Zn16  1  0.303230  0.803230  0.696770  1.0  0.6452
  Zn  Zn17  1  0.303230  0.196770  0.803230  1.0  0.6455
  Zn  Zn18  1  0.803230  0.696770  0.303230  1.0  0.6455
  Zn  Zn19  1  0.196770  0.803230  0.303230  1.0  0.6454
  Zn  Zn20  1  0.696770  0.303230  0.803230  1.0  0.6454
  Zn  Zn21  1  0.946770  0.946770  0.946770  1.0  0.6461
  Zn  Zn22  1  0.446770  0.446770  0.446770  1.0  0.6461
  Zn  Zn23  1  0.553230  0.053230  0.446770  1.0  0.6452
  Zn  Zn24  1  0.053230  0.553230  0.946770  1.0  0.6452
  Zn  Zn25  1  0.446770  0.553230  0.053230  1.0  0.6454
  Zn  Zn26  1  0.946770  0.053230  0.553230  1.0  0.6454
  Zn  Zn27  1  0.053230  0.446770  0.553230  1.0  0.6455
  Zn  Zn28  1  0.553230  0.946770  0.053230  1.0  0.6455
  H  H29  1  0.633400  0.812800  0.740400  1.0  0.1396
  H  H30  1  0.566100  0.821500  0.757800  1.0  0.148
  H  H31  1  0.616000  0.827200  0.806700  1.0  0.1363
  H  H32  1  0.133400  0.312800  0.240400  1.0  0.1396
  H  H33  1  0.066100  0.321500  0.257800  1.0  0.148
  H  H34  1  0.116000  0.327200  0.306700  1.0  0.1363
  H  H35  1  0.866600  0.187200  0.240400  1.0  0.1392
  H  H36  1  0.933900  0.178500  0.257800  1.0  0.1531
  H  H37  1  0.884000  0.172800  0.306700  1.0  0.136
  H  H38  1  0.366600  0.687200  0.740400  1.0  0.1392
  H  H39  1  0.433900  0.678500  0.757800  1.0  0.1531
  H  H40  1  0.384000  0.672800  0.806700  1.0  0.136
  H  H41  1  0.366600  0.312800  0.759600  1.0  0.1383
  H  H42  1  0.433900  0.321500  0.742200  1.0  0.1537
  H  H43  1  0.384000  0.327200  0.693300  1.0  0.1355
  H  H44  1  0.866600  0.812800  0.259600  1.0  0.1383
  H  H45  1  0.933900  0.821500  0.242200  1.0  0.1537
  H  H46  1  0.884000  0.827200  0.193300  1.0  0.1355
  H  H47  1  0.133400  0.687200  0.259600  1.0  0.1399
  H  H48  1  0.066100  0.678500  0.242200  1.0  0.1492
  H  H49  1  0.116000  0.672800  0.193300  1.0  0.1373
  H  H50  1  0.633400  0.187200  0.759600  1.0  0.1399
  H  H51  1  0.566100  0.178500  0.742200  1.0  0.1492
  H  H52  1  0.616000  0.172800  0.693300  1.0  0.1373
  H  H53  1  0.740400  0.633400  0.812800  1.0  0.139
  H  H54  1  0.757800  0.566100  0.821500  1.0  0.147
  H  H55  1  0.806700  0.616000  0.827200  1.0  0.136
  H  H56  1  0.240400  0.133400  0.312800  1.0  0.139
  H  H57  1  0.257800  0.066100  0.321500  1.0  0.147
  H  H58  1  0.306700  0.116000  0.327200  1.0  0.136
  H  H59  1  0.240400  0.866600  0.187200  1.0  0.1391
  H  H60  1  0.257800  0.933900  0.178500  1.0  0.1471
  H  H61  1  0.306700  0.884000  0.172800  1.0  0.1368
  H  H62  1  0.740400  0.366600  0.687200  1.0  0.1391
  H  H63  1  0.757800  0.433900  0.678500  1.0  0.1471
  H  H64  1  0.806700  0.384000  0.672800  1.0  0.1368
  H  H65  1  0.759600  0.366600  0.312800  1.0  0.1405
  H  H66  1  0.742200  0.433900  0.321500  1.0  0.1471
  H  H67  1  0.693300  0.384000  0.327200  1.0  0.1361
  H  H68  1  0.259600  0.866600  0.812800  1.0  0.1405
  H  H69  1  0.242200  0.933900  0.821500  1.0  0.1471
  H  H70  1  0.193300  0.884000  0.827200  1.0  0.1361
  H  H71  1  0.259600  0.133400  0.687200  1.0  0.1398
  H  H72  1  0.242200  0.066100  0.678500  1.0  0.1461
  H  H73  1  0.193300  0.116000  0.672800  1.0  0.1361
  H  H74  1  0.759600  0.633400  0.187200  1.0  0.1398
  H  H75  1  0.742200  0.566100  0.178500  1.0  0.1461
  H  H76  1  0.693300  0.616000  0.172800  1.0  0.1361
  H  H77  1  0.812800  0.740400  0.633400  1.0  0.1397
  H  H78  1  0.821500  0.757800  0.566100  1.0  0.1478
  H  H79  1  0.827200  0.806700  0.616000  1.0  0.1364
  H  H80  1  0.312800  0.240400  0.133400  1.0  0.1397
  H  H81  1  0.321500  0.257800  0.066100  1.0  0.1478
  H  H82  1  0.327200  0.306700  0.116000  1.0  0.1364
  H  H83  1  0.187200  0.240400  0.866600  1.0  0.1396
  H  H84  1  0.178500  0.257800  0.933900  1.0  0.1468
  H  H85  1  0.172800  0.306700  0.884000  1.0  0.136
  H  H86  1  0.687200  0.740400  0.366600  1.0  0.1396
  H  H87  1  0.678500  0.757800  0.433900  1.0  0.1468
  H  H88  1  0.672800  0.806700  0.384000  1.0  0.136
  H  H89  1  0.312800  0.759600  0.366600  1.0  0.1397
  H  H90  1  0.321500  0.742200  0.433900  1.0  0.1465
  H  H91  1  0.327200  0.693300  0.384000  1.0  0.1381
  H  H92  1  0.812800  0.259600  0.866600  1.0  0.1397
  H  H93  1  0.821500  0.242200  0.933900  1.0  0.1465
  H  H94  1  0.827200  0.193300  0.884000  1.0  0.1381
  H  H95  1  0.687200  0.259600  0.133400  1.0  0.139
  H  H96  1  0.678500  0.242200  0.066100  1.0  0.1474
  H  H97  1  0.672800  0.193300  0.116000  1.0  0.1366
  H  H98  1  0.187200  0.759600  0.633400  1.0  0.139
  H  H99  1  0.178500  0.742200  0.566100  1.0  0.1474
  H  H100  1  0.172800  0.693300  0.616000  1.0  0.1366
  H  H101  1  0.062800  0.883400  0.990400  1.0  0.1399
  H  H102  1  0.071500  0.816100  0.007800  1.0  0.146
  H  H103  1  0.077200  0.866000  0.056700  1.0  0.1365
  H  H104  1  0.562800  0.383400  0.490400  1.0  0.1399
  H  H105  1  0.571500  0.316100  0.507800  1.0  0.146
  H  H106  1  0.577200  0.366000  0.556700  1.0  0.1365
  H  H107  1  0.437200  0.116600  0.490400  1.0  0.14
  H  H108  1  0.428500  0.183900  0.507800  1.0  0.1474
  H  H109  1  0.422800  0.134000  0.556700  1.0  0.1357
  H  H110  1  0.937200  0.616600  0.990400  1.0  0.14
  H  H111  1  0.928500  0.683900  0.007800  1.0  0.1474
  H  H112  1  0.922800  0.634000  0.056700  1.0  0.1357
  H  H113  1  0.562800  0.616600  0.009600  1.0  0.1402
  H  H114  1  0.571500  0.683900  0.992200  1.0  0.1469
  H  H115  1  0.577200  0.634000  0.943300  1.0  0.1373
  H  H116  1  0.062800  0.116600  0.509600  1.0  0.1402
  H  H117  1  0.071500  0.183900  0.492200  1.0  0.1469
  H  H118  1  0.077200  0.134000  0.443300  1.0  0.1373
  H  H119  1  0.937200  0.383400  0.509600  1.0  0.1388
  H  H120  1  0.928500  0.316100  0.492200  1.0  0.1475
  H  H121  1  0.922800  0.366000  0.443300  1.0  0.1359
  H  H122  1  0.437200  0.883400  0.009600  1.0  0.1388
  H  H123  1  0.428500  0.816100  0.992200  1.0  0.1475
  H  H124  1  0.422800  0.866000  0.943300  1.0  0.1359
  H  H125  1  0.883400  0.990400  0.062800  1.0  0.1396
  H  H126  1  0.816100  0.007800  0.071500  1.0  0.1492
  H  H127  1  0.866000  0.056700  0.077200  1.0  0.1362
  H  H128  1  0.383400  0.490400  0.562800  1.0  0.1396
  H  H129  1  0.316100  0.507800  0.571500  1.0  0.1492
  H  H130  1  0.366000  0.556700  0.577200  1.0  0.1362
  H  H131  1  0.116600  0.490400  0.437200  1.0  0.1386
  H  H132  1  0.183900  0.507800  0.428500  1.0  0.1531
  H  H133  1  0.134000  0.556700  0.422800  1.0  0.1354
  H  H134  1  0.616600  0.990400  0.937200  1.0  0.1386
  H  H135  1  0.683900  0.007800  0.928500  1.0  0.1531
  H  H136  1  0.634000  0.056700  0.922800  1.0  0.1354
  H  H137  1  0.616600  0.009600  0.562800  1.0  0.1389
  H  H138  1  0.683900  0.992200  0.571500  1.0  0.1529
  H  H139  1  0.634000  0.943300  0.577200  1.0  0.1361
  H  H140  1  0.116600  0.509600  0.062800  1.0  0.1389
  H  H141  1  0.183900  0.492200  0.071500  1.0  0.1529
  H  H142  1  0.134000  0.443300  0.077200  1.0  0.1361
  H  H143  1  0.383400  0.509600  0.937200  1.0  0.1396
  H  H144  1  0.316100  0.492200  0.928500  1.0  0.1483
  H  H145  1  0.366000  0.443300  0.922800  1.0  0.1379
  H  H146  1  0.883400  0.009600  0.437200  1.0  0.1396
  H  H147  1  0.816100  0.992200  0.428500  1.0  0.1483
  H  H148  1  0.866000  0.943300  0.422800  1.0  0.1379
  H  H149  1  0.990400  0.062800  0.883400  1.0  0.1389
  H  H150  1  0.007800  0.071500  0.816100  1.0  0.1474
  H  H151  1  0.056700  0.077200  0.866000  1.0  0.1366
  H  H152  1  0.490400  0.562800  0.383400  1.0  0.1389
  H  H153  1  0.507800  0.571500  0.316100  1.0  0.1474
  H  H154  1  0.556700  0.577200  0.366000  1.0  0.1366
  H  H155  1  0.490400  0.437200  0.116600  1.0  0.1393
  H  H156  1  0.507800  0.428500  0.183900  1.0  0.1466
  H  H157  1  0.556700  0.422800  0.134000  1.0  0.1371
  H  H158  1  0.990400  0.937200  0.616600  1.0  0.1393
  H  H159  1  0.007800  0.928500  0.683900  1.0  0.1466
  H  H160  1  0.056700  0.922800  0.634000  1.0  0.1371
  H  H161  1  0.009600  0.562800  0.616600  1.0  0.1393
  H  H162  1  0.992200  0.571500  0.683900  1.0  0.147
  H  H163  1  0.943300  0.577200  0.634000  1.0  0.1355
  H  H164  1  0.509600  0.062800  0.116600  1.0  0.1393
  H  H165  1  0.492200  0.071500  0.183900  1.0  0.147
  H  H166  1  0.443300  0.077200  0.134000  1.0  0.1355
  H  H167  1  0.509600  0.937200  0.383400  1.0  0.1404
  H  H168  1  0.492200  0.928500  0.316100  1.0  0.148
  H  H169  1  0.443300  0.922800  0.366000  1.0  0.1368
  H  H170  1  0.009600  0.437200  0.883400  1.0  0.1404
  H  H171  1  0.992200  0.428500  0.816100  1.0  0.148
  H  H172  1  0.943300  0.422800  0.866000  1.0  0.1368
  C  C173  1  0.599000  0.742100  0.783600  1.0  0.3527
  C  C174  1  0.604100  0.806500  0.771000  1.0  -0.4589
  C  C175  1  0.099000  0.242100  0.283600  1.0  0.3527
  C  C176  1  0.104100  0.306500  0.271000  1.0  -0.4589
  C  C177  1  0.901000  0.257900  0.283600  1.0  0.3532
  C  C178  1  0.895900  0.193500  0.271000  1.0  -0.4571
  C  C179  1  0.401000  0.757900  0.783600  1.0  0.3532
  C  C180  1  0.395900  0.693500  0.771000  1.0  -0.4571
  C  C181  1  0.401000  0.242100  0.716400  1.0  0.353
  C  C182  1  0.395900  0.306500  0.729000  1.0  -0.4581
  C  C183  1  0.901000  0.742100  0.216400  1.0  0.353
  C  C184  1  0.895900  0.806500  0.229000  1.0  -0.4581
  C  C185  1  0.099000  0.757900  0.216400  1.0  0.3527
  C  C186  1  0.104100  0.693500  0.229000  1.0  -0.4584
  C  C187  1  0.599000  0.257900  0.716400  1.0  0.3527
  C  C188  1  0.604100  0.193500  0.729000  1.0  -0.4584
  C  C189  1  0.783600  0.599000  0.742100  1.0  0.3536
  C  C190  1  0.771000  0.604100  0.806500  1.0  -0.463
  C  C191  1  0.283600  0.099000  0.242100  1.0  0.3536
  C  C192  1  0.271000  0.104100  0.306500  1.0  -0.463
  C  C193  1  0.283600  0.901000  0.257900  1.0  0.354
  C  C194  1  0.271000  0.895900  0.193500  1.0  -0.4612
  C  C195  1  0.783600  0.401000  0.757900  1.0  0.354
  C  C196  1  0.771000  0.395900  0.693500  1.0  -0.4612
  C  C197  1  0.716400  0.401000  0.242100  1.0  0.3533
  C  C198  1  0.729000  0.395900  0.306500  1.0  -0.4623
  C  C199  1  0.216400  0.901000  0.742100  1.0  0.3533
  C  C200  1  0.229000  0.895900  0.806500  1.0  -0.4623
  C  C201  1  0.216400  0.099000  0.757900  1.0  0.3531
  C  C202  1  0.229000  0.104100  0.693500  1.0  -0.4629
  C  C203  1  0.716400  0.599000  0.257900  1.0  0.3531
  C  C204  1  0.729000  0.604100  0.193500  1.0  -0.4629
  C  C205  1  0.742100  0.783600  0.599000  1.0  0.3523
  C  C206  1  0.806500  0.771000  0.604100  1.0  -0.4553
  C  C207  1  0.242100  0.283600  0.099000  1.0  0.3523
  C  C208  1  0.306500  0.271000  0.104100  1.0  -0.4553
  C  C209  1  0.257900  0.283600  0.901000  1.0  0.3523
  C  C210  1  0.193500  0.271000  0.895900  1.0  -0.4551
  C  C211  1  0.757900  0.783600  0.401000  1.0  0.3523
  C  C212  1  0.693500  0.771000  0.395900  1.0  -0.4551
  C  C213  1  0.242100  0.716400  0.401000  1.0  0.3521
  C  C214  1  0.306500  0.729000  0.395900  1.0  -0.4554
  C  C215  1  0.742100  0.216400  0.901000  1.0  0.3521
  C  C216  1  0.806500  0.229000  0.895900  1.0  -0.4554
  C  C217  1  0.757900  0.216400  0.099000  1.0  0.3527
  C  C218  1  0.693500  0.229000  0.104100  1.0  -0.4545
  C  C219  1  0.257900  0.716400  0.599000  1.0  0.3527
  C  C220  1  0.193500  0.729000  0.604100  1.0  -0.4545
  C  C221  1  0.992100  0.849000  0.033600  1.0  0.3526
  C  C222  1  0.056500  0.854100  0.021000  1.0  -0.4558
  C  C223  1  0.492100  0.349000  0.533600  1.0  0.3526
  C  C224  1  0.556500  0.354100  0.521000  1.0  -0.4558
  C  C225  1  0.507900  0.151000  0.533600  1.0  0.3531
  C  C226  1  0.443500  0.145900  0.521000  1.0  -0.4553
  C  C227  1  0.007900  0.651000  0.033600  1.0  0.3531
  C  C228  1  0.943500  0.645900  0.021000  1.0  -0.4553
  C  C229  1  0.492100  0.651000  0.966400  1.0  0.3531
  C  C230  1  0.556500  0.645900  0.979000  1.0  -0.4555
  C  C231  1  0.992100  0.151000  0.466400  1.0  0.3531
  C  C232  1  0.056500  0.145900  0.479000  1.0  -0.4555
  C  C233  1  0.007900  0.349000  0.466400  1.0  0.353
  C  C234  1  0.943500  0.354100  0.479000  1.0  -0.4549
  C  C235  1  0.507900  0.849000  0.966400  1.0  0.353
  C  C236  1  0.443500  0.854100  0.979000  1.0  -0.4549
  C  C237  1  0.849000  0.033600  0.992100  1.0  0.3531
  C  C238  1  0.854100  0.021000  0.056500  1.0  -0.462
  C  C239  1  0.349000  0.533600  0.492100  1.0  0.3531
  C  C240  1  0.354100  0.521000  0.556500  1.0  -0.462
  C  C241  1  0.151000  0.533600  0.507900  1.0  0.3539
  C  C242  1  0.145900  0.521000  0.443500  1.0  -0.46
  C  C243  1  0.651000  0.033600  0.007900  1.0  0.3539
  C  C244  1  0.645900  0.021000  0.943500  1.0  -0.46
  C  C245  1  0.651000  0.966400  0.492100  1.0  0.3536
  C  C246  1  0.645900  0.979000  0.556500  1.0  -0.462
  C  C247  1  0.151000  0.466400  0.992100  1.0  0.3536
  C  C248  1  0.145900  0.479000  0.056500  1.0  -0.462
  C  C249  1  0.349000  0.466400  0.007900  1.0  0.3529
  C  C250  1  0.354100  0.479000  0.943500  1.0  -0.4623
  C  C251  1  0.849000  0.966400  0.507900  1.0  0.3529
  C  C252  1  0.854100  0.979000  0.443500  1.0  -0.4623
  C  C253  1  0.033600  0.992100  0.849000  1.0  0.3528
  C  C254  1  0.021000  0.056500  0.854100  1.0  -0.4585
  C  C255  1  0.533600  0.492100  0.349000  1.0  0.3528
  C  C256  1  0.521000  0.556500  0.354100  1.0  -0.4585
  C  C257  1  0.533600  0.507900  0.151000  1.0  0.3527
  C  C258  1  0.521000  0.443500  0.145900  1.0  -0.4581
  C  C259  1  0.033600  0.007900  0.651000  1.0  0.3527
  C  C260  1  0.021000  0.943500  0.645900  1.0  -0.4581
  C  C261  1  0.966400  0.492100  0.651000  1.0  0.3522
  C  C262  1  0.979000  0.556500  0.645900  1.0  -0.459
  C  C263  1  0.466400  0.992100  0.151000  1.0  0.3522
  C  C264  1  0.479000  0.056500  0.145900  1.0  -0.459
  C  C265  1  0.466400  0.007900  0.349000  1.0  0.3524
  C  C266  1  0.479000  0.943500  0.354100  1.0  -0.4589
  C  C267  1  0.966400  0.507900  0.849000  1.0  0.3524
  C  C268  1  0.979000  0.443500  0.854100  1.0  -0.4589
  N  N269  1  0.562900  0.716600  0.823300  1.0  -0.3093
  N  N270  1  0.634000  0.698700  0.760200  1.0  -0.1695
  N  N271  1  0.577800  0.657400  0.823600  1.0  -0.1289
  N  N272  1  0.622200  0.649200  0.787900  1.0  -0.1286
  N  N273  1  0.062900  0.216600  0.323300  1.0  -0.3093
  N  N274  1  0.134000  0.198700  0.260200  1.0  -0.1695
  N  N275  1  0.077800  0.157400  0.323600  1.0  -0.1289
  N  N276  1  0.122200  0.149200  0.287900  1.0  -0.1286
  N  N277  1  0.937100  0.283400  0.323300  1.0  -0.3095
  N  N278  1  0.866000  0.301300  0.260200  1.0  -0.1693
  N  N279  1  0.922200  0.342600  0.323600  1.0  -0.127
  N  N280  1  0.877800  0.350800  0.287900  1.0  -0.1295
  N  N281  1  0.437100  0.783400  0.823300  1.0  -0.3095
  N  N282  1  0.366000  0.801300  0.760200  1.0  -0.1693
  N  N283  1  0.422200  0.842600  0.823600  1.0  -0.127
  N  N284  1  0.377800  0.850800  0.787900  1.0  -0.1295
  N  N285  1  0.437100  0.216600  0.676700  1.0  -0.3082
  N  N286  1  0.366000  0.198700  0.739800  1.0  -0.1683
  N  N287  1  0.422200  0.157400  0.676400  1.0  -0.1272
  N  N288  1  0.377800  0.149200  0.712100  1.0  -0.1296
  N  N289  1  0.937100  0.716600  0.176700  1.0  -0.3082
  N  N290  1  0.866000  0.698700  0.239800  1.0  -0.1683
  N  N291  1  0.922200  0.657400  0.176400  1.0  -0.1272
  N  N292  1  0.877800  0.649200  0.212100  1.0  -0.1296
  N  N293  1  0.062900  0.783400  0.176700  1.0  -0.3086
  N  N294  1  0.134000  0.801300  0.239800  1.0  -0.1675
  N  N295  1  0.077800  0.842600  0.176400  1.0  -0.1276
  N  N296  1  0.122200  0.850800  0.212100  1.0  -0.1286
  N  N297  1  0.562900  0.283400  0.676700  1.0  -0.3086
  N  N298  1  0.634000  0.301300  0.739800  1.0  -0.1675
  N  N299  1  0.577800  0.342600  0.676400  1.0  -0.1276
  N  N300  1  0.622200  0.350800  0.712100  1.0  -0.1286
  N  N301  1  0.823300  0.562900  0.716600  1.0  -0.309
  N  N302  1  0.760200  0.634000  0.698700  1.0  -0.1684
  N  N303  1  0.823600  0.577800  0.657400  1.0  -0.1249
  N  N304  1  0.787900  0.622200  0.649200  1.0  -0.1305
  N  N305  1  0.323300  0.062900  0.216600  1.0  -0.309
  N  N306  1  0.260200  0.134000  0.198700  1.0  -0.1684
  N  N307  1  0.323600  0.077800  0.157400  1.0  -0.1249
  N  N308  1  0.287900  0.122200  0.149200  1.0  -0.1305
  N  N309  1  0.323300  0.937100  0.283400  1.0  -0.308
  N  N310  1  0.260200  0.866000  0.301300  1.0  -0.1693
  N  N311  1  0.323600  0.922200  0.342600  1.0  -0.1258
  N  N312  1  0.287900  0.877800  0.350800  1.0  -0.1308
  N  N313  1  0.823300  0.437100  0.783400  1.0  -0.308
  N  N314  1  0.760200  0.366000  0.801300  1.0  -0.1693
  N  N315  1  0.823600  0.422200  0.842600  1.0  -0.1258
  N  N316  1  0.787900  0.377800  0.850800  1.0  -0.1308
  N  N317  1  0.676700  0.437100  0.216600  1.0  -0.3087
  N  N318  1  0.739800  0.366000  0.198700  1.0  -0.1687
  N  N319  1  0.676400  0.422200  0.157400  1.0  -0.1235
  N  N320  1  0.712100  0.377800  0.149200  1.0  -0.1311
  N  N321  1  0.176700  0.937100  0.716600  1.0  -0.3087
  N  N322  1  0.239800  0.866000  0.698700  1.0  -0.1687
  N  N323  1  0.176400  0.922200  0.657400  1.0  -0.1235
  N  N324  1  0.212100  0.877800  0.649200  1.0  -0.1311
  N  N325  1  0.176700  0.062900  0.783400  1.0  -0.3085
  N  N326  1  0.239800  0.134000  0.801300  1.0  -0.168
  N  N327  1  0.176400  0.077800  0.842600  1.0  -0.1262
  N  N328  1  0.212100  0.122200  0.850800  1.0  -0.1298
  N  N329  1  0.676700  0.562900  0.283400  1.0  -0.3085
  N  N330  1  0.739800  0.634000  0.301300  1.0  -0.168
  N  N331  1  0.676400  0.577800  0.342600  1.0  -0.1262
  N  N332  1  0.712100  0.622200  0.350800  1.0  -0.1298
  N  N333  1  0.716600  0.823300  0.562900  1.0  -0.3075
  N  N334  1  0.698700  0.760200  0.634000  1.0  -0.1691
  N  N335  1  0.657400  0.823600  0.577800  1.0  -0.1276
  N  N336  1  0.649200  0.787900  0.622200  1.0  -0.1328
  N  N337  1  0.216600  0.323300  0.062900  1.0  -0.3075
  N  N338  1  0.198700  0.260200  0.134000  1.0  -0.1691
  N  N339  1  0.157400  0.323600  0.077800  1.0  -0.1276
  N  N340  1  0.149200  0.287900  0.122200  1.0  -0.1328
  N  N341  1  0.283400  0.323300  0.937100  1.0  -0.3075
  N  N342  1  0.301300  0.260200  0.866000  1.0  -0.1685
  N  N343  1  0.342600  0.323600  0.922200  1.0  -0.1298
  N  N344  1  0.350800  0.287900  0.877800  1.0  -0.1335
  N  N345  1  0.783400  0.823300  0.437100  1.0  -0.3075
  N  N346  1  0.801300  0.760200  0.366000  1.0  -0.1685
  N  N347  1  0.842600  0.823600  0.422200  1.0  -0.1298
  N  N348  1  0.850800  0.787900  0.377800  1.0  -0.1335
  N  N349  1  0.216600  0.676700  0.437100  1.0  -0.3088
  N  N350  1  0.198700  0.739800  0.366000  1.0  -0.1688
  N  N351  1  0.157400  0.676400  0.422200  1.0  -0.128
  N  N352  1  0.149200  0.712100  0.377800  1.0  -0.1334
  N  N353  1  0.716600  0.176700  0.937100  1.0  -0.3088
  N  N354  1  0.698700  0.239800  0.866000  1.0  -0.1688
  N  N355  1  0.657400  0.176400  0.922200  1.0  -0.128
  N  N356  1  0.649200  0.212100  0.877800  1.0  -0.1334
  N  N357  1  0.783400  0.176700  0.062900  1.0  -0.3057
  N  N358  1  0.801300  0.239800  0.134000  1.0  -0.1686
  N  N359  1  0.842600  0.176400  0.077800  1.0  -0.1298
  N  N360  1  0.850800  0.212100  0.122200  1.0  -0.1324
  N  N361  1  0.283400  0.676700  0.562900  1.0  -0.3057
  N  N362  1  0.301300  0.739800  0.634000  1.0  -0.1686
  N  N363  1  0.342600  0.676400  0.577800  1.0  -0.1298
  N  N364  1  0.350800  0.712100  0.622200  1.0  -0.1324
  N  N365  1  0.966600  0.812900  0.073300  1.0  -0.3086
  N  N366  1  0.948700  0.884000  0.010200  1.0  -0.1682
  N  N367  1  0.907400  0.827800  0.073600  1.0  -0.129
  N  N368  1  0.899200  0.872200  0.037900  1.0  -0.1334
  N  N369  1  0.466600  0.312900  0.573300  1.0  -0.3086
  N  N370  1  0.448700  0.384000  0.510200  1.0  -0.1682
  N  N371  1  0.407400  0.327800  0.573600  1.0  -0.129
  N  N372  1  0.399200  0.372200  0.537900  1.0  -0.1334
  N  N373  1  0.533400  0.187100  0.573300  1.0  -0.3068
  N  N374  1  0.551300  0.116000  0.510200  1.0  -0.1686
  N  N375  1  0.592600  0.172200  0.573600  1.0  -0.1304
  N  N376  1  0.600800  0.127800  0.537900  1.0  -0.1331
  N  N377  1  0.033400  0.687100  0.073300  1.0  -0.3068
  N  N378  1  0.051300  0.616000  0.010200  1.0  -0.1686
  N  N379  1  0.092600  0.672200  0.073600  1.0  -0.1304
  N  N380  1  0.100800  0.627800  0.037900  1.0  -0.1331
  N  N381  1  0.466600  0.687100  0.926700  1.0  -0.3072
  N  N382  1  0.448700  0.616000  0.989800  1.0  -0.1674
  N  N383  1  0.407400  0.672200  0.926400  1.0  -0.1283
  N  N384  1  0.399200  0.627800  0.962100  1.0  -0.1343
  N  N385  1  0.966600  0.187100  0.426700  1.0  -0.3072
  N  N386  1  0.948700  0.116000  0.489800  1.0  -0.1674
  N  N387  1  0.907400  0.172200  0.426400  1.0  -0.1283
  N  N388  1  0.899200  0.127800  0.462100  1.0  -0.1343
  N  N389  1  0.033400  0.312900  0.426700  1.0  -0.3063
  N  N390  1  0.051300  0.384000  0.489800  1.0  -0.1663
  N  N391  1  0.092600  0.327800  0.426400  1.0  -0.1306
  N  N392  1  0.100800  0.372200  0.462100  1.0  -0.1336
  N  N393  1  0.533400  0.812900  0.926700  1.0  -0.3063
  N  N394  1  0.551300  0.884000  0.989800  1.0  -0.1663
  N  N395  1  0.592600  0.827800  0.926400  1.0  -0.1306
  N  N396  1  0.600800  0.872200  0.962100  1.0  -0.1336
  N  N397  1  0.812900  0.073300  0.966600  1.0  -0.3096
  N  N398  1  0.884000  0.010200  0.948700  1.0  -0.1689
  N  N399  1  0.827800  0.073600  0.907400  1.0  -0.1236
  N  N400  1  0.872200  0.037900  0.899200  1.0  -0.1293
  N  N401  1  0.312900  0.573300  0.466600  1.0  -0.3096
  N  N402  1  0.384000  0.510200  0.448700  1.0  -0.1689
  N  N403  1  0.327800  0.573600  0.407400  1.0  -0.1236
  N  N404  1  0.372200  0.537900  0.399200  1.0  -0.1293
  N  N405  1  0.187100  0.573300  0.533400  1.0  -0.3085
  N  N406  1  0.116000  0.510200  0.551300  1.0  -0.169
  N  N407  1  0.172200  0.573600  0.592600  1.0  -0.1246
  N  N408  1  0.127800  0.537900  0.600800  1.0  -0.1287
  N  N409  1  0.687100  0.073300  0.033400  1.0  -0.3085
  N  N410  1  0.616000  0.010200  0.051300  1.0  -0.169
  N  N411  1  0.672200  0.073600  0.092600  1.0  -0.1246
  N  N412  1  0.627800  0.037900  0.100800  1.0  -0.1287
  N  N413  1  0.687100  0.926700  0.466600  1.0  -0.3091
  N  N414  1  0.616000  0.989800  0.448700  1.0  -0.169
  N  N415  1  0.672200  0.926400  0.407400  1.0  -0.1242
  N  N416  1  0.627800  0.962100  0.399200  1.0  -0.129
  N  N417  1  0.187100  0.426700  0.966600  1.0  -0.3091
  N  N418  1  0.116000  0.489800  0.948700  1.0  -0.169
  N  N419  1  0.172200  0.426400  0.907400  1.0  -0.1242
  N  N420  1  0.127800  0.462100  0.899200  1.0  -0.129
  N  N421  1  0.312900  0.426700  0.033400  1.0  -0.3089
  N  N422  1  0.384000  0.489800  0.051300  1.0  -0.1685
  N  N423  1  0.327800  0.426400  0.092600  1.0  -0.1261
  N  N424  1  0.372200  0.462100  0.100800  1.0  -0.1275
  N  N425  1  0.812900  0.926700  0.533400  1.0  -0.3089
  N  N426  1  0.884000  0.989800  0.551300  1.0  -0.1685
  N  N427  1  0.827800  0.926400  0.592600  1.0  -0.1261
  N  N428  1  0.872200  0.962100  0.600800  1.0  -0.1275
  N  N429  1  0.073300  0.966600  0.812900  1.0  -0.3081
  N  N430  1  0.010200  0.948700  0.884000  1.0  -0.1707
  N  N431  1  0.073600  0.907400  0.827800  1.0  -0.1271
  N  N432  1  0.037900  0.899200  0.872200  1.0  -0.1302
  N  N433  1  0.573300  0.466600  0.312900  1.0  -0.3081
  N  N434  1  0.510200  0.448700  0.384000  1.0  -0.1707
  N  N435  1  0.573600  0.407400  0.327800  1.0  -0.1271
  N  N436  1  0.537900  0.399200  0.372200  1.0  -0.1302
  N  N437  1  0.573300  0.533400  0.187100  1.0  -0.3099
  N  N438  1  0.510200  0.551300  0.116000  1.0  -0.1694
  N  N439  1  0.573600  0.592600  0.172200  1.0  -0.1266
  N  N440  1  0.537900  0.600800  0.127800  1.0  -0.1315
  N  N441  1  0.073300  0.033400  0.687100  1.0  -0.3099
  N  N442  1  0.010200  0.051300  0.616000  1.0  -0.1694
  N  N443  1  0.073600  0.092600  0.672200  1.0  -0.1266
  N  N444  1  0.037900  0.100800  0.627800  1.0  -0.1315
  N  N445  1  0.926700  0.466600  0.687100  1.0  -0.3093
  N  N446  1  0.989800  0.448700  0.616000  1.0  -0.1695
  N  N447  1  0.926400  0.407400  0.672200  1.0  -0.1285
  N  N448  1  0.962100  0.399200  0.627800  1.0  -0.1305
  N  N449  1  0.426700  0.966600  0.187100  1.0  -0.3093
  N  N450  1  0.489800  0.948700  0.116000  1.0  -0.1695
  N  N451  1  0.426400  0.907400  0.172200  1.0  -0.1285
  N  N452  1  0.462100  0.899200  0.127800  1.0  -0.1305
  N  N453  1  0.426700  0.033400  0.312900  1.0  -0.3076
  N  N454  1  0.489800  0.051300  0.384000  1.0  -0.1694
  N  N455  1  0.426400  0.092600  0.327800  1.0  -0.1269
  N  N456  1  0.462100  0.100800  0.372200  1.0  -0.1303
  N  N457  1  0.926700  0.533400  0.812900  1.0  -0.3076
  N  N458  1  0.989800  0.551300  0.884000  1.0  -0.1694
  N  N459  1  0.926400  0.592600  0.827800  1.0  -0.1269
  N  N460  1  0.962100  0.600800  0.872200  1.0  -0.1303
