# generated using pymatgen
data_Co3H30C45N15O7
_symmetry_space_group_name_H-M   'P 1'
_cell_length_a   16.67900000
_cell_length_b   16.67900000
_cell_length_c   19.05000000
_cell_angle_alpha   90.00000000
_cell_angle_beta   90.00000000
_cell_angle_gamma   120.00000000
_symmetry_Int_Tables_number   1
_chemical_formula_structural   Co3H30C45N15O7
_chemical_formula_sum   'Co6 H60 C90 N30 O14'
_cell_volume   4589.50269348
_cell_formula_units_Z   2
loop_
 _symmetry_equiv_pos_site_id
 _symmetry_equiv_pos_as_xyz
  1  'x, y, z'
loop_
 _atom_site_type_symbol
 _atom_site_label
 _atom_site_symmetry_multiplicity
 _atom_site_fract_x
 _atom_site_fract_y
 _atom_site_fract_z
 _atom_site_occupancy
 _atom_site_charge
  Co  Co1  1  0.470930  0.735470  0.796850  1.0  0.9473
  Co  Co2  1  0.264530  0.735470  0.796850  1.0  0.9334
  Co  Co3  1  0.264530  0.529070  0.796850  1.0  0.9496
  Co  Co4  1  0.529070  0.264530  0.296850  1.0  0.9487
  Co  Co5  1  0.735470  0.264530  0.296850  1.0  0.9319
  Co  Co6  1  0.735470  0.470930  0.296850  1.0  0.9491
  H  H7  1  0.444800  0.318600  0.444300  1.0  0.0903
  H  H8  1  0.629100  0.695800  0.810700  1.0  0.0944
  H  H9  1  0.789300  0.772600  0.809900  1.0  0.1093
  H  H10  1  0.398900  0.361100  0.534900  1.0  0.1179
  H  H11  1  0.352100  0.412600  0.632400  1.0  0.087
  H  H12  1  0.681400  0.126200  0.444300  1.0  0.0884
  H  H13  1  0.304200  0.933300  0.810700  1.0  0.0946
  H  H14  1  0.227400  0.016700  0.809900  1.0  0.1099
  H  H15  1  0.638900  0.037800  0.534900  1.0  0.1162
  H  H16  1  0.587400  0.939500  0.632400  1.0  0.0869
  H  H17  1  0.873800  0.555200  0.444300  1.0  0.0907
  H  H18  1  0.066700  0.370900  0.810700  1.0  0.095
  H  H19  1  0.983300  0.210700  0.809900  1.0  0.1095
  H  H20  1  0.962200  0.601100  0.534900  1.0  0.1183
  H  H21  1  0.060500  0.647900  0.632400  1.0  0.0864
  H  H22  1  0.555200  0.681400  0.944300  1.0  0.0898
  H  H23  1  0.370900  0.304200  0.310700  1.0  0.0951
  H  H24  1  0.210700  0.227400  0.309900  1.0  0.1099
  H  H25  1  0.601100  0.638900  0.034900  1.0  0.1181
  H  H26  1  0.647900  0.587400  0.132400  1.0  0.0875
  H  H27  1  0.318600  0.873800  0.944300  1.0  0.0902
  H  H28  1  0.695800  0.066700  0.310700  1.0  0.0954
  H  H29  1  0.772600  0.983300  0.309900  1.0  0.1098
  H  H30  1  0.361100  0.962200  0.034900  1.0  0.1158
  H  H31  1  0.412600  0.060500  0.132400  1.0  0.087
  H  H32  1  0.126200  0.444800  0.944300  1.0  0.0915
  H  H33  1  0.933300  0.629100  0.310700  1.0  0.0952
  H  H34  1  0.016700  0.789300  0.309900  1.0  0.1096
  H  H35  1  0.037800  0.398900  0.034900  1.0  0.1186
  H  H36  1  0.939500  0.352100  0.132400  1.0  0.0868
  H  H37  1  0.681400  0.555200  0.444300  1.0  0.0904
  H  H38  1  0.304200  0.370900  0.810700  1.0  0.0954
  H  H39  1  0.227400  0.210700  0.809900  1.0  0.1096
  H  H40  1  0.638900  0.601100  0.534900  1.0  0.1184
  H  H41  1  0.587400  0.647900  0.632400  1.0  0.0866
  H  H42  1  0.873800  0.318600  0.444300  1.0  0.0901
  H  H43  1  0.066700  0.695800  0.810700  1.0  0.0946
  H  H44  1  0.983300  0.772600  0.809900  1.0  0.1093
  H  H45  1  0.962200  0.361100  0.534900  1.0  0.1182
  H  H46  1  0.060500  0.412600  0.632400  1.0  0.0876
  H  H47  1  0.444800  0.126200  0.444300  1.0  0.0901
  H  H48  1  0.629100  0.933300  0.810700  1.0  0.0956
  H  H49  1  0.789300  0.016700  0.809900  1.0  0.1098
  H  H50  1  0.398900  0.037800  0.534900  1.0  0.1159
  H  H51  1  0.352100  0.939500  0.632400  1.0  0.087
  H  H52  1  0.318600  0.444800  0.944300  1.0  0.0914
  H  H53  1  0.695800  0.629100  0.310700  1.0  0.095
  H  H54  1  0.772600  0.789300  0.309900  1.0  0.1092
  H  H55  1  0.361100  0.398900  0.034900  1.0  0.1178
  H  H56  1  0.412600  0.352100  0.132400  1.0  0.0866
  H  H57  1  0.126200  0.681400  0.944300  1.0  0.09
  H  H58  1  0.933300  0.304200  0.310700  1.0  0.0944
  H  H59  1  0.016700  0.227400  0.309900  1.0  0.1099
  H  H60  1  0.037800  0.638900  0.034900  1.0  0.118
  H  H61  1  0.939500  0.587400  0.132400  1.0  0.0875
  H  H62  1  0.555200  0.873800  0.944300  1.0  0.0883
  H  H63  1  0.370900  0.066700  0.310700  1.0  0.0947
  H  H64  1  0.210700  0.983300  0.309900  1.0  0.1098
  H  H65  1  0.601100  0.962200  0.034900  1.0  0.1161
  H  H66  1  0.647900  0.060500  0.132400  1.0  0.0868
  C  C67  1  0.504600  0.366900  0.431200  1.0  0.0899
  C  C68  1  0.662600  0.761500  0.809000  1.0  0.1525
  C  C69  1  0.757700  0.806800  0.810300  1.0  -0.1017
  C  C70  1  0.439200  0.419800  0.555300  1.0  -0.1681
  C  C71  1  0.411500  0.451800  0.612600  1.0  -0.067
  C  C72  1  0.633100  0.137700  0.431200  1.0  0.0913
  C  C73  1  0.238500  0.901100  0.809000  1.0  0.1492
  C  C74  1  0.193200  0.950900  0.810300  1.0  -0.1015
  C  C75  1  0.580200  0.019400  0.555300  1.0  -0.167
  C  C76  1  0.548200  0.959700  0.612600  1.0  -0.0656
  C  C77  1  0.862300  0.495400  0.431200  1.0  0.0889
  C  C78  1  0.098900  0.337400  0.809000  1.0  0.1497
  C  C79  1  0.049100  0.242300  0.810300  1.0  -0.1032
  C  C80  1  0.980600  0.560800  0.555300  1.0  -0.1688
  C  C81  1  0.040300  0.588500  0.612600  1.0  -0.067
  C  C82  1  0.495400  0.633100  0.931200  1.0  0.0895
  C  C83  1  0.337400  0.238500  0.309000  1.0  0.1515
  C  C84  1  0.242300  0.193200  0.310300  1.0  -0.105
  C  C85  1  0.560800  0.580200  0.055300  1.0  -0.1673
  C  C86  1  0.588500  0.548200  0.112600  1.0  -0.0675
  C  C87  1  0.366900  0.862300  0.931200  1.0  0.0897
  C  C88  1  0.761500  0.098900  0.309000  1.0  0.1509
  C  C89  1  0.806800  0.049100  0.310300  1.0  -0.0993
  C  C90  1  0.419800  0.980600  0.055300  1.0  -0.1674
  C  C91  1  0.451800  0.040300  0.112600  1.0  -0.0664
  C  C92  1  0.137700  0.504600  0.931200  1.0  0.0902
  C  C93  1  0.901100  0.662600  0.309000  1.0  0.1502
  C  C94  1  0.950900  0.757700  0.310300  1.0  -0.1018
  C  C95  1  0.019400  0.439200  0.055300  1.0  -0.1695
  C  C96  1  0.959700  0.411500  0.112600  1.0  -0.0661
  C  C97  1  0.633100  0.495400  0.431200  1.0  0.0899
  C  C98  1  0.238500  0.337400  0.809000  1.0  0.1504
  C  C99  1  0.193200  0.242300  0.810300  1.0  -0.1015
  C  C100  1  0.580200  0.560800  0.555300  1.0  -0.1686
  C  C101  1  0.548200  0.588500  0.612600  1.0  -0.0709
  C  C102  1  0.862300  0.366900  0.431200  1.0  0.0903
  C  C103  1  0.098900  0.761500  0.809000  1.0  0.152
  C  C104  1  0.049100  0.806800  0.810300  1.0  -0.1031
  C  C105  1  0.980600  0.419800  0.555300  1.0  -0.1683
  C  C106  1  0.040300  0.451800  0.612600  1.0  -0.0718
  C  C107  1  0.504600  0.137700  0.431200  1.0  0.0897
  C  C108  1  0.662600  0.901100  0.809000  1.0  0.1497
  C  C109  1  0.757700  0.950900  0.810300  1.0  -0.1014
  C  C110  1  0.439200  0.019400  0.555300  1.0  -0.1673
  C  C111  1  0.411500  0.959700  0.612600  1.0  -0.0713
  C  C112  1  0.366900  0.504600  0.931200  1.0  0.0895
  C  C113  1  0.761500  0.662600  0.309000  1.0  0.1496
  C  C114  1  0.806800  0.757700  0.310300  1.0  -0.1037
  C  C115  1  0.419800  0.439200  0.055300  1.0  -0.1679
  C  C116  1  0.451800  0.411500  0.112600  1.0  -0.0714
  C  C117  1  0.137700  0.633100  0.931200  1.0  0.0888
  C  C118  1  0.901100  0.238500  0.309000  1.0  0.1517
  C  C119  1  0.950900  0.193200  0.310300  1.0  -0.1037
  C  C120  1  0.019400  0.580200  0.055300  1.0  -0.168
  C  C121  1  0.959700  0.548200  0.112600  1.0  -0.0739
  C  C122  1  0.495400  0.862300  0.931200  1.0  0.0911
  C  C123  1  0.337400  0.098900  0.309000  1.0  0.1502
  C  C124  1  0.242300  0.049100  0.310300  1.0  -0.0994
  C  C125  1  0.560800  0.980600  0.055300  1.0  -0.1673
  C  C126  1  0.588500  0.040300  0.112600  1.0  -0.0712
  C  C127  1  0.807900  0.903950  0.812300  1.0  -0.087
  C  C128  1  0.911100  0.955550  0.813100  1.0  0.4001
  C  C129  1  0.096050  0.903950  0.812300  1.0  -0.0866
  C  C130  1  0.044450  0.955550  0.813100  1.0  0.3998
  C  C131  1  0.096050  0.192100  0.812300  1.0  -0.0818
  C  C132  1  0.044450  0.088900  0.813100  1.0  0.4003
  C  C133  1  0.192100  0.096050  0.312300  1.0  -0.0866
  C  C134  1  0.088900  0.044450  0.313100  1.0  0.4
  C  C135  1  0.903950  0.096050  0.312300  1.0  -0.0871
  C  C136  1  0.955550  0.044450  0.313100  1.0  0.4004
  C  C137  1  0.903950  0.807900  0.312300  1.0  -0.0816
  C  C138  1  0.955550  0.911100  0.313100  1.0  0.4004
  C  C139  1  0.429300  0.570700  0.699500  1.0  0.7058
  C  C140  1  0.464800  0.535200  0.641100  1.0  -0.112
  C  C141  1  0.525200  0.474800  0.529600  1.0  0.1678
  C  C142  1  0.429300  0.858600  0.699500  1.0  0.7056
  C  C143  1  0.464800  0.929600  0.641100  1.0  -0.1109
  C  C144  1  0.525200  0.050400  0.529600  1.0  0.1676
  C  C145  1  0.141400  0.570700  0.699500  1.0  0.7041
  C  C146  1  0.070400  0.535200  0.641100  1.0  -0.112
  C  C147  1  0.949600  0.474800  0.529600  1.0  0.1676
  C  C148  1  0.570700  0.429300  0.199500  1.0  0.704
  C  C149  1  0.535200  0.464800  0.141100  1.0  -0.1124
  C  C150  1  0.474800  0.525200  0.029600  1.0  0.1675
  C  C151  1  0.570700  0.141400  0.199500  1.0  0.7061
  C  C152  1  0.535200  0.070400  0.141100  1.0  -0.1112
  C  C153  1  0.474800  0.949600  0.029600  1.0  0.1683
  C  C154  1  0.858600  0.429300  0.199500  1.0  0.7055
  C  C155  1  0.929600  0.464800  0.141100  1.0  -0.1123
  C  C156  1  0.050400  0.525200  0.029600  1.0  0.1675
  N  N157  1  0.551000  0.365300  0.375700  1.0  -0.2512
  N  N158  1  0.634700  0.185700  0.375700  1.0  -0.2504
  N  N159  1  0.814300  0.449000  0.375700  1.0  -0.2506
  N  N160  1  0.449000  0.634700  0.875700  1.0  -0.2515
  N  N161  1  0.365300  0.814300  0.875700  1.0  -0.2522
  N  N162  1  0.185700  0.551000  0.875700  1.0  -0.2516
  N  N163  1  0.634700  0.449000  0.375700  1.0  -0.2515
  N  N164  1  0.814300  0.365300  0.375700  1.0  -0.251
  N  N165  1  0.551000  0.185700  0.375700  1.0  -0.2521
  N  N166  1  0.365300  0.551000  0.875700  1.0  -0.2523
  N  N167  1  0.185700  0.634700  0.875700  1.0  -0.2531
  N  N168  1  0.449000  0.814300  0.875700  1.0  -0.2528
  N  N169  1  0.615500  0.807750  0.805100  1.0  -0.3128
  N  N170  1  0.192250  0.807750  0.805100  1.0  -0.3135
  N  N171  1  0.192250  0.384500  0.805100  1.0  -0.3162
  N  N172  1  0.384500  0.192250  0.305100  1.0  -0.3134
  N  N173  1  0.807750  0.192250  0.305100  1.0  -0.3126
  N  N174  1  0.807750  0.615500  0.305100  1.0  -0.3169
  N  N175  1  0.553700  0.446300  0.466400  1.0  0.0079
  N  N176  1  0.553700  0.107400  0.466400  1.0  0.0078
  N  N177  1  0.892600  0.446300  0.466400  1.0  0.0074
  N  N178  1  0.446300  0.553700  0.966400  1.0  0.007
  N  N179  1  0.446300  0.892600  0.966400  1.0  0.0087
  N  N180  1  0.107400  0.553700  0.966400  1.0  0.0074
  N  N181  1  0.952150  0.904300  0.814300  1.0  -0.4687
  N  N182  1  0.095700  0.047850  0.814300  1.0  -0.4696
  N  N183  1  0.952150  0.047850  0.814300  1.0  -0.4692
  N  N184  1  0.047850  0.095700  0.314300  1.0  -0.4682
  N  N185  1  0.904300  0.952150  0.314300  1.0  -0.4699
  N  N186  1  0.047850  0.952150  0.314300  1.0  -0.4699
  O  O187  1  0.483700  0.651700  0.721400  1.0  -0.6374
  O  O188  1  0.348300  0.832000  0.721400  1.0  -0.6344
  O  O189  1  0.168000  0.516300  0.721400  1.0  -0.6342
  O  O190  1  0.516300  0.348300  0.221400  1.0  -0.6367
  O  O191  1  0.651700  0.168000  0.221400  1.0  -0.6348
  O  O192  1  0.832000  0.483700  0.221400  1.0  -0.6334
  O  O193  1  0.348300  0.516300  0.721400  1.0  -0.6335
  O  O194  1  0.168000  0.651700  0.721400  1.0  -0.6384
  O  O195  1  0.483700  0.832000  0.721400  1.0  -0.6346
  O  O196  1  0.651700  0.483700  0.221400  1.0  -0.6341
  O  O197  1  0.832000  0.348300  0.221400  1.0  -0.6353
  O  O198  1  0.516300  0.168000  0.221400  1.0  -0.6347
  O  O199  1  0.333333  0.666667  0.776600  1.0  -0.8125
  O  O200  1  0.666667  0.333333  0.276600  1.0  -0.8125
