# generated using pymatgen
data_AgH15(C2N)3
_symmetry_space_group_name_H-M   'P 1'
_cell_length_a   13.71700000
_cell_length_b   8.94010000
_cell_length_c   16.63500000
_cell_angle_alpha   90.00000000
_cell_angle_beta   93.60000000
_cell_angle_gamma   90.00000000
_symmetry_Int_Tables_number   1
_chemical_formula_structural   AgH15(C2N)3
_chemical_formula_sum   'Ag8 H120 C48 N24'
_cell_volume   2035.94711572
_cell_formula_units_Z   8
loop_
 _symmetry_equiv_pos_site_id
 _symmetry_equiv_pos_as_xyz
  1  'x, y, z'
loop_
 _atom_site_type_symbol
 _atom_site_label
 _atom_site_symmetry_multiplicity
 _atom_site_fract_x
 _atom_site_fract_y
 _atom_site_fract_z
 _atom_site_occupancy
 _atom_site_charge
  Ag  Ag1  1  0.639120  0.326270  0.566400  1.0  0.2863
  Ag  Ag2  1  0.903610  0.616520  0.300170  1.0  0.2568
  Ag  Ag3  1  0.360880  0.826270  0.933600  1.0  0.2866
  Ag  Ag4  1  0.096390  0.116520  0.199830  1.0  0.2599
  Ag  Ag5  1  0.360880  0.673730  0.433600  1.0  0.287
  Ag  Ag6  1  0.096390  0.383480  0.699830  1.0  0.2595
  Ag  Ag7  1  0.639120  0.173730  0.066400  1.0  0.2866
  Ag  Ag8  1  0.903610  0.883480  0.800170  1.0  0.2564
  H  H9  1  0.745300  0.341700  0.438600  1.0  0.2478
  H  H10  1  0.644400  0.332600  0.407200  1.0  0.2608
  H  H11  1  0.479100  0.920900  0.411400  1.0  0.2851
  H  H12  1  0.502000  0.874300  0.494000  1.0  0.2238
  H  H13  1  0.832700  0.892900  0.357600  1.0  0.2592
  H  H14  1  0.746100  0.811800  0.329200  1.0  0.2247
  H  H15  1  0.852700  0.906200  0.644800  1.0  0.2969
  H  H16  1  0.762200  0.894400  0.684900  1.0  0.2673
  H  H17  1  0.957400  0.518200  0.610900  1.0  0.2392
  H  H18  1  0.982500  0.385300  0.566600  1.0  0.2619
  H  H19  1  0.653700  0.485600  0.701000  1.0  0.2688
  H  H20  1  0.609600  0.345200  0.722000  1.0  0.2734
  H  H21  1  0.695300  0.550500  0.364200  1.0  0.0591
  H  H22  1  0.583000  0.602100  0.498200  1.0  0.0677
  H  H23  1  0.538600  0.562000  0.411700  1.0  0.0596
  H  H24  1  0.592000  0.789100  0.360900  1.0  0.0564
  H  H25  1  0.677800  0.963100  0.442000  1.0  0.0641
  H  H26  1  0.669200  0.863100  0.518700  1.0  0.0645
  H  H27  1  0.824500  0.833900  0.480900  1.0  0.0672
  H  H28  1  0.832200  0.573100  0.455300  1.0  0.0659
  H  H29  1  0.764200  0.609600  0.525200  1.0  0.0558
  H  H30  1  0.751900  0.113400  0.626200  1.0  0.0481
  H  H31  1  0.916800  0.137200  0.601400  1.0  0.0545
  H  H32  1  0.943500  0.166800  0.693200  1.0  0.07
  H  H33  1  0.826700  0.360200  0.592200  1.0  0.0581
  H  H34  1  0.822500  0.523000  0.699100  1.0  0.065
  H  H35  1  0.891500  0.420100  0.753400  1.0  0.0784
  H  H36  1  0.744600  0.377600  0.799400  1.0  0.0554
  H  H37  1  0.805500  0.145900  0.792400  1.0  0.0726
  H  H38  1  0.698700  0.127700  0.754800  1.0  0.0657
  H  H39  1  0.254700  0.841700  0.061400  1.0  0.2478
  H  H40  1  0.355600  0.832600  0.092800  1.0  0.2599
  H  H41  1  0.520900  0.420900  0.088600  1.0  0.2814
  H  H42  1  0.498000  0.374300  0.006000  1.0  0.2251
  H  H43  1  0.167300  0.392900  0.142400  1.0  0.2609
  H  H44  1  0.253900  0.311800  0.170800  1.0  0.22
  H  H45  1  0.147300  0.406200  0.855200  1.0  0.2985
  H  H46  1  0.237800  0.394400  0.815100  1.0  0.2682
  H  H47  1  0.042600  0.018200  0.889100  1.0  0.2408
  H  H48  1  0.017500  0.885300  0.933400  1.0  0.2614
  H  H49  1  0.346300  0.985600  0.799000  1.0  0.2674
  H  H50  1  0.390400  0.845200  0.778000  1.0  0.2736
  H  H51  1  0.304700  0.050500  0.135800  1.0  0.0581
  H  H52  1  0.417000  0.102100  0.001800  1.0  0.068
  H  H53  1  0.461400  0.062000  0.088300  1.0  0.0594
  H  H54  1  0.408000  0.289100  0.139100  1.0  0.0562
  H  H55  1  0.322200  0.463100  0.058000  1.0  0.0643
  H  H56  1  0.330800  0.363100  0.981300  1.0  0.0647
  H  H57  1  0.175500  0.333900  0.019100  1.0  0.0668
  H  H58  1  0.167800  0.073100  0.044700  1.0  0.0657
  H  H59  1  0.235800  0.109600  0.974800  1.0  0.057
  H  H60  1  0.248100  0.613400  0.873800  1.0  0.0479
  H  H61  1  0.083200  0.637200  0.898600  1.0  0.0562
  H  H62  1  0.056500  0.666800  0.806800  1.0  0.0687
  H  H63  1  0.173300  0.860200  0.907800  1.0  0.0559
  H  H64  1  0.177500  0.023000  0.800900  1.0  0.0651
  H  H65  1  0.108500  0.920100  0.746600  1.0  0.0793
  H  H66  1  0.255400  0.877600  0.700600  1.0  0.0579
  H  H67  1  0.194500  0.645900  0.707600  1.0  0.0716
  H  H68  1  0.301300  0.627700  0.745200  1.0  0.0684
  H  H69  1  0.254700  0.658300  0.561400  1.0  0.2491
  H  H70  1  0.355600  0.667400  0.592800  1.0  0.2599
  H  H71  1  0.520900  0.079100  0.588600  1.0  0.2808
  H  H72  1  0.498000  0.125700  0.506000  1.0  0.2246
  H  H73  1  0.167300  0.107100  0.642400  1.0  0.2601
  H  H74  1  0.253900  0.188200  0.670800  1.0  0.22
  H  H75  1  0.147300  0.093800  0.355200  1.0  0.2981
  H  H76  1  0.237800  0.105600  0.315100  1.0  0.2694
  H  H77  1  0.042600  0.481800  0.389100  1.0  0.2404
  H  H78  1  0.017500  0.614700  0.433400  1.0  0.2613
  H  H79  1  0.346300  0.514400  0.299000  1.0  0.2672
  H  H80  1  0.390400  0.654800  0.278000  1.0  0.274
  H  H81  1  0.304700  0.449500  0.635800  1.0  0.0576
  H  H82  1  0.417000  0.397900  0.501800  1.0  0.0678
  H  H83  1  0.461400  0.438000  0.588300  1.0  0.0588
  H  H84  1  0.408000  0.210900  0.639100  1.0  0.0561
  H  H85  1  0.322200  0.036900  0.558000  1.0  0.0651
  H  H86  1  0.330800  0.136900  0.481300  1.0  0.0651
  H  H87  1  0.175500  0.166100  0.519100  1.0  0.0672
  H  H88  1  0.167800  0.426900  0.544700  1.0  0.0659
  H  H89  1  0.235800  0.390400  0.474800  1.0  0.0569
  H  H90  1  0.248100  0.886600  0.373800  1.0  0.0481
  H  H91  1  0.083200  0.862800  0.398600  1.0  0.0547
  H  H92  1  0.056500  0.833200  0.306800  1.0  0.0689
  H  H93  1  0.173300  0.639800  0.407800  1.0  0.056
  H  H94  1  0.177500  0.477000  0.300900  1.0  0.066
  H  H95  1  0.108500  0.579900  0.246600  1.0  0.079
  H  H96  1  0.255400  0.622400  0.200600  1.0  0.0582
  H  H97  1  0.194500  0.854100  0.207600  1.0  0.0716
  H  H98  1  0.301300  0.872300  0.245200  1.0  0.0688
  H  H99  1  0.745300  0.158300  0.938600  1.0  0.2484
  H  H100  1  0.644400  0.167400  0.907200  1.0  0.2615
  H  H101  1  0.479100  0.579100  0.911400  1.0  0.2836
  H  H102  1  0.502000  0.625700  0.994000  1.0  0.2237
  H  H103  1  0.832700  0.607100  0.857600  1.0  0.2589
  H  H104  1  0.746100  0.688200  0.829200  1.0  0.2241
  H  H105  1  0.852700  0.593800  0.144800  1.0  0.2974
  H  H106  1  0.762200  0.605600  0.184900  1.0  0.2677
  H  H107  1  0.957400  0.981800  0.110900  1.0  0.2394
  H  H108  1  0.982500  0.114700  0.066600  1.0  0.2625
  H  H109  1  0.653700  0.014400  0.201000  1.0  0.2686
  H  H110  1  0.609600  0.154800  0.222000  1.0  0.2732
  H  H111  1  0.695300  0.949500  0.864200  1.0  0.0593
  H  H112  1  0.583000  0.897900  0.998200  1.0  0.0678
  H  H113  1  0.538600  0.938000  0.911700  1.0  0.0598
  H  H114  1  0.592000  0.710900  0.860900  1.0  0.0559
  H  H115  1  0.677800  0.536900  0.942000  1.0  0.0646
  H  H116  1  0.669200  0.636900  0.018700  1.0  0.0651
  H  H117  1  0.824500  0.666100  0.980900  1.0  0.0674
  H  H118  1  0.832200  0.926900  0.955300  1.0  0.0662
  H  H119  1  0.764200  0.890400  0.025200  1.0  0.056
  H  H120  1  0.751900  0.386600  0.126200  1.0  0.0492
  H  H121  1  0.916800  0.362800  0.101400  1.0  0.0553
  H  H122  1  0.943500  0.333200  0.193200  1.0  0.0696
  H  H123  1  0.826700  0.139800  0.092200  1.0  0.0579
  H  H124  1  0.822500  0.977000  0.199100  1.0  0.0666
  H  H125  1  0.891500  0.079900  0.253400  1.0  0.0789
  H  H126  1  0.744600  0.122400  0.299400  1.0  0.0554
  H  H127  1  0.805500  0.354100  0.292400  1.0  0.0726
  H  H128  1  0.698700  0.372300  0.254800  1.0  0.0656
  C  C129  1  0.687200  0.541000  0.422100  1.0  0.0951
  C  C130  1  0.592100  0.613200  0.441200  1.0  -0.1612
  C  C131  1  0.588800  0.779200  0.419400  1.0  0.096
  C  C132  1  0.676800  0.860600  0.461100  1.0  -0.1596
  C  C133  1  0.773700  0.786200  0.445600  1.0  0.0676
  C  C134  1  0.771100  0.619800  0.467700  1.0  -0.2111
  C  C135  1  0.801100  0.102800  0.671200  1.0  0.0931
  C  C136  1  0.893500  0.181000  0.650000  1.0  -0.1897
  C  C137  1  0.875900  0.347100  0.636900  1.0  0.0883
  C  C138  1  0.839100  0.419700  0.711500  1.0  -0.2226
  C  C139  1  0.750200  0.343100  0.744000  1.0  0.0766
  C  C140  1  0.761800  0.172000  0.746400  1.0  -0.208
  C  C141  1  0.312800  0.041000  0.077900  1.0  0.0948
  C  C142  1  0.407900  0.113200  0.058800  1.0  -0.1605
  C  C143  1  0.411200  0.279200  0.080600  1.0  0.0973
  C  C144  1  0.323200  0.360600  0.038900  1.0  -0.1592
  C  C145  1  0.226300  0.286200  0.054400  1.0  0.0667
  C  C146  1  0.228900  0.119800  0.032300  1.0  -0.2113
  C  C147  1  0.198900  0.602800  0.828800  1.0  0.0931
  C  C148  1  0.106500  0.681000  0.850000  1.0  -0.1889
  C  C149  1  0.124100  0.847100  0.863100  1.0  0.0894
  C  C150  1  0.160900  0.919700  0.788500  1.0  -0.2197
  C  C151  1  0.249800  0.843100  0.756000  1.0  0.0767
  C  C152  1  0.238200  0.672000  0.753600  1.0  -0.2066
  C  C153  1  0.312800  0.459000  0.577900  1.0  0.0957
  C  C154  1  0.407900  0.386800  0.558800  1.0  -0.159
  C  C155  1  0.411200  0.220800  0.580600  1.0  0.0972
  C  C156  1  0.323200  0.139400  0.538900  1.0  -0.1586
  C  C157  1  0.226300  0.213800  0.554400  1.0  0.0667
  C  C158  1  0.228900  0.380200  0.532300  1.0  -0.2113
  C  C159  1  0.198900  0.897200  0.328800  1.0  0.0944
  C  C160  1  0.106500  0.819000  0.350000  1.0  -0.1896
  C  C161  1  0.124100  0.652900  0.363100  1.0  0.0891
  C  C162  1  0.160900  0.580300  0.288500  1.0  -0.2198
  C  C163  1  0.249800  0.656900  0.256000  1.0  0.0773
  C  C164  1  0.238200  0.828000  0.253600  1.0  -0.207
  C  C165  1  0.687200  0.959000  0.922100  1.0  0.0961
  C  C166  1  0.592100  0.886800  0.941200  1.0  -0.1608
  C  C167  1  0.588800  0.720800  0.919400  1.0  0.0953
  C  C168  1  0.676800  0.639400  0.961100  1.0  -0.158
  C  C169  1  0.773700  0.713800  0.945600  1.0  0.0673
  C  C170  1  0.771100  0.880200  0.967700  1.0  -0.2101
  C  C171  1  0.801100  0.397200  0.171200  1.0  0.0942
  C  C172  1  0.893500  0.319000  0.150000  1.0  -0.1896
  C  C173  1  0.875900  0.152900  0.136900  1.0  0.0881
  C  C174  1  0.839100  0.080300  0.211500  1.0  -0.2217
  C  C175  1  0.750200  0.156900  0.244000  1.0  0.0769
  C  C176  1  0.761800  0.328000  0.246400  1.0  -0.2067
  N  N177  1  0.685200  0.379700  0.443400  1.0  -0.74
  N  N178  1  0.494100  0.841300  0.442800  1.0  -0.6784
  N  N179  1  0.801700  0.804500  0.360600  1.0  -0.6799
  N  N180  1  0.820000  0.942100  0.685900  1.0  -0.7067
  N  N181  1  0.968000  0.419100  0.615400  1.0  -0.6873
  N  N182  1  0.659700  0.385600  0.697200  1.0  -0.6638
  N  N183  1  0.314800  0.879700  0.056600  1.0  -0.7366
  N  N184  1  0.505900  0.341300  0.057200  1.0  -0.679
  N  N185  1  0.198300  0.304500  0.139400  1.0  -0.6784
  N  N186  1  0.180000  0.442100  0.814100  1.0  -0.7067
  N  N187  1  0.032000  0.919100  0.884600  1.0  -0.6875
  N  N188  1  0.340300  0.885600  0.802800  1.0  -0.6637
  N  N189  1  0.314800  0.620300  0.556600  1.0  -0.7388
  N  N190  1  0.505900  0.158700  0.557200  1.0  -0.6788
  N  N191  1  0.198300  0.195500  0.639400  1.0  -0.6783
  N  N192  1  0.180000  0.057900  0.314100  1.0  -0.7053
  N  N193  1  0.032000  0.580900  0.384600  1.0  -0.6887
  N  N194  1  0.340300  0.614400  0.302800  1.0  -0.6619
  N  N195  1  0.685200  0.120300  0.943400  1.0  -0.7415
  N  N196  1  0.494100  0.658700  0.942800  1.0  -0.6779
  N  N197  1  0.801700  0.695500  0.860600  1.0  -0.6806
  N  N198  1  0.820000  0.557900  0.185900  1.0  -0.7047
  N  N199  1  0.968000  0.080900  0.115400  1.0  -0.6865
  N  N200  1  0.659700  0.114400  0.197200  1.0  -0.6629
