# generated using pymatgen
data_NdPH12(C3O)7
_symmetry_space_group_name_H-M   'P 1'
_cell_length_a   10.72980000
_cell_length_b   11.90790000
_cell_length_c   14.76780000
_cell_angle_alpha   73.05700000
_cell_angle_beta   71.52800000
_cell_angle_gamma   66.45600000
_symmetry_Int_Tables_number   1
_chemical_formula_structural   NdPH12(C3O)7
_chemical_formula_sum   'Nd2 P2 H24 C42 O14'
_cell_volume   1610.91778398
_cell_formula_units_Z   2
loop_
 _symmetry_equiv_pos_site_id
 _symmetry_equiv_pos_as_xyz
  1  'x, y, z'
loop_
 _atom_site_type_symbol
 _atom_site_label
 _atom_site_symmetry_multiplicity
 _atom_site_fract_x
 _atom_site_fract_y
 _atom_site_fract_z
 _atom_site_occupancy
 _atom_site_charge
  Nd  Nd1  1  0.014950  0.450550  0.371710  1.0  2.3007
  Nd  Nd2  1  0.985050  0.549450  0.628290  1.0  2.303
  P  P3  1  0.859280  0.281900  0.273520  1.0  1.1353
  P  P4  1  0.140720  0.718100  0.726480  1.0  1.1353
  H  H5  1  0.497700  0.362600  0.557800  1.0  0.1143
  H  H6  1  0.049800  0.102800  0.381400  1.0  0.1018
  H  H7  1  0.726300  0.319600  0.463200  1.0  0.1052
  H  H8  1  0.027800  0.175300  0.107500  1.0  0.1105
  H  H9  1  0.359100  0.385300  0.324600  1.0  0.0999
  H  H10  1  0.589400  0.334900  0.231100  1.0  0.1054
  H  H11  1  0.815200  0.084100  0.221800  1.0  0.1065
  H  H12  1  0.750300  0.577500  0.983400  1.0  0.1172
  H  H13  1  0.060600  0.250900  0.939200  1.0  0.108
  H  H14  1  0.115400  0.887000  0.435300  1.0  0.106
  H  H15  1  0.895400  0.864400  0.267200  1.0  0.1139
  H  H16  1  0.725600  0.508200  0.152300  1.0  0.1114
  H  H17  1  0.502300  0.637400  0.442200  1.0  0.114
  H  H18  1  0.950200  0.897200  0.618600  1.0  0.1019
  H  H19  1  0.273700  0.680400  0.536800  1.0  0.1051
  H  H20  1  0.972200  0.824700  0.892500  1.0  0.1104
  H  H21  1  0.640900  0.614700  0.675400  1.0  0.1003
  H  H22  1  0.410600  0.665100  0.768900  1.0  0.1049
  H  H23  1  0.184800  0.915900  0.778200  1.0  0.1063
  H  H24  1  0.249700  0.422500  0.016600  1.0  0.1171
  H  H25  1  0.939400  0.749100  0.060800  1.0  0.1082
  H  H26  1  0.884600  0.113000  0.564700  1.0  0.1064
  H  H27  1  0.104600  0.135600  0.732800  1.0  0.1142
  H  H28  1  0.274400  0.491800  0.847700  1.0  0.1109
  C  C29  1  0.871600  0.334300  0.145600  1.0  -0.3062
  C  C30  1  0.516100  0.358500  0.491400  1.0  -0.0533
  C  C31  1  0.924000  0.113500  0.298700  1.0  -0.3048
  C  C32  1  0.679000  0.325000  0.337900  1.0  -0.2951
  C  C33  1  0.015100  0.055100  0.360400  1.0  -0.0194
  C  C34  1  0.651900  0.332400  0.435300  1.0  -0.0232
  C  C35  1  0.406000  0.379000  0.450000  1.0  -0.1168
  C  C36  1  0.972400  0.257000  0.082700  1.0  -0.0518
  C  C37  1  0.433600  0.371100  0.352800  1.0  -0.0409
  C  C38  1  0.570300  0.342500  0.296800  1.0  -0.0245
  C  C39  1  0.877400  0.043700  0.264200  1.0  -0.0299
  C  C40  1  0.907300  0.420200  0.945700  1.0  -0.0704
  C  C41  1  0.929800  0.462800  0.837400  1.0  0.6888
  C  C42  1  0.807400  0.496800  0.008500  1.0  -0.0712
  C  C43  1  0.990500  0.301900  0.982600  1.0  -0.0721
  C  C44  1  0.008600  0.856300  0.358500  1.0  -0.1037
  C  C45  1  0.055400  0.926900  0.391400  1.0  -0.0534
  C  C46  1  0.922900  0.913300  0.292700  1.0  -0.0547
  C  C47  1  0.044900  0.717600  0.397800  1.0  0.7523
  C  C48  1  0.260600  0.412700  0.511000  1.0  0.7169
  C  C49  1  0.791200  0.454800  0.109000  1.0  -0.0226
  C  C50  1  0.128400  0.665700  0.854400  1.0  -0.308
  C  C51  1  0.483900  0.641500  0.508600  1.0  -0.053
  C  C52  1  0.076000  0.886500  0.701300  1.0  -0.3052
  C  C53  1  0.321000  0.675000  0.662100  1.0  -0.2982
  C  C54  1  0.984900  0.944900  0.639600  1.0  -0.0178
  C  C55  1  0.348100  0.667600  0.564700  1.0  -0.0218
  C  C56  1  0.594000  0.621000  0.550000  1.0  -0.1167
  C  C57  1  0.027600  0.743000  0.917300  1.0  -0.051
  C  C58  1  0.566400  0.628900  0.647200  1.0  -0.041
  C  C59  1  0.429700  0.657500  0.703200  1.0  -0.0255
  C  C60  1  0.122600  0.956300  0.735800  1.0  -0.0305
  C  C61  1  0.092700  0.579800  0.054300  1.0  -0.0733
  C  C62  1  0.070200  0.537200  0.162600  1.0  0.6864
  C  C63  1  0.192600  0.503200  0.991500  1.0  -0.07
  C  C64  1  0.009500  0.698100  0.017400  1.0  -0.0693
  C  C65  1  0.991400  0.143700  0.641500  1.0  -0.1024
  C  C66  1  0.944600  0.073100  0.608600  1.0  -0.0532
  C  C67  1  0.077100  0.086700  0.707300  1.0  -0.0542
  C  C68  1  0.955100  0.282400  0.602200  1.0  0.7517
  C  C69  1  0.739400  0.587300  0.489000  1.0  0.7147
  C  C70  1  0.208800  0.545200  0.891000  1.0  -0.0236
  O  O71  1  0.048900  0.418700  0.785400  1.0  -0.6512
  O  O72  1  0.238700  0.433900  0.594700  1.0  -0.6624
  O  O73  1  0.072400  0.679900  0.480700  1.0  -0.7267
  O  O74  1  0.826600  0.540400  0.800300  1.0  -0.6954
  O  O75  1  0.042500  0.651500  0.346200  1.0  -0.7081
  O  O76  1  0.159400  0.422900  0.477500  1.0  -0.8588
  O  O77  1  0.939100  0.329700  0.311100  1.0  -0.8743
  O  O78  1  0.951100  0.581300  0.214600  1.0  -0.6498
  O  O79  1  0.761300  0.566100  0.405300  1.0  -0.6625
  O  O80  1  0.927600  0.320100  0.519300  1.0  -0.7276
  O  O81  1  0.173400  0.459600  0.199700  1.0  -0.6958
  O  O82  1  0.957500  0.348500  0.653800  1.0  -0.7086
  O  O83  1  0.840600  0.577100  0.522500  1.0  -0.8599
  O  O84  1  0.060900  0.670300  0.688900  1.0  -0.8749
