# generated using pymatgen
data_SmPH12(C3O)7
_symmetry_space_group_name_H-M   'P 1'
_cell_length_a   10.74590000
_cell_length_b   11.86550000
_cell_length_c   14.67520000
_cell_angle_alpha   73.26700000
_cell_angle_beta   71.82400000
_cell_angle_gamma   66.79900000
_symmetry_Int_Tables_number   1
_chemical_formula_structural   SmPH12(C3O)7
_chemical_formula_sum   'Sm2 P2 H24 C42 O14'
_cell_volume   1604.58784797
_cell_formula_units_Z   2
loop_
 _symmetry_equiv_pos_site_id
 _symmetry_equiv_pos_as_xyz
  1  'x, y, z'
loop_
 _atom_site_type_symbol
 _atom_site_label
 _atom_site_symmetry_multiplicity
 _atom_site_fract_x
 _atom_site_fract_y
 _atom_site_fract_z
 _atom_site_occupancy
 _atom_site_charge
  Sm  Sm1  1  0.012980  0.449690  0.372090  1.0  2.3013
  Sm  Sm2  1  0.987020  0.550310  0.627910  1.0  2.3031
  P  P3  1  0.856630  0.281960  0.274290  1.0  1.1376
  P  P4  1  0.143370  0.718040  0.725710  1.0  1.1377
  H  H5  1  0.493800  0.365700  0.556900  1.0  0.1131
  H  H6  1  0.046100  0.102700  0.383100  1.0  0.1028
  H  H7  1  0.721200  0.322200  0.464300  1.0  0.1105
  H  H8  1  0.027800  0.179900  0.106800  1.0  0.1011
  H  H9  1  0.358400  0.383100  0.323000  1.0  0.1057
  H  H10  1  0.589200  0.333200  0.230000  1.0  0.1057
  H  H11  1  0.812500  0.082700  0.221500  1.0  0.1102
  H  H12  1  0.749900  0.577300  0.983300  1.0  0.118
  H  H13  1  0.064600  0.254600  0.938600  1.0  0.114
  H  H14  1  0.113800  0.886600  0.434600  1.0  0.1037
  H  H15  1  0.889600  0.865200  0.267500  1.0  0.1075
  H  H16  1  0.723200  0.505500  0.151600  1.0  0.1051
  H  H17  1  0.506200  0.634300  0.443100  1.0  0.1132
  H  H18  1  0.953900  0.897300  0.616900  1.0  0.1015
  H  H19  1  0.278800  0.677800  0.535700  1.0  0.1106
  H  H20  1  0.972200  0.820100  0.893200  1.0  0.1022
  H  H21  1  0.641600  0.616900  0.677000  1.0  0.1063
  H  H22  1  0.410800  0.666800  0.770000  1.0  0.1036
  H  H23  1  0.187500  0.917300  0.778500  1.0  0.1101
  H  H24  1  0.250100  0.422700  0.016700  1.0  0.1179
  H  H25  1  0.935400  0.745400  0.061400  1.0  0.1144
  H  H26  1  0.886200  0.113400  0.565400  1.0  0.1031
  H  H27  1  0.110400  0.134800  0.732500  1.0  0.1078
  H  H28  1  0.276800  0.494500  0.848400  1.0  0.1069
  C  C29  1  0.869500  0.334100  0.145500  1.0  -0.2489
  C  C30  1  0.513000  0.360100  0.490300  1.0  -0.034
  C  C31  1  0.921800  0.113700  0.298600  1.0  -0.3278
  C  C32  1  0.676200  0.323900  0.338000  1.0  -0.2942
  C  C33  1  0.012100  0.054900  0.361000  1.0  -0.0246
  C  C34  1  0.647900  0.333700  0.435700  1.0  -0.0439
  C  C35  1  0.404800  0.378600  0.448700  1.0  -0.1125
  C  C36  1  0.971500  0.261000  0.081800  1.0  -0.0373
  C  C37  1  0.432200  0.369700  0.351700  1.0  -0.0405
  C  C38  1  0.569500  0.340900  0.296100  1.0  -0.0199
  C  C39  1  0.874500  0.042600  0.264200  1.0  -0.0471
  C  C40  1  0.908300  0.420600  0.945000  1.0  -0.092
  C  C41  1  0.930200  0.464900  0.835900  1.0  0.7157
  C  C42  1  0.806900  0.496600  0.008300  1.0  -0.0883
  C  C43  1  0.992400  0.304600  0.981800  1.0  -0.0824
  C  C44  1  0.005100  0.855400  0.358400  1.0  -0.1221
  C  C45  1  0.052800  0.926400  0.391100  1.0  -0.0515
  C  C46  1  0.918500  0.913800  0.292700  1.0  -0.0555
  C  C47  1  0.040800  0.717300  0.397800  1.0  0.7433
  C  C48  1  0.258300  0.413500  0.508800  1.0  0.6924
  C  C49  1  0.790200  0.453000  0.108100  1.0  -0.0276
  C  C50  1  0.130500  0.665900  0.854500  1.0  -0.2507
  C  C51  1  0.487000  0.639900  0.509700  1.0  -0.0347
  C  C52  1  0.078200  0.886300  0.701400  1.0  -0.3276
  C  C53  1  0.323800  0.676100  0.662000  1.0  -0.2953
  C  C54  1  0.987900  0.945100  0.639000  1.0  -0.023
  C  C55  1  0.352100  0.666300  0.564300  1.0  -0.0444
  C  C56  1  0.595200  0.621400  0.551300  1.0  -0.114
  C  C57  1  0.028500  0.739000  0.918200  1.0  -0.0371
  C  C58  1  0.567800  0.630300  0.648300  1.0  -0.0404
  C  C59  1  0.430500  0.659100  0.703900  1.0  -0.0209
  C  C60  1  0.125500  0.957400  0.735800  1.0  -0.0474
  C  C61  1  0.091700  0.579400  0.055000  1.0  -0.0945
  C  C62  1  0.069800  0.535100  0.164100  1.0  0.7108
  C  C63  1  0.193100  0.503400  0.991700  1.0  -0.0897
  C  C64  1  0.007600  0.695400  0.018200  1.0  -0.0793
  C  C65  1  0.994900  0.144600  0.641600  1.0  -0.1208
  C  C66  1  0.947200  0.073600  0.608900  1.0  -0.0519
  C  C67  1  0.081500  0.086200  0.707300  1.0  -0.0555
  C  C68  1  0.959200  0.282700  0.602200  1.0  0.7497
  C  C69  1  0.741700  0.586500  0.491200  1.0  0.6906
  C  C70  1  0.209800  0.547000  0.891900  1.0  -0.0338
  O  O71  1  0.050600  0.422900  0.784200  1.0  -0.6579
  O  O72  1  0.236200  0.436300  0.592110  1.0  -0.6814
  O  O73  1  0.069400  0.680200  0.481270  1.0  -0.7158
  O  O74  1  0.829400  0.541500  0.797970  1.0  -0.6645
  O  O75  1  0.036700  0.650400  0.346960  1.0  -0.7084
  O  O76  1  0.159900  0.424300  0.473260  1.0  -0.8301
  O  O77  1  0.935100  0.330100  0.312760  1.0  -0.8686
  O  O78  1  0.949400  0.577100  0.215800  1.0  -0.6572
  O  O79  1  0.763800  0.563700  0.407890  1.0  -0.6923
  O  O80  1  0.930600  0.319800  0.518730  1.0  -0.7175
  O  O81  1  0.170600  0.458500  0.202030  1.0  -0.6662
  O  O82  1  0.963300  0.349600  0.653040  1.0  -0.7093
  O  O83  1  0.840100  0.575700  0.526740  1.0  -0.8286
  O  O84  1  0.064900  0.669900  0.687240  1.0  -0.8688
