# generated using pymatgen
data_GdPH12(C3O)7
_symmetry_space_group_name_H-M   'P 1'
_cell_length_a   10.79610000
_cell_length_b   11.83330000
_cell_length_c   14.57790000
_cell_angle_alpha   73.78800000
_cell_angle_beta   72.08300000
_cell_angle_gamma   67.04900000
_symmetry_Int_Tables_number   1
_chemical_formula_structural   GdPH12(C3O)7
_chemical_formula_sum   'Gd2 P2 H24 C42 O14'
_cell_volume   1604.60739904
_cell_formula_units_Z   2
loop_
 _symmetry_equiv_pos_site_id
 _symmetry_equiv_pos_as_xyz
  1  'x, y, z'
loop_
 _atom_site_type_symbol
 _atom_site_label
 _atom_site_symmetry_multiplicity
 _atom_site_fract_x
 _atom_site_fract_y
 _atom_site_fract_z
 _atom_site_occupancy
 _atom_site_charge
  Gd  Gd1  1  0.010740  0.447710  0.371850  1.0  2.2016
  Gd  Gd2  1  0.989260  0.552290  0.628150  1.0  2.2061
  P  P3  1  0.854370  0.280330  0.274380  1.0  1.1218
  P  P4  1  0.145630  0.719670  0.725620  1.0  1.1218
  H  H5  1  0.488200  0.368900  0.555200  1.0  0.1177
  H  H6  1  0.043500  0.102300  0.382200  1.0  0.1055
  H  H7  1  0.716500  0.324800  0.463700  1.0  0.1119
  H  H8  1  0.033100  0.181400  0.106400  1.0  0.104
  H  H9  1  0.362200  0.376400  0.318600  1.0  0.1065
  H  H10  1  0.591100  0.325200  0.228400  1.0  0.1077
  H  H11  1  0.811600  0.079900  0.219400  1.0  0.1101
  H  H12  1  0.748900  0.573400  0.981900  1.0  0.1171
  H  H13  1  0.071900  0.257600  0.937500  1.0  0.1116
  H  H14  1  0.107400  0.885400  0.435800  1.0  0.1029
  H  H15  1  0.887600  0.863000  0.265300  1.0  0.1127
  H  H16  1  0.718800  0.501900  0.151600  1.0  0.1113
  H  H17  1  0.511800  0.631100  0.444800  1.0  0.1167
  H  H18  1  0.956500  0.897700  0.617800  1.0  0.1056
  H  H19  1  0.283500  0.675200  0.536300  1.0  0.1122
  H  H20  1  0.966900  0.818600  0.893600  1.0  0.1042
  H  H21  1  0.637800  0.623600  0.681400  1.0  0.1069
  H  H22  1  0.408900  0.674800  0.771600  1.0  0.1068
  H  H23  1  0.188400  0.920100  0.780600  1.0  0.11
  H  H24  1  0.251100  0.426600  0.018100  1.0  0.1168
  H  H25  1  0.928100  0.742400  0.062500  1.0  0.1122
  H  H26  1  0.892600  0.114600  0.564200  1.0  0.103
  H  H27  1  0.112400  0.137000  0.734700  1.0  0.1129
  H  H28  1  0.281200  0.498100  0.848400  1.0  0.1115
  C  C29  1  0.868300  0.333000  0.144800  1.0  -0.2861
  C  C30  1  0.508900  0.361600  0.488500  1.0  -0.0568
  C  C31  1  0.918900  0.111900  0.297700  1.0  -0.3115
  C  C32  1  0.674900  0.321500  0.337000  1.0  -0.2932
  C  C33  1  0.008900  0.054200  0.360500  1.0  -0.0286
  C  C34  1  0.644800  0.334400  0.434400  1.0  -0.0274
  C  C35  1  0.403600  0.378000  0.445400  1.0  -0.1183
  C  C36  1  0.975300  0.261100  0.081200  1.0  -0.0272
  C  C37  1  0.434200  0.365100  0.348200  1.0  -0.0466
  C  C38  1  0.570200  0.335600  0.294400  1.0  -0.0306
  C  C39  1  0.872600  0.040400  0.262700  1.0  -0.0383
  C  C40  1  0.911900  0.420900  0.943200  1.0  -0.078
  C  C41  1  0.935900  0.465600  0.834200  1.0  0.6905
  C  C42  1  0.807200  0.493900  0.007000  1.0  -0.0748
  C  C43  1  0.997500  0.306100  0.980700  1.0  -0.0768
  C  C44  1  0.000800  0.854200  0.357900  1.0  -0.1171
  C  C45  1  0.047900  0.925000  0.391400  1.0  -0.0503
  C  C46  1  0.915900  0.911900  0.291200  1.0  -0.0599
  C  C47  1  0.034700  0.716100  0.398300  1.0  0.7453
  C  C48  1  0.257000  0.414700  0.504400  1.0  0.7341
  C  C49  1  0.787900  0.450300  0.108000  1.0  -0.0152
  C  C50  1  0.131700  0.667000  0.855200  1.0  -0.2869
  C  C51  1  0.491100  0.638400  0.511500  1.0  -0.0573
  C  C52  1  0.081100  0.888100  0.702300  1.0  -0.3114
  C  C53  1  0.325100  0.678500  0.663000  1.0  -0.2934
  C  C54  1  0.991100  0.945800  0.639500  1.0  -0.0275
  C  C55  1  0.355200  0.665600  0.565600  1.0  -0.0306
  C  C56  1  0.596400  0.622000  0.554600  1.0  -0.1186
  C  C57  1  0.024700  0.738900  0.918800  1.0  -0.0277
  C  C58  1  0.565800  0.634900  0.651800  1.0  -0.0469
  C  C59  1  0.429800  0.664400  0.705600  1.0  -0.0302
  C  C60  1  0.127400  0.959600  0.737300  1.0  -0.039
  C  C61  1  0.088100  0.579100  0.056800  1.0  -0.0845
  C  C62  1  0.064100  0.534400  0.165800  1.0  0.6896
  C  C63  1  0.192800  0.506100  0.993000  1.0  -0.0748
  C  C64  1  0.002500  0.693900  0.019300  1.0  -0.0749
  C  C65  1  0.999200  0.145800  0.642100  1.0  -0.116
  C  C66  1  0.952100  0.075000  0.608600  1.0  -0.0501
  C  C67  1  0.084100  0.088100  0.708800  1.0  -0.0599
  C  C68  1  0.965300  0.283900  0.601700  1.0  0.7457
  C  C69  1  0.743000  0.585300  0.495600  1.0  0.733
  C  C70  1  0.212100  0.549700  0.892000  1.0  -0.0157
  O  O71  1  0.056700  0.425700  0.783640  1.0  -0.6501
  O  O72  1  0.233200  0.440800  0.587550  1.0  -0.6264
  O  O73  1  0.065600  0.680100  0.481200  1.0  -0.7238
  O  O74  1  0.836100  0.541200  0.795680  1.0  -0.6934
  O  O75  1  0.027200  0.649500  0.348030  1.0  -0.6912
  O  O76  1  0.161200  0.424700  0.466480  1.0  -0.8313
  O  O77  1  0.930800  0.328700  0.315070  1.0  -0.8544
  O  O78  1  0.943300  0.574300  0.216360  1.0  -0.65
  O  O79  1  0.766800  0.559200  0.412450  1.0  -0.6261
  O  O80  1  0.934400  0.319900  0.518800  1.0  -0.7226
  O  O81  1  0.163900  0.458800  0.204320  1.0  -0.6933
  O  O82  1  0.972800  0.350500  0.651970  1.0  -0.6926
  O  O83  1  0.838800  0.575300  0.533520  1.0  -0.8323
  O  O84  1  0.069200  0.671300  0.684930  1.0  -0.8575
