# generated using pymatgen
data_EuPH12(C3O)7
_symmetry_space_group_name_H-M   'P 1'
_cell_length_a   10.72400000
_cell_length_b   11.83100000
_cell_length_c   14.59300000
_cell_angle_alpha   73.66000000
_cell_angle_beta   71.98000000
_cell_angle_gamma   66.90000000
_symmetry_Int_Tables_number   1
_chemical_formula_structural   EuPH12(C3O)7
_chemical_formula_sum   'Eu2 P2 H24 C42 O14'
_cell_volume   1592.19596024
_cell_formula_units_Z   2
loop_
 _symmetry_equiv_pos_site_id
 _symmetry_equiv_pos_as_xyz
  1  'x, y, z'
loop_
 _atom_site_type_symbol
 _atom_site_label
 _atom_site_symmetry_multiplicity
 _atom_site_fract_x
 _atom_site_fract_y
 _atom_site_fract_z
 _atom_site_occupancy
 _atom_site_charge
  Eu  Eu1  1  0.012430  0.448790  0.372230  1.0  2.1599
  Eu  Eu2  1  0.987570  0.551210  0.627770  1.0  2.1631
  P  P3  1  0.857260  0.280550  0.273800  1.0  1.1518
  P  P4  1  0.142740  0.719450  0.726200  1.0  1.1511
  H  H5  1  0.492300  0.367700  0.557400  1.0  0.1213
  H  H6  1  0.045800  0.102400  0.383800  1.0  0.1071
  H  H7  1  0.720100  0.321400  0.465000  1.0  0.1063
  H  H8  1  0.031400  0.178300  0.104100  1.0  0.1124
  H  H9  1  0.358500  0.383200  0.321800  1.0  0.1056
  H  H10  1  0.589100  0.328200  0.228600  1.0  0.1188
  H  H11  1  0.812600  0.080900  0.220100  1.0  0.1131
  H  H12  1  0.749300  0.576500  0.983100  1.0  0.1268
  H  H13  1  0.064200  0.253200  0.936800  1.0  0.1157
  H  H14  1  0.114100  0.885100  0.434600  1.0  0.1066
  H  H15  1  0.888700  0.863700  0.266300  1.0  0.1171
  H  H16  1  0.724100  0.504400  0.151800  1.0  0.109
  H  H17  1  0.507700  0.632300  0.442600  1.0  0.1204
  H  H18  1  0.954200  0.897600  0.616200  1.0  0.1068
  H  H19  1  0.279900  0.678600  0.535000  1.0  0.1071
  H  H20  1  0.968600  0.821700  0.895900  1.0  0.1129
  H  H21  1  0.641500  0.616800  0.678200  1.0  0.1053
  H  H22  1  0.410900  0.671800  0.771400  1.0  0.1172
  H  H23  1  0.187400  0.919100  0.779900  1.0  0.113
  H  H24  1  0.250700  0.423500  0.016900  1.0  0.1265
  H  H25  1  0.935800  0.746800  0.063200  1.0  0.1158
  H  H26  1  0.885900  0.114900  0.565400  1.0  0.1069
  H  H27  1  0.111300  0.136300  0.733700  1.0  0.1173
  H  H28  1  0.275900  0.495600  0.848200  1.0  0.1084
  C  C29  1  0.871300  0.332500  0.144300  1.0  -0.2562
  C  C30  1  0.511800  0.360700  0.490800  1.0  -0.0461
  C  C31  1  0.921800  0.113100  0.297300  1.0  -0.3179
  C  C32  1  0.677500  0.322400  0.337300  1.0  -0.3443
  C  C33  1  0.012200  0.054300  0.361100  1.0  -0.0285
  C  C34  1  0.647100  0.333200  0.435800  1.0  -0.0482
  C  C35  1  0.404800  0.378200  0.448600  1.0  -0.1212
  C  C36  1  0.974100  0.259200  0.079700  1.0  -0.0813
  C  C37  1  0.432800  0.368700  0.350700  1.0  -0.0554
  C  C38  1  0.569600  0.338200  0.294500  1.0  -0.0287
  C  C39  1  0.874500  0.041200  0.263100  1.0  -0.0377
  C  C40  1  0.909200  0.420500  0.943800  1.0  -0.0977
  C  C41  1  0.932800  0.464700  0.834600  1.0  0.7139
  C  C42  1  0.807100  0.496000  0.007700  1.0  -0.0665
  C  C43  1  0.992900  0.303500  0.980700  1.0  -0.067
  C  C44  1  0.004300  0.854000  0.357900  1.0  -0.119
  C  C45  1  0.052800  0.925100  0.391100  1.0  -0.0502
  C  C46  1  0.917900  0.912400  0.291800  1.0  -0.0622
  C  C47  1  0.038700  0.717100  0.397700  1.0  0.7619
  C  C48  1  0.258400  0.415000  0.507200  1.0  0.709
  C  C49  1  0.790900  0.452200  0.107600  1.0  -0.0224
  C  C50  1  0.128700  0.667500  0.855700  1.0  -0.2577
  C  C51  1  0.488200  0.639300  0.509200  1.0  -0.0479
  C  C52  1  0.078200  0.886900  0.702700  1.0  -0.3176
  C  C53  1  0.322500  0.677600  0.662700  1.0  -0.3453
  C  C54  1  0.987800  0.945700  0.638900  1.0  -0.0269
  C  C55  1  0.352900  0.666800  0.564200  1.0  -0.0491
  C  C56  1  0.595200  0.621800  0.551400  1.0  -0.122
  C  C57  1  0.025900  0.740800  0.920300  1.0  -0.0807
  C  C58  1  0.567200  0.631300  0.649300  1.0  -0.0549
  C  C59  1  0.430400  0.661800  0.705500  1.0  -0.0293
  C  C60  1  0.125500  0.958800  0.736900  1.0  -0.038
  C  C61  1  0.090800  0.579500  0.056200  1.0  -0.1001
  C  C62  1  0.067200  0.535300  0.165400  1.0  0.7139
  C  C63  1  0.192900  0.504000  0.992300  1.0  -0.0667
  C  C64  1  0.007100  0.696500  0.019300  1.0  -0.065
  C  C65  1  0.995700  0.146000  0.642100  1.0  -0.1178
  C  C66  1  0.947200  0.074900  0.608900  1.0  -0.05
  C  C67  1  0.082100  0.087600  0.708200  1.0  -0.0604
  C  C68  1  0.961300  0.282900  0.602300  1.0  0.7619
  C  C69  1  0.741600  0.585000  0.492800  1.0  0.7083
  C  C70  1  0.209100  0.547800  0.892400  1.0  -0.0226
  O  O71  1  0.053200  0.424800  0.783600  1.0  -0.6158
  O  O72  1  0.235700  0.439300  0.590500  1.0  -0.6343
  O  O73  1  0.067300  0.680600  0.482300  1.0  -0.7209
  O  O74  1  0.832200  0.541000  0.796300  1.0  -0.6608
  O  O75  1  0.033500  0.648800  0.347300  1.0  -0.701
  O  O76  1  0.159700  0.425000  0.471500  1.0  -0.816
  O  O77  1  0.935900  0.329000  0.313000  1.0  -0.8571
  O  O78  1  0.946800  0.575200  0.216400  1.0  -0.6145
  O  O79  1  0.764300  0.560700  0.409500  1.0  -0.6323
  O  O80  1  0.932700  0.319400  0.517700  1.0  -0.7207
  O  O81  1  0.167800  0.459000  0.203700  1.0  -0.6623
  O  O82  1  0.966500  0.351200  0.652700  1.0  -0.7022
  O  O83  1  0.840300  0.575000  0.528500  1.0  -0.8156
  O  O84  1  0.064100  0.671000  0.687000  1.0  -0.8562
