# generated using pymatgen
data_MnCu3C9ClO18
_symmetry_space_group_name_H-M   'P 1'
_cell_length_a   16.96300000
_cell_length_b   18.28300000
_cell_length_c   18.37300000
_cell_angle_alpha   90.00000000
_cell_angle_beta   90.00000000
_cell_angle_gamma   90.00000000
_symmetry_Int_Tables_number   1
_chemical_formula_structural   MnCu3C9ClO18
_chemical_formula_sum   'Mn4 Cu12 C36 Cl4 O72'
_cell_volume   5698.10170132
_cell_formula_units_Z   4
loop_
 _symmetry_equiv_pos_site_id
 _symmetry_equiv_pos_as_xyz
  1  'x, y, z'
loop_
 _atom_site_type_symbol
 _atom_site_label
 _atom_site_symmetry_multiplicity
 _atom_site_fract_x
 _atom_site_fract_y
 _atom_site_fract_z
 _atom_site_occupancy
 _atom_site_charge
  Mn  Mn1  1  0.896100  0.592930  0.110030  1.0  1.2086
  Mn  Mn2  1  0.603900  0.407070  0.610030  1.0  1.2118
  Mn  Mn3  1  0.103900  0.092930  0.389970  1.0  1.2119
  Mn  Mn4  1  0.396100  0.907070  0.889970  1.0  1.2088
  Cu  Cu5  1  0.635890  0.701620  0.943450  1.0  1.0064
  Cu  Cu6  1  0.700960  0.556400  0.865940  1.0  0.9321
  Cu  Cu7  1  0.552420  0.647190  0.793330  1.0  0.9104
  Cu  Cu8  1  0.864110  0.298380  0.443450  1.0  1.0082
  Cu  Cu9  1  0.799040  0.443600  0.365940  1.0  0.9314
  Cu  Cu10  1  0.947580  0.352810  0.293330  1.0  0.9094
  Cu  Cu11  1  0.364110  0.201620  0.556550  1.0  1.0066
  Cu  Cu12  1  0.299040  0.056400  0.634060  1.0  0.9307
  Cu  Cu13  1  0.447580  0.147190  0.706670  1.0  0.912
  Cu  Cu14  1  0.135890  0.798380  0.056550  1.0  1.005
  Cu  Cu15  1  0.200960  0.943600  0.134060  1.0  0.9325
  Cu  Cu16  1  0.052420  0.852810  0.206670  1.0  0.9121
  C  C17  1  0.755300  0.672800  0.035100  1.0  0.7311
  C  C18  1  0.725400  0.593300  0.009200  1.0  0.2074
  C  C19  1  0.796500  0.546700  0.977000  1.0  0.6844
  C  C20  1  0.681400  0.483300  0.738400  1.0  0.7084
  C  C21  1  0.594800  0.503700  0.764300  1.0  0.287
  C  C22  1  0.548100  0.532500  0.698900  1.0  0.7042
  C  C23  1  0.473300  0.772500  0.817800  1.0  0.7456
  C  C24  1  0.485900  0.743200  0.893700  1.0  0.2273
  C  C25  1  0.519800  0.803600  0.943500  1.0  0.766
  C  C26  1  0.744700  0.327200  0.535100  1.0  0.7321
  C  C27  1  0.774600  0.406700  0.509200  1.0  0.2069
  C  C28  1  0.703500  0.453300  0.477000  1.0  0.6829
  C  C29  1  0.818600  0.516700  0.238400  1.0  0.7109
  C  C30  1  0.905200  0.496300  0.264300  1.0  0.2858
  C  C31  1  0.951900  0.467500  0.198900  1.0  0.7008
  C  C32  1  0.026700  0.227500  0.317800  1.0  0.7447
  C  C33  1  0.014100  0.256800  0.393700  1.0  0.2266
  C  C34  1  0.980200  0.196400  0.443500  1.0  0.7659
  C  C35  1  0.244700  0.172800  0.464900  1.0  0.7335
  C  C36  1  0.274600  0.093300  0.490800  1.0  0.2071
  C  C37  1  0.203500  0.046700  0.523000  1.0  0.6832
  C  C38  1  0.318600  0.983300  0.761600  1.0  0.7107
  C  C39  1  0.405200  0.003700  0.735700  1.0  0.2857
  C  C40  1  0.451900  0.032500  0.801100  1.0  0.7023
  C  C41  1  0.526700  0.272500  0.682200  1.0  0.7425
  C  C42  1  0.514100  0.243200  0.606300  1.0  0.2264
  C  C43  1  0.480200  0.303600  0.556500  1.0  0.7671
  C  C44  1  0.255300  0.827200  0.964900  1.0  0.7319
  C  C45  1  0.225400  0.906700  0.990800  1.0  0.2079
  C  C46  1  0.296500  0.953300  0.023000  1.0  0.6831
  C  C47  1  0.181400  0.016700  0.261600  1.0  0.7095
  C  C48  1  0.094800  0.996300  0.235700  1.0  0.2859
  C  C49  1  0.048100  0.967500  0.301100  1.0  0.7045
  C  C50  1  0.973300  0.727500  0.182200  1.0  0.742
  C  C51  1  0.985900  0.756800  0.106300  1.0  0.2266
  C  C52  1  0.019800  0.696400  0.056500  1.0  0.7648
  Cl  Cl53  1  0.705400  0.697800  0.820400  1.0  -0.3793
  Cl  Cl54  1  0.794600  0.302200  0.320400  1.0  -0.3773
  Cl  Cl55  1  0.294600  0.197800  0.679600  1.0  -0.3779
  Cl  Cl56  1  0.205400  0.802200  0.179600  1.0  -0.38
  O  O57  1  0.808900  0.674600  0.079300  1.0  -0.4921
  O  O58  1  0.720400  0.725700  0.007500  1.0  -0.4508
  O  O59  1  0.692600  0.556200  0.072900  1.0  -0.5306
  O  O60  1  0.669000  0.599100  0.956900  1.0  -0.5563
  O  O61  1  0.849400  0.530000  0.023600  1.0  -0.4852
  O  O62  1  0.794000  0.528800  0.914700  1.0  -0.4178
  O  O63  1  0.691300  0.449400  0.682500  1.0  -0.4996
  O  O64  1  0.736400  0.501300  0.782900  1.0  -0.4823
  O  O65  1  0.559300  0.441900  0.791600  1.0  -0.4278
  O  O66  1  0.599900  0.554900  0.817700  1.0  -0.5714
  O  O67  1  0.530500  0.492900  0.649400  1.0  -0.4386
  O  O68  1  0.529800  0.600900  0.702600  1.0  -0.4858
  O  O69  1  0.436700  0.830700  0.809500  1.0  -0.5177
  O  O70  1  0.498700  0.736100  0.766300  1.0  -0.4525
  O  O71  1  0.413700  0.715900  0.919400  1.0  -0.4242
  O  O72  1  0.539800  0.683700  0.890300  1.0  -0.5899
  O  O73  1  0.479800  0.858000  0.956600  1.0  -0.452
  O  O74  1  0.586100  0.791700  0.969500  1.0  -0.4777
  O  O75  1  0.691100  0.325400  0.579300  1.0  -0.495
  O  O76  1  0.779600  0.274300  0.507500  1.0  -0.4457
  O  O77  1  0.807400  0.443800  0.572900  1.0  -0.5349
  O  O78  1  0.831000  0.400900  0.456900  1.0  -0.5554
  O  O79  1  0.650600  0.470000  0.523600  1.0  -0.4868
  O  O80  1  0.706000  0.471200  0.414700  1.0  -0.4149
  O  O81  1  0.808700  0.550600  0.182500  1.0  -0.5013
  O  O82  1  0.763600  0.498700  0.282900  1.0  -0.4768
  O  O83  1  0.940700  0.558100  0.291600  1.0  -0.426
  O  O84  1  0.900100  0.445100  0.317700  1.0  -0.5724
  O  O85  1  0.969500  0.507100  0.149400  1.0  -0.4335
  O  O86  1  0.970200  0.399100  0.202600  1.0  -0.48
  O  O87  1  0.063300  0.169300  0.309500  1.0  -0.5181
  O  O88  1  0.001300  0.263900  0.266300  1.0  -0.4488
  O  O89  1  0.086300  0.284100  0.419400  1.0  -0.4229
  O  O90  1  0.960200  0.316300  0.390300  1.0  -0.5909
  O  O91  1  0.020200  0.142000  0.456600  1.0  -0.4559
  O  O92  1  0.913900  0.208300  0.469500  1.0  -0.4808
  O  O93  1  0.191100  0.174600  0.420700  1.0  -0.4912
  O  O94  1  0.279600  0.225700  0.492500  1.0  -0.4496
  O  O95  1  0.307400  0.056200  0.427100  1.0  -0.5328
  O  O96  1  0.331000  0.099100  0.543100  1.0  -0.5564
  O  O97  1  0.150600  0.030000  0.476400  1.0  -0.4805
  O  O98  1  0.206000  0.028800  0.585300  1.0  -0.4132
  O  O99  1  0.308700  0.949400  0.817500  1.0  -0.5001
  O  O100  1  0.263600  0.001300  0.717100  1.0  -0.4745
  O  O101  1  0.440700  0.941900  0.708400  1.0  -0.4303
  O  O102  1  0.400100  0.054900  0.682300  1.0  -0.5707
  O  O103  1  0.469500  0.992900  0.850600  1.0  -0.4489
  O  O104  1  0.470200  0.100900  0.797400  1.0  -0.48
  O  O105  1  0.563300  0.330700  0.690500  1.0  -0.5179
  O  O106  1  0.501300  0.236100  0.733700  1.0  -0.4497
  O  O107  1  0.586300  0.215900  0.580600  1.0  -0.4222
  O  O108  1  0.460200  0.183700  0.609700  1.0  -0.5899
  O  O109  1  0.520200  0.358000  0.543400  1.0  -0.4544
  O  O110  1  0.413900  0.291700  0.530500  1.0  -0.481
  O  O111  1  0.308900  0.825400  0.920700  1.0  -0.4923
  O  O112  1  0.220400  0.774300  0.992500  1.0  -0.4504
  O  O113  1  0.192600  0.943800  0.927100  1.0  -0.5325
  O  O114  1  0.169000  0.900900  0.043100  1.0  -0.5565
  O  O115  1  0.349400  0.970000  0.976400  1.0  -0.4832
  O  O116  1  0.294000  0.971200  0.085300  1.0  -0.4088
  O  O117  1  0.191300  0.050600  0.317500  1.0  -0.5019
  O  O118  1  0.236400  0.998700  0.217100  1.0  -0.4753
  O  O119  1  0.059300  0.058100  0.208400  1.0  -0.4303
  O  O120  1  0.099900  0.945100  0.182300  1.0  -0.5716
  O  O121  1  0.030500  0.007100  0.350600  1.0  -0.4308
  O  O122  1  0.029800  0.899100  0.297400  1.0  -0.4847
  O  O123  1  0.936700  0.669300  0.190500  1.0  -0.5177
  O  O124  1  0.998700  0.763900  0.233700  1.0  -0.4466
  O  O125  1  0.913700  0.784100  0.080600  1.0  -0.4154
  O  O126  1  0.039800  0.816300  0.109700  1.0  -0.5921
  O  O127  1  0.979800  0.642000  0.043400  1.0  -0.4523
  O  O128  1  0.086100  0.708300  0.030500  1.0  -0.4774
