# generated using pymatgen
data_Cd3H8C32(NO6)4
_symmetry_space_group_name_H-M   'P 1'
_cell_length_a   13.07190000
_cell_length_b   22.53400000
_cell_length_c   16.89380000
_cell_angle_alpha   90.00000000
_cell_angle_beta   99.90800000
_cell_angle_gamma   90.00000000
_symmetry_Int_Tables_number   1
_chemical_formula_structural   Cd3H8C32(NO6)4
_chemical_formula_sum   'Cd12 H32 C128 N16 O96'
_cell_volume   4902.05521068
_cell_formula_units_Z   4
loop_
 _symmetry_equiv_pos_site_id
 _symmetry_equiv_pos_as_xyz
  1  'x, y, z'
loop_
 _atom_site_type_symbol
 _atom_site_label
 _atom_site_symmetry_multiplicity
 _atom_site_fract_x
 _atom_site_fract_y
 _atom_site_fract_z
 _atom_site_occupancy
 _atom_site_charge
  Cd  Cd1  1  0.480880  0.154030  0.104540  1.0  0.913
  Cd  Cd2  1  0.166130  0.146490  0.171280  1.0  1.1173
  Cd  Cd3  1  0.694010  0.248150  0.047200  1.0  1.1388
  Cd  Cd4  1  0.519120  0.654030  0.395460  1.0  0.9139
  Cd  Cd5  1  0.833870  0.646490  0.328720  1.0  1.1176
  Cd  Cd6  1  0.305990  0.748150  0.452800  1.0  1.1402
  Cd  Cd7  1  0.519120  0.845970  0.895460  1.0  0.9153
  Cd  Cd8  1  0.833870  0.853510  0.828720  1.0  1.117
  Cd  Cd9  1  0.305990  0.751850  0.952800  1.0  1.1395
  Cd  Cd10  1  0.480880  0.345970  0.604540  1.0  0.9152
  Cd  Cd11  1  0.166130  0.353510  0.671280  1.0  1.1166
  Cd  Cd12  1  0.694010  0.251850  0.547200  1.0  1.1387
  H  H13  1  0.766500  0.035800  0.970500  1.0  0.1443
  H  H14  1  0.963800  0.924900  0.104900  1.0  0.1564
  H  H15  1  0.664900  0.090000  0.367300  1.0  0.1557
  H  H16  1  0.901700  0.194100  0.335200  1.0  0.1521
  H  H17  1  0.578300  0.275100  0.311600  1.0  0.1424
  H  H18  1  0.301500  0.339500  0.340700  1.0  0.1499
  H  H19  1  0.398400  0.399100  0.923300  1.0  0.1531
  H  H20  1  0.223900  0.254200  0.935200  1.0  0.144
  H  H21  1  0.233500  0.535800  0.529500  1.0  0.1443
  H  H22  1  0.036200  0.424900  0.395100  1.0  0.1553
  H  H23  1  0.335100  0.590000  0.132700  1.0  0.1559
  H  H24  1  0.098300  0.694100  0.164800  1.0  0.1515
  H  H25  1  0.421700  0.775100  0.188400  1.0  0.1427
  H  H26  1  0.698500  0.839500  0.159300  1.0  0.1504
  H  H27  1  0.601600  0.899100  0.576700  1.0  0.1532
  H  H28  1  0.776100  0.754200  0.564800  1.0  0.1445
  H  H29  1  0.233500  0.964200  0.029500  1.0  0.1442
  H  H30  1  0.036200  0.075100  0.895100  1.0  0.1561
  H  H31  1  0.335100  0.910000  0.632700  1.0  0.156
  H  H32  1  0.098300  0.805900  0.664800  1.0  0.1511
  H  H33  1  0.421700  0.724900  0.688400  1.0  0.1422
  H  H34  1  0.698500  0.660500  0.659300  1.0  0.1503
  H  H35  1  0.601600  0.600900  0.076700  1.0  0.1531
  H  H36  1  0.776100  0.745800  0.064800  1.0  0.1441
  H  H37  1  0.766500  0.464200  0.470500  1.0  0.1445
  H  H38  1  0.963800  0.575100  0.604900  1.0  0.1563
  H  H39  1  0.664900  0.410000  0.867300  1.0  0.1558
  H  H40  1  0.901700  0.305900  0.835200  1.0  0.1516
  H  H41  1  0.578300  0.224900  0.811600  1.0  0.1421
  H  H42  1  0.301500  0.160500  0.840700  1.0  0.1499
  H  H43  1  0.398400  0.100900  0.423300  1.0  0.1534
  H  H44  1  0.223900  0.245800  0.435200  1.0  0.1443
  C  C45  1  0.718300  0.109710  0.080400  1.0  0.7925
  C  C46  1  0.787100  0.055690  0.089900  1.0  -0.0477
  C  C47  1  0.799400  0.022910  0.020700  1.0  0.0036
  C  C48  1  0.859100  0.972600  0.026500  1.0  -0.0926
  C  C49  1  0.917700  0.956600  0.100800  1.0  -0.021
  C  C50  1  0.905300  0.989300  0.168100  1.0  0.0421
  C  C51  1  0.839300  0.037230  0.165500  1.0  0.0186
  C  C52  1  0.821400  0.072590  0.237200  1.0  0.02
  C  C53  1  0.738700  0.063210  0.277600  1.0  0.0327
  C  C54  1  0.719900  0.098550  0.340800  1.0  -0.0275
  C  C55  1  0.783700  0.146470  0.363800  1.0  -0.1059
  C  C56  1  0.862600  0.159890  0.322400  1.0  0.0052
  C  C57  1  0.884800  0.122660  0.261400  1.0  -0.0446
  C  C58  1  0.978200  0.133600  0.222700  1.0  0.7455
  C  C59  1  0.861700  0.933000  0.955500  1.0  0.7359
  C  C60  1  0.762400  0.185900  0.431000  1.0  0.757
  C  C61  1  0.570200  0.287800  0.156700  1.0  0.7508
  C  C62  1  0.489400  0.300340  0.208100  1.0  -0.0413
  C  C63  1  0.514400  0.291600  0.290000  1.0  0.0191
  C  C64  1  0.445700  0.307080  0.340900  1.0  -0.1311
  C  C65  1  0.348700  0.328960  0.307700  1.0  -0.0362
  C  C66  1  0.322700  0.334980  0.225300  1.0  -0.0469
  C  C67  1  0.392600  0.322180  0.172800  1.0  0.0373
  C  C68  1  0.364800  0.324830  0.083500  1.0  0.0813
  C  C69  1  0.401200  0.368500  0.034700  1.0  -0.0045
  C  C70  1  0.372600  0.369700  0.953100  1.0  -0.0145
  C  C71  1  0.304800  0.327210  0.914700  1.0  -0.1273
  C  C72  1  0.269400  0.282880  0.960300  1.0  -0.0063
  C  C73  1  0.300800  0.280960  0.042700  1.0  -0.0915
  C  C74  1  0.260500  0.231450  0.089300  1.0  0.7457
  C  C75  1  0.480700  0.302000  0.429900  1.0  0.7845
  C  C76  1  0.263500  0.331200  0.826100  1.0  0.7089
  C  C77  1  0.281700  0.609710  0.419600  1.0  0.7908
  C  C78  1  0.212900  0.555690  0.410100  1.0  -0.0481
  C  C79  1  0.200600  0.522910  0.479300  1.0  0.0021
  C  C80  1  0.140900  0.472600  0.473500  1.0  -0.0927
  C  C81  1  0.082300  0.456600  0.399200  1.0  -0.0204
  C  C82  1  0.094700  0.489300  0.331900  1.0  0.041
  C  C83  1  0.160700  0.537230  0.334500  1.0  0.0187
  C  C84  1  0.178600  0.572590  0.262800  1.0  0.0195
  C  C85  1  0.261300  0.563210  0.222400  1.0  0.0321
  C  C86  1  0.280100  0.598550  0.159200  1.0  -0.0262
  C  C87  1  0.216300  0.646470  0.136200  1.0  -0.1057
  C  C88  1  0.137400  0.659890  0.177600  1.0  0.0057
  C  C89  1  0.115200  0.622660  0.238600  1.0  -0.0449
  C  C90  1  0.021800  0.633600  0.277300  1.0  0.7445
  C  C91  1  0.138300  0.433000  0.544500  1.0  0.736
  C  C92  1  0.237600  0.685900  0.069000  1.0  0.7562
  C  C93  1  0.429800  0.787800  0.343300  1.0  0.7521
  C  C94  1  0.510600  0.800340  0.291900  1.0  -0.0419
  C  C95  1  0.485600  0.791600  0.210000  1.0  0.0176
  C  C96  1  0.554300  0.807080  0.159100  1.0  -0.1302
  C  C97  1  0.651300  0.828960  0.192300  1.0  -0.0352
  C  C98  1  0.677300  0.834980  0.274700  1.0  -0.0458
  C  C99  1  0.607400  0.822180  0.327200  1.0  0.037
  C  C100  1  0.635200  0.824830  0.416500  1.0  0.0817
  C  C101  1  0.598800  0.868500  0.465300  1.0  -0.0046
  C  C102  1  0.627400  0.869700  0.546900  1.0  -0.0134
  C  C103  1  0.695200  0.827210  0.585300  1.0  -0.1292
  C  C104  1  0.730600  0.782880  0.539700  1.0  -0.0072
  C  C105  1  0.699200  0.780960  0.457300  1.0  -0.0901
  C  C106  1  0.739500  0.731450  0.410700  1.0  0.7462
  C  C107  1  0.519300  0.802000  0.070100  1.0  0.7843
  C  C108  1  0.736500  0.831200  0.673900  1.0  0.7106
  C  C109  1  0.281700  0.890290  0.919600  1.0  0.7927
  C  C110  1  0.212900  0.944310  0.910100  1.0  -0.047
  C  C111  1  0.200600  0.977090  0.979300  1.0  0.0023
  C  C112  1  0.140900  0.027400  0.973500  1.0  -0.0926
  C  C113  1  0.082300  0.043400  0.899200  1.0  -0.0223
  C  C114  1  0.094700  0.010700  0.831900  1.0  0.0404
  C  C115  1  0.160700  0.962770  0.834500  1.0  0.0185
  C  C116  1  0.178600  0.927410  0.762800  1.0  0.0193
  C  C117  1  0.261300  0.936790  0.722400  1.0  0.0322
  C  C118  1  0.280100  0.901450  0.659200  1.0  -0.0261
  C  C119  1  0.216300  0.853530  0.636200  1.0  -0.1069
  C  C120  1  0.137400  0.840110  0.677600  1.0  0.0065
  C  C121  1  0.115200  0.877340  0.738600  1.0  -0.0454
  C  C122  1  0.021800  0.866400  0.777300  1.0  0.7441
  C  C123  1  0.138300  0.067000  0.044500  1.0  0.7358
  C  C124  1  0.237600  0.814100  0.569000  1.0  0.7567
  C  C125  1  0.429800  0.712200  0.843300  1.0  0.7524
  C  C126  1  0.510600  0.699660  0.791900  1.0  -0.0417
  C  C127  1  0.485600  0.708400  0.710000  1.0  0.0172
  C  C128  1  0.554300  0.692920  0.659100  1.0  -0.1307
  C  C129  1  0.651300  0.671040  0.692300  1.0  -0.035
  C  C130  1  0.677300  0.665020  0.774700  1.0  -0.0458
  C  C131  1  0.607400  0.677820  0.827200  1.0  0.037
  C  C132  1  0.635200  0.675170  0.916500  1.0  0.0818
  C  C133  1  0.598800  0.631500  0.965300  1.0  -0.0061
  C  C134  1  0.627400  0.630300  0.046900  1.0  -0.0135
  C  C135  1  0.695200  0.672790  0.085300  1.0  -0.1292
  C  C136  1  0.730600  0.717120  0.039700  1.0  -0.0068
  C  C137  1  0.699200  0.719040  0.957300  1.0  -0.0906
  C  C138  1  0.739500  0.768550  0.910700  1.0  0.7441
  C  C139  1  0.519300  0.698000  0.570100  1.0  0.7839
  C  C140  1  0.736500  0.668800  0.173900  1.0  0.7106
  C  C141  1  0.718300  0.390290  0.580400  1.0  0.7936
  C  C142  1  0.787100  0.444310  0.589900  1.0  -0.0482
  C  C143  1  0.799400  0.477090  0.520700  1.0  0.0037
  C  C144  1  0.859100  0.527400  0.526500  1.0  -0.0918
  C  C145  1  0.917700  0.543400  0.600800  1.0  -0.0225
  C  C146  1  0.905300  0.510700  0.668100  1.0  0.0419
  C  C147  1  0.839300  0.462770  0.665500  1.0  0.0184
  C  C148  1  0.821400  0.427410  0.737200  1.0  0.0199
  C  C149  1  0.738700  0.436790  0.777600  1.0  0.0328
  C  C150  1  0.719900  0.401450  0.840800  1.0  -0.0277
  C  C151  1  0.783700  0.353530  0.863800  1.0  -0.1056
  C  C152  1  0.862600  0.340110  0.822400  1.0  0.0063
  C  C153  1  0.884800  0.377340  0.761400  1.0  -0.0446
  C  C154  1  0.978200  0.366400  0.722700  1.0  0.7445
  C  C155  1  0.861700  0.567000  0.455500  1.0  0.736
  C  C156  1  0.762400  0.314100  0.931000  1.0  0.7583
  C  C157  1  0.570200  0.212200  0.656700  1.0  0.7517
  C  C158  1  0.489400  0.199660  0.708100  1.0  -0.0411
  C  C159  1  0.514400  0.208400  0.790000  1.0  0.0195
  C  C160  1  0.445700  0.192920  0.840900  1.0  -0.1312
  C  C161  1  0.348700  0.171040  0.807700  1.0  -0.0355
  C  C162  1  0.322700  0.165020  0.725300  1.0  -0.0471
  C  C163  1  0.392600  0.177820  0.672800  1.0  0.0373
  C  C164  1  0.364800  0.175170  0.583500  1.0  0.0813
  C  C165  1  0.401200  0.131500  0.534700  1.0  -0.0055
  C  C166  1  0.372600  0.130300  0.453100  1.0  -0.0145
  C  C167  1  0.304800  0.172790  0.414700  1.0  -0.1277
  C  C168  1  0.269400  0.217120  0.460300  1.0  -0.0067
  C  C169  1  0.300800  0.219040  0.542700  1.0  -0.0917
  C  C170  1  0.260500  0.268550  0.589300  1.0  0.7446
  C  C171  1  0.480700  0.198000  0.929900  1.0  0.7846
  C  C172  1  0.263500  0.168800  0.326100  1.0  0.709
  N  N173  1  0.967300  0.970300  0.244500  1.0  0.6293
  N  N174  1  0.664800  0.015450  0.251400  1.0  0.6277
  N  N175  1  0.470100  0.416400  0.071400  1.0  0.6492
  N  N176  1  0.217500  0.358900  0.194900  1.0  0.6397
  N  N177  1  0.032700  0.470300  0.255500  1.0  0.627
  N  N178  1  0.335200  0.515450  0.248600  1.0  0.6266
  N  N179  1  0.529900  0.916400  0.428600  1.0  0.6489
  N  N180  1  0.782500  0.858900  0.305100  1.0  0.6406
  N  N181  1  0.032700  0.029700  0.755500  1.0  0.6278
  N  N182  1  0.335200  0.984550  0.748600  1.0  0.6268
  N  N183  1  0.529900  0.583600  0.928600  1.0  0.6474
  N  N184  1  0.782500  0.641100  0.805100  1.0  0.6407
  N  N185  1  0.967300  0.529700  0.744500  1.0  0.6285
  N  N186  1  0.664800  0.484550  0.751400  1.0  0.6286
  N  N187  1  0.470100  0.083600  0.571400  1.0  0.6477
  N  N188  1  0.217500  0.141100  0.694900  1.0  0.6396
  O  O189  1  0.751100  0.154360  0.049700  1.0  -0.5784
  O  O190  1  0.634600  0.104850  0.105700  1.0  -0.6661
  O  O191  1  0.939000  0.983370  0.307500  1.0  -0.3865
  O  O192  1  0.047300  0.940900  0.241600  1.0  -0.416
  O  O193  1  0.928000  0.894470  0.959500  1.0  -0.5746
  O  O194  1  0.790600  0.939210  0.895220  1.0  -0.5767
  O  O195  1  0.981600  0.180190  0.181500  1.0  -0.5908
  O  O196  1  0.049000  0.096450  0.234700  1.0  -0.5669
  O  O197  1  0.696400  0.970580  0.221900  1.0  -0.3501
  O  O198  1  0.573700  0.023620  0.258300  1.0  -0.4197
  O  O199  1  0.715600  0.163550  0.482100  1.0  -0.5655
  O  O200  1  0.791400  0.237980  0.434000  1.0  -0.5296
  O  O201  1  0.583500  0.234060  0.137600  1.0  -0.641
  O  O202  1  0.619200  0.327800  0.133500  1.0  -0.5393
  O  O203  1  0.201400  0.382100  0.129200  1.0  -0.3217
  O  O204  1  0.152400  0.353880  0.236900  1.0  -0.3531
  O  O205  1  0.434700  0.332650  0.473450  1.0  -0.5476
  O  O206  1  0.553600  0.267000  0.453000  1.0  -0.6248
  O  O207  1  0.321000  0.192530  0.122260  1.0  -0.599
  O  O208  1  0.165800  0.230990  0.092500  1.0  -0.5591
  O  O209  1  0.463200  0.432800  0.138500  1.0  -0.3896
  O  O210  1  0.528600  0.438100  0.031700  1.0  -0.3423
  O  O211  1  0.197600  0.295020  0.794630  1.0  -0.6115
  O  O212  1  0.295400  0.373360  0.786030  1.0  -0.6031
  O  O213  1  0.248900  0.654360  0.450300  1.0  -0.5766
  O  O214  1  0.365400  0.604850  0.394300  1.0  -0.6646
  O  O215  1  0.061000  0.483370  0.192500  1.0  -0.3851
  O  O216  1  0.952700  0.440900  0.258400  1.0  -0.4165
  O  O217  1  0.072000  0.394470  0.540500  1.0  -0.5745
  O  O218  1  0.209400  0.439210  0.604780  1.0  -0.578
  O  O219  1  0.018400  0.680190  0.318500  1.0  -0.5922
  O  O220  1  0.951000  0.596450  0.265300  1.0  -0.5672
  O  O221  1  0.303600  0.470580  0.278100  1.0  -0.3501
  O  O222  1  0.426300  0.523620  0.241700  1.0  -0.4139
  O  O223  1  0.284400  0.663550  0.017900  1.0  -0.5669
  O  O224  1  0.208600  0.737980  0.066000  1.0  -0.5307
  O  O225  1  0.416500  0.734060  0.362400  1.0  -0.6404
  O  O226  1  0.380800  0.827800  0.366500  1.0  -0.542
  O  O227  1  0.798600  0.882100  0.370800  1.0  -0.3239
  O  O228  1  0.847600  0.853880  0.263100  1.0  -0.3544
  O  O229  1  0.565300  0.832650  0.026550  1.0  -0.5486
  O  O230  1  0.446400  0.767000  0.047000  1.0  -0.6249
  O  O231  1  0.679000  0.692530  0.377740  1.0  -0.5996
  O  O232  1  0.834200  0.730990  0.407500  1.0  -0.5569
  O  O233  1  0.536800  0.932800  0.361500  1.0  -0.3845
  O  O234  1  0.471400  0.938100  0.468300  1.0  -0.3419
  O  O235  1  0.802400  0.795020  0.705370  1.0  -0.6113
  O  O236  1  0.704600  0.873360  0.713970  1.0  -0.6035
  O  O237  1  0.248900  0.845640  0.950300  1.0  -0.576
  O  O238  1  0.365400  0.895150  0.894300  1.0  -0.6648
  O  O239  1  0.061000  0.016630  0.692500  1.0  -0.3862
  O  O240  1  0.952700  0.059100  0.758400  1.0  -0.4169
  O  O241  1  0.072000  0.105530  0.040500  1.0  -0.5738
  O  O242  1  0.209400  0.060790  0.104780  1.0  -0.5779
  O  O243  1  0.018400  0.819810  0.818500  1.0  -0.5953
  O  O244  1  0.951000  0.903550  0.765300  1.0  -0.5677
  O  O245  1  0.303600  0.029420  0.778100  1.0  -0.3509
  O  O246  1  0.426300  0.976380  0.741700  1.0  -0.4138
  O  O247  1  0.284400  0.836450  0.517900  1.0  -0.5662
  O  O248  1  0.208600  0.762020  0.566000  1.0  -0.5287
  O  O249  1  0.416500  0.765940  0.862400  1.0  -0.6398
  O  O250  1  0.380800  0.672200  0.866500  1.0  -0.5423
  O  O251  1  0.798600  0.617900  0.870800  1.0  -0.3244
  O  O252  1  0.847600  0.646120  0.763100  1.0  -0.3547
  O  O253  1  0.565300  0.667350  0.526550  1.0  -0.5485
  O  O254  1  0.446400  0.733000  0.547000  1.0  -0.6245
  O  O255  1  0.679000  0.807470  0.877740  1.0  -0.5988
  O  O256  1  0.834200  0.769010  0.907500  1.0  -0.5575
  O  O257  1  0.536800  0.567200  0.861500  1.0  -0.3833
  O  O258  1  0.471400  0.561900  0.968300  1.0  -0.3411
  O  O259  1  0.802400  0.704980  0.205370  1.0  -0.6112
  O  O260  1  0.704600  0.626640  0.213970  1.0  -0.6023
  O  O261  1  0.751100  0.345640  0.549700  1.0  -0.578
  O  O262  1  0.634600  0.395150  0.605700  1.0  -0.6666
  O  O263  1  0.939000  0.516630  0.807500  1.0  -0.3866
  O  O264  1  0.047300  0.559100  0.741600  1.0  -0.4152
  O  O265  1  0.928000  0.605530  0.459500  1.0  -0.5738
  O  O266  1  0.790600  0.560790  0.395220  1.0  -0.577
  O  O267  1  0.981600  0.319810  0.681500  1.0  -0.5954
  O  O268  1  0.049000  0.403550  0.734700  1.0  -0.5682
  O  O269  1  0.696400  0.529420  0.721900  1.0  -0.3505
  O  O270  1  0.573700  0.476380  0.758300  1.0  -0.4197
  O  O271  1  0.715600  0.336450  0.982100  1.0  -0.5654
  O  O272  1  0.791400  0.262020  0.934000  1.0  -0.5301
  O  O273  1  0.583500  0.265940  0.637600  1.0  -0.6395
  O  O274  1  0.619200  0.172200  0.633500  1.0  -0.5413
  O  O275  1  0.201400  0.117900  0.629200  1.0  -0.3224
  O  O276  1  0.152400  0.146120  0.736900  1.0  -0.3544
  O  O277  1  0.434700  0.167350  0.973450  1.0  -0.5491
  O  O278  1  0.553600  0.233000  0.953000  1.0  -0.625
  O  O279  1  0.321000  0.307470  0.622260  1.0  -0.5996
  O  O280  1  0.165800  0.269010  0.592500  1.0  -0.5596
  O  O281  1  0.463200  0.067200  0.638500  1.0  -0.3877
  O  O282  1  0.528600  0.061900  0.531700  1.0  -0.3433
  O  O283  1  0.197600  0.204980  0.294630  1.0  -0.6108
  O  O284  1  0.295400  0.126640  0.286030  1.0  -0.6019
