# generated using pymatgen
data_Mn3H14(C5O2)6
_symmetry_space_group_name_H-M   'P 1'
_cell_length_a   14.82290000
_cell_length_b   19.21300000
_cell_length_c   19.21300000
_cell_angle_alpha   66.37200000
_cell_angle_beta   75.09790000
_cell_angle_gamma   104.90200000
_symmetry_Int_Tables_number   1
_chemical_formula_structural   Mn3H14(C5O2)6
_chemical_formula_sum   'Mn9 H42 C90 O36'
_cell_volume   4425.25639908
_cell_formula_units_Z   3
loop_
 _symmetry_equiv_pos_site_id
 _symmetry_equiv_pos_as_xyz
  1  'x, y, z'
loop_
 _atom_site_type_symbol
 _atom_site_label
 _atom_site_symmetry_multiplicity
 _atom_site_fract_x
 _atom_site_fract_y
 _atom_site_fract_z
 _atom_site_occupancy
 _atom_site_charge
  Mn  Mn1  1  0.923690  0.042350  0.671540  1.0  1.0378
  Mn  Mn2  1  0.595230  0.671540  0.286110  1.0  1.0498
  Mn  Mn3  1  0.881340  0.286110  0.042350  1.0  1.0482
  Mn  Mn4  1  0.076310  0.957650  0.328460  1.0  1.039
  Mn  Mn5  1  0.404770  0.328460  0.713890  1.0  1.0516
  Mn  Mn6  1  0.118660  0.713890  0.957650  1.0  1.0494
  Mn  Mn7  1  0.000000  0.000000  0.500000  1.0  1.0267
  Mn  Mn8  1  0.500000  0.500000  0.500000  1.0  1.0643
  Mn  Mn9  1  0.000000  0.500000  0.000000  1.0  1.0392
  H  H10  1  0.732000  0.634900  0.549000  1.0  0.0984
  H  H11  1  0.855000  0.713500  0.582000  1.0  0.1272
  H  H12  1  0.597900  0.453300  0.780200  1.0  0.0869
  H  H13  1  0.703000  0.523800  0.823100  1.0  0.1243
  H  H14  1  0.971400  0.808700  0.812800  1.0  0.1135
  H  H15  1  0.841500  0.793200  0.657500  1.0  0.1124
  H  H16  1  0.869100  0.589900  0.816300  1.0  0.1112
  H  H17  1  0.281000  0.549000  0.816100  1.0  0.0973
  H  H18  1  0.437000  0.582000  0.704500  1.0  0.1272
  H  H19  1  0.378100  0.780200  0.766500  1.0  0.0872
  H  H20  1  0.526100  0.823100  0.653100  1.0  0.126
  H  H21  1  0.784200  0.812800  0.378500  1.0  0.1129
  H  H22  1  0.499000  0.657500  0.549300  1.0  0.1111
  H  H23  1  0.685400  0.816300  0.593800  1.0  0.1114
  H  H24  1  0.097100  0.816100  0.634900  1.0  0.0979
  H  H25  1  0.141500  0.704500  0.713500  1.0  0.1266
  H  H26  1  0.144600  0.766500  0.453300  1.0  0.0873
  H  H27  1  0.179200  0.653100  0.523800  1.0  0.1257
  H  H28  1  0.162700  0.378500  0.808700  1.0  0.1127
  H  H29  1  0.048300  0.549300  0.793200  1.0  0.1106
  H  H30  1  0.279200  0.593800  0.589900  1.0  0.1113
  H  H31  1  0.268000  0.365100  0.451000  1.0  0.0987
  H  H32  1  0.145000  0.286500  0.418000  1.0  0.1274
  H  H33  1  0.402100  0.546700  0.219800  1.0  0.0875
  H  H34  1  0.297000  0.476200  0.176900  1.0  0.1237
  H  H35  1  0.028600  0.191300  0.187200  1.0  0.1136
  H  H36  1  0.158500  0.206800  0.342500  1.0  0.1111
  H  H37  1  0.130900  0.410100  0.183700  1.0  0.1102
  H  H38  1  0.719000  0.451000  0.183900  1.0  0.0976
  H  H39  1  0.563000  0.418000  0.295500  1.0  0.1267
  H  H40  1  0.621900  0.219800  0.233500  1.0  0.0866
  H  H41  1  0.473900  0.176900  0.346900  1.0  0.1256
  H  H42  1  0.215800  0.187200  0.621500  1.0  0.1136
  H  H43  1  0.501000  0.342500  0.450700  1.0  0.111
  H  H44  1  0.314600  0.183700  0.406200  1.0  0.1118
  H  H45  1  0.902900  0.183900  0.365100  1.0  0.0968
  H  H46  1  0.858500  0.295500  0.286500  1.0  0.1262
  H  H47  1  0.855400  0.233500  0.546700  1.0  0.0865
  H  H48  1  0.820800  0.346900  0.476200  1.0  0.1269
  H  H49  1  0.837300  0.621500  0.191300  1.0  0.1125
  H  H50  1  0.951700  0.450700  0.206800  1.0  0.1106
  H  H51  1  0.720800  0.406200  0.410100  1.0  0.1117
  C  C52  1  0.588700  0.486700  0.637800  1.0  0.7488
  C  C53  1  0.658600  0.535300  0.663000  1.0  -0.1794
  C  C54  1  0.729300  0.613200  0.602600  1.0  -0.017
  C  C55  1  0.801600  0.662800  0.622500  1.0  -0.1618
  C  C56  1  0.783800  0.627800  0.707800  1.0  0.0504
  C  C57  1  0.649000  0.505700  0.740800  1.0  -0.0017
  C  C58  1  0.710600  0.547900  0.768000  1.0  -0.1601
  C  C59  1  0.967300  0.653900  0.888100  1.0  0.6992
  C  C60  1  0.925300  0.690100  0.823500  1.0  -0.1503
  C  C61  1  0.939500  0.778000  0.792300  1.0  0.0009
  C  C62  1  0.905300  0.813300  0.733400  1.0  -0.1413
  C  C63  1  0.860900  0.768100  0.700200  1.0  -0.0647
  C  C64  1  0.845300  0.682000  0.732900  1.0  0.0043
  C  C65  1  0.879100  0.645500  0.795100  1.0  -0.0567
  C  C66  1  0.914400  0.900200  0.701800  1.0  0.6748
  C  C67  1  0.226500  0.637800  0.875500  1.0  0.7458
  C  C68  1  0.321600  0.663000  0.801700  1.0  -0.1684
  C  C69  1  0.331900  0.602600  0.784200  1.0  -0.0264
  C  C70  1  0.424100  0.622500  0.714700  1.0  -0.161
  C  C71  1  0.491600  0.707800  0.664400  1.0  0.0489
  C  C72  1  0.389800  0.740800  0.753500  1.0  -0.0007
  C  C73  1  0.478600  0.768000  0.684100  1.0  -0.1585
  C  C74  1  0.855400  0.888100  0.458000  1.0  0.6949
  C  C75  1  0.748800  0.823500  0.486400  1.0  -0.1498
  C  C76  1  0.731800  0.792300  0.429700  1.0  0.0004
  C  C77  1  0.638700  0.733400  0.453300  1.0  -0.1424
  C  C78  1  0.561100  0.700200  0.531700  1.0  -0.0667
  C  C79  1  0.578200  0.732900  0.585100  1.0  0.0024
  C  C80  1  0.674200  0.795100  0.559400  1.0  -0.0578
  C  C81  1  0.616200  0.701800  0.398000  1.0  0.6797
  C  C82  1  0.102000  0.875500  0.486700  1.0  0.7443
  C  C83  1  0.123300  0.801700  0.535300  1.0  -0.1762
  C  C84  1  0.116100  0.784200  0.613200  1.0  -0.0265
  C  C85  1  0.138800  0.714700  0.662800  1.0  -0.1602
  C  C86  1  0.156000  0.664400  0.627800  1.0  0.0475
  C  C87  1  0.143300  0.753500  0.505700  1.0  0.0032
  C  C88  1  0.162700  0.684100  0.547900  1.0  -0.1635
  C  C89  1  0.313400  0.458000  0.653900  1.0  0.6964
  C  C90  1  0.235200  0.486400  0.690100  1.0  -0.1521
  C  C91  1  0.161500  0.429700  0.778000  1.0  0.0049
  C  C92  1  0.092000  0.453300  0.813300  1.0  -0.1459
  C  C93  1  0.092800  0.531700  0.768100  1.0  -0.0633
  C  C94  1  0.163300  0.585100  0.682000  1.0  0.0029
  C  C95  1  0.233600  0.559400  0.645500  1.0  -0.0536
  C  C96  1  0.014200  0.398000  0.900200  1.0  0.6757
  C  C97  1  0.411300  0.513300  0.362200  1.0  0.7476
  C  C98  1  0.341400  0.464700  0.337000  1.0  -0.1772
  C  C99  1  0.270700  0.386800  0.397400  1.0  -0.0173
  C  C100  1  0.198400  0.337200  0.377500  1.0  -0.1613
  C  C101  1  0.216200  0.372200  0.292200  1.0  0.0505
  C  C102  1  0.351000  0.494300  0.259200  1.0  0.0007
  C  C103  1  0.289400  0.452100  0.232000  1.0  -0.1609
  C  C104  1  0.032700  0.346100  0.111900  1.0  0.7016
  C  C105  1  0.074700  0.309900  0.176500  1.0  -0.1523
  C  C106  1  0.060500  0.222000  0.207700  1.0  0.0021
  C  C107  1  0.094700  0.186700  0.266600  1.0  -0.1434
  C  C108  1  0.139100  0.231900  0.299800  1.0  -0.0638
  C  C109  1  0.154700  0.318000  0.267100  1.0  0.0048
  C  C110  1  0.120900  0.354500  0.204900  1.0  -0.0569
  C  C111  1  0.085600  0.099800  0.298200  1.0  0.6773
  C  C112  1  0.773500  0.362200  0.124500  1.0  0.7455
  C  C113  1  0.678400  0.337000  0.198300  1.0  -0.1741
  C  C114  1  0.668100  0.397400  0.215800  1.0  -0.0303
  C  C115  1  0.575900  0.377500  0.285300  1.0  -0.1608
  C  C116  1  0.508400  0.292200  0.335600  1.0  0.0493
  C  C117  1  0.610200  0.259200  0.246500  1.0  -0.0021
  C  C118  1  0.521400  0.232000  0.315900  1.0  -0.158
  C  C119  1  0.144600  0.111900  0.542000  1.0  0.6962
  C  C120  1  0.251200  0.176500  0.513600  1.0  -0.1502
  C  C121  1  0.268200  0.207700  0.570300  1.0  0.0006
  C  C122  1  0.361300  0.266600  0.546700  1.0  -0.1414
  C  C123  1  0.438900  0.299800  0.468300  1.0  -0.0653
  C  C124  1  0.421800  0.267100  0.414900  1.0  0.0035
  C  C125  1  0.325800  0.204900  0.440600  1.0  -0.0561
  C  C126  1  0.383800  0.298200  0.602000  1.0  0.6788
  C  C127  1  0.898000  0.124500  0.513300  1.0  0.7447
  C  C128  1  0.876700  0.198300  0.464700  1.0  -0.1734
  C  C129  1  0.883900  0.215800  0.386800  1.0  -0.0241
  C  C130  1  0.861200  0.285300  0.337200  1.0  -0.1606
  C  C131  1  0.844000  0.335600  0.372200  1.0  0.0474
  C  C132  1  0.856700  0.246500  0.494300  1.0  0.0038
  C  C133  1  0.837300  0.315900  0.452100  1.0  -0.1661
  C  C134  1  0.686600  0.542000  0.346100  1.0  0.6972
  C  C135  1  0.764800  0.513600  0.309900  1.0  -0.1522
  C  C136  1  0.838500  0.570300  0.222000  1.0  0.0038
  C  C137  1  0.908000  0.546700  0.186700  1.0  -0.1462
  C  C138  1  0.907200  0.468300  0.231900  1.0  -0.064
  C  C139  1  0.836700  0.414900  0.318000  1.0  0.0043
  C  C140  1  0.766400  0.440600  0.354500  1.0  -0.0542
  C  C141  1  0.985800  0.602000  0.099800  1.0  0.6772
  O  O142  1  0.910300  0.941600  0.634600  1.0  -0.5954
  O  O143  1  0.956900  0.580800  0.916100  1.0  -0.5462
  O  O144  1  0.587900  0.519000  0.569600  1.0  -0.5764
  O  O145  1  0.527000  0.415500  0.695600  1.0  -0.6609
  O  O146  1  0.015700  0.708500  0.902800  1.0  -0.6419
  O  O147  1  0.922000  0.925400  0.753100  1.0  -0.5824
  O  O148  1  0.544900  0.634600  0.423800  1.0  -0.5969
  O  O149  1  0.873000  0.916100  0.503100  1.0  -0.5472
  O  O150  1  0.157500  0.569600  0.911400  1.0  -0.5665
  O  O151  1  0.222600  0.695600  0.888900  1.0  -0.6575
  O  O152  1  0.918500  0.902800  0.388700  1.0  -0.6431
  O  O153  1  0.675100  0.753100  0.321500  1.0  -0.564
  O  O154  1  0.968700  0.423800  0.941600  1.0  -0.5924
  O  O155  1  0.376100  0.503100  0.580800  1.0  -0.554
  O  O156  1  0.068900  0.911400  0.519000  1.0  -0.5686
  O  O157  1  0.111500  0.888900  0.415500  1.0  -0.6586
  O  O158  1  0.307200  0.388700  0.708500  1.0  -0.641
  O  O159  1  0.996600  0.321500  0.925400  1.0  -0.5508
  O  O160  1  0.089700  0.058400  0.365400  1.0  -0.595
  O  O161  1  0.043100  0.419200  0.083900  1.0  -0.5456
  O  O162  1  0.412100  0.481000  0.430400  1.0  -0.5759
  O  O163  1  0.473000  0.584500  0.304400  1.0  -0.6575
  O  O164  1  0.984300  0.291500  0.097200  1.0  -0.6443
  O  O165  1  0.078000  0.074600  0.246900  1.0  -0.5812
  O  O166  1  0.455100  0.365400  0.576200  1.0  -0.5971
  O  O167  1  0.127000  0.083900  0.496900  1.0  -0.5475
  O  O168  1  0.842500  0.430400  0.088600  1.0  -0.5661
  O  O169  1  0.777400  0.304400  0.111100  1.0  -0.6607
  O  O170  1  0.081500  0.097200  0.611300  1.0  -0.6402
  O  O171  1  0.324900  0.246900  0.678500  1.0  -0.5665
  O  O172  1  0.031300  0.576200  0.058400  1.0  -0.5927
  O  O173  1  0.623900  0.496900  0.419200  1.0  -0.5558
  O  O174  1  0.931100  0.088600  0.481000  1.0  -0.5673
  O  O175  1  0.888500  0.111100  0.584500  1.0  -0.6586
  O  O176  1  0.692800  0.611300  0.291500  1.0  -0.6399
  O  O177  1  0.003400  0.678500  0.074600  1.0  -0.5502
