# generated using pymatgen
data_CoCu2H14(C5O2)6
_symmetry_space_group_name_H-M   'P 1'
_cell_length_a   18.43100000
_cell_length_b   18.43100000
_cell_length_c   40.52000000
_cell_angle_alpha   90.00000000
_cell_angle_beta   90.00000000
_cell_angle_gamma   120.00000000
_symmetry_Int_Tables_number   1
_chemical_formula_structural   CoCu2H14(C5O2)6
_chemical_formula_sum   'Co6 Cu12 H84 C180 O72'
_cell_volume   11920.59317392
_cell_formula_units_Z   6
loop_
 _symmetry_equiv_pos_site_id
 _symmetry_equiv_pos_as_xyz
  1  'x, y, z'
loop_
 _atom_site_type_symbol
 _atom_site_label
 _atom_site_symmetry_multiplicity
 _atom_site_fract_x
 _atom_site_fract_y
 _atom_site_fract_z
 _atom_site_occupancy
 _atom_site_charge
  Co  Co1  1  0.116260  0.058130  0.750000  1.0  0.8873
  Co  Co2  1  0.941870  0.883740  0.750000  1.0  0.8886
  Co  Co3  1  0.941870  0.058130  0.750000  1.0  0.8881
  Co  Co4  1  0.883740  0.941870  0.250000  1.0  0.8885
  Co  Co5  1  0.058130  0.116260  0.250000  1.0  0.8819
  Co  Co6  1  0.058130  0.941870  0.250000  1.0  0.8873
  Cu  Cu7  1  0.476070  0.523930  0.473990  1.0  0.8995
  Cu  Cu8  1  0.047860  0.523930  0.473990  1.0  0.8987
  Cu  Cu9  1  0.476070  0.952140  0.473990  1.0  0.9
  Cu  Cu10  1  0.523930  0.476070  0.973990  1.0  0.8987
  Cu  Cu11  1  0.952140  0.476070  0.973990  1.0  0.8994
  Cu  Cu12  1  0.523930  0.047860  0.973990  1.0  0.8994
  Cu  Cu13  1  0.952140  0.476070  0.526010  1.0  0.8982
  Cu  Cu14  1  0.523930  0.476070  0.526010  1.0  0.8988
  Cu  Cu15  1  0.523930  0.047860  0.526010  1.0  0.8996
  Cu  Cu16  1  0.047860  0.523930  0.026010  1.0  0.8986
  Cu  Cu17  1  0.476070  0.523930  0.026010  1.0  0.8981
  Cu  Cu18  1  0.476070  0.952140  0.026010  1.0  0.8987
  H  H19  1  0.292600  0.367200  0.582600  1.0  0.1025
  H  H20  1  0.043600  0.289200  0.619900  1.0  0.1544
  H  H21  1  0.011400  0.223400  0.673200  1.0  0.077
  H  H22  1  0.074600  0.707400  0.582600  1.0  0.1016
  H  H23  1  0.245600  0.956400  0.619900  1.0  0.1542
  H  H24  1  0.212000  0.988600  0.673200  1.0  0.0796
  H  H25  1  0.632800  0.925400  0.582600  1.0  0.1006
  H  H26  1  0.710800  0.754400  0.619900  1.0  0.1544
  H  H27  1  0.776600  0.788000  0.673200  1.0  0.0786
  H  H28  1  0.707400  0.632800  0.082600  1.0  0.1028
  H  H29  1  0.956400  0.710800  0.119900  1.0  0.1554
  H  H30  1  0.988600  0.776600  0.173200  1.0  0.0786
  H  H31  1  0.925400  0.292600  0.082600  1.0  0.101
  H  H32  1  0.754400  0.043600  0.119900  1.0  0.1544
  H  H33  1  0.788000  0.011400  0.173200  1.0  0.0789
  H  H34  1  0.367200  0.074600  0.082600  1.0  0.1024
  H  H35  1  0.289200  0.245600  0.119900  1.0  0.1559
  H  H36  1  0.223400  0.212000  0.173200  1.0  0.0786
  H  H37  1  0.925400  0.632800  0.417400  1.0  0.1023
  H  H38  1  0.754400  0.710800  0.380100  1.0  0.1544
  H  H39  1  0.788000  0.776600  0.326800  1.0  0.0778
  H  H40  1  0.367200  0.292600  0.417400  1.0  0.1006
  H  H41  1  0.289200  0.043600  0.380100  1.0  0.1543
  H  H42  1  0.223400  0.011400  0.326800  1.0  0.0791
  H  H43  1  0.707400  0.074600  0.417400  1.0  0.1016
  H  H44  1  0.956400  0.245600  0.380100  1.0  0.1548
  H  H45  1  0.988600  0.212000  0.326800  1.0  0.0791
  H  H46  1  0.074600  0.367200  0.917400  1.0  0.1022
  H  H47  1  0.245600  0.289200  0.880100  1.0  0.1544
  H  H48  1  0.212000  0.223400  0.826800  1.0  0.0788
  H  H49  1  0.632800  0.707400  0.917400  1.0  0.1016
  H  H50  1  0.710800  0.956400  0.880100  1.0  0.1548
  H  H51  1  0.776600  0.988600  0.826800  1.0  0.0796
  H  H52  1  0.292600  0.925400  0.917400  1.0  0.1001
  H  H53  1  0.043600  0.754400  0.880100  1.0  0.1541
  H  H54  1  0.011400  0.788000  0.826800  1.0  0.0784
  H  H55  1  0.707400  0.632800  0.417400  1.0  0.1025
  H  H56  1  0.956400  0.710800  0.380100  1.0  0.1545
  H  H57  1  0.988600  0.776600  0.326800  1.0  0.0787
  H  H58  1  0.925400  0.292600  0.417400  1.0  0.1006
  H  H59  1  0.754400  0.043600  0.380100  1.0  0.1539
  H  H60  1  0.788000  0.011400  0.326800  1.0  0.0787
  H  H61  1  0.367200  0.074600  0.417400  1.0  0.1019
  H  H62  1  0.289200  0.245600  0.380100  1.0  0.1557
  H  H63  1  0.223400  0.212000  0.326800  1.0  0.079
  H  H64  1  0.292600  0.367200  0.917400  1.0  0.102
  H  H65  1  0.043600  0.289200  0.880100  1.0  0.154
  H  H66  1  0.011400  0.223400  0.826800  1.0  0.0776
  H  H67  1  0.074600  0.707400  0.917400  1.0  0.101
  H  H68  1  0.245600  0.956400  0.880100  1.0  0.1541
  H  H69  1  0.212000  0.988600  0.826800  1.0  0.0801
  H  H70  1  0.632800  0.925400  0.917400  1.0  0.1004
  H  H71  1  0.710800  0.754400  0.880100  1.0  0.1537
  H  H72  1  0.776600  0.788000  0.826800  1.0  0.0785
  H  H73  1  0.074600  0.367200  0.582600  1.0  0.1028
  H  H74  1  0.245600  0.289200  0.619900  1.0  0.1549
  H  H75  1  0.212000  0.223400  0.673200  1.0  0.0784
  H  H76  1  0.632800  0.707400  0.582600  1.0  0.1021
  H  H77  1  0.710800  0.956400  0.619900  1.0  0.155
  H  H78  1  0.776600  0.988600  0.673200  1.0  0.0794
  H  H79  1  0.292600  0.925400  0.582600  1.0  0.1005
  H  H80  1  0.043600  0.754400  0.619900  1.0  0.1546
  H  H81  1  0.011400  0.788000  0.673200  1.0  0.0785
  H  H82  1  0.925400  0.632800  0.082600  1.0  0.1026
  H  H83  1  0.754400  0.710800  0.119900  1.0  0.1549
  H  H84  1  0.788000  0.776600  0.173200  1.0  0.0775
  H  H85  1  0.367200  0.292600  0.082600  1.0  0.101
  H  H86  1  0.289200  0.043600  0.119900  1.0  0.1547
  H  H87  1  0.223400  0.011400  0.173200  1.0  0.0788
  H  H88  1  0.707400  0.074600  0.082600  1.0  0.1022
  H  H89  1  0.956400  0.245600  0.119900  1.0  0.1552
  H  H90  1  0.988600  0.212000  0.173200  1.0  0.0789
  H  H91  1  0.236500  0.473000  0.508600  1.0  0.1053
  H  H92  1  0.236500  0.763500  0.508600  1.0  0.105
  H  H93  1  0.527000  0.763500  0.508600  1.0  0.1049
  H  H94  1  0.763500  0.527000  0.008600  1.0  0.1054
  H  H95  1  0.763500  0.236500  0.008600  1.0  0.1049
  H  H96  1  0.473000  0.236500  0.008600  1.0  0.1048
  H  H97  1  0.763500  0.527000  0.491400  1.0  0.1053
  H  H98  1  0.473000  0.236500  0.491400  1.0  0.1046
  H  H99  1  0.763500  0.236500  0.491400  1.0  0.1049
  H  H100  1  0.236500  0.473000  0.991400  1.0  0.1051
  H  H101  1  0.527000  0.763500  0.991400  1.0  0.1049
  H  H102  1  0.236500  0.763500  0.991400  1.0  0.1048
  C  C103  1  0.358100  0.449200  0.526600  1.0  0.6904
  C  C104  1  0.277800  0.423500  0.542900  1.0  -0.1726
  C  C105  1  0.255400  0.380400  0.572450  1.0  -0.0948
  C  C106  1  0.083200  0.280500  0.630600  1.0  -0.1379
  C  C107  1  0.060500  0.233600  0.662800  1.0  -0.1111
  C  C108  1  0.091100  0.641900  0.526600  1.0  0.6905
  C  C109  1  0.145700  0.722200  0.542900  1.0  -0.1726
  C  C110  1  0.125000  0.744600  0.572450  1.0  -0.0984
  C  C111  1  0.197300  0.916800  0.630600  1.0  -0.1393
  C  C112  1  0.173100  0.939500  0.662800  1.0  -0.1128
  C  C113  1  0.550800  0.908900  0.526600  1.0  0.6906
  C  C114  1  0.576500  0.854300  0.542900  1.0  -0.1723
  C  C115  1  0.619600  0.875000  0.572450  1.0  -0.0975
  C  C116  1  0.719500  0.802700  0.630600  1.0  -0.1381
  C  C117  1  0.766400  0.826900  0.662800  1.0  -0.1143
  C  C118  1  0.641900  0.550800  0.026600  1.0  0.6898
  C  C119  1  0.722200  0.576500  0.042900  1.0  -0.1725
  C  C120  1  0.744600  0.619600  0.072450  1.0  -0.0987
  C  C121  1  0.916800  0.719500  0.130600  1.0  -0.139
  C  C122  1  0.939500  0.766400  0.162800  1.0  -0.1127
  C  C123  1  0.908900  0.358100  0.026600  1.0  0.6906
  C  C124  1  0.854300  0.277800  0.042900  1.0  -0.1716
  C  C125  1  0.875000  0.255400  0.072450  1.0  -0.0985
  C  C126  1  0.802700  0.083200  0.130600  1.0  -0.1408
  C  C127  1  0.826900  0.060500  0.162800  1.0  -0.111
  C  C128  1  0.449200  0.091100  0.026600  1.0  0.69
  C  C129  1  0.423500  0.145700  0.042900  1.0  -0.1727
  C  C130  1  0.380400  0.125000  0.072450  1.0  -0.0963
  C  C131  1  0.280500  0.197300  0.130600  1.0  -0.1423
  C  C132  1  0.233600  0.173100  0.162800  1.0  -0.1147
  C  C133  1  0.908900  0.550800  0.473400  1.0  0.6903
  C  C134  1  0.854300  0.576500  0.457100  1.0  -0.1726
  C  C135  1  0.875000  0.619600  0.427550  1.0  -0.0941
  C  C136  1  0.802700  0.719500  0.369400  1.0  -0.1373
  C  C137  1  0.826900  0.766400  0.337200  1.0  -0.1114
  C  C138  1  0.449200  0.358100  0.473400  1.0  0.69
  C  C139  1  0.423500  0.277800  0.457100  1.0  -0.1722
  C  C140  1  0.380400  0.255400  0.427550  1.0  -0.0981
  C  C141  1  0.280500  0.083200  0.369400  1.0  -0.14
  C  C142  1  0.233600  0.060500  0.337200  1.0  -0.11
  C  C143  1  0.641900  0.091100  0.473400  1.0  0.6901
  C  C144  1  0.722200  0.145700  0.457100  1.0  -0.1725
  C  C145  1  0.744600  0.125000  0.427550  1.0  -0.096
  C  C146  1  0.916800  0.197300  0.369400  1.0  -0.1399
  C  C147  1  0.939500  0.173100  0.337200  1.0  -0.1144
  C  C148  1  0.091100  0.449200  0.973400  1.0  0.6895
  C  C149  1  0.145700  0.423500  0.957100  1.0  -0.1724
  C  C150  1  0.125000  0.380400  0.927550  1.0  -0.0968
  C  C151  1  0.197300  0.280500  0.869400  1.0  -0.1387
  C  C152  1  0.173100  0.233600  0.837200  1.0  -0.1132
  C  C153  1  0.550800  0.641900  0.973400  1.0  0.6907
  C  C154  1  0.576500  0.722200  0.957100  1.0  -0.1721
  C  C155  1  0.619600  0.744600  0.927550  1.0  -0.0956
  C  C156  1  0.719500  0.916800  0.869400  1.0  -0.1412
  C  C157  1  0.766400  0.939500  0.837200  1.0  -0.1131
  C  C158  1  0.358100  0.908900  0.973400  1.0  0.6899
  C  C159  1  0.277800  0.854300  0.957100  1.0  -0.1724
  C  C160  1  0.255400  0.875000  0.927550  1.0  -0.097
  C  C161  1  0.083200  0.802700  0.869400  1.0  -0.1399
  C  C162  1  0.060500  0.826900  0.837200  1.0  -0.1139
  C  C163  1  0.641900  0.550800  0.473400  1.0  0.6896
  C  C164  1  0.722200  0.576500  0.457100  1.0  -0.1724
  C  C165  1  0.744600  0.619600  0.427550  1.0  -0.0973
  C  C166  1  0.916800  0.719500  0.369400  1.0  -0.138
  C  C167  1  0.939500  0.766400  0.337200  1.0  -0.1124
  C  C168  1  0.908900  0.358100  0.473400  1.0  0.6905
  C  C169  1  0.854300  0.277800  0.457100  1.0  -0.1718
  C  C170  1  0.875000  0.255400  0.427550  1.0  -0.0973
  C  C171  1  0.802700  0.083200  0.369400  1.0  -0.1407
  C  C172  1  0.826900  0.060500  0.337200  1.0  -0.1115
  C  C173  1  0.449200  0.091100  0.473400  1.0  0.6897
  C  C174  1  0.423500  0.145700  0.457100  1.0  -0.1725
  C  C175  1  0.380400  0.125000  0.427550  1.0  -0.0956
  C  C176  1  0.280500  0.197300  0.369400  1.0  -0.142
  C  C177  1  0.233600  0.173100  0.337200  1.0  -0.1146
  C  C178  1  0.358100  0.449200  0.973400  1.0  0.6902
  C  C179  1  0.277800  0.423500  0.957100  1.0  -0.1727
  C  C180  1  0.255400  0.380400  0.927550  1.0  -0.0936
  C  C181  1  0.083200  0.280500  0.869400  1.0  -0.1376
  C  C182  1  0.060500  0.233600  0.837200  1.0  -0.1106
  C  C183  1  0.091100  0.641900  0.973400  1.0  0.6903
  C  C184  1  0.145700  0.722200  0.957100  1.0  -0.1725
  C  C185  1  0.125000  0.744600  0.927550  1.0  -0.0978
  C  C186  1  0.197300  0.916800  0.869400  1.0  -0.1391
  C  C187  1  0.173100  0.939500  0.837200  1.0  -0.1119
  C  C188  1  0.550800  0.908900  0.973400  1.0  0.6904
  C  C189  1  0.576500  0.854300  0.957100  1.0  -0.1724
  C  C190  1  0.619600  0.875000  0.927550  1.0  -0.0963
  C  C191  1  0.719500  0.802700  0.869400  1.0  -0.1379
  C  C192  1  0.766400  0.826900  0.837200  1.0  -0.1148
  C  C193  1  0.091100  0.449200  0.526600  1.0  0.6898
  C  C194  1  0.145700  0.423500  0.542900  1.0  -0.1724
  C  C195  1  0.125000  0.380400  0.572450  1.0  -0.0983
  C  C196  1  0.197300  0.280500  0.630600  1.0  -0.1394
  C  C197  1  0.173100  0.233600  0.662800  1.0  -0.1123
  C  C198  1  0.550800  0.641900  0.526600  1.0  0.6909
  C  C199  1  0.576500  0.722200  0.542900  1.0  -0.1722
  C  C200  1  0.619600  0.744600  0.572450  1.0  -0.0963
  C  C201  1  0.719500  0.916800  0.630600  1.0  -0.1411
  C  C202  1  0.766400  0.939500  0.662800  1.0  -0.1129
  C  C203  1  0.358100  0.908900  0.526600  1.0  0.6901
  C  C204  1  0.277800  0.854300  0.542900  1.0  -0.1723
  C  C205  1  0.255400  0.875000  0.572450  1.0  -0.0983
  C  C206  1  0.083200  0.802700  0.630600  1.0  -0.1401
  C  C207  1  0.060500  0.826900  0.662800  1.0  -0.1133
  C  C208  1  0.908900  0.550800  0.026600  1.0  0.6904
  C  C209  1  0.854300  0.576500  0.042900  1.0  -0.1726
  C  C210  1  0.875000  0.619600  0.072450  1.0  -0.0954
  C  C211  1  0.802700  0.719500  0.130600  1.0  -0.1375
  C  C212  1  0.826900  0.766400  0.162800  1.0  -0.1108
  C  C213  1  0.449200  0.358100  0.026600  1.0  0.6902
  C  C214  1  0.423500  0.277800  0.042900  1.0  -0.172
  C  C215  1  0.380400  0.255400  0.072450  1.0  -0.0995
  C  C216  1  0.280500  0.083200  0.130600  1.0  -0.1403
  C  C217  1  0.233600  0.060500  0.162800  1.0  -0.1098
  C  C218  1  0.641900  0.091100  0.026600  1.0  0.6903
  C  C219  1  0.722200  0.145700  0.042900  1.0  -0.1727
  C  C220  1  0.744600  0.125000  0.072450  1.0  -0.0969
  C  C221  1  0.916800  0.197300  0.130600  1.0  -0.1397
  C  C222  1  0.939500  0.173100  0.162800  1.0  -0.1138
  C  C223  1  0.222100  0.444200  0.528600  1.0  0.0217
  C  C224  1  0.178000  0.356000  0.587600  1.0  0.0054
  C  C225  1  0.154000  0.308000  0.618000  1.0  0.2584
  C  C226  1  0.103900  0.207800  0.676000  1.0  0.0646
  C  C227  1  0.076800  0.153600  0.704300  1.0  0.7516
  C  C228  1  0.222100  0.777900  0.528600  1.0  0.0222
  C  C229  1  0.178000  0.822000  0.587600  1.0  0.0053
  C  C230  1  0.154000  0.846000  0.618000  1.0  0.2557
  C  C231  1  0.103900  0.896100  0.676000  1.0  0.0564
  C  C232  1  0.076800  0.923200  0.704300  1.0  0.7519
  C  C233  1  0.555800  0.777900  0.528600  1.0  0.0223
  C  C234  1  0.644000  0.822000  0.587600  1.0  0.0054
  C  C235  1  0.692000  0.846000  0.618000  1.0  0.2549
  C  C236  1  0.792200  0.896100  0.676000  1.0  0.0658
  C  C237  1  0.846400  0.923200  0.704300  1.0  0.7535
  C  C238  1  0.777900  0.555800  0.028600  1.0  0.0218
  C  C239  1  0.822000  0.644000  0.087600  1.0  0.0056
  C  C240  1  0.846000  0.692000  0.118000  1.0  0.2584
  C  C241  1  0.896100  0.792200  0.176000  1.0  0.0655
  C  C242  1  0.923200  0.846400  0.204300  1.0  0.7511
  C  C243  1  0.777900  0.222100  0.028600  1.0  0.022
  C  C244  1  0.822000  0.178000  0.087600  1.0  0.0054
  C  C245  1  0.846000  0.154000  0.118000  1.0  0.2552
  C  C246  1  0.896100  0.103900  0.176000  1.0  0.0655
  C  C247  1  0.923200  0.076800  0.204300  1.0  0.7537
  C  C248  1  0.444200  0.222100  0.028600  1.0  0.0218
  C  C249  1  0.356000  0.178000  0.087600  1.0  0.0053
  C  C250  1  0.308000  0.154000  0.118000  1.0  0.2557
  C  C251  1  0.207800  0.103900  0.176000  1.0  0.056
  C  C252  1  0.153600  0.076800  0.204300  1.0  0.7519
  C  C253  1  0.777900  0.555800  0.471400  1.0  0.0213
  C  C254  1  0.822000  0.644000  0.412400  1.0  0.0061
  C  C255  1  0.846000  0.692000  0.382000  1.0  0.2583
  C  C256  1  0.896100  0.792200  0.324000  1.0  0.0669
  C  C257  1  0.923200  0.846400  0.295700  1.0  0.7524
  C  C258  1  0.444200  0.222100  0.471400  1.0  0.0215
  C  C259  1  0.356000  0.178000  0.412400  1.0  0.0058
  C  C260  1  0.308000  0.154000  0.382000  1.0  0.2561
  C  C261  1  0.207800  0.103900  0.324000  1.0  0.0559
  C  C262  1  0.153600  0.076800  0.295700  1.0  0.7536
  C  C263  1  0.777900  0.222100  0.471400  1.0  0.0209
  C  C264  1  0.822000  0.178000  0.412400  1.0  0.0059
  C  C265  1  0.846000  0.154000  0.382000  1.0  0.2551
  C  C266  1  0.896100  0.103900  0.324000  1.0  0.0656
  C  C267  1  0.923200  0.076800  0.295700  1.0  0.7552
  C  C268  1  0.222100  0.444200  0.971400  1.0  0.0209
  C  C269  1  0.178000  0.356000  0.912400  1.0  0.0059
  C  C270  1  0.154000  0.308000  0.882000  1.0  0.2585
  C  C271  1  0.103900  0.207800  0.824000  1.0  0.065
  C  C272  1  0.076800  0.153600  0.795700  1.0  0.7531
  C  C273  1  0.555800  0.777900  0.971400  1.0  0.0214
  C  C274  1  0.644000  0.822000  0.912400  1.0  0.0059
  C  C275  1  0.692000  0.846000  0.882000  1.0  0.2548
  C  C276  1  0.792200  0.896100  0.824000  1.0  0.0663
  C  C277  1  0.846400  0.923200  0.795700  1.0  0.7547
  C  C278  1  0.222100  0.777900  0.971400  1.0  0.022
  C  C279  1  0.178000  0.822000  0.912400  1.0  0.0058
  C  C280  1  0.154000  0.846000  0.882000  1.0  0.256
  C  C281  1  0.103900  0.896100  0.824000  1.0  0.0567
  C  C282  1  0.076800  0.923200  0.795700  1.0  0.7532
  O  O283  1  0.371800  0.481500  0.497670  1.0  -0.5882
  O  O284  1  0.122200  0.131700  0.715250  1.0  -0.604
  O  O285  1  0.411500  0.437900  0.543320  1.0  -0.5872
  O  O286  1  0.109700  0.628200  0.497670  1.0  -0.5874
  O  O287  1  0.009500  0.877800  0.715250  1.0  -0.6
  O  O288  1  0.026400  0.588500  0.543320  1.0  -0.587
  O  O289  1  0.518500  0.890300  0.497670  1.0  -0.5891
  O  O290  1  0.868300  0.990500  0.715250  1.0  -0.6034
  O  O291  1  0.562100  0.973600  0.543320  1.0  -0.5879
  O  O292  1  0.628200  0.518500  0.997670  1.0  -0.5881
  O  O293  1  0.877800  0.868300  0.215250  1.0  -0.6018
  O  O294  1  0.588500  0.562100  0.043320  1.0  -0.5877
  O  O295  1  0.890300  0.371800  0.997670  1.0  -0.588
  O  O296  1  0.990500  0.122200  0.215250  1.0  -0.6011
  O  O297  1  0.973600  0.411500  0.043320  1.0  -0.5869
  O  O298  1  0.481500  0.109700  0.997670  1.0  -0.5902
  O  O299  1  0.131700  0.009500  0.215250  1.0  -0.6032
  O  O300  1  0.437900  0.026400  0.043320  1.0  -0.5876
  O  O301  1  0.890300  0.518500  0.502330  1.0  -0.5886
  O  O302  1  0.990500  0.868300  0.284750  1.0  -0.603
  O  O303  1  0.973600  0.562100  0.456680  1.0  -0.5875
  O  O304  1  0.481500  0.371800  0.502330  1.0  -0.5875
  O  O305  1  0.131700  0.122200  0.284750  1.0  -0.5967
  O  O306  1  0.437900  0.411500  0.456680  1.0  -0.5867
  O  O307  1  0.628200  0.109700  0.502330  1.0  -0.5895
  O  O308  1  0.877800  0.009500  0.284750  1.0  -0.5994
  O  O309  1  0.588500  0.026400  0.456680  1.0  -0.5887
  O  O310  1  0.109700  0.481500  0.002330  1.0  -0.5884
  O  O311  1  0.009500  0.131700  0.784750  1.0  -0.6023
  O  O312  1  0.026400  0.437900  0.956680  1.0  -0.5873
  O  O313  1  0.518500  0.628200  0.002330  1.0  -0.588
  O  O314  1  0.868300  0.877800  0.784750  1.0  -0.5987
  O  O315  1  0.562100  0.588500  0.956680  1.0  -0.5876
  O  O316  1  0.371800  0.890300  0.002330  1.0  -0.5903
  O  O317  1  0.122200  0.990500  0.784750  1.0  -0.6
  O  O318  1  0.411500  0.973600  0.956680  1.0  -0.5876
  O  O319  1  0.628200  0.518500  0.502330  1.0  -0.5886
  O  O320  1  0.877800  0.868300  0.284750  1.0  -0.6018
  O  O321  1  0.588500  0.562100  0.456680  1.0  -0.587
  O  O322  1  0.890300  0.371800  0.502330  1.0  -0.5881
  O  O323  1  0.990500  0.122200  0.284750  1.0  -0.6009
  O  O324  1  0.973600  0.411500  0.456680  1.0  -0.5872
  O  O325  1  0.481500  0.109700  0.502330  1.0  -0.5907
  O  O326  1  0.131700  0.009500  0.284750  1.0  -0.6021
  O  O327  1  0.437900  0.026400  0.456680  1.0  -0.5884
  O  O328  1  0.371800  0.481500  0.002330  1.0  -0.5884
  O  O329  1  0.122200  0.131700  0.784750  1.0  -0.6034
  O  O330  1  0.411500  0.437900  0.956680  1.0  -0.588
  O  O331  1  0.109700  0.628200  0.002330  1.0  -0.5874
  O  O332  1  0.009500  0.877800  0.784750  1.0  -0.5999
  O  O333  1  0.026400  0.588500  0.956680  1.0  -0.5871
  O  O334  1  0.518500  0.890300  0.002330  1.0  -0.5892
  O  O335  1  0.868300  0.990500  0.784750  1.0  -0.6035
  O  O336  1  0.562100  0.973600  0.956680  1.0  -0.5877
  O  O337  1  0.109700  0.481500  0.497670  1.0  -0.588
  O  O338  1  0.009500  0.131700  0.715250  1.0  -0.6021
  O  O339  1  0.026400  0.437900  0.543320  1.0  -0.587
  O  O340  1  0.518500  0.628200  0.497670  1.0  -0.5876
  O  O341  1  0.868300  0.877800  0.715250  1.0  -0.599
  O  O342  1  0.562100  0.588500  0.543320  1.0  -0.5869
  O  O343  1  0.371800  0.890300  0.497670  1.0  -0.59
  O  O344  1  0.122200  0.990500  0.715250  1.0  -0.6007
  O  O345  1  0.411500  0.973600  0.543320  1.0  -0.5878
  O  O346  1  0.890300  0.518500  0.997670  1.0  -0.5885
  O  O347  1  0.990500  0.868300  0.215250  1.0  -0.6035
  O  O348  1  0.973600  0.562100  0.043320  1.0  -0.5875
  O  O349  1  0.481500  0.371800  0.997670  1.0  -0.5879
  O  O350  1  0.131700  0.122200  0.215250  1.0  -0.5969
  O  O351  1  0.437900  0.411500  0.043320  1.0  -0.587
  O  O352  1  0.628200  0.109700  0.997670  1.0  -0.5892
  O  O353  1  0.877800  0.009500  0.215250  1.0  -0.5997
  O  O354  1  0.588500  0.026400  0.043320  1.0  -0.5875
