# generated using pymatgen
data_BiH4C6O7
_symmetry_space_group_name_H-M   'P 1'
_cell_length_a   28.79500000
_cell_length_b   9.50780000
_cell_length_c   27.73630000
_cell_angle_alpha   90.00000000
_cell_angle_beta   92.59400000
_cell_angle_gamma   90.00000000
_symmetry_Int_Tables_number   1
_chemical_formula_structural   BiH4C6O7
_chemical_formula_sum   'Bi24 H96 C144 O168'
_cell_volume   7585.78279337
_cell_formula_units_Z   24
loop_
 _symmetry_equiv_pos_site_id
 _symmetry_equiv_pos_as_xyz
  1  'x, y, z'
loop_
 _atom_site_type_symbol
 _atom_site_label
 _atom_site_symmetry_multiplicity
 _atom_site_fract_x
 _atom_site_fract_y
 _atom_site_fract_z
 _atom_site_occupancy
 _atom_site_charge
  Bi  Bi1  1  0.899900  0.416670  0.977840  1.0  1.4416
  Bi  Bi2  1  0.100100  0.583330  0.022160  1.0  1.4422
  Bi  Bi3  1  0.753650  0.550530  0.997850  1.0  1.4747
  Bi  Bi4  1  0.746350  0.949470  0.002150  1.0  1.4767
  Bi  Bi5  1  0.011010  0.587660  0.143210  1.0  1.296
  Bi  Bi6  1  0.988990  0.587660  0.356790  1.0  1.298
  Bi  Bi7  1  0.988990  0.412340  0.856790  1.0  1.2982
  Bi  Bi8  1  0.011010  0.412340  0.643210  1.0  1.2961
  Bi  Bi9  1  0.399900  0.916670  0.977840  1.0  1.4416
  Bi  Bi10  1  0.600100  0.083330  0.022160  1.0  1.4422
  Bi  Bi11  1  0.253650  0.050530  0.997850  1.0  1.4747
  Bi  Bi12  1  0.246350  0.449470  0.002150  1.0  1.4767
  Bi  Bi13  1  0.511010  0.087660  0.143210  1.0  1.296
  Bi  Bi14  1  0.488990  0.087660  0.356790  1.0  1.298
  Bi  Bi15  1  0.488990  0.912340  0.856790  1.0  1.2982
  Bi  Bi16  1  0.511010  0.912340  0.643210  1.0  1.2961
  Bi  Bi17  1  0.100100  0.416670  0.522160  1.0  1.4409
  Bi  Bi18  1  0.899900  0.583330  0.477840  1.0  1.4471
  Bi  Bi19  1  0.246350  0.550530  0.502150  1.0  1.4764
  Bi  Bi20  1  0.253650  0.949470  0.497850  1.0  1.475
  Bi  Bi21  1  0.600100  0.916670  0.522160  1.0  1.4409
  Bi  Bi22  1  0.399900  0.083330  0.477840  1.0  1.4471
  Bi  Bi23  1  0.746350  0.050530  0.502150  1.0  1.4764
  Bi  Bi24  1  0.753650  0.449470  0.497850  1.0  1.475
  H  H25  1  0.966500  0.870100  0.974300  1.0  0.171
  H  H26  1  0.968200  0.881800  0.030600  1.0  0.164
  H  H27  1  0.878400  0.835400  0.973300  1.0  0.1757
  H  H28  1  0.887900  0.874000  0.027700  1.0  0.1578
  H  H29  1  0.033500  0.129900  0.025700  1.0  0.1743
  H  H30  1  0.031800  0.118200  0.969400  1.0  0.1637
  H  H31  1  0.121600  0.164600  0.026700  1.0  0.1751
  H  H32  1  0.112100  0.126000  0.972300  1.0  0.158
  H  H33  1  0.758900  0.270300  0.137000  1.0  0.1654
  H  H34  1  0.705400  0.240400  0.131200  1.0  0.1551
  H  H35  1  0.687800  0.489300  0.143000  1.0  0.1628
  H  H36  1  0.741300  0.516600  0.150900  1.0  0.1722
  H  H37  1  0.741100  0.229700  0.863000  1.0  0.165
  H  H38  1  0.794600  0.259600  0.868800  1.0  0.1542
  H  H39  1  0.812200  0.010700  0.857000  1.0  0.1573
  H  H40  1  0.758700  0.983400  0.849100  1.0  0.1726
  H  H41  1  0.109800  0.415900  0.265900  1.0  0.1537
  H  H42  1  0.130300  0.566600  0.276300  1.0  0.1497
  H  H43  1  0.135800  0.396200  0.188100  1.0  0.1591
  H  H44  1  0.162000  0.539800  0.193700  1.0  0.1699
  H  H45  1  0.890200  0.415900  0.234100  1.0  0.1532
  H  H46  1  0.869700  0.566600  0.223700  1.0  0.1493
  H  H47  1  0.864200  0.396200  0.311900  1.0  0.1592
  H  H48  1  0.838000  0.539800  0.306300  1.0  0.173
  H  H49  1  0.890200  0.584100  0.734100  1.0  0.1531
  H  H50  1  0.869700  0.433400  0.723700  1.0  0.1493
  H  H51  1  0.864200  0.603800  0.811900  1.0  0.1607
  H  H52  1  0.838000  0.460200  0.806300  1.0  0.1732
  H  H53  1  0.109800  0.584100  0.765900  1.0  0.1533
  H  H54  1  0.130300  0.433400  0.776300  1.0  0.1496
  H  H55  1  0.135800  0.603800  0.688100  1.0  0.1602
  H  H56  1  0.162000  0.460200  0.693700  1.0  0.1695
  H  H57  1  0.466500  0.370100  0.974300  1.0  0.171
  H  H58  1  0.468200  0.381800  0.030600  1.0  0.164
  H  H59  1  0.378400  0.335400  0.973300  1.0  0.1757
  H  H60  1  0.387900  0.374000  0.027700  1.0  0.1578
  H  H61  1  0.533500  0.629900  0.025700  1.0  0.1743
  H  H62  1  0.531800  0.618200  0.969400  1.0  0.1637
  H  H63  1  0.621600  0.664600  0.026700  1.0  0.1751
  H  H64  1  0.612100  0.626000  0.972300  1.0  0.158
  H  H65  1  0.258900  0.770300  0.137000  1.0  0.1654
  H  H66  1  0.205400  0.740400  0.131200  1.0  0.1551
  H  H67  1  0.187800  0.989300  0.143000  1.0  0.1628
  H  H68  1  0.241300  0.016600  0.150900  1.0  0.1722
  H  H69  1  0.241100  0.729700  0.863000  1.0  0.165
  H  H70  1  0.294600  0.759600  0.868800  1.0  0.1542
  H  H71  1  0.312200  0.510700  0.857000  1.0  0.1573
  H  H72  1  0.258700  0.483400  0.849100  1.0  0.1726
  H  H73  1  0.609800  0.915900  0.265900  1.0  0.1537
  H  H74  1  0.630300  0.066600  0.276300  1.0  0.1497
  H  H75  1  0.635800  0.896200  0.188100  1.0  0.1591
  H  H76  1  0.662000  0.039800  0.193700  1.0  0.1699
  H  H77  1  0.390200  0.915900  0.234100  1.0  0.1532
  H  H78  1  0.369700  0.066600  0.223700  1.0  0.1493
  H  H79  1  0.364200  0.896200  0.311900  1.0  0.1592
  H  H80  1  0.338000  0.039800  0.306300  1.0  0.173
  H  H81  1  0.390200  0.084100  0.734100  1.0  0.1531
  H  H82  1  0.369700  0.933400  0.723700  1.0  0.1493
  H  H83  1  0.364200  0.103800  0.811900  1.0  0.1607
  H  H84  1  0.338000  0.960200  0.806300  1.0  0.1732
  H  H85  1  0.609800  0.084100  0.765900  1.0  0.1533
  H  H86  1  0.630300  0.933400  0.776300  1.0  0.1496
  H  H87  1  0.635800  0.103800  0.688100  1.0  0.1602
  H  H88  1  0.662000  0.960200  0.693700  1.0  0.1695
  H  H89  1  0.033500  0.870100  0.525700  1.0  0.174
  H  H90  1  0.031800  0.881800  0.469400  1.0  0.1637
  H  H91  1  0.121600  0.835400  0.526700  1.0  0.175
  H  H92  1  0.112100  0.874000  0.472300  1.0  0.1578
  H  H93  1  0.966500  0.129900  0.474300  1.0  0.1715
  H  H94  1  0.968200  0.118200  0.530600  1.0  0.1645
  H  H95  1  0.878400  0.164600  0.473300  1.0  0.1759
  H  H96  1  0.887900  0.126000  0.527700  1.0  0.1594
  H  H97  1  0.241100  0.270300  0.363000  1.0  0.1654
  H  H98  1  0.294600  0.240400  0.368800  1.0  0.1542
  H  H99  1  0.312200  0.489300  0.357000  1.0  0.1573
  H  H100  1  0.258700  0.516600  0.349100  1.0  0.1729
  H  H101  1  0.258900  0.229700  0.637000  1.0  0.1651
  H  H102  1  0.205400  0.259600  0.631200  1.0  0.155
  H  H103  1  0.187800  0.010700  0.643000  1.0  0.1627
  H  H104  1  0.241300  0.983400  0.650900  1.0  0.1717
  H  H105  1  0.533500  0.370100  0.525700  1.0  0.174
  H  H106  1  0.531800  0.381800  0.469400  1.0  0.1637
  H  H107  1  0.621600  0.335400  0.526700  1.0  0.175
  H  H108  1  0.612100  0.374000  0.472300  1.0  0.1578
  H  H109  1  0.466500  0.629900  0.474300  1.0  0.1715
  H  H110  1  0.468200  0.618200  0.530600  1.0  0.1645
  H  H111  1  0.378400  0.664600  0.473300  1.0  0.1759
  H  H112  1  0.387900  0.626000  0.527700  1.0  0.1594
  H  H113  1  0.741100  0.770300  0.363000  1.0  0.1654
  H  H114  1  0.794600  0.740400  0.368800  1.0  0.1542
  H  H115  1  0.812200  0.989300  0.357000  1.0  0.1573
  H  H116  1  0.758700  0.016600  0.349100  1.0  0.1729
  H  H117  1  0.758900  0.729700  0.637000  1.0  0.1651
  H  H118  1  0.705400  0.759600  0.631200  1.0  0.155
  H  H119  1  0.687800  0.510700  0.643000  1.0  0.1627
  H  H120  1  0.741300  0.483400  0.650900  1.0  0.1717
  C  C121  1  0.932400  0.631800  0.053900  1.0  0.6901
  C  C122  1  0.929200  0.713800  0.005800  1.0  0.3028
  C  C123  1  0.969900  0.816300  0.003900  1.0  -0.2902
  C  C124  1  0.884100  0.796100  0.005300  1.0  -0.3116
  C  C125  1  0.841300  0.710800  0.018500  1.0  0.7781
  C  C126  1  0.017000  0.749900  0.006300  1.0  0.8342
  C  C127  1  0.067600  0.368200  0.946100  1.0  0.6899
  C  C128  1  0.070800  0.286200  0.994200  1.0  0.3037
  C  C129  1  0.030100  0.183700  0.996100  1.0  -0.2926
  C  C130  1  0.115900  0.203900  0.994700  1.0  -0.314
  C  C131  1  0.158700  0.289200  0.981500  1.0  0.7782
  C  C132  1  0.983000  0.250100  0.993700  1.0  0.8374
  C  C133  1  0.682400  0.396700  0.053400  1.0  0.7312
  C  C134  1  0.725500  0.405600  0.088500  1.0  0.3174
  C  C135  1  0.732800  0.262800  0.113700  1.0  -0.3111
  C  C136  1  0.715700  0.516300  0.126900  1.0  -0.3007
  C  C137  1  0.709300  0.663900  0.107200  1.0  0.7569
  C  C138  1  0.742200  0.143300  0.078800  1.0  0.7856
  C  C139  1  0.817600  0.103300  0.946600  1.0  0.732
  C  C140  1  0.774500  0.094400  0.911500  1.0  0.3166
  C  C141  1  0.767200  0.237200  0.886300  1.0  -0.308
  C  C142  1  0.784300  0.983700  0.873100  1.0  -0.298
  C  C143  1  0.790700  0.836100  0.892800  1.0  0.7575
  C  C144  1  0.757800  0.356700  0.921200  1.0  0.7888
  C  C145  1  0.090600  0.713000  0.208000  1.0  0.7267
  C  C146  1  0.092300  0.556200  0.212900  1.0  0.3369
  C  C147  1  0.103100  0.516000  0.264000  1.0  -0.2703
  C  C148  1  0.133000  0.496400  0.182200  1.0  -0.2906
  C  C149  1  0.127200  0.519700  0.128700  1.0  0.7839
  C  C150  1  0.060400  0.551000  0.296000  1.0  0.7137
  C  C151  1  0.909400  0.713000  0.292000  1.0  0.7265
  C  C152  1  0.907700  0.556200  0.287100  1.0  0.3367
  C  C153  1  0.896900  0.516000  0.236000  1.0  -0.2685
  C  C154  1  0.867000  0.496400  0.317800  1.0  -0.2885
  C  C155  1  0.872800  0.519700  0.371300  1.0  0.7844
  C  C156  1  0.939600  0.551000  0.204000  1.0  0.7152
  C  C157  1  0.909400  0.287000  0.792000  1.0  0.7259
  C  C158  1  0.907700  0.443800  0.787100  1.0  0.3369
  C  C159  1  0.896900  0.484000  0.736000  1.0  -0.2684
  C  C160  1  0.867000  0.503600  0.817800  1.0  -0.2893
  C  C161  1  0.872800  0.480300  0.871300  1.0  0.7841
  C  C162  1  0.939600  0.449000  0.704000  1.0  0.7154
  C  C163  1  0.090600  0.287000  0.708000  1.0  0.7261
  C  C164  1  0.092300  0.443800  0.712900  1.0  0.3373
  C  C165  1  0.103100  0.484000  0.764000  1.0  -0.2697
  C  C166  1  0.133000  0.503600  0.682200  1.0  -0.2906
  C  C167  1  0.127200  0.480300  0.628700  1.0  0.7835
  C  C168  1  0.060400  0.449000  0.796000  1.0  0.7136
  C  C169  1  0.432400  0.131800  0.053900  1.0  0.6901
  C  C170  1  0.429200  0.213800  0.005800  1.0  0.3028
  C  C171  1  0.469900  0.316300  0.003900  1.0  -0.2902
  C  C172  1  0.384100  0.296100  0.005300  1.0  -0.3116
  C  C173  1  0.341300  0.210800  0.018500  1.0  0.7781
  C  C174  1  0.517000  0.249900  0.006300  1.0  0.8342
  C  C175  1  0.567600  0.868200  0.946100  1.0  0.6899
  C  C176  1  0.570800  0.786200  0.994200  1.0  0.3037
  C  C177  1  0.530100  0.683700  0.996100  1.0  -0.2926
  C  C178  1  0.615900  0.703900  0.994700  1.0  -0.314
  C  C179  1  0.658700  0.789200  0.981500  1.0  0.7782
  C  C180  1  0.483000  0.750100  0.993700  1.0  0.8374
  C  C181  1  0.182400  0.896700  0.053400  1.0  0.7312
  C  C182  1  0.225500  0.905600  0.088500  1.0  0.3174
  C  C183  1  0.232800  0.762800  0.113700  1.0  -0.3111
  C  C184  1  0.215700  0.016300  0.126900  1.0  -0.3007
  C  C185  1  0.209300  0.163900  0.107200  1.0  0.7569
  C  C186  1  0.242200  0.643300  0.078800  1.0  0.7856
  C  C187  1  0.317600  0.603300  0.946600  1.0  0.732
  C  C188  1  0.274500  0.594400  0.911500  1.0  0.3166
  C  C189  1  0.267200  0.737200  0.886300  1.0  -0.308
  C  C190  1  0.284300  0.483700  0.873100  1.0  -0.298
  C  C191  1  0.290700  0.336100  0.892800  1.0  0.7575
  C  C192  1  0.257800  0.856700  0.921200  1.0  0.7888
  C  C193  1  0.590600  0.213000  0.208000  1.0  0.7267
  C  C194  1  0.592300  0.056200  0.212900  1.0  0.3369
  C  C195  1  0.603100  0.016000  0.264000  1.0  -0.2703
  C  C196  1  0.633000  0.996400  0.182200  1.0  -0.2906
  C  C197  1  0.627200  0.019700  0.128700  1.0  0.7839
  C  C198  1  0.560400  0.051000  0.296000  1.0  0.7137
  C  C199  1  0.409400  0.213000  0.292000  1.0  0.7265
  C  C200  1  0.407700  0.056200  0.287100  1.0  0.3367
  C  C201  1  0.396900  0.016000  0.236000  1.0  -0.2685
  C  C202  1  0.367000  0.996400  0.317800  1.0  -0.2885
  C  C203  1  0.372800  0.019700  0.371300  1.0  0.7844
  C  C204  1  0.439600  0.051000  0.204000  1.0  0.7152
  C  C205  1  0.409400  0.787000  0.792000  1.0  0.7259
  C  C206  1  0.407700  0.943800  0.787100  1.0  0.3369
  C  C207  1  0.396900  0.984000  0.736000  1.0  -0.2684
  C  C208  1  0.367000  0.003600  0.817800  1.0  -0.2893
  C  C209  1  0.372800  0.980300  0.871300  1.0  0.7841
  C  C210  1  0.439600  0.949000  0.704000  1.0  0.7154
  C  C211  1  0.590600  0.787000  0.708000  1.0  0.7261
  C  C212  1  0.592300  0.943800  0.712900  1.0  0.3373
  C  C213  1  0.603100  0.984000  0.764000  1.0  -0.2697
  C  C214  1  0.633000  0.003600  0.682200  1.0  -0.2906
  C  C215  1  0.627200  0.980300  0.628700  1.0  0.7835
  C  C216  1  0.560400  0.949000  0.796000  1.0  0.7136
  C  C217  1  0.067600  0.631800  0.446100  1.0  0.69
  C  C218  1  0.070800  0.713800  0.494200  1.0  0.3041
  C  C219  1  0.030100  0.816300  0.496100  1.0  -0.2889
  C  C220  1  0.115900  0.796100  0.494700  1.0  -0.3121
  C  C221  1  0.158700  0.710800  0.481500  1.0  0.7784
  C  C222  1  0.983000  0.749900  0.493700  1.0  0.8368
  C  C223  1  0.932400  0.368200  0.553900  1.0  0.689
  C  C224  1  0.929200  0.286200  0.505800  1.0  0.3029
  C  C225  1  0.969900  0.183700  0.503900  1.0  -0.2929
  C  C226  1  0.884100  0.203900  0.505300  1.0  -0.314
  C  C227  1  0.841300  0.289200  0.518500  1.0  0.778
  C  C228  1  0.017000  0.250100  0.506300  1.0  0.8346
  C  C229  1  0.317600  0.396700  0.446600  1.0  0.7321
  C  C230  1  0.274500  0.405600  0.411500  1.0  0.3162
  C  C231  1  0.267200  0.262800  0.386300  1.0  -0.3081
  C  C232  1  0.284300  0.516300  0.373100  1.0  -0.2977
  C  C233  1  0.290700  0.663900  0.392800  1.0  0.7574
  C  C234  1  0.257800  0.143300  0.421200  1.0  0.7876
  C  C235  1  0.182400  0.103300  0.553400  1.0  0.7311
  C  C236  1  0.225500  0.094400  0.588500  1.0  0.3175
  C  C237  1  0.232800  0.237200  0.613700  1.0  -0.3131
  C  C238  1  0.215700  0.983700  0.626900  1.0  -0.2991
  C  C239  1  0.209300  0.836100  0.607200  1.0  0.7568
  C  C240  1  0.242200  0.356700  0.578800  1.0  0.7851
  C  C241  1  0.567600  0.131800  0.446100  1.0  0.69
  C  C242  1  0.570800  0.213800  0.494200  1.0  0.3041
  C  C243  1  0.530100  0.316300  0.496100  1.0  -0.2889
  C  C244  1  0.615900  0.296100  0.494700  1.0  -0.3121
  C  C245  1  0.658700  0.210800  0.481500  1.0  0.7784
  C  C246  1  0.483000  0.249900  0.493700  1.0  0.8368
  C  C247  1  0.432400  0.868200  0.553900  1.0  0.689
  C  C248  1  0.429200  0.786200  0.505800  1.0  0.3029
  C  C249  1  0.469900  0.683700  0.503900  1.0  -0.2929
  C  C250  1  0.384100  0.703900  0.505300  1.0  -0.314
  C  C251  1  0.341300  0.789200  0.518500  1.0  0.778
  C  C252  1  0.517000  0.750100  0.506300  1.0  0.8346
  C  C253  1  0.817600  0.896700  0.446600  1.0  0.7321
  C  C254  1  0.774500  0.905600  0.411500  1.0  0.3162
  C  C255  1  0.767200  0.762800  0.386300  1.0  -0.3081
  C  C256  1  0.784300  0.016300  0.373100  1.0  -0.2977
  C  C257  1  0.790700  0.163900  0.392800  1.0  0.7574
  C  C258  1  0.757800  0.643300  0.421200  1.0  0.7876
  C  C259  1  0.682400  0.603300  0.553400  1.0  0.7311
  C  C260  1  0.725500  0.594400  0.588500  1.0  0.3175
  C  C261  1  0.732800  0.737200  0.613700  1.0  -0.3131
  C  C262  1  0.715700  0.483700  0.626900  1.0  -0.2991
  C  C263  1  0.709300  0.336100  0.607200  1.0  0.7568
  C  C264  1  0.742200  0.856700  0.578800  1.0  0.7851
  O  O265  1  0.928400  0.496700  0.051700  1.0  -0.5887
  O  O266  1  0.935100  0.700300  0.092600  1.0  -0.5856
  O  O267  1  0.929200  0.620500  0.966800  1.0  -0.5556
  O  O268  1  0.839500  0.581100  0.007800  1.0  -0.7405
  O  O269  1  0.809700  0.768600  0.039500  1.0  -0.6491
  O  O270  1  0.048500  0.792000  0.980100  1.0  -0.5895
  O  O271  1  0.025400  0.651000  0.036400  1.0  -0.6143
  O  O272  1  0.071600  0.503300  0.948300  1.0  -0.5876
  O  O273  1  0.064900  0.299700  0.907400  1.0  -0.5881
  O  O274  1  0.070800  0.379500  0.033200  1.0  -0.5589
  O  O275  1  0.160500  0.418900  0.992200  1.0  -0.7402
  O  O276  1  0.190300  0.231400  0.960500  1.0  -0.6506
  O  O277  1  0.951500  0.208000  0.019900  1.0  -0.5885
  O  O278  1  0.974600  0.349000  0.963600  1.0  -0.6156
  O  O279  1  0.687200  0.434200  0.009600  1.0  -0.5977
  O  O280  1  0.646000  0.347000  0.068300  1.0  -0.4665
  O  O281  1  0.766300  0.441700  0.065100  1.0  -0.5689
  O  O282  1  0.710800  0.693500  0.065100  1.0  -0.5564
  O  O283  1  0.698600  0.754400  0.140100  1.0  -0.5005
  O  O284  1  0.768600  0.043700  0.091600  1.0  -0.6076
  O  O285  1  0.721700  0.148600  0.037600  1.0  -0.5471
  O  O286  1  0.812800  0.065800  0.990400  1.0  -0.5999
  O  O287  1  0.854000  0.153000  0.931700  1.0  -0.4679
  O  O288  1  0.733700  0.058300  0.934900  1.0  -0.5656
  O  O289  1  0.789200  0.806500  0.934900  1.0  -0.5571
  O  O290  1  0.801400  0.745600  0.859900  1.0  -0.5022
  O  O291  1  0.731400  0.456300  0.908400  1.0  -0.6056
  O  O292  1  0.778300  0.351400  0.962400  1.0  -0.5466
  O  O293  1  0.053400  0.761500  0.185800  1.0  -0.5917
  O  O294  1  0.122500  0.785200  0.222400  1.0  -0.4141
  O  O295  1  0.050900  0.488100  0.197900  1.0  -0.5746
  O  O296  1  0.158100  0.478300  0.103200  1.0  -0.5506
  O  O297  1  0.091100  0.580100  0.110800  1.0  -0.7442
  O  O298  1  0.046700  0.446000  0.322300  1.0  -0.5816
  O  O299  1  0.044000  0.663800  0.296000  1.0  -0.5308
  O  O300  1  0.946600  0.761500  0.314200  1.0  -0.5921
  O  O301  1  0.877500  0.785200  0.277600  1.0  -0.4137
  O  O302  1  0.949100  0.488100  0.302100  1.0  -0.5768
  O  O303  1  0.841900  0.478300  0.396800  1.0  -0.5493
  O  O304  1  0.908900  0.580100  0.389200  1.0  -0.7443
  O  O305  1  0.953300  0.446000  0.177700  1.0  -0.5832
  O  O306  1  0.956000  0.663800  0.204000  1.0  -0.531
  O  O307  1  0.946600  0.238500  0.814200  1.0  -0.5896
  O  O308  1  0.877500  0.214800  0.777600  1.0  -0.4154
  O  O309  1  0.949100  0.511900  0.802100  1.0  -0.5785
  O  O310  1  0.841900  0.521700  0.896800  1.0  -0.5501
  O  O311  1  0.908900  0.419900  0.889200  1.0  -0.7442
  O  O312  1  0.953300  0.554000  0.677700  1.0  -0.5884
  O  O313  1  0.956000  0.336200  0.704000  1.0  -0.5314
  O  O314  1  0.053400  0.238500  0.685800  1.0  -0.5897
  O  O315  1  0.122500  0.214800  0.722400  1.0  -0.415
  O  O316  1  0.050900  0.511900  0.697900  1.0  -0.5753
  O  O317  1  0.158100  0.521700  0.603200  1.0  -0.5505
  O  O318  1  0.091100  0.419900  0.610800  1.0  -0.7455
  O  O319  1  0.046700  0.554000  0.822300  1.0  -0.5848
  O  O320  1  0.044000  0.336200  0.796000  1.0  -0.5304
  O  O321  1  0.428400  0.996700  0.051700  1.0  -0.5887
  O  O322  1  0.435100  0.200300  0.092600  1.0  -0.5856
  O  O323  1  0.429200  0.120500  0.966800  1.0  -0.5556
  O  O324  1  0.339500  0.081100  0.007800  1.0  -0.7405
  O  O325  1  0.309700  0.268600  0.039500  1.0  -0.6491
  O  O326  1  0.548500  0.292000  0.980100  1.0  -0.5895
  O  O327  1  0.525400  0.151000  0.036400  1.0  -0.6143
  O  O328  1  0.571600  0.003300  0.948300  1.0  -0.5876
  O  O329  1  0.564900  0.799700  0.907400  1.0  -0.5881
  O  O330  1  0.570800  0.879500  0.033200  1.0  -0.5589
  O  O331  1  0.660500  0.918900  0.992200  1.0  -0.7402
  O  O332  1  0.690300  0.731400  0.960500  1.0  -0.6503
  O  O333  1  0.451500  0.708000  0.019900  1.0  -0.5885
  O  O334  1  0.474600  0.849000  0.963600  1.0  -0.6156
  O  O335  1  0.187200  0.934200  0.009600  1.0  -0.5977
  O  O336  1  0.146000  0.847000  0.068300  1.0  -0.4665
  O  O337  1  0.266300  0.941700  0.065100  1.0  -0.5689
  O  O338  1  0.210800  0.193500  0.065100  1.0  -0.5564
  O  O339  1  0.198600  0.254400  0.140100  1.0  -0.5005
  O  O340  1  0.268600  0.543700  0.091600  1.0  -0.6076
  O  O341  1  0.221700  0.648600  0.037600  1.0  -0.5471
  O  O342  1  0.312800  0.565800  0.990400  1.0  -0.5999
  O  O343  1  0.354000  0.653000  0.931700  1.0  -0.4679
  O  O344  1  0.233700  0.558300  0.934900  1.0  -0.5656
  O  O345  1  0.289200  0.306500  0.934900  1.0  -0.5571
  O  O346  1  0.301400  0.245600  0.859900  1.0  -0.5022
  O  O347  1  0.231400  0.956300  0.908400  1.0  -0.6056
  O  O348  1  0.278300  0.851400  0.962400  1.0  -0.5466
  O  O349  1  0.553400  0.261500  0.185800  1.0  -0.5917
  O  O350  1  0.622500  0.285200  0.222400  1.0  -0.4141
  O  O351  1  0.550900  0.988100  0.197900  1.0  -0.5746
  O  O352  1  0.658100  0.978300  0.103200  1.0  -0.5506
  O  O353  1  0.591100  0.080100  0.110800  1.0  -0.7442
  O  O354  1  0.546700  0.946000  0.322300  1.0  -0.5816
  O  O355  1  0.544000  0.163800  0.296000  1.0  -0.5308
  O  O356  1  0.446600  0.261500  0.314200  1.0  -0.5921
  O  O357  1  0.377500  0.285200  0.277600  1.0  -0.4137
  O  O358  1  0.449100  0.988100  0.302100  1.0  -0.5768
  O  O359  1  0.341900  0.978300  0.396800  1.0  -0.5493
  O  O360  1  0.408900  0.080100  0.389200  1.0  -0.7443
  O  O361  1  0.453300  0.946000  0.177700  1.0  -0.5832
  O  O362  1  0.456000  0.163800  0.204000  1.0  -0.531
  O  O363  1  0.446600  0.738500  0.814200  1.0  -0.5896
  O  O364  1  0.377500  0.714800  0.777600  1.0  -0.4154
  O  O365  1  0.449100  0.011900  0.802100  1.0  -0.5785
  O  O366  1  0.341900  0.021700  0.896800  1.0  -0.5501
  O  O367  1  0.408900  0.919900  0.889200  1.0  -0.7442
  O  O368  1  0.453300  0.054000  0.677700  1.0  -0.5884
  O  O369  1  0.456000  0.836200  0.704000  1.0  -0.5314
  O  O370  1  0.553400  0.738500  0.685800  1.0  -0.5897
  O  O371  1  0.622500  0.714800  0.722400  1.0  -0.415
  O  O372  1  0.550900  0.011900  0.697900  1.0  -0.5753
  O  O373  1  0.658100  0.021700  0.603200  1.0  -0.5505
  O  O374  1  0.591100  0.919900  0.610800  1.0  -0.7455
  O  O375  1  0.546700  0.054000  0.822300  1.0  -0.5848
  O  O376  1  0.544000  0.836200  0.796000  1.0  -0.5304
  O  O377  1  0.071600  0.496700  0.448300  1.0  -0.5863
  O  O378  1  0.064900  0.700300  0.407400  1.0  -0.5872
  O  O379  1  0.070800  0.620500  0.533200  1.0  -0.5581
  O  O380  1  0.160500  0.581100  0.492200  1.0  -0.7408
  O  O381  1  0.190300  0.768600  0.460500  1.0  -0.6501
  O  O382  1  0.951500  0.792000  0.519900  1.0  -0.5893
  O  O383  1  0.974600  0.651000  0.463600  1.0  -0.6156
  O  O384  1  0.928400  0.503300  0.551700  1.0  -0.5892
  O  O385  1  0.935100  0.299700  0.592600  1.0  -0.5849
  O  O386  1  0.929200  0.379500  0.466800  1.0  -0.5554
  O  O387  1  0.839500  0.418900  0.507800  1.0  -0.7394
  O  O388  1  0.809700  0.231400  0.539500  1.0  -0.6479
  O  O389  1  0.048500  0.208000  0.480100  1.0  -0.5896
  O  O390  1  0.025400  0.349000  0.536400  1.0  -0.6143
  O  O391  1  0.312800  0.434200  0.490400  1.0  -0.6001
  O  O392  1  0.354000  0.347000  0.431700  1.0  -0.468
  O  O393  1  0.233700  0.441700  0.434900  1.0  -0.5654
  O  O394  1  0.289200  0.693500  0.434900  1.0  -0.5577
  O  O395  1  0.301400  0.754400  0.359900  1.0  -0.5027
  O  O396  1  0.231400  0.043700  0.408400  1.0  -0.6045
  O  O397  1  0.278300  0.148600  0.462400  1.0  -0.5467
  O  O398  1  0.187200  0.065800  0.509600  1.0  -0.5972
  O  O399  1  0.146000  0.153000  0.568300  1.0  -0.4667
  O  O400  1  0.266300  0.058300  0.565100  1.0  -0.569
  O  O401  1  0.210800  0.806500  0.565100  1.0  -0.5566
  O  O402  1  0.198600  0.745600  0.640100  1.0  -0.5007
  O  O403  1  0.268600  0.456300  0.591600  1.0  -0.6068
  O  O404  1  0.221700  0.351400  0.537600  1.0  -0.5468
  O  O405  1  0.571600  0.996700  0.448300  1.0  -0.5863
  O  O406  1  0.564900  0.200300  0.407400  1.0  -0.5872
  O  O407  1  0.570800  0.120500  0.533200  1.0  -0.5581
  O  O408  1  0.660500  0.081100  0.492200  1.0  -0.7408
  O  O409  1  0.690300  0.268600  0.460500  1.0  -0.6501
  O  O410  1  0.451500  0.292000  0.519900  1.0  -0.5893
  O  O411  1  0.474600  0.151000  0.463600  1.0  -0.6156
  O  O412  1  0.428400  0.003300  0.551700  1.0  -0.5892
  O  O413  1  0.435100  0.799700  0.592600  1.0  -0.5849
  O  O414  1  0.429200  0.879500  0.466800  1.0  -0.5554
  O  O415  1  0.339500  0.918900  0.507800  1.0  -0.7394
  O  O416  1  0.309700  0.731400  0.539500  1.0  -0.648
  O  O417  1  0.548500  0.708000  0.480100  1.0  -0.5896
  O  O418  1  0.525400  0.849000  0.536400  1.0  -0.6143
  O  O419  1  0.812800  0.934200  0.490400  1.0  -0.6001
  O  O420  1  0.854000  0.847000  0.431700  1.0  -0.468
  O  O421  1  0.733700  0.941700  0.434900  1.0  -0.5654
  O  O422  1  0.789200  0.193500  0.434900  1.0  -0.5577
  O  O423  1  0.801400  0.254400  0.359900  1.0  -0.5027
  O  O424  1  0.731400  0.543700  0.408400  1.0  -0.6045
  O  O425  1  0.778300  0.648600  0.462400  1.0  -0.5467
  O  O426  1  0.687200  0.565800  0.509600  1.0  -0.5972
  O  O427  1  0.646000  0.653000  0.568300  1.0  -0.4667
  O  O428  1  0.766300  0.558300  0.565100  1.0  -0.569
  O  O429  1  0.710800  0.306500  0.565100  1.0  -0.5566
  O  O430  1  0.698600  0.245600  0.640100  1.0  -0.5007
  O  O431  1  0.768600  0.956300  0.591600  1.0  -0.6068
  O  O432  1  0.721700  0.851400  0.537600  1.0  -0.5468
