# generated using pymatgen
data_MnH26C25S2(NO)4
_symmetry_space_group_name_H-M   'P 1'
_cell_length_a   12.17500000
_cell_length_b   12.17500000
_cell_length_c   24.92400000
_cell_angle_alpha   90.00000000
_cell_angle_beta   90.00000000
_cell_angle_gamma   90.00000000
_symmetry_Int_Tables_number   1
_chemical_formula_structural   MnH26C25S2(NO)4
_chemical_formula_sum   'Mn4 H104 C100 S8 N16 O16'
_cell_volume   3694.50009750
_cell_formula_units_Z   4
loop_
 _symmetry_equiv_pos_site_id
 _symmetry_equiv_pos_as_xyz
  1  'x, y, z'
loop_
 _atom_site_type_symbol
 _atom_site_label
 _atom_site_symmetry_multiplicity
 _atom_site_fract_x
 _atom_site_fract_y
 _atom_site_fract_z
 _atom_site_occupancy
 _atom_site_charge
  Mn  Mn1  1  0.750000  0.750000  0.923840  1.0  0.2576
  Mn  Mn2  1  0.250000  0.250000  0.423840  1.0  0.2576
  Mn  Mn3  1  0.250000  0.250000  0.076160  1.0  0.2592
  Mn  Mn4  1  0.750000  0.750000  0.576160  1.0  0.2592
  H  H5  1  0.922900  0.919100  0.872300  1.0  0.0644
  H  H6  1  0.057500  0.938700  0.809000  1.0  0.1536
  H  H7  1  0.993800  0.631400  0.761400  1.0  0.1338
  H  H8  1  0.861300  0.624900  0.826400  1.0  0.0644
  H  H9  1  0.174300  0.647500  0.729200  1.0  0.07
  H  H10  1  0.092000  0.692900  0.685800  1.0  0.0721
  H  H11  1  0.325800  0.599600  0.661400  1.0  0.0685
  H  H12  1  0.344300  0.681900  0.613600  1.0  0.0738
  H  H13  1  0.055500  0.500600  0.564300  1.0  0.1332
  H  H14  1  0.378800  0.535400  0.568800  1.0  0.1262
  H  H15  1  0.077000  0.381100  0.494900  1.0  0.0576
  H  H16  1  0.388900  0.399300  0.503700  1.0  0.0751
  H  H17  1  0.759200  0.518000  0.888400  1.0  0.0737
  H  H18  1  0.577100  0.580900  0.872300  1.0  0.0648
  H  H19  1  0.442500  0.561300  0.809000  1.0  0.1534
  H  H20  1  0.506200  0.868600  0.761400  1.0  0.1341
  H  H21  1  0.638700  0.875100  0.826400  1.0  0.065
  H  H22  1  0.325700  0.852500  0.729200  1.0  0.0686
  H  H23  1  0.408000  0.807100  0.685800  1.0  0.073
  H  H24  1  0.174200  0.900400  0.661400  1.0  0.0679
  H  H25  1  0.155700  0.818100  0.613600  1.0  0.0728
  H  H26  1  0.444500  0.999400  0.564300  1.0  0.1327
  H  H27  1  0.121200  0.964600  0.568800  1.0  0.1262
  H  H28  1  0.423000  0.118900  0.494900  1.0  0.0576
  H  H29  1  0.111100  0.100700  0.503700  1.0  0.075
  H  H30  1  0.740800  0.982000  0.888400  1.0  0.0741
  H  H31  1  0.080900  0.422900  0.372300  1.0  0.0636
  H  H32  1  0.061300  0.557500  0.309000  1.0  0.1542
  H  H33  1  0.368600  0.493800  0.261400  1.0  0.1358
  H  H34  1  0.375100  0.361300  0.326400  1.0  0.0643
  H  H35  1  0.352500  0.674300  0.229200  1.0  0.0689
  H  H36  1  0.307100  0.592000  0.185800  1.0  0.0729
  H  H37  1  0.400400  0.825800  0.161400  1.0  0.0684
  H  H38  1  0.318100  0.844300  0.113600  1.0  0.075
  H  H39  1  0.499400  0.555500  0.064300  1.0  0.133
  H  H40  1  0.464600  0.878800  0.068800  1.0  0.1265
  H  H41  1  0.618900  0.577000  0.994900  1.0  0.0576
  H  H42  1  0.600700  0.888900  0.003700  1.0  0.0759
  H  H43  1  0.482000  0.259200  0.388400  1.0  0.0744
  H  H44  1  0.419100  0.077100  0.372300  1.0  0.0636
  H  H45  1  0.438700  0.942500  0.309000  1.0  0.1546
  H  H46  1  0.131400  0.006200  0.261400  1.0  0.1349
  H  H47  1  0.124900  0.138700  0.326400  1.0  0.0644
  H  H48  1  0.147500  0.825700  0.229200  1.0  0.0695
  H  H49  1  0.192900  0.908000  0.185800  1.0  0.0736
  H  H50  1  0.099600  0.674200  0.161400  1.0  0.0681
  H  H51  1  0.181900  0.655700  0.113600  1.0  0.0744
  H  H52  1  0.000600  0.944500  0.064300  1.0  0.1328
  H  H53  1  0.035400  0.621200  0.068800  1.0  0.1264
  H  H54  1  0.881100  0.923000  0.994900  1.0  0.0578
  H  H55  1  0.899300  0.611100  0.003700  1.0  0.0762
  H  H56  1  0.018000  0.240800  0.388400  1.0  0.0743
  H  H57  1  0.077100  0.080900  0.127700  1.0  0.064
  H  H58  1  0.942500  0.061300  0.191000  1.0  0.1535
  H  H59  1  0.006200  0.368600  0.238600  1.0  0.1337
  H  H60  1  0.138700  0.375100  0.173600  1.0  0.0647
  H  H61  1  0.825700  0.352500  0.270800  1.0  0.0693
  H  H62  1  0.908000  0.307100  0.314200  1.0  0.0723
  H  H63  1  0.674200  0.400400  0.338600  1.0  0.0693
  H  H64  1  0.655700  0.318100  0.386400  1.0  0.0722
  H  H65  1  0.944500  0.499400  0.435700  1.0  0.1335
  H  H66  1  0.621200  0.464600  0.431200  1.0  0.1265
  H  H67  1  0.923000  0.618900  0.505100  1.0  0.0579
  H  H68  1  0.611100  0.600700  0.496300  1.0  0.0745
  H  H69  1  0.240800  0.482000  0.111600  1.0  0.0746
  H  H70  1  0.422900  0.419100  0.127700  1.0  0.0642
  H  H71  1  0.557500  0.438700  0.191000  1.0  0.1536
  H  H72  1  0.493800  0.131400  0.238600  1.0  0.1335
  H  H73  1  0.361300  0.124900  0.173600  1.0  0.0643
  H  H74  1  0.674300  0.147500  0.270800  1.0  0.0689
  H  H75  1  0.592000  0.192900  0.314200  1.0  0.0716
  H  H76  1  0.825800  0.099600  0.338600  1.0  0.0684
  H  H77  1  0.844300  0.181900  0.386400  1.0  0.074
  H  H78  1  0.555500  0.000600  0.435700  1.0  0.1338
  H  H79  1  0.878800  0.035400  0.431200  1.0  0.1263
  H  H80  1  0.577000  0.881100  0.505100  1.0  0.0575
  H  H81  1  0.888900  0.899300  0.496300  1.0  0.0743
  H  H82  1  0.259200  0.018000  0.111600  1.0  0.0741
  H  H83  1  0.919100  0.577100  0.627700  1.0  0.0628
  H  H84  1  0.938700  0.442500  0.691000  1.0  0.1544
  H  H85  1  0.631400  0.506200  0.738600  1.0  0.1345
  H  H86  1  0.624900  0.638700  0.673600  1.0  0.0642
  H  H87  1  0.647500  0.325700  0.770800  1.0  0.069
  H  H88  1  0.692900  0.408000  0.814200  1.0  0.0725
  H  H89  1  0.599600  0.174200  0.838600  1.0  0.0686
  H  H90  1  0.681900  0.155700  0.886400  1.0  0.0743
  H  H91  1  0.500600  0.444500  0.935700  1.0  0.1335
  H  H92  1  0.535400  0.121200  0.931200  1.0  0.1267
  H  H93  1  0.381100  0.423000  0.005100  1.0  0.0582
  H  H94  1  0.399300  0.111100  0.996300  1.0  0.0755
  H  H95  1  0.518000  0.740800  0.611600  1.0  0.0756
  H  H96  1  0.580900  0.922900  0.627700  1.0  0.0629
  H  H97  1  0.561300  0.057500  0.691000  1.0  0.1543
  H  H98  1  0.868600  0.993800  0.738600  1.0  0.1354
  H  H99  1  0.875100  0.861300  0.673600  1.0  0.064
  H  H100  1  0.852500  0.174300  0.770800  1.0  0.0693
  H  H101  1  0.807100  0.092000  0.814200  1.0  0.0726
  H  H102  1  0.900400  0.325800  0.838600  1.0  0.0691
  H  H103  1  0.818100  0.344300  0.886400  1.0  0.0741
  H  H104  1  0.999400  0.055500  0.935700  1.0  0.1336
  H  H105  1  0.964600  0.378800  0.931200  1.0  0.1268
  H  H106  1  0.118900  0.077000  0.005100  1.0  0.0579
  H  H107  1  0.100700  0.388900  0.996300  1.0  0.0752
  H  H108  1  0.982000  0.759200  0.611600  1.0  0.0746
  C  C109  1  0.937700  0.860000  0.849800  1.0  0.1834
  C  C110  1  0.019200  0.872900  0.811960  1.0  -0.3184
  C  C111  1  0.042400  0.786200  0.778900  1.0  0.3495
  C  C112  1  0.981700  0.691400  0.783780  1.0  -0.3416
  C  C113  1  0.902400  0.689000  0.823060  1.0  0.1876
  C  C114  1  0.153900  0.711800  0.708460  1.0  0.0741
  C  C115  1  0.290900  0.655200  0.639380  1.0  0.0703
  C  C116  1  0.214600  0.536600  0.572510  1.0  0.3589
  C  C117  1  0.125400  0.485700  0.551180  1.0  -0.3142
  C  C118  1  0.315100  0.504800  0.554670  1.0  -0.3253
  C  C119  1  0.139800  0.411900  0.509910  1.0  0.1891
  C  C120  1  0.320000  0.424300  0.514260  1.0  0.1802
  C  C121  1  0.562300  0.640000  0.849800  1.0  0.1823
  C  C122  1  0.480800  0.627100  0.811960  1.0  -0.3207
  C  C123  1  0.457600  0.713800  0.778900  1.0  0.3504
  C  C124  1  0.518300  0.808600  0.783780  1.0  -0.3411
  C  C125  1  0.597600  0.811000  0.823060  1.0  0.1862
  C  C126  1  0.346100  0.788200  0.708460  1.0  0.0742
  C  C127  1  0.209100  0.844800  0.639380  1.0  0.0713
  C  C128  1  0.285400  0.963400  0.572510  1.0  0.3586
  C  C129  1  0.374600  0.014300  0.551180  1.0  -0.3148
  C  C130  1  0.184900  0.995200  0.554670  1.0  -0.3254
  C  C131  1  0.360200  0.088100  0.509910  1.0  0.1887
  C  C132  1  0.180000  0.075700  0.514260  1.0  0.1799
  C  C133  1  0.140000  0.437700  0.349800  1.0  0.1815
  C  C134  1  0.127100  0.519200  0.311960  1.0  -0.3219
  C  C135  1  0.213800  0.542400  0.278900  1.0  0.3504
  C  C136  1  0.308600  0.481700  0.283780  1.0  -0.3406
  C  C137  1  0.311000  0.402400  0.323060  1.0  0.1864
  C  C138  1  0.288200  0.653900  0.208460  1.0  0.0724
  C  C139  1  0.344800  0.790900  0.139380  1.0  0.0691
  C  C140  1  0.463400  0.714600  0.072510  1.0  0.3592
  C  C141  1  0.514300  0.625400  0.051180  1.0  -0.3166
  C  C142  1  0.495200  0.815100  0.054670  1.0  -0.3264
  C  C143  1  0.588100  0.639800  0.009910  1.0  0.1877
  C  C144  1  0.575700  0.820000  0.014260  1.0  0.1794
  C  C145  1  0.360000  0.062300  0.349800  1.0  0.1811
  C  C146  1  0.372900  0.980800  0.311960  1.0  -0.3208
  C  C147  1  0.286200  0.957600  0.278900  1.0  0.3503
  C  C148  1  0.191400  0.018300  0.283780  1.0  -0.3424
  C  C149  1  0.189000  0.097600  0.323060  1.0  0.1874
  C  C150  1  0.211800  0.846100  0.208460  1.0  0.0736
  C  C151  1  0.155200  0.709100  0.139380  1.0  0.0699
  C  C152  1  0.036600  0.785400  0.072510  1.0  0.3583
  C  C153  1  0.985700  0.874600  0.051180  1.0  -0.3163
  C  C154  1  0.004800  0.684900  0.054670  1.0  -0.3249
  C  C155  1  0.911900  0.860200  0.009910  1.0  0.188
  C  C156  1  0.924300  0.680000  0.014260  1.0  0.1785
  C  C157  1  0.250000  0.750000  0.674490  1.0  -0.0505
  C  C158  1  0.250000  0.750000  0.174490  1.0  -0.0505
  C  C159  1  0.062300  0.140000  0.150200  1.0  0.1832
  C  C160  1  0.980800  0.127100  0.188040  1.0  -0.3208
  C  C161  1  0.957600  0.213800  0.221100  1.0  0.3495
  C  C162  1  0.018300  0.308600  0.216220  1.0  -0.341
  C  C163  1  0.097600  0.311000  0.176940  1.0  0.1869
  C  C164  1  0.846100  0.288200  0.291540  1.0  0.0742
  C  C165  1  0.709100  0.344800  0.360620  1.0  0.0712
  C  C166  1  0.785400  0.463400  0.427490  1.0  0.3584
  C  C167  1  0.874600  0.514300  0.448820  1.0  -0.3144
  C  C168  1  0.684900  0.495200  0.445330  1.0  -0.3253
  C  C169  1  0.860200  0.588100  0.490090  1.0  0.1883
  C  C170  1  0.680000  0.575700  0.485740  1.0  0.1799
  C  C171  1  0.437700  0.360000  0.150200  1.0  0.1838
  C  C172  1  0.519200  0.372900  0.188040  1.0  -0.3192
  C  C173  1  0.542400  0.286200  0.221100  1.0  0.3499
  C  C174  1  0.481700  0.191400  0.216220  1.0  -0.3412
  C  C175  1  0.402400  0.189000  0.176940  1.0  0.1873
  C  C176  1  0.653900  0.211800  0.291540  1.0  0.0742
  C  C177  1  0.790900  0.155200  0.360620  1.0  0.0716
  C  C178  1  0.714600  0.036600  0.427490  1.0  0.3587
  C  C179  1  0.625400  0.985700  0.448820  1.0  -0.314
  C  C180  1  0.815100  0.004800  0.445330  1.0  -0.3252
  C  C181  1  0.639800  0.911900  0.490090  1.0  0.1889
  C  C182  1  0.820000  0.924300  0.485740  1.0  0.1804
  C  C183  1  0.860000  0.562300  0.650200  1.0  0.1812
  C  C184  1  0.872900  0.480800  0.688040  1.0  -0.3212
  C  C185  1  0.786200  0.457600  0.721100  1.0  0.3495
  C  C186  1  0.691400  0.518300  0.716220  1.0  -0.3419
  C  C187  1  0.689000  0.597600  0.676940  1.0  0.1876
  C  C188  1  0.711800  0.346100  0.791540  1.0  0.0738
  C  C189  1  0.655200  0.209100  0.860620  1.0  0.0706
  C  C190  1  0.536600  0.285400  0.927490  1.0  0.3582
  C  C191  1  0.485700  0.374600  0.948820  1.0  -0.3161
  C  C192  1  0.504800  0.184900  0.945330  1.0  -0.325
  C  C193  1  0.411900  0.360200  0.990090  1.0  0.1877
  C  C194  1  0.424300  0.180000  0.985740  1.0  0.1788
  C  C195  1  0.640000  0.937700  0.650200  1.0  0.182
  C  C196  1  0.627100  0.019200  0.688040  1.0  -0.3223
  C  C197  1  0.713800  0.042400  0.721100  1.0  0.3505
  C  C198  1  0.808600  0.981700  0.716220  1.0  -0.3396
  C  C199  1  0.811000  0.902400  0.676940  1.0  0.1869
  C  C200  1  0.788200  0.153900  0.791540  1.0  0.0724
  C  C201  1  0.844800  0.290900  0.860620  1.0  0.0693
  C  C202  1  0.963400  0.214600  0.927490  1.0  0.359
  C  C203  1  0.014300  0.125400  0.948820  1.0  -0.3168
  C  C204  1  0.995200  0.315100  0.945330  1.0  -0.3254
  C  C205  1  0.088100  0.139800  0.990090  1.0  0.1877
  C  C206  1  0.075700  0.320000  0.985740  1.0  0.1789
  C  C207  1  0.750000  0.250000  0.325510  1.0  -0.0504
  C  C208  1  0.750000  0.250000  0.825510  1.0  -0.0504
  S  S209  1  0.776790  0.546270  0.923340  1.0  -0.5067
  S  S210  1  0.723210  0.953730  0.923340  1.0  -0.5066
  S  S211  1  0.453730  0.276790  0.423340  1.0  -0.5075
  S  S212  1  0.046270  0.223210  0.423340  1.0  -0.5069
  S  S213  1  0.223210  0.453730  0.076660  1.0  -0.5089
  S  S214  1  0.276790  0.046270  0.076660  1.0  -0.5071
  S  S215  1  0.546270  0.723210  0.576660  1.0  -0.5096
  S  S216  1  0.953730  0.776790  0.576660  1.0  -0.5084
  N  N217  1  0.879700  0.770500  0.856430  1.0  -0.2622
  N  N218  1  0.232900  0.381900  0.490360  1.0  -0.2438
  N  N219  1  0.620300  0.729500  0.856430  1.0  -0.2596
  N  N220  1  0.267100  0.118100  0.490360  1.0  -0.242
  N  N221  1  0.229500  0.379700  0.356430  1.0  -0.2644
  N  N222  1  0.618100  0.732900  0.990360  1.0  -0.2407
  N  N223  1  0.270500  0.120300  0.356430  1.0  -0.2664
  N  N224  1  0.881900  0.767100  0.990360  1.0  -0.241
  N  N225  1  0.120300  0.229500  0.143570  1.0  -0.2573
  N  N226  1  0.767100  0.618100  0.509640  1.0  -0.2443
  N  N227  1  0.379700  0.270500  0.143570  1.0  -0.2612
  N  N228  1  0.732900  0.881900  0.509640  1.0  -0.2459
  N  N229  1  0.770500  0.620300  0.643570  1.0  -0.2632
  N  N230  1  0.381900  0.267100  0.009640  1.0  -0.2429
  N  N231  1  0.729500  0.879700  0.643570  1.0  -0.2627
  N  N232  1  0.118100  0.232900  0.009640  1.0  -0.2421
  O  O233  1  0.125400  0.800700  0.743540  1.0  -0.2793
  O  O234  1  0.197740  0.609330  0.612000  1.0  -0.2673
  O  O235  1  0.374600  0.699300  0.743540  1.0  -0.28
  O  O236  1  0.302260  0.890670  0.612000  1.0  -0.2665
  O  O237  1  0.199300  0.625400  0.243540  1.0  -0.2797
  O  O238  1  0.390670  0.697740  0.112000  1.0  -0.267
  O  O239  1  0.300700  0.874600  0.243540  1.0  -0.2794
  O  O240  1  0.109330  0.802260  0.112000  1.0  -0.2663
  O  O241  1  0.874600  0.199300  0.256460  1.0  -0.2808
  O  O242  1  0.802260  0.390670  0.388000  1.0  -0.266
  O  O243  1  0.625400  0.300700  0.256460  1.0  -0.28
  O  O244  1  0.697740  0.109330  0.388000  1.0  -0.2663
  O  O245  1  0.800700  0.374600  0.756460  1.0  -0.2811
  O  O246  1  0.609330  0.302260  0.888000  1.0  -0.2656
  O  O247  1  0.699300  0.125400  0.756460  1.0  -0.2791
  O  O248  1  0.890670  0.197740  0.888000  1.0  -0.2663
