# generated using pymatgen
data_CdH26C25S2(NO)4
_symmetry_space_group_name_H-M   'P 1'
_cell_length_a   12.27310000
_cell_length_b   12.27310000
_cell_length_c   25.13500000
_cell_angle_alpha   90.00000000
_cell_angle_beta   90.00000000
_cell_angle_gamma   90.00000000
_symmetry_Int_Tables_number   1
_chemical_formula_structural   CdH26C25S2(NO)4
_chemical_formula_sum   'Cd4 H104 C100 S8 N16 O16'
_cell_volume   3786.05950304
_cell_formula_units_Z   4
loop_
 _symmetry_equiv_pos_site_id
 _symmetry_equiv_pos_as_xyz
  1  'x, y, z'
loop_
 _atom_site_type_symbol
 _atom_site_label
 _atom_site_symmetry_multiplicity
 _atom_site_fract_x
 _atom_site_fract_y
 _atom_site_fract_z
 _atom_site_occupancy
 _atom_site_charge
  Cd  Cd1  1  0.750000  0.750000  0.923220  1.0  0.6852
  Cd  Cd2  1  0.250000  0.250000  0.423220  1.0  0.6864
  Cd  Cd3  1  0.250000  0.250000  0.076780  1.0  0.6858
  Cd  Cd4  1  0.750000  0.750000  0.576780  1.0  0.687
  H  H5  1  0.919000  0.573000  0.869400  1.0  0.0535
  H  H6  1  0.935200  0.435000  0.808100  1.0  0.1523
  H  H7  1  0.633500  0.504600  0.759000  1.0  0.1356
  H  H8  1  0.626000  0.637900  0.822900  1.0  0.0679
  H  H9  1  0.647700  0.324700  0.727800  1.0  0.0654
  H  H10  1  0.693200  0.407900  0.685600  1.0  0.061
  H  H11  1  0.601700  0.173500  0.660900  1.0  0.0662
  H  H12  1  0.681500  0.157200  0.612400  1.0  0.0608
  H  H13  1  0.419400  0.113700  0.497200  1.0  0.052
  H  H14  1  0.540300  0.121300  0.567300  1.0  0.1296
  H  H15  1  0.499800  0.443600  0.566000  1.0  0.1405
  H  H16  1  0.378300  0.423000  0.497700  1.0  0.0689
  H  H17  1  0.508700  0.770800  0.947500  1.0  0.1017
  H  H18  1  0.581000  0.927000  0.869400  1.0  0.0529
  H  H19  1  0.564800  0.065000  0.808100  1.0  0.1521
  H  H20  1  0.866500  0.995400  0.759000  1.0  0.1361
  H  H21  1  0.874000  0.862100  0.822900  1.0  0.0676
  H  H22  1  0.852300  0.175300  0.727800  1.0  0.0653
  H  H23  1  0.806800  0.092100  0.685600  1.0  0.0603
  H  H24  1  0.898300  0.326500  0.660900  1.0  0.067
  H  H25  1  0.818500  0.342800  0.612400  1.0  0.0618
  H  H26  1  0.080600  0.386300  0.497200  1.0  0.052
  H  H27  1  0.959700  0.378700  0.567300  1.0  0.1295
  H  H28  1  0.000200  0.056400  0.566000  1.0  0.1393
  H  H29  1  0.121700  0.077000  0.497700  1.0  0.0692
  H  H30  1  0.991300  0.729200  0.947500  1.0  0.1055
  H  H31  1  0.427000  0.419000  0.369400  1.0  0.0531
  H  H32  1  0.565000  0.435200  0.308100  1.0  0.1516
  H  H33  1  0.495400  0.133500  0.259000  1.0  0.1338
  H  H34  1  0.362100  0.126000  0.322900  1.0  0.068
  H  H35  1  0.675300  0.147700  0.227800  1.0  0.0659
  H  H36  1  0.592100  0.193200  0.185600  1.0  0.0575
  H  H37  1  0.826500  0.101700  0.160900  1.0  0.0667
  H  H38  1  0.842800  0.181500  0.112400  1.0  0.0611
  H  H39  1  0.886300  0.919400  0.997200  1.0  0.0515
  H  H40  1  0.878700  0.040300  0.067300  1.0  0.1295
  H  H41  1  0.556400  0.999800  0.066000  1.0  0.1403
  H  H42  1  0.577000  0.878300  0.997700  1.0  0.0691
  H  H43  1  0.229200  0.008700  0.447500  1.0  0.1055
  H  H44  1  0.073000  0.081000  0.369400  1.0  0.0539
  H  H45  1  0.935000  0.064800  0.308100  1.0  0.1512
  H  H46  1  0.004600  0.366500  0.259000  1.0  0.1339
  H  H47  1  0.137900  0.374000  0.322900  1.0  0.0681
  H  H48  1  0.824700  0.352300  0.227800  1.0  0.0653
  H  H49  1  0.907900  0.306800  0.185600  1.0  0.0597
  H  H50  1  0.673500  0.398300  0.160900  1.0  0.0659
  H  H51  1  0.657200  0.318500  0.112400  1.0  0.0611
  H  H52  1  0.613700  0.580600  0.997200  1.0  0.0511
  H  H53  1  0.621300  0.459700  0.067300  1.0  0.1296
  H  H54  1  0.943600  0.500200  0.066000  1.0  0.1397
  H  H55  1  0.923000  0.621700  0.997700  1.0  0.0687
  H  H56  1  0.270800  0.491300  0.447500  1.0  0.1044
  H  H57  1  0.081000  0.427000  0.130600  1.0  0.0525
  H  H58  1  0.064800  0.565000  0.191900  1.0  0.152
  H  H59  1  0.366500  0.495400  0.241000  1.0  0.1355
  H  H60  1  0.374000  0.362100  0.177100  1.0  0.0679
  H  H61  1  0.352300  0.675300  0.272200  1.0  0.0658
  H  H62  1  0.306800  0.592100  0.314400  1.0  0.0602
  H  H63  1  0.398300  0.826500  0.339100  1.0  0.0677
  H  H64  1  0.318500  0.842800  0.387600  1.0  0.0615
  H  H65  1  0.580600  0.886300  0.502800  1.0  0.0519
  H  H66  1  0.459700  0.878700  0.432700  1.0  0.1299
  H  H67  1  0.500200  0.556400  0.434000  1.0  0.1398
  H  H68  1  0.621700  0.577000  0.502300  1.0  0.0691
  H  H69  1  0.491300  0.229200  0.052500  1.0  0.1024
  H  H70  1  0.419000  0.073000  0.130600  1.0  0.0527
  H  H71  1  0.435200  0.935000  0.191900  1.0  0.1519
  H  H72  1  0.133500  0.004600  0.241000  1.0  0.1348
  H  H73  1  0.126000  0.137900  0.177100  1.0  0.0678
  H  H74  1  0.147700  0.824700  0.272200  1.0  0.0653
  H  H75  1  0.193200  0.907900  0.314400  1.0  0.0597
  H  H76  1  0.101700  0.673500  0.339100  1.0  0.0667
  H  H77  1  0.181500  0.657200  0.387600  1.0  0.0623
  H  H78  1  0.919400  0.613700  0.502800  1.0  0.0517
  H  H79  1  0.040300  0.621300  0.432700  1.0  0.1301
  H  H80  1  0.999800  0.943600  0.434000  1.0  0.1408
  H  H81  1  0.878300  0.923000  0.502300  1.0  0.0689
  H  H82  1  0.008700  0.270800  0.052500  1.0  0.1035
  H  H83  1  0.573000  0.581000  0.630600  1.0  0.053
  H  H84  1  0.435000  0.564800  0.691900  1.0  0.151
  H  H85  1  0.504600  0.866500  0.741000  1.0  0.133
  H  H86  1  0.637900  0.874000  0.677100  1.0  0.0684
  H  H87  1  0.324700  0.852300  0.772200  1.0  0.0662
  H  H88  1  0.407900  0.806800  0.814400  1.0  0.0589
  H  H89  1  0.173500  0.898300  0.839100  1.0  0.0674
  H  H90  1  0.157200  0.818500  0.887600  1.0  0.0611
  H  H91  1  0.113700  0.080600  0.002800  1.0  0.0508
  H  H92  1  0.121300  0.959700  0.932700  1.0  0.13
  H  H93  1  0.443600  0.000200  0.934000  1.0  0.1404
  H  H94  1  0.423000  0.121700  0.002300  1.0  0.0682
  H  H95  1  0.770800  0.991300  0.552500  1.0  0.1045
  H  H96  1  0.927000  0.919000  0.630600  1.0  0.053
  H  H97  1  0.065000  0.935200  0.691900  1.0  0.1516
  H  H98  1  0.995400  0.633500  0.741000  1.0  0.1331
  H  H99  1  0.862100  0.626000  0.677100  1.0  0.0681
  H  H100  1  0.175300  0.647700  0.772200  1.0  0.065
  H  H101  1  0.092100  0.693200  0.814400  1.0  0.0569
  H  H102  1  0.326500  0.601700  0.839100  1.0  0.0666
  H  H103  1  0.342800  0.681500  0.887600  1.0  0.0625
  H  H104  1  0.386300  0.419400  0.002800  1.0  0.0512
  H  H105  1  0.378700  0.540300  0.932700  1.0  0.1296
  H  H106  1  0.056400  0.499800  0.934000  1.0  0.1403
  H  H107  1  0.077000  0.378300  0.002300  1.0  0.0694
  H  H108  1  0.729200  0.508700  0.552500  1.0  0.1012
  C  C109  1  0.859900  0.557900  0.847540  1.0  0.1937
  C  C110  1  0.871100  0.475100  0.810300  1.0  -0.3247
  C  C111  1  0.785200  0.453900  0.776810  1.0  0.3658
  C  C112  1  0.692600  0.516000  0.781400  1.0  -0.3504
  C  C113  1  0.689000  0.596200  0.820300  1.0  0.2037
  C  C114  1  0.711700  0.345600  0.707530  1.0  0.0755
  C  C115  1  0.655700  0.209100  0.638680  1.0  0.0793
  C  C116  1  0.435600  0.181600  0.511600  1.0  0.2192
  C  C117  1  0.510300  0.184700  0.553400  1.0  -0.326
  C  C118  1  0.537300  0.283900  0.572720  1.0  0.3531
  C  C119  1  0.485400  0.374600  0.552400  1.0  -0.3185
  C  C120  1  0.411800  0.361200  0.511500  1.0  0.1826
  C  C121  1  0.640100  0.942100  0.847540  1.0  0.1941
  C  C122  1  0.628900  0.024900  0.810300  1.0  -0.3251
  C  C123  1  0.714800  0.046100  0.776810  1.0  0.3654
  C  C124  1  0.807400  0.984000  0.781400  1.0  -0.3491
  C  C125  1  0.811000  0.903800  0.820300  1.0  0.2025
  C  C126  1  0.788300  0.154400  0.707530  1.0  0.074
  C  C127  1  0.844300  0.290900  0.638680  1.0  0.0796
  C  C128  1  0.064400  0.318400  0.511600  1.0  0.2197
  C  C129  1  0.989700  0.315300  0.553400  1.0  -0.3267
  C  C130  1  0.962700  0.216100  0.572720  1.0  0.353
  C  C131  1  0.014600  0.125400  0.552400  1.0  -0.318
  C  C132  1  0.088200  0.138800  0.511500  1.0  0.1817
  C  C133  1  0.442100  0.359900  0.347540  1.0  0.1952
  C  C134  1  0.524900  0.371100  0.310300  1.0  -0.3251
  C  C135  1  0.546100  0.285200  0.276810  1.0  0.365
  C  C136  1  0.484000  0.192600  0.281400  1.0  -0.349
  C  C137  1  0.403800  0.189000  0.320300  1.0  0.2035
  C  C138  1  0.654400  0.211700  0.207530  1.0  0.075
  C  C139  1  0.790900  0.155700  0.138680  1.0  0.08
  C  C140  1  0.818400  0.935600  0.011600  1.0  0.2201
  C  C141  1  0.815300  0.010300  0.053400  1.0  -0.3262
  C  C142  1  0.716100  0.037300  0.072720  1.0  0.3521
  C  C143  1  0.625400  0.985400  0.052400  1.0  -0.3164
  C  C144  1  0.638800  0.911800  0.011500  1.0  0.1831
  C  C145  1  0.057900  0.140100  0.347540  1.0  0.1948
  C  C146  1  0.975100  0.128900  0.310300  1.0  -0.3247
  C  C147  1  0.953900  0.214800  0.276810  1.0  0.3658
  C  C148  1  0.016000  0.307400  0.281400  1.0  -0.3505
  C  C149  1  0.096200  0.311000  0.320300  1.0  0.2026
  C  C150  1  0.845600  0.288300  0.207530  1.0  0.0747
  C  C151  1  0.709100  0.344300  0.138680  1.0  0.0811
  C  C152  1  0.681600  0.564400  0.011600  1.0  0.2198
  C  C153  1  0.684700  0.489700  0.053400  1.0  -0.3264
  C  C154  1  0.783900  0.462700  0.072720  1.0  0.3528
  C  C155  1  0.874600  0.514600  0.052400  1.0  -0.3164
  C  C156  1  0.861200  0.588200  0.011500  1.0  0.1831
  C  C157  1  0.750000  0.250000  0.672500  1.0  -0.042
  C  C158  1  0.750000  0.250000  0.172500  1.0  -0.042
  C  C159  1  0.140100  0.442100  0.152460  1.0  0.1937
  C  C160  1  0.128900  0.524900  0.189700  1.0  -0.3248
  C  C161  1  0.214800  0.546100  0.223190  1.0  0.3652
  C  C162  1  0.307400  0.484000  0.218600  1.0  -0.3482
  C  C163  1  0.311000  0.403800  0.179700  1.0  0.2031
  C  C164  1  0.288300  0.654400  0.292470  1.0  0.0738
  C  C165  1  0.344300  0.790900  0.361320  1.0  0.08
  C  C166  1  0.564400  0.818400  0.488400  1.0  0.2199
  C  C167  1  0.489700  0.815300  0.446600  1.0  -0.3264
  C  C168  1  0.462700  0.716100  0.427280  1.0  0.3531
  C  C169  1  0.514600  0.625400  0.447600  1.0  -0.3186
  C  C170  1  0.588200  0.638800  0.488500  1.0  0.1817
  C  C171  1  0.359900  0.057900  0.152460  1.0  0.1932
  C  C172  1  0.371100  0.975100  0.189700  1.0  -0.3253
  C  C173  1  0.285200  0.953900  0.223190  1.0  0.3651
  C  C174  1  0.192600  0.016000  0.218600  1.0  -0.3496
  C  C175  1  0.189000  0.096200  0.179700  1.0  0.204
  C  C176  1  0.211700  0.845600  0.292470  1.0  0.0756
  C  C177  1  0.155700  0.709100  0.361320  1.0  0.08
  C  C178  1  0.935600  0.681600  0.488400  1.0  0.2201
  C  C179  1  0.010300  0.684700  0.446600  1.0  -0.3261
  C  C180  1  0.037300  0.783900  0.427280  1.0  0.3531
  C  C181  1  0.985400  0.874600  0.447600  1.0  -0.3188
  C  C182  1  0.911800  0.861200  0.488500  1.0  0.1822
  C  C183  1  0.557900  0.640100  0.652460  1.0  0.1948
  C  C184  1  0.475100  0.628900  0.689700  1.0  -0.3249
  C  C185  1  0.453900  0.714800  0.723190  1.0  0.3651
  C  C186  1  0.516000  0.807400  0.718600  1.0  -0.3503
  C  C187  1  0.596200  0.811000  0.679700  1.0  0.2035
  C  C188  1  0.345600  0.788300  0.792470  1.0  0.0744
  C  C189  1  0.209100  0.844300  0.861320  1.0  0.081
  C  C190  1  0.181600  0.064400  0.988400  1.0  0.2202
  C  C191  1  0.184700  0.989700  0.946600  1.0  -0.3265
  C  C192  1  0.283900  0.962700  0.927280  1.0  0.3528
  C  C193  1  0.374600  0.014600  0.947600  1.0  -0.3165
  C  C194  1  0.361200  0.088200  0.988500  1.0  0.1827
  C  C195  1  0.942100  0.859900  0.652460  1.0  0.1945
  C  C196  1  0.024900  0.871100  0.689700  1.0  -0.325
  C  C197  1  0.046100  0.785200  0.723190  1.0  0.3654
  C  C198  1  0.984000  0.692600  0.718600  1.0  -0.3485
  C  C199  1  0.903800  0.689000  0.679700  1.0  0.2036
  C  C200  1  0.154400  0.711700  0.792470  1.0  0.0751
  C  C201  1  0.290900  0.655700  0.861320  1.0  0.081
  C  C202  1  0.318400  0.435600  0.988400  1.0  0.2211
  C  C203  1  0.315300  0.510300  0.946600  1.0  -0.326
  C  C204  1  0.216100  0.537300  0.927280  1.0  0.3521
  C  C205  1  0.125400  0.485400  0.947600  1.0  -0.3169
  C  C206  1  0.138800  0.411800  0.988500  1.0  0.1829
  C  C207  1  0.250000  0.750000  0.327500  1.0  -0.042
  C  C208  1  0.250000  0.750000  0.827500  1.0  -0.042
  S  S209  1  0.541780  0.723860  0.921540  1.0  -0.6087
  S  S210  1  0.958220  0.776140  0.921540  1.0  -0.6092
  S  S211  1  0.276140  0.041780  0.421540  1.0  -0.6086
  S  S212  1  0.223860  0.458220  0.421540  1.0  -0.6089
  S  S213  1  0.458220  0.276140  0.078460  1.0  -0.6093
  S  S214  1  0.041780  0.223860  0.078460  1.0  -0.6086
  S  S215  1  0.723860  0.958220  0.578460  1.0  -0.609
  S  S216  1  0.776140  0.541780  0.578460  1.0  -0.6083
  N  N217  1  0.769800  0.617200  0.853940  1.0  -0.3459
  N  N218  1  0.386200  0.266800  0.490860  1.0  -0.347
  N  N219  1  0.730200  0.882800  0.853940  1.0  -0.3444
  N  N220  1  0.113800  0.233200  0.490860  1.0  -0.3464
  N  N221  1  0.382800  0.269800  0.353940  1.0  -0.3432
  N  N222  1  0.733200  0.886200  0.990860  1.0  -0.3483
  N  N223  1  0.117200  0.230200  0.353940  1.0  -0.3421
  N  N224  1  0.766800  0.613800  0.990860  1.0  -0.3479
  N  N225  1  0.230200  0.382800  0.146060  1.0  -0.3459
  N  N226  1  0.613800  0.733200  0.509140  1.0  -0.3457
  N  N227  1  0.269800  0.117200  0.146060  1.0  -0.3457
  N  N228  1  0.886200  0.766800  0.509140  1.0  -0.3462
  N  N229  1  0.617200  0.730200  0.646060  1.0  -0.3426
  N  N230  1  0.266800  0.113800  0.009140  1.0  -0.3479
  N  N231  1  0.882800  0.769800  0.646060  1.0  -0.3439
  N  N232  1  0.233200  0.386200  0.009140  1.0  -0.3472
  O  O233  1  0.799300  0.372300  0.742580  1.0  -0.2668
  O  O234  1  0.609200  0.302500  0.612900  1.0  -0.2653
  O  O235  1  0.700700  0.127700  0.742580  1.0  -0.2662
  O  O236  1  0.890800  0.197500  0.612900  1.0  -0.2651
  O  O237  1  0.627700  0.299300  0.242580  1.0  -0.2664
  O  O238  1  0.697500  0.109200  0.112900  1.0  -0.2654
  O  O239  1  0.872300  0.200700  0.242580  1.0  -0.2668
  O  O240  1  0.802500  0.390800  0.112900  1.0  -0.2646
  O  O241  1  0.200700  0.627700  0.257420  1.0  -0.2648
  O  O242  1  0.390800  0.697500  0.387100  1.0  -0.2652
  O  O243  1  0.299300  0.872300  0.257420  1.0  -0.2665
  O  O244  1  0.109200  0.802500  0.387100  1.0  -0.265
  O  O245  1  0.372300  0.700700  0.757420  1.0  -0.2665
  O  O246  1  0.302500  0.890800  0.887100  1.0  -0.2646
  O  O247  1  0.127700  0.799300  0.757420  1.0  -0.2649
  O  O248  1  0.197500  0.609200  0.887100  1.0  -0.2654
