# generated using pymatgen
data_FeH26C25S2(NO)4
_symmetry_space_group_name_H-M   'P 1'
_cell_length_a   12.14700000
_cell_length_b   12.14700000
_cell_length_c   24.74400000
_cell_angle_alpha   90.00000000
_cell_angle_beta   90.00000000
_cell_angle_gamma   90.00000000
_symmetry_Int_Tables_number   1
_chemical_formula_structural   FeH26C25S2(NO)4
_chemical_formula_sum   'Fe4 H104 C100 S8 N16 O16'
_cell_volume   3650.96752510
_cell_formula_units_Z   4
loop_
 _symmetry_equiv_pos_site_id
 _symmetry_equiv_pos_as_xyz
  1  'x, y, z'
loop_
 _atom_site_type_symbol
 _atom_site_label
 _atom_site_symmetry_multiplicity
 _atom_site_fract_x
 _atom_site_fract_y
 _atom_site_fract_z
 _atom_site_occupancy
 _atom_site_charge
  Fe  Fe1  1  0.750000  0.750000  0.921120  1.0  0.5578
  Fe  Fe2  1  0.250000  0.250000  0.421120  1.0  0.5578
  Fe  Fe3  1  0.250000  0.250000  0.078880  1.0  0.5585
  Fe  Fe4  1  0.750000  0.750000  0.578880  1.0  0.5585
  H  H5  1  0.584400  0.569000  0.876300  1.0  0.0695
  H  H6  1  0.567100  0.431000  0.814600  1.0  0.1522
  H  H7  1  0.860400  0.517400  0.754500  1.0  0.1305
  H  H8  1  0.871300  0.649400  0.820300  1.0  0.0554
  H  H9  1  0.802600  0.411000  0.683200  1.0  0.0655
  H  H10  1  0.854900  0.329600  0.725600  1.0  0.0701
  H  H11  1  0.818800  0.159000  0.609500  1.0  0.0597
  H  H12  1  0.900800  0.174400  0.658100  1.0  0.0633
  H  H13  1  0.089600  0.111800  0.494800  1.0  0.059
  H  H14  1  0.963500  0.121100  0.563400  1.0  0.135
  H  H15  1  0.007400  0.444300  0.564600  1.0  0.1327
  H  H16  1  0.130100  0.424400  0.494900  1.0  0.0724
  H  H17  1  0.530700  0.874700  0.917100  1.0  0.1351
  H  H18  1  0.915600  0.931000  0.876300  1.0  0.0691
  H  H19  1  0.932900  0.069000  0.814600  1.0  0.1523
  H  H20  1  0.639600  0.982600  0.754500  1.0  0.1303
  H  H21  1  0.628700  0.850600  0.820300  1.0  0.0552
  H  H22  1  0.697400  0.089000  0.683200  1.0  0.0656
  H  H23  1  0.645100  0.170400  0.725600  1.0  0.0706
  H  H24  1  0.681200  0.341000  0.609500  1.0  0.0601
  H  H25  1  0.599200  0.325600  0.658100  1.0  0.0628
  H  H26  1  0.410400  0.388200  0.494800  1.0  0.0591
  H  H27  1  0.536500  0.378900  0.563400  1.0  0.1352
  H  H28  1  0.492600  0.055700  0.564600  1.0  0.1346
  H  H29  1  0.369900  0.075600  0.494900  1.0  0.0716
  H  H30  1  0.969300  0.625300  0.917100  1.0  0.1353
  H  H31  1  0.431000  0.084400  0.376300  1.0  0.0702
  H  H32  1  0.569000  0.067100  0.314600  1.0  0.1521
  H  H33  1  0.482600  0.360400  0.254500  1.0  0.1303
  H  H34  1  0.350600  0.371300  0.320300  1.0  0.0552
  H  H35  1  0.589000  0.302600  0.183200  1.0  0.0623
  H  H36  1  0.670400  0.354900  0.225600  1.0  0.0711
  H  H37  1  0.841000  0.318800  0.109500  1.0  0.0593
  H  H38  1  0.825600  0.400800  0.158100  1.0  0.0623
  H  H39  1  0.888200  0.589600  0.994800  1.0  0.0583
  H  H40  1  0.878900  0.463500  0.063400  1.0  0.135
  H  H41  1  0.555700  0.507400  0.064600  1.0  0.1338
  H  H42  1  0.575600  0.630100  0.994900  1.0  0.0706
  H  H43  1  0.125300  0.030700  0.417100  1.0  0.1357
  H  H44  1  0.069000  0.415600  0.376300  1.0  0.0695
  H  H45  1  0.931000  0.432900  0.314600  1.0  0.1526
  H  H46  1  0.017400  0.139600  0.254500  1.0  0.1302
  H  H47  1  0.149400  0.128700  0.320300  1.0  0.0545
  H  H48  1  0.911000  0.197400  0.183200  1.0  0.0634
  H  H49  1  0.829600  0.145100  0.225600  1.0  0.0721
  H  H50  1  0.659000  0.181200  0.109500  1.0  0.0594
  H  H51  1  0.674400  0.099200  0.158100  1.0  0.0631
  H  H52  1  0.611800  0.910400  0.994800  1.0  0.0585
  H  H53  1  0.621100  0.036500  0.063400  1.0  0.1339
  H  H54  1  0.944300  0.992600  0.064600  1.0  0.1336
  H  H55  1  0.924400  0.869900  0.994900  1.0  0.0712
  H  H56  1  0.374700  0.469300  0.417100  1.0  0.1358
  H  H57  1  0.415600  0.431000  0.123700  1.0  0.0687
  H  H58  1  0.432900  0.569000  0.185400  1.0  0.1522
  H  H59  1  0.139600  0.482600  0.245500  1.0  0.1303
  H  H60  1  0.128700  0.350600  0.179700  1.0  0.0553
  H  H61  1  0.197400  0.589000  0.316800  1.0  0.0656
  H  H62  1  0.145100  0.670400  0.274400  1.0  0.0707
  H  H63  1  0.181200  0.841000  0.390500  1.0  0.0596
  H  H64  1  0.099200  0.825600  0.341900  1.0  0.0633
  H  H65  1  0.910400  0.888200  0.505200  1.0  0.059
  H  H66  1  0.036500  0.878900  0.436600  1.0  0.1352
  H  H67  1  0.992600  0.555700  0.435400  1.0  0.1344
  H  H68  1  0.869900  0.575600  0.505100  1.0  0.0712
  H  H69  1  0.469300  0.125300  0.082900  1.0  0.1351
  H  H70  1  0.084400  0.069000  0.123700  1.0  0.0692
  H  H71  1  0.067100  0.931000  0.185400  1.0  0.1519
  H  H72  1  0.360400  0.017400  0.245500  1.0  0.1307
  H  H73  1  0.371300  0.149400  0.179700  1.0  0.0552
  H  H74  1  0.302600  0.911000  0.316800  1.0  0.0646
  H  H75  1  0.354900  0.829600  0.274400  1.0  0.071
  H  H76  1  0.318800  0.659000  0.390500  1.0  0.0603
  H  H77  1  0.400800  0.674400  0.341900  1.0  0.0629
  H  H78  1  0.589600  0.611800  0.505200  1.0  0.0589
  H  H79  1  0.463500  0.621100  0.436600  1.0  0.1349
  H  H80  1  0.507400  0.944300  0.435400  1.0  0.133
  H  H81  1  0.630100  0.924400  0.505100  1.0  0.0722
  H  H82  1  0.030700  0.374700  0.082900  1.0  0.1348
  H  H83  1  0.569000  0.915600  0.623700  1.0  0.0695
  H  H84  1  0.431000  0.932900  0.685400  1.0  0.1524
  H  H85  1  0.517400  0.639600  0.745500  1.0  0.1304
  H  H86  1  0.649400  0.628700  0.679700  1.0  0.0544
  H  H87  1  0.411000  0.697400  0.816800  1.0  0.0633
  H  H88  1  0.329600  0.645100  0.774400  1.0  0.0715
  H  H89  1  0.159000  0.681200  0.890500  1.0  0.0595
  H  H90  1  0.174400  0.599200  0.841900  1.0  0.0622
  H  H91  1  0.111800  0.410400  0.005200  1.0  0.0583
  H  H92  1  0.121100  0.536500  0.936600  1.0  0.134
  H  H93  1  0.444300  0.492600  0.935400  1.0  0.1334
  H  H94  1  0.424400  0.369900  0.005100  1.0  0.0706
  H  H95  1  0.874700  0.969300  0.582900  1.0  0.1355
  H  H96  1  0.931000  0.584400  0.623700  1.0  0.0699
  H  H97  1  0.069000  0.567100  0.685400  1.0  0.1518
  H  H98  1  0.982600  0.860400  0.745500  1.0  0.1305
  H  H99  1  0.850600  0.871300  0.679700  1.0  0.0553
  H  H100  1  0.089000  0.802600  0.816800  1.0  0.0613
  H  H101  1  0.170400  0.854900  0.774400  1.0  0.0719
  H  H102  1  0.341000  0.818800  0.890500  1.0  0.0592
  H  H103  1  0.325600  0.900800  0.841900  1.0  0.0629
  H  H104  1  0.388200  0.089600  0.005200  1.0  0.0582
  H  H105  1  0.378900  0.963500  0.936600  1.0  0.1346
  H  H106  1  0.055700  0.007400  0.935400  1.0  0.1341
  H  H107  1  0.075600  0.130100  0.005100  1.0  0.0702
  H  H108  1  0.625300  0.530700  0.582900  1.0  0.1355
  C  C109  1  0.641900  0.557100  0.852120  1.0  0.1829
  C  C110  1  0.630300  0.474300  0.815140  1.0  -0.3164
  C  C111  1  0.714800  0.456000  0.778300  1.0  0.3585
  C  C112  1  0.804000  0.524600  0.779720  1.0  -0.3342
  C  C113  1  0.809200  0.604800  0.819200  1.0  0.2024
  C  C114  1  0.788100  0.347800  0.706120  1.0  0.0735
  C  C115  1  0.845600  0.211000  0.636220  1.0  0.0659
  C  C116  1  0.071800  0.180800  0.508560  1.0  0.2058
  C  C117  1  0.995000  0.185300  0.550000  1.0  -0.3419
  C  C118  1  0.966400  0.285500  0.570770  1.0  0.3543
  C  C119  1  0.020700  0.374700  0.550410  1.0  -0.3132
  C  C120  1  0.095800  0.361800  0.508590  1.0  0.1878
  C  C121  1  0.858100  0.942900  0.852120  1.0  0.1836
  C  C122  1  0.869700  0.025700  0.815140  1.0  -0.3165
  C  C123  1  0.785200  0.044000  0.778300  1.0  0.3578
  C  C124  1  0.696000  0.975400  0.779720  1.0  -0.3371
  C  C125  1  0.690800  0.895200  0.819200  1.0  0.2026
  C  C126  1  0.711900  0.152200  0.706120  1.0  0.0741
  C  C127  1  0.654400  0.289000  0.636220  1.0  0.0676
  C  C128  1  0.428200  0.319200  0.508560  1.0  0.2047
  C  C129  1  0.505000  0.314700  0.550000  1.0  -0.343
  C  C130  1  0.533600  0.214500  0.570770  1.0  0.3538
  C  C131  1  0.479300  0.125300  0.550410  1.0  -0.3121
  C  C132  1  0.404200  0.138200  0.508590  1.0  0.1878
  C  C133  1  0.442900  0.141900  0.352120  1.0  0.184
  C  C134  1  0.525700  0.130300  0.315140  1.0  -0.3184
  C  C135  1  0.544000  0.214800  0.278300  1.0  0.3587
  C  C136  1  0.475400  0.304000  0.279720  1.0  -0.3352
  C  C137  1  0.395200  0.309200  0.319200  1.0  0.2039
  C  C138  1  0.652200  0.288100  0.206120  1.0  0.0747
  C  C139  1  0.789000  0.345600  0.136220  1.0  0.0694
  C  C140  1  0.819200  0.571800  0.008560  1.0  0.2063
  C  C141  1  0.814700  0.495000  0.050000  1.0  -0.34
  C  C142  1  0.714500  0.466400  0.070770  1.0  0.3547
  C  C143  1  0.625300  0.520700  0.050410  1.0  -0.3097
  C  C144  1  0.638200  0.595800  0.008590  1.0  0.1885
  C  C145  1  0.057100  0.358100  0.352120  1.0  0.1843
  C  C146  1  0.974300  0.369700  0.315140  1.0  -0.3187
  C  C147  1  0.956000  0.285200  0.278300  1.0  0.3578
  C  C148  1  0.024600  0.196000  0.279720  1.0  -0.3346
  C  C149  1  0.104800  0.190800  0.319200  1.0  0.2034
  C  C150  1  0.847800  0.211900  0.206120  1.0  0.075
  C  C151  1  0.711000  0.154400  0.136220  1.0  0.0696
  C  C152  1  0.680800  0.928200  0.008560  1.0  0.2058
  C  C153  1  0.685300  0.005000  0.050000  1.0  -0.3413
  C  C154  1  0.785500  0.033600  0.070770  1.0  0.354
  C  C155  1  0.874700  0.979300  0.050410  1.0  -0.3094
  C  C156  1  0.861800  0.904200  0.008590  1.0  0.1891
  C  C157  1  0.750000  0.250000  0.672200  1.0  -0.0392
  C  C158  1  0.750000  0.250000  0.172200  1.0  -0.0392
  C  C159  1  0.358100  0.442900  0.147880  1.0  0.183
  C  C160  1  0.369700  0.525700  0.184860  1.0  -0.3163
  C  C161  1  0.285200  0.544000  0.221700  1.0  0.3579
  C  C162  1  0.196000  0.475400  0.220280  1.0  -0.3371
  C  C163  1  0.190800  0.395200  0.180800  1.0  0.2018
  C  C164  1  0.211900  0.652200  0.293880  1.0  0.0745
  C  C165  1  0.154400  0.789000  0.363780  1.0  0.0679
  C  C166  1  0.928200  0.819200  0.491440  1.0  0.2042
  C  C167  1  0.005000  0.814700  0.450000  1.0  -0.3431
  C  C168  1  0.033600  0.714500  0.429230  1.0  0.354
  C  C169  1  0.979300  0.625300  0.449590  1.0  -0.3118
  C  C170  1  0.904200  0.638200  0.491410  1.0  0.1874
  C  C171  1  0.141900  0.057100  0.147880  1.0  0.1827
  C  C172  1  0.130300  0.974300  0.184860  1.0  -0.3177
  C  C173  1  0.214800  0.956000  0.221700  1.0  0.3568
  C  C174  1  0.304000  0.024600  0.220280  1.0  -0.3347
  C  C175  1  0.309200  0.104800  0.180800  1.0  0.2011
  C  C176  1  0.288100  0.847800  0.293880  1.0  0.0731
  C  C177  1  0.345600  0.711000  0.363780  1.0  0.0662
  C  C178  1  0.571800  0.680800  0.491440  1.0  0.2056
  C  C179  1  0.495000  0.685300  0.450000  1.0  -0.3421
  C  C180  1  0.466400  0.785500  0.429230  1.0  0.3545
  C  C181  1  0.520700  0.874700  0.449590  1.0  -0.3127
  C  C182  1  0.595800  0.861800  0.491410  1.0  0.1873
  C  C183  1  0.557100  0.858100  0.647880  1.0  0.1832
  C  C184  1  0.474300  0.869700  0.684860  1.0  -0.3192
  C  C185  1  0.456000  0.785200  0.721700  1.0  0.3571
  C  C186  1  0.524600  0.696000  0.720280  1.0  -0.335
  C  C187  1  0.604800  0.690800  0.680800  1.0  0.2029
  C  C188  1  0.347800  0.711900  0.793880  1.0  0.0753
  C  C189  1  0.211000  0.654400  0.863780  1.0  0.0705
  C  C190  1  0.180800  0.428200  0.991440  1.0  0.2058
  C  C191  1  0.185300  0.505000  0.950000  1.0  -0.3414
  C  C192  1  0.285500  0.533600  0.929230  1.0  0.3542
  C  C193  1  0.374700  0.479300  0.949590  1.0  -0.3091
  C  C194  1  0.361800  0.404200  0.991410  1.0  0.1889
  C  C195  1  0.942900  0.641900  0.647880  1.0  0.184
  C  C196  1  0.025700  0.630300  0.684860  1.0  -0.3189
  C  C197  1  0.044000  0.714800  0.721700  1.0  0.3577
  C  C198  1  0.975400  0.804000  0.720280  1.0  -0.3352
  C  C199  1  0.895200  0.809200  0.680800  1.0  0.2028
  C  C200  1  0.152200  0.788100  0.793880  1.0  0.0757
  C  C201  1  0.289000  0.845600  0.863780  1.0  0.0695
  C  C202  1  0.319200  0.071800  0.991440  1.0  0.2057
  C  C203  1  0.314700  0.995000  0.950000  1.0  -0.3402
  C  C204  1  0.214500  0.966400  0.929230  1.0  0.3548
  C  C205  1  0.125300  0.020700  0.949590  1.0  -0.3088
  C  C206  1  0.138200  0.095800  0.991410  1.0  0.188
  C  C207  1  0.250000  0.750000  0.327800  1.0  -0.0393
  C  C208  1  0.250000  0.750000  0.827800  1.0  -0.0393
  S  S209  1  0.550280  0.777960  0.919360  1.0  -0.6227
  S  S210  1  0.949720  0.722040  0.919360  1.0  -0.6223
  S  S211  1  0.222040  0.050280  0.419360  1.0  -0.6253
  S  S212  1  0.277960  0.449720  0.419360  1.0  -0.6227
  S  S213  1  0.449720  0.222040  0.080640  1.0  -0.6186
  S  S214  1  0.050280  0.277960  0.080640  1.0  -0.6177
  S  S215  1  0.777960  0.949720  0.580640  1.0  -0.6201
  S  S216  1  0.722040  0.550280  0.580640  1.0  -0.6195
  N  N217  1  0.730400  0.622200  0.855900  1.0  -0.3222
  N  N218  1  0.121200  0.266100  0.487330  1.0  -0.3146
  N  N219  1  0.769600  0.877800  0.855900  1.0  -0.3219
  N  N220  1  0.378800  0.233900  0.487330  1.0  -0.3147
  N  N221  1  0.377800  0.230400  0.355900  1.0  -0.3189
  N  N222  1  0.733900  0.621200  0.987330  1.0  -0.3172
  N  N223  1  0.122200  0.269600  0.355900  1.0  -0.3189
  N  N224  1  0.766100  0.878800  0.987330  1.0  -0.3178
  N  N225  1  0.269600  0.377800  0.144100  1.0  -0.3226
  N  N226  1  0.878800  0.733900  0.512670  1.0  -0.3145
  N  N227  1  0.230400  0.122200  0.144100  1.0  -0.3221
  N  N228  1  0.621200  0.766100  0.512670  1.0  -0.3131
  N  N229  1  0.622200  0.769600  0.644100  1.0  -0.3192
  N  N230  1  0.266100  0.378800  0.012670  1.0  -0.3166
  N  N231  1  0.877800  0.730400  0.644100  1.0  -0.3188
  N  N232  1  0.233900  0.121200  0.012670  1.0  -0.3174
  O  O233  1  0.892400  0.303400  0.610090  1.0  -0.2528
  O  O234  1  0.700400  0.371500  0.743100  1.0  -0.2758
  O  O235  1  0.607600  0.196600  0.610090  1.0  -0.2537
  O  O236  1  0.799600  0.128500  0.743100  1.0  -0.2762
  O  O237  1  0.696600  0.392400  0.110090  1.0  -0.2534
  O  O238  1  0.628500  0.200400  0.243100  1.0  -0.277
  O  O239  1  0.803400  0.107600  0.110090  1.0  -0.2537
  O  O240  1  0.871500  0.299600  0.243100  1.0  -0.2763
  O  O241  1  0.107600  0.696600  0.389910  1.0  -0.2529
  O  O242  1  0.299600  0.628500  0.256900  1.0  -0.2761
  O  O243  1  0.392400  0.803400  0.389910  1.0  -0.2526
  O  O244  1  0.200400  0.871500  0.256900  1.0  -0.2755
  O  O245  1  0.303400  0.607600  0.889910  1.0  -0.2534
  O  O246  1  0.371500  0.799600  0.756900  1.0  -0.2754
  O  O247  1  0.196600  0.892400  0.889910  1.0  -0.2533
  O  O248  1  0.128500  0.700400  0.756900  1.0  -0.2765
