# generated using pymatgen
data_CoH26C25S2(NO)4
_symmetry_space_group_name_H-M   'P 1'
_cell_length_a   12.07900000
_cell_length_b   12.07900000
_cell_length_c   24.53900000
_cell_angle_alpha   90.00000000
_cell_angle_beta   90.00000000
_cell_angle_gamma   90.00000000
_symmetry_Int_Tables_number   1
_chemical_formula_structural   CoH26C25S2(NO)4
_chemical_formula_sum   'Co4 H104 C100 S8 N16 O16'
_cell_volume   3580.29509190
_cell_formula_units_Z   4
loop_
 _symmetry_equiv_pos_site_id
 _symmetry_equiv_pos_as_xyz
  1  'x, y, z'
loop_
 _atom_site_type_symbol
 _atom_site_label
 _atom_site_symmetry_multiplicity
 _atom_site_fract_x
 _atom_site_fract_y
 _atom_site_fract_z
 _atom_site_occupancy
 _atom_site_charge
  Co  Co1  1  0.750000  0.750000  0.922600  1.0  0.517
  Co  Co2  1  0.250000  0.250000  0.422600  1.0  0.517
  Co  Co3  1  0.250000  0.250000  0.077400  1.0  0.5183
  Co  Co4  1  0.750000  0.750000  0.577400  1.0  0.5183
  H  H5  1  0.582000  0.574500  0.877400  1.0  0.0642
  H  H6  1  0.564500  0.436000  0.815500  1.0  0.1496
  H  H7  1  0.864500  0.516700  0.757700  1.0  0.1334
  H  H8  1  0.872100  0.650400  0.823500  1.0  0.058
  H  H9  1  0.804600  0.411000  0.684600  1.0  0.0636
  H  H10  1  0.854600  0.328900  0.728100  1.0  0.0673
  H  H11  1  0.818800  0.156200  0.610800  1.0  0.0654
  H  H12  1  0.901900  0.173100  0.659600  1.0  0.0634
  H  H13  1  0.097700  0.112400  0.497700  1.0  0.0586
  H  H14  1  0.966300  0.122500  0.565800  1.0  0.1304
  H  H15  1  0.014100  0.443600  0.566200  1.0  0.1288
  H  H16  1  0.122400  0.424700  0.490900  1.0  0.0679
  H  H17  1  0.528800  0.865900  0.900000  1.0  0.1291
  H  H18  1  0.918000  0.925500  0.877400  1.0  0.0643
  H  H19  1  0.935500  0.064000  0.815500  1.0  0.1497
  H  H20  1  0.635500  0.983300  0.757700  1.0  0.1328
  H  H21  1  0.627900  0.849600  0.823500  1.0  0.058
  H  H22  1  0.695400  0.089000  0.684600  1.0  0.0638
  H  H23  1  0.645400  0.171100  0.728100  1.0  0.0682
  H  H24  1  0.681200  0.343800  0.610800  1.0  0.0656
  H  H25  1  0.598100  0.326900  0.659600  1.0  0.0635
  H  H26  1  0.402300  0.387600  0.497700  1.0  0.0596
  H  H27  1  0.533700  0.377500  0.565800  1.0  0.1312
  H  H28  1  0.485900  0.056400  0.566200  1.0  0.1299
  H  H29  1  0.377600  0.075300  0.490900  1.0  0.068
  H  H30  1  0.971200  0.634100  0.900000  1.0  0.1288
  H  H31  1  0.425500  0.082000  0.377400  1.0  0.0656
  H  H32  1  0.564000  0.064500  0.315500  1.0  0.1497
  H  H33  1  0.483300  0.364500  0.257700  1.0  0.1335
  H  H34  1  0.349600  0.372100  0.323500  1.0  0.058
  H  H35  1  0.589000  0.304600  0.184600  1.0  0.0632
  H  H36  1  0.671100  0.354600  0.228100  1.0  0.0677
  H  H37  1  0.843800  0.318800  0.110800  1.0  0.0643
  H  H38  1  0.826900  0.401900  0.159600  1.0  0.0634
  H  H39  1  0.887600  0.597700  0.997700  1.0  0.0578
  H  H40  1  0.877500  0.466300  0.065800  1.0  0.1312
  H  H41  1  0.556400  0.514100  0.066200  1.0  0.1297
  H  H42  1  0.575300  0.622400  0.990900  1.0  0.0671
  H  H43  1  0.134100  0.028800  0.400000  1.0  0.1288
  H  H44  1  0.074500  0.418000  0.377400  1.0  0.0648
  H  H45  1  0.936000  0.435500  0.315500  1.0  0.1495
  H  H46  1  0.016700  0.135500  0.257700  1.0  0.1328
  H  H47  1  0.150400  0.127900  0.323500  1.0  0.0562
  H  H48  1  0.911000  0.195400  0.184600  1.0  0.0633
  H  H49  1  0.828900  0.145400  0.228100  1.0  0.0688
  H  H50  1  0.656200  0.181200  0.110800  1.0  0.0643
  H  H51  1  0.673100  0.098100  0.159600  1.0  0.064
  H  H52  1  0.612400  0.902300  0.997700  1.0  0.0575
  H  H53  1  0.622500  0.033700  0.065800  1.0  0.1312
  H  H54  1  0.943600  0.985900  0.066200  1.0  0.1291
  H  H55  1  0.924700  0.877600  0.990900  1.0  0.0675
  H  H56  1  0.365900  0.471200  0.400000  1.0  0.1284
  H  H57  1  0.418000  0.425500  0.122600  1.0  0.0645
  H  H58  1  0.435500  0.564000  0.184500  1.0  0.1496
  H  H59  1  0.135500  0.483300  0.242300  1.0  0.1325
  H  H60  1  0.127900  0.349600  0.176500  1.0  0.0579
  H  H61  1  0.195400  0.589000  0.315400  1.0  0.0644
  H  H62  1  0.145400  0.671100  0.271900  1.0  0.0675
  H  H63  1  0.181200  0.843800  0.389200  1.0  0.0651
  H  H64  1  0.098100  0.826900  0.340400  1.0  0.0642
  H  H65  1  0.902300  0.887600  0.502300  1.0  0.0585
  H  H66  1  0.033700  0.877500  0.434200  1.0  0.1313
  H  H67  1  0.985900  0.556400  0.433800  1.0  0.1299
  H  H68  1  0.877600  0.575300  0.509100  1.0  0.0679
  H  H69  1  0.471200  0.134100  0.100000  1.0  0.1288
  H  H70  1  0.082000  0.074500  0.122600  1.0  0.0645
  H  H71  1  0.064500  0.936000  0.184500  1.0  0.1493
  H  H72  1  0.364500  0.016700  0.242300  1.0  0.1331
  H  H73  1  0.372100  0.150400  0.176500  1.0  0.0578
  H  H74  1  0.304600  0.911000  0.315400  1.0  0.0632
  H  H75  1  0.354600  0.828900  0.271900  1.0  0.0678
  H  H76  1  0.318800  0.656200  0.389200  1.0  0.066
  H  H77  1  0.401900  0.673100  0.340400  1.0  0.0629
  H  H78  1  0.597700  0.612400  0.502300  1.0  0.0578
  H  H79  1  0.466300  0.622500  0.434200  1.0  0.1308
  H  H80  1  0.514100  0.943600  0.433800  1.0  0.1295
  H  H81  1  0.622400  0.924700  0.509100  1.0  0.068
  H  H82  1  0.028800  0.365900  0.100000  1.0  0.1294
  H  H83  1  0.574500  0.918000  0.622600  1.0  0.0653
  H  H84  1  0.436000  0.935500  0.684500  1.0  0.1496
  H  H85  1  0.516700  0.635500  0.742300  1.0  0.1326
  H  H86  1  0.650400  0.627900  0.676500  1.0  0.056
  H  H87  1  0.411000  0.695400  0.815400  1.0  0.0636
  H  H88  1  0.328900  0.645400  0.771900  1.0  0.0677
  H  H89  1  0.156200  0.681200  0.889200  1.0  0.0642
  H  H90  1  0.173100  0.598100  0.840400  1.0  0.0632
  H  H91  1  0.112400  0.402300  0.002300  1.0  0.0568
  H  H92  1  0.122500  0.533700  0.934200  1.0  0.1314
  H  H93  1  0.443600  0.485900  0.933800  1.0  0.1292
  H  H94  1  0.424700  0.377600  0.009100  1.0  0.0674
  H  H95  1  0.865900  0.971200  0.600000  1.0  0.1285
  H  H96  1  0.925500  0.582000  0.622600  1.0  0.0657
  H  H97  1  0.064000  0.564500  0.684500  1.0  0.1491
  H  H98  1  0.983300  0.864500  0.742300  1.0  0.1334
  H  H99  1  0.849600  0.872100  0.676500  1.0  0.058
  H  H100  1  0.089000  0.804600  0.815400  1.0  0.0627
  H  H101  1  0.171100  0.854600  0.771900  1.0  0.068
  H  H102  1  0.343800  0.818800  0.889200  1.0  0.0643
  H  H103  1  0.326900  0.901900  0.840400  1.0  0.0636
  H  H104  1  0.387600  0.097700  0.002300  1.0  0.0571
  H  H105  1  0.377500  0.966300  0.934200  1.0  0.1312
  H  H106  1  0.056400  0.014100  0.933800  1.0  0.1301
  H  H107  1  0.075300  0.122400  0.009100  1.0  0.0671
  H  H108  1  0.634100  0.528800  0.600000  1.0  0.1288
  C  C109  1  0.640400  0.561400  0.853540  1.0  0.1813
  C  C110  1  0.628600  0.478600  0.816300  1.0  -0.3165
  C  C111  1  0.714000  0.458700  0.779420  1.0  0.3521
  C  C112  1  0.806200  0.525500  0.782030  1.0  -0.3509
  C  C113  1  0.809200  0.606000  0.821970  1.0  0.2066
  C  C114  1  0.788300  0.348000  0.707820  1.0  0.0734
  C  C115  1  0.845900  0.209000  0.637450  1.0  0.0714
  C  C116  1  0.076800  0.182000  0.510180  1.0  0.2093
  C  C117  1  0.997800  0.186800  0.551840  1.0  -0.3354
  C  C118  1  0.968800  0.286500  0.570990  1.0  0.3625
  C  C119  1  0.023800  0.374000  0.550680  1.0  -0.3089
  C  C120  1  0.094100  0.361100  0.507190  1.0  0.1839
  C  C121  1  0.859600  0.938600  0.853540  1.0  0.1821
  C  C122  1  0.871400  0.021400  0.816300  1.0  -0.3161
  C  C123  1  0.786000  0.041300  0.779420  1.0  0.3518
  C  C124  1  0.693800  0.974500  0.782030  1.0  -0.353
  C  C125  1  0.690800  0.894000  0.821970  1.0  0.2061
  C  C126  1  0.711700  0.152000  0.707820  1.0  0.075
  C  C127  1  0.654100  0.291000  0.637450  1.0  0.0707
  C  C128  1  0.423200  0.318000  0.510180  1.0  0.2089
  C  C129  1  0.502200  0.313200  0.551840  1.0  -0.3359
  C  C130  1  0.531200  0.213500  0.570990  1.0  0.361
  C  C131  1  0.476200  0.126000  0.550680  1.0  -0.3071
  C  C132  1  0.405900  0.138900  0.507190  1.0  0.1832
  C  C133  1  0.438600  0.140400  0.353540  1.0  0.1832
  C  C134  1  0.521400  0.128600  0.316300  1.0  -0.3136
  C  C135  1  0.541300  0.214000  0.279420  1.0  0.3513
  C  C136  1  0.474500  0.306200  0.282030  1.0  -0.3502
  C  C137  1  0.394000  0.309200  0.321970  1.0  0.2089
  C  C138  1  0.652000  0.288300  0.207820  1.0  0.0746
  C  C139  1  0.791000  0.345900  0.137450  1.0  0.074
  C  C140  1  0.818000  0.576800  0.010180  1.0  0.2103
  C  C141  1  0.813200  0.497800  0.051840  1.0  -0.334
  C  C142  1  0.713500  0.468800  0.070990  1.0  0.3628
  C  C143  1  0.626000  0.523800  0.050680  1.0  -0.3061
  C  C144  1  0.638900  0.594100  0.007190  1.0  0.1844
  C  C145  1  0.061400  0.359600  0.353540  1.0  0.1827
  C  C146  1  0.978600  0.371400  0.316300  1.0  -0.3151
  C  C147  1  0.958700  0.286000  0.279420  1.0  0.3527
  C  C148  1  0.025500  0.193800  0.282030  1.0  -0.3505
  C  C149  1  0.106000  0.190800  0.321970  1.0  0.2083
  C  C150  1  0.848000  0.211700  0.207820  1.0  0.0758
  C  C151  1  0.709000  0.154100  0.137450  1.0  0.0732
  C  C152  1  0.682000  0.923200  0.010180  1.0  0.2099
  C  C153  1  0.686800  0.002200  0.051840  1.0  -0.3363
  C  C154  1  0.786500  0.031200  0.070990  1.0  0.3626
  C  C155  1  0.874000  0.976200  0.050680  1.0  -0.3027
  C  C156  1  0.861100  0.905900  0.007190  1.0  0.1842
  C  C157  1  0.750000  0.250000  0.673620  1.0  -0.0377
  C  C158  1  0.750000  0.250000  0.173620  1.0  -0.0377
  C  C159  1  0.359600  0.438600  0.146460  1.0  0.1826
  C  C160  1  0.371400  0.521400  0.183700  1.0  -0.3164
  C  C161  1  0.286000  0.541300  0.220580  1.0  0.3527
  C  C162  1  0.193800  0.474500  0.217970  1.0  -0.3526
  C  C163  1  0.190800  0.394000  0.178030  1.0  0.2057
  C  C164  1  0.211700  0.652000  0.292180  1.0  0.0756
  C  C165  1  0.154100  0.791000  0.362550  1.0  0.0714
  C  C166  1  0.923200  0.818000  0.489820  1.0  0.2086
  C  C167  1  0.002200  0.813200  0.448160  1.0  -0.3359
  C  C168  1  0.031200  0.713500  0.429010  1.0  0.3612
  C  C169  1  0.976200  0.626000  0.449320  1.0  -0.3052
  C  C170  1  0.905900  0.638900  0.492810  1.0  0.1833
  C  C171  1  0.140400  0.061400  0.146460  1.0  0.1813
  C  C172  1  0.128600  0.978600  0.183700  1.0  -0.3168
  C  C173  1  0.214000  0.958700  0.220580  1.0  0.3516
  C  C174  1  0.306200  0.025500  0.217970  1.0  -0.3509
  C  C175  1  0.309200  0.106000  0.178030  1.0  0.2062
  C  C176  1  0.288300  0.848000  0.292180  1.0  0.0733
  C  C177  1  0.345900  0.709000  0.362550  1.0  0.0719
  C  C178  1  0.576800  0.682000  0.489820  1.0  0.2092
  C  C179  1  0.497800  0.686800  0.448160  1.0  -0.3354
  C  C180  1  0.468800  0.786500  0.429010  1.0  0.3627
  C  C181  1  0.523800  0.874000  0.449320  1.0  -0.3058
  C  C182  1  0.594100  0.861100  0.492810  1.0  0.1839
  C  C183  1  0.561400  0.859600  0.646460  1.0  0.1827
  C  C184  1  0.478600  0.871400  0.683700  1.0  -0.3151
  C  C185  1  0.458700  0.786000  0.720580  1.0  0.3525
  C  C186  1  0.525500  0.693800  0.717970  1.0  -0.3502
  C  C187  1  0.606000  0.690800  0.678030  1.0  0.2084
  C  C188  1  0.348000  0.711700  0.792180  1.0  0.0764
  C  C189  1  0.209000  0.654100  0.862550  1.0  0.0744
  C  C190  1  0.182000  0.423200  0.989820  1.0  0.2097
  C  C191  1  0.186800  0.502200  0.948160  1.0  -0.3363
  C  C192  1  0.286500  0.531200  0.929010  1.0  0.3629
  C  C193  1  0.374000  0.476200  0.949320  1.0  -0.3001
  C  C194  1  0.361100  0.405900  0.992810  1.0  0.1845
  C  C195  1  0.938600  0.640400  0.646460  1.0  0.184
  C  C196  1  0.021400  0.628600  0.683700  1.0  -0.3142
  C  C197  1  0.041300  0.714000  0.720580  1.0  0.3521
  C  C198  1  0.974500  0.806200  0.717970  1.0  -0.3504
  C  C199  1  0.894000  0.809200  0.678030  1.0  0.2085
  C  C200  1  0.152000  0.788300  0.792180  1.0  0.0755
  C  C201  1  0.291000  0.845900  0.862550  1.0  0.0743
  C  C202  1  0.318000  0.076800  0.989820  1.0  0.2101
  C  C203  1  0.313200  0.997800  0.948160  1.0  -0.3343
  C  C204  1  0.213500  0.968800  0.929010  1.0  0.3628
  C  C205  1  0.126000  0.023800  0.949320  1.0  -0.3036
  C  C206  1  0.138900  0.094100  0.992810  1.0  0.1844
  C  C207  1  0.250000  0.750000  0.326380  1.0  -0.0378
  C  C208  1  0.250000  0.750000  0.826380  1.0  -0.0378
  S  S209  1  0.549200  0.778780  0.921210  1.0  -0.6044
  S  S210  1  0.950800  0.721220  0.921210  1.0  -0.604
  S  S211  1  0.221220  0.049200  0.421210  1.0  -0.6059
  S  S212  1  0.278780  0.450800  0.421210  1.0  -0.6048
  S  S213  1  0.450800  0.221220  0.078790  1.0  -0.6063
  S  S214  1  0.049200  0.278780  0.078790  1.0  -0.6044
  S  S215  1  0.778780  0.950800  0.578790  1.0  -0.6068
  S  S216  1  0.721220  0.549200  0.578790  1.0  -0.6075
  N  N217  1  0.731100  0.625600  0.858150  1.0  -0.3113
  N  N218  1  0.123100  0.267700  0.487590  1.0  -0.2962
  N  N219  1  0.768900  0.874400  0.858150  1.0  -0.3116
  N  N220  1  0.376900  0.232300  0.487590  1.0  -0.2957
  N  N221  1  0.374400  0.231100  0.358150  1.0  -0.31
  N  N222  1  0.732300  0.623100  0.987590  1.0  -0.297
  N  N223  1  0.125600  0.268900  0.358150  1.0  -0.3082
  N  N224  1  0.767700  0.876900  0.987590  1.0  -0.297
  N  N225  1  0.268900  0.374400  0.141850  1.0  -0.312
  N  N226  1  0.876900  0.732300  0.512410  1.0  -0.2963
  N  N227  1  0.231100  0.125600  0.141850  1.0  -0.3115
  N  N228  1  0.623100  0.767700  0.512410  1.0  -0.2957
  N  N229  1  0.625600  0.768900  0.641850  1.0  -0.3083
  N  N230  1  0.267700  0.376900  0.012410  1.0  -0.2968
  N  N231  1  0.874400  0.731100  0.641850  1.0  -0.3099
  N  N232  1  0.232300  0.123100  0.012410  1.0  -0.2976
  O  O233  1  0.699480  0.373950  0.744510  1.0  -0.275
  O  O234  1  0.891870  0.304300  0.610470  1.0  -0.2693
  O  O235  1  0.800520  0.126050  0.744510  1.0  -0.2757
  O  O236  1  0.608130  0.195700  0.610470  1.0  -0.2717
  O  O237  1  0.626050  0.199480  0.244510  1.0  -0.2754
  O  O238  1  0.695700  0.391870  0.110470  1.0  -0.2703
  O  O239  1  0.873950  0.300520  0.244510  1.0  -0.2751
  O  O240  1  0.804300  0.108130  0.110470  1.0  -0.2712
  O  O241  1  0.300520  0.626050  0.255490  1.0  -0.2755
  O  O242  1  0.108130  0.695700  0.389530  1.0  -0.2706
  O  O243  1  0.199480  0.873950  0.255490  1.0  -0.2751
  O  O244  1  0.391870  0.804300  0.389530  1.0  -0.2699
  O  O245  1  0.373950  0.800520  0.755490  1.0  -0.274
  O  O246  1  0.304300  0.608130  0.889530  1.0  -0.2714
  O  O247  1  0.126050  0.699480  0.755490  1.0  -0.2755
  O  O248  1  0.195700  0.891870  0.889530  1.0  -0.2698
