# generated using pymatgen
data_Zr3(C3O2)8
_symmetry_space_group_name_H-M   'P 1'
_cell_length_a   20.80020000
_cell_length_b   20.80020000
_cell_length_c   20.80020000
_cell_angle_alpha   90.00000000
_cell_angle_beta   90.00000000
_cell_angle_gamma   90.00000000
_symmetry_Int_Tables_number   1
_chemical_formula_structural   Zr3(C3O2)8
_chemical_formula_sum   'Zr24 C192 O128'
_cell_volume   8999.17158650
_cell_formula_units_Z   8
loop_
 _symmetry_equiv_pos_site_id
 _symmetry_equiv_pos_as_xyz
  1  'x, y, z'
loop_
 _atom_site_type_symbol
 _atom_site_label
 _atom_site_symmetry_multiplicity
 _atom_site_fract_x
 _atom_site_fract_y
 _atom_site_fract_z
 _atom_site_occupancy
 _atom_site_charge
  Zr  Zr1  1  0.000000  0.000000  0.116800  1.0  2.0902
  Zr  Zr2  1  0.000000  0.500000  0.616800  1.0  2.0902
  Zr  Zr3  1  0.500000  0.000000  0.616800  1.0  2.0902
  Zr  Zr4  1  0.500000  0.500000  0.116800  1.0  2.0902
  Zr  Zr5  1  0.000000  0.000000  0.883200  1.0  2.0887
  Zr  Zr6  1  0.000000  0.500000  0.383200  1.0  2.0887
  Zr  Zr7  1  0.500000  0.000000  0.383200  1.0  2.0887
  Zr  Zr8  1  0.500000  0.500000  0.883200  1.0  2.0887
  Zr  Zr9  1  0.116800  0.000000  0.000000  1.0  2.0888
  Zr  Zr10  1  0.116800  0.500000  0.500000  1.0  2.0888
  Zr  Zr11  1  0.616800  0.000000  0.500000  1.0  2.0888
  Zr  Zr12  1  0.616800  0.500000  0.000000  1.0  2.0888
  Zr  Zr13  1  0.883200  0.000000  0.000000  1.0  2.0868
  Zr  Zr14  1  0.883200  0.500000  0.500000  1.0  2.0868
  Zr  Zr15  1  0.383200  0.000000  0.500000  1.0  2.0868
  Zr  Zr16  1  0.383200  0.500000  0.000000  1.0  2.0868
  Zr  Zr17  1  0.000000  0.116800  0.000000  1.0  2.0871
  Zr  Zr18  1  0.000000  0.616800  0.500000  1.0  2.0871
  Zr  Zr19  1  0.500000  0.116800  0.500000  1.0  2.0871
  Zr  Zr20  1  0.500000  0.616800  0.000000  1.0  2.0871
  Zr  Zr21  1  0.000000  0.883200  0.000000  1.0  2.0932
  Zr  Zr22  1  0.000000  0.383200  0.500000  1.0  2.0932
  Zr  Zr23  1  0.500000  0.883200  0.500000  1.0  2.0932
  Zr  Zr24  1  0.500000  0.383200  0.000000  1.0  2.0932
  C  C25  1  0.216200  0.940600  0.234200  1.0  0.0343
  C  C26  1  0.216200  0.440600  0.734200  1.0  0.0343
  C  C27  1  0.716200  0.940600  0.734200  1.0  0.0343
  C  C28  1  0.716200  0.440600  0.234200  1.0  0.0343
  C  C29  1  0.783800  0.059400  0.234200  1.0  0.0338
  C  C30  1  0.783800  0.559400  0.734200  1.0  0.0338
  C  C31  1  0.283800  0.059400  0.734200  1.0  0.0338
  C  C32  1  0.283800  0.559400  0.234200  1.0  0.0338
  C  C33  1  0.783800  0.940600  0.765800  1.0  0.035
  C  C34  1  0.783800  0.440600  0.265800  1.0  0.035
  C  C35  1  0.283800  0.940600  0.265800  1.0  0.035
  C  C36  1  0.283800  0.440600  0.765800  1.0  0.035
  C  C37  1  0.216200  0.059400  0.765800  1.0  0.0337
  C  C38  1  0.216200  0.559400  0.265800  1.0  0.0337
  C  C39  1  0.716200  0.059400  0.265800  1.0  0.0337
  C  C40  1  0.716200  0.559400  0.765800  1.0  0.0337
  C  C41  1  0.234200  0.216200  0.940600  1.0  0.0353
  C  C42  1  0.234200  0.716200  0.440600  1.0  0.0353
  C  C43  1  0.734200  0.216200  0.440600  1.0  0.0353
  C  C44  1  0.734200  0.716200  0.940600  1.0  0.0353
  C  C45  1  0.234200  0.783800  0.059400  1.0  0.0348
  C  C46  1  0.234200  0.283800  0.559400  1.0  0.0348
  C  C47  1  0.734200  0.783800  0.559400  1.0  0.0348
  C  C48  1  0.734200  0.283800  0.059400  1.0  0.0348
  C  C49  1  0.765800  0.783800  0.940600  1.0  0.0367
  C  C50  1  0.765800  0.283800  0.440600  1.0  0.0367
  C  C51  1  0.265800  0.783800  0.440600  1.0  0.0367
  C  C52  1  0.265800  0.283800  0.940600  1.0  0.0367
  C  C53  1  0.765800  0.216200  0.059400  1.0  0.0334
  C  C54  1  0.765800  0.716200  0.559400  1.0  0.0334
  C  C55  1  0.265800  0.216200  0.559400  1.0  0.0334
  C  C56  1  0.265800  0.716200  0.059400  1.0  0.0334
  C  C57  1  0.940600  0.234200  0.216200  1.0  0.0355
  C  C58  1  0.940600  0.734200  0.716200  1.0  0.0355
  C  C59  1  0.440600  0.234200  0.716200  1.0  0.0355
  C  C60  1  0.440600  0.734200  0.216200  1.0  0.0355
  C  C61  1  0.059400  0.234200  0.783800  1.0  0.0328
  C  C62  1  0.059400  0.734200  0.283800  1.0  0.0328
  C  C63  1  0.559400  0.234200  0.283800  1.0  0.0328
  C  C64  1  0.559400  0.734200  0.783800  1.0  0.0328
  C  C65  1  0.940600  0.765800  0.783800  1.0  0.0339
  C  C66  1  0.940600  0.265800  0.283800  1.0  0.0339
  C  C67  1  0.440600  0.765800  0.283800  1.0  0.0339
  C  C68  1  0.440600  0.265800  0.783800  1.0  0.0339
  C  C69  1  0.059400  0.765800  0.216200  1.0  0.0339
  C  C70  1  0.059400  0.265800  0.716200  1.0  0.0339
  C  C71  1  0.559400  0.765800  0.716200  1.0  0.0339
  C  C72  1  0.559400  0.265800  0.216200  1.0  0.0339
  C  C73  1  0.783800  0.059400  0.765800  1.0  0.0339
  C  C74  1  0.783800  0.559400  0.265800  1.0  0.0339
  C  C75  1  0.283800  0.059400  0.265800  1.0  0.0339
  C  C76  1  0.283800  0.559400  0.765800  1.0  0.0339
  C  C77  1  0.216200  0.940600  0.765800  1.0  0.0342
  C  C78  1  0.216200  0.440600  0.265800  1.0  0.0342
  C  C79  1  0.716200  0.940600  0.265800  1.0  0.0342
  C  C80  1  0.716200  0.440600  0.765800  1.0  0.0342
  C  C81  1  0.216200  0.059400  0.234200  1.0  0.034
  C  C82  1  0.216200  0.559400  0.734200  1.0  0.034
  C  C83  1  0.716200  0.059400  0.734200  1.0  0.034
  C  C84  1  0.716200  0.559400  0.234200  1.0  0.034
  C  C85  1  0.783800  0.940600  0.234200  1.0  0.0348
  C  C86  1  0.783800  0.440600  0.734200  1.0  0.0348
  C  C87  1  0.283800  0.940600  0.734200  1.0  0.0348
  C  C88  1  0.283800  0.440600  0.234200  1.0  0.0348
  C  C89  1  0.765800  0.783800  0.059400  1.0  0.0339
  C  C90  1  0.765800  0.283800  0.559400  1.0  0.0339
  C  C91  1  0.265800  0.783800  0.559400  1.0  0.0339
  C  C92  1  0.265800  0.283800  0.059400  1.0  0.0339
  C  C93  1  0.765800  0.216200  0.940600  1.0  0.0359
  C  C94  1  0.765800  0.716200  0.440600  1.0  0.0359
  C  C95  1  0.265800  0.216200  0.440600  1.0  0.0359
  C  C96  1  0.265800  0.716200  0.940600  1.0  0.0359
  C  C97  1  0.234200  0.216200  0.059400  1.0  0.0343
  C  C98  1  0.234200  0.716200  0.559400  1.0  0.0343
  C  C99  1  0.734200  0.216200  0.559400  1.0  0.0343
  C  C100  1  0.734200  0.716200  0.059400  1.0  0.0343
  C  C101  1  0.234200  0.783800  0.940600  1.0  0.0362
  C  C102  1  0.234200  0.283800  0.440600  1.0  0.0362
  C  C103  1  0.734200  0.783800  0.440600  1.0  0.0362
  C  C104  1  0.734200  0.283800  0.940600  1.0  0.0362
  C  C105  1  0.059400  0.765800  0.783800  1.0  0.0329
  C  C106  1  0.059400  0.265800  0.283800  1.0  0.0329
  C  C107  1  0.559400  0.765800  0.283800  1.0  0.0329
  C  C108  1  0.559400  0.265800  0.783800  1.0  0.0329
  C  C109  1  0.940600  0.765800  0.216200  1.0  0.0346
  C  C110  1  0.940600  0.265800  0.716200  1.0  0.0346
  C  C111  1  0.440600  0.765800  0.716200  1.0  0.0346
  C  C112  1  0.440600  0.265800  0.216200  1.0  0.0346
  C  C113  1  0.059400  0.234200  0.216200  1.0  0.034
  C  C114  1  0.059400  0.734200  0.716200  1.0  0.034
  C  C115  1  0.559400  0.234200  0.716200  1.0  0.034
  C  C116  1  0.559400  0.734200  0.216200  1.0  0.034
  C  C117  1  0.940600  0.234200  0.783800  1.0  0.0342
  C  C118  1  0.940600  0.734200  0.283800  1.0  0.0342
  C  C119  1  0.440600  0.234200  0.283800  1.0  0.0342
  C  C120  1  0.440600  0.734200  0.783800  1.0  0.0342
  C  C121  1  0.150000  0.000000  0.147000  1.0  0.418
  C  C122  1  0.210000  0.000000  0.190000  1.0  0.1181
  C  C123  1  0.150000  0.500000  0.647000  1.0  0.418
  C  C124  1  0.210000  0.500000  0.690000  1.0  0.1181
  C  C125  1  0.650000  0.000000  0.647000  1.0  0.418
  C  C126  1  0.710000  0.000000  0.690000  1.0  0.1181
  C  C127  1  0.650000  0.500000  0.147000  1.0  0.418
  C  C128  1  0.710000  0.500000  0.190000  1.0  0.1181
  C  C129  1  0.850000  0.000000  0.147000  1.0  0.4168
  C  C130  1  0.790000  0.000000  0.190000  1.0  0.1167
  C  C131  1  0.850000  0.500000  0.647000  1.0  0.4168
  C  C132  1  0.790000  0.500000  0.690000  1.0  0.1167
  C  C133  1  0.350000  0.000000  0.647000  1.0  0.4168
  C  C134  1  0.290000  0.000000  0.690000  1.0  0.1167
  C  C135  1  0.350000  0.500000  0.147000  1.0  0.4168
  C  C136  1  0.290000  0.500000  0.190000  1.0  0.1167
  C  C137  1  0.850000  0.000000  0.853000  1.0  0.4174
  C  C138  1  0.790000  0.000000  0.810000  1.0  0.1155
  C  C139  1  0.850000  0.500000  0.353000  1.0  0.4174
  C  C140  1  0.790000  0.500000  0.310000  1.0  0.1155
  C  C141  1  0.350000  0.000000  0.353000  1.0  0.4174
  C  C142  1  0.290000  0.000000  0.310000  1.0  0.1155
  C  C143  1  0.350000  0.500000  0.853000  1.0  0.4174
  C  C144  1  0.290000  0.500000  0.810000  1.0  0.1155
  C  C145  1  0.150000  0.000000  0.853000  1.0  0.4186
  C  C146  1  0.210000  0.000000  0.810000  1.0  0.1169
  C  C147  1  0.150000  0.500000  0.353000  1.0  0.4186
  C  C148  1  0.210000  0.500000  0.310000  1.0  0.1169
  C  C149  1  0.650000  0.000000  0.353000  1.0  0.4186
  C  C150  1  0.710000  0.000000  0.310000  1.0  0.1169
  C  C151  1  0.650000  0.500000  0.853000  1.0  0.4186
  C  C152  1  0.710000  0.500000  0.810000  1.0  0.1169
  C  C153  1  0.147000  0.150000  0.000000  1.0  0.4184
  C  C154  1  0.190000  0.210000  0.000000  1.0  0.1172
  C  C155  1  0.147000  0.650000  0.500000  1.0  0.4184
  C  C156  1  0.190000  0.710000  0.500000  1.0  0.1172
  C  C157  1  0.647000  0.150000  0.500000  1.0  0.4184
  C  C158  1  0.690000  0.210000  0.500000  1.0  0.1172
  C  C159  1  0.647000  0.650000  0.000000  1.0  0.4184
  C  C160  1  0.690000  0.710000  0.000000  1.0  0.1172
  C  C161  1  0.147000  0.850000  0.000000  1.0  0.4172
  C  C162  1  0.190000  0.790000  0.000000  1.0  0.1173
  C  C163  1  0.147000  0.350000  0.500000  1.0  0.4172
  C  C164  1  0.190000  0.290000  0.500000  1.0  0.1173
  C  C165  1  0.647000  0.850000  0.500000  1.0  0.4172
  C  C166  1  0.690000  0.790000  0.500000  1.0  0.1173
  C  C167  1  0.647000  0.350000  0.000000  1.0  0.4172
  C  C168  1  0.690000  0.290000  0.000000  1.0  0.1173
  C  C169  1  0.853000  0.850000  0.000000  1.0  0.4165
  C  C170  1  0.810000  0.790000  0.000000  1.0  0.1186
  C  C171  1  0.853000  0.350000  0.500000  1.0  0.4165
  C  C172  1  0.810000  0.290000  0.500000  1.0  0.1186
  C  C173  1  0.353000  0.850000  0.500000  1.0  0.4165
  C  C174  1  0.310000  0.790000  0.500000  1.0  0.1186
  C  C175  1  0.353000  0.350000  0.000000  1.0  0.4165
  C  C176  1  0.310000  0.290000  0.000000  1.0  0.1186
  C  C177  1  0.853000  0.150000  0.000000  1.0  0.4173
  C  C178  1  0.810000  0.210000  0.000000  1.0  0.1186
  C  C179  1  0.853000  0.650000  0.500000  1.0  0.4173
  C  C180  1  0.810000  0.710000  0.500000  1.0  0.1186
  C  C181  1  0.353000  0.150000  0.500000  1.0  0.4173
  C  C182  1  0.310000  0.210000  0.500000  1.0  0.1186
  C  C183  1  0.353000  0.650000  0.000000  1.0  0.4173
  C  C184  1  0.310000  0.710000  0.000000  1.0  0.1186
  C  C185  1  0.000000  0.147000  0.150000  1.0  0.418
  C  C186  1  0.000000  0.190000  0.210000  1.0  0.1182
  C  C187  1  0.000000  0.647000  0.650000  1.0  0.418
  C  C188  1  0.000000  0.690000  0.710000  1.0  0.1182
  C  C189  1  0.500000  0.147000  0.650000  1.0  0.418
  C  C190  1  0.500000  0.190000  0.710000  1.0  0.1182
  C  C191  1  0.500000  0.647000  0.150000  1.0  0.418
  C  C192  1  0.500000  0.690000  0.210000  1.0  0.1182
  C  C193  1  0.000000  0.147000  0.850000  1.0  0.4179
  C  C194  1  0.000000  0.190000  0.790000  1.0  0.1198
  C  C195  1  0.000000  0.647000  0.350000  1.0  0.4179
  C  C196  1  0.000000  0.690000  0.290000  1.0  0.1198
  C  C197  1  0.500000  0.147000  0.350000  1.0  0.4179
  C  C198  1  0.500000  0.190000  0.290000  1.0  0.1198
  C  C199  1  0.500000  0.647000  0.850000  1.0  0.4179
  C  C200  1  0.500000  0.690000  0.790000  1.0  0.1198
  C  C201  1  0.000000  0.853000  0.850000  1.0  0.4174
  C  C202  1  0.000000  0.810000  0.790000  1.0  0.12
  C  C203  1  0.000000  0.353000  0.350000  1.0  0.4174
  C  C204  1  0.000000  0.310000  0.290000  1.0  0.12
  C  C205  1  0.500000  0.853000  0.350000  1.0  0.4174
  C  C206  1  0.500000  0.810000  0.290000  1.0  0.12
  C  C207  1  0.500000  0.353000  0.850000  1.0  0.4174
  C  C208  1  0.500000  0.310000  0.790000  1.0  0.12
  C  C209  1  0.000000  0.853000  0.150000  1.0  0.4171
  C  C210  1  0.000000  0.810000  0.210000  1.0  0.1183
  C  C211  1  0.000000  0.353000  0.650000  1.0  0.4171
  C  C212  1  0.000000  0.310000  0.710000  1.0  0.1183
  C  C213  1  0.500000  0.853000  0.650000  1.0  0.4171
  C  C214  1  0.500000  0.810000  0.710000  1.0  0.1183
  C  C215  1  0.500000  0.353000  0.150000  1.0  0.4171
  C  C216  1  0.500000  0.310000  0.210000  1.0  0.1183
  O  O217  1  0.058800  0.058800  0.058800  1.0  -0.8505
  O  O218  1  0.058800  0.558800  0.558800  1.0  -0.8505
  O  O219  1  0.558800  0.058800  0.558800  1.0  -0.8505
  O  O220  1  0.558800  0.558800  0.058800  1.0  -0.8505
  O  O221  1  0.941200  0.941200  0.058800  1.0  -0.852
  O  O222  1  0.941200  0.441200  0.558800  1.0  -0.852
  O  O223  1  0.441200  0.941200  0.558800  1.0  -0.852
  O  O224  1  0.441200  0.441200  0.058800  1.0  -0.852
  O  O225  1  0.941200  0.058800  0.941200  1.0  -0.8518
  O  O226  1  0.941200  0.558800  0.441200  1.0  -0.8518
  O  O227  1  0.441200  0.058800  0.441200  1.0  -0.8518
  O  O228  1  0.441200  0.558800  0.941200  1.0  -0.8518
  O  O229  1  0.058800  0.941200  0.941200  1.0  -0.8536
  O  O230  1  0.058800  0.441200  0.441200  1.0  -0.8536
  O  O231  1  0.558800  0.941200  0.441200  1.0  -0.8536
  O  O232  1  0.558800  0.441200  0.941200  1.0  -0.8536
  O  O233  1  0.941200  0.941200  0.941200  1.0  -0.8531
  O  O234  1  0.941200  0.441200  0.441200  1.0  -0.8531
  O  O235  1  0.441200  0.941200  0.441200  1.0  -0.8531
  O  O236  1  0.441200  0.441200  0.941200  1.0  -0.8531
  O  O237  1  0.058800  0.058800  0.941200  1.0  -0.8525
  O  O238  1  0.058800  0.558800  0.441200  1.0  -0.8525
  O  O239  1  0.558800  0.058800  0.441200  1.0  -0.8525
  O  O240  1  0.558800  0.558800  0.941200  1.0  -0.8525
  O  O241  1  0.058800  0.941200  0.058800  1.0  -0.8521
  O  O242  1  0.058800  0.441200  0.558800  1.0  -0.8521
  O  O243  1  0.558800  0.941200  0.558800  1.0  -0.8521
  O  O244  1  0.558800  0.441200  0.058800  1.0  -0.8521
  O  O245  1  0.941200  0.058800  0.058800  1.0  -0.8505
  O  O246  1  0.941200  0.558800  0.558800  1.0  -0.8505
  O  O247  1  0.441200  0.058800  0.558800  1.0  -0.8505
  O  O248  1  0.441200  0.558800  0.058800  1.0  -0.8505
  O  O249  1  0.088000  0.000000  0.172000  1.0  -0.5376
  O  O250  1  0.175000  0.000000  0.085000  1.0  -0.5375
  O  O251  1  0.088000  0.500000  0.672000  1.0  -0.5376
  O  O252  1  0.175000  0.500000  0.585000  1.0  -0.5375
  O  O253  1  0.588000  0.000000  0.672000  1.0  -0.5376
  O  O254  1  0.675000  0.000000  0.585000  1.0  -0.5375
  O  O255  1  0.588000  0.500000  0.172000  1.0  -0.5376
  O  O256  1  0.675000  0.500000  0.085000  1.0  -0.5375
  O  O257  1  0.912000  0.000000  0.172000  1.0  -0.5365
  O  O258  1  0.825000  0.000000  0.085000  1.0  -0.5411
  O  O259  1  0.912000  0.500000  0.672000  1.0  -0.5365
  O  O260  1  0.825000  0.500000  0.585000  1.0  -0.5411
  O  O261  1  0.412000  0.000000  0.672000  1.0  -0.5365
  O  O262  1  0.325000  0.000000  0.585000  1.0  -0.5411
  O  O263  1  0.412000  0.500000  0.172000  1.0  -0.5365
  O  O264  1  0.325000  0.500000  0.085000  1.0  -0.5411
  O  O265  1  0.912000  0.000000  0.828000  1.0  -0.5351
  O  O266  1  0.825000  0.000000  0.915000  1.0  -0.5408
  O  O267  1  0.912000  0.500000  0.328000  1.0  -0.5351
  O  O268  1  0.825000  0.500000  0.415000  1.0  -0.5408
  O  O269  1  0.412000  0.000000  0.328000  1.0  -0.5351
  O  O270  1  0.325000  0.000000  0.415000  1.0  -0.5408
  O  O271  1  0.412000  0.500000  0.828000  1.0  -0.5351
  O  O272  1  0.325000  0.500000  0.915000  1.0  -0.5408
  O  O273  1  0.088000  0.000000  0.828000  1.0  -0.5374
  O  O274  1  0.175000  0.000000  0.915000  1.0  -0.5374
  O  O275  1  0.088000  0.500000  0.328000  1.0  -0.5374
  O  O276  1  0.175000  0.500000  0.415000  1.0  -0.5374
  O  O277  1  0.588000  0.000000  0.328000  1.0  -0.5374
  O  O278  1  0.675000  0.000000  0.415000  1.0  -0.5374
  O  O279  1  0.588000  0.500000  0.828000  1.0  -0.5374
  O  O280  1  0.675000  0.500000  0.915000  1.0  -0.5374
  O  O281  1  0.172000  0.088000  0.000000  1.0  -0.5338
  O  O282  1  0.085000  0.175000  0.000000  1.0  -0.5425
  O  O283  1  0.172000  0.588000  0.500000  1.0  -0.5338
  O  O284  1  0.085000  0.675000  0.500000  1.0  -0.5425
  O  O285  1  0.672000  0.088000  0.500000  1.0  -0.5338
  O  O286  1  0.585000  0.175000  0.500000  1.0  -0.5425
  O  O287  1  0.672000  0.588000  0.000000  1.0  -0.5338
  O  O288  1  0.585000  0.675000  0.000000  1.0  -0.5425
  O  O289  1  0.172000  0.912000  0.000000  1.0  -0.5338
  O  O290  1  0.085000  0.825000  0.000000  1.0  -0.5427
  O  O291  1  0.172000  0.412000  0.500000  1.0  -0.5338
  O  O292  1  0.085000  0.325000  0.500000  1.0  -0.5427
  O  O293  1  0.672000  0.912000  0.500000  1.0  -0.5338
  O  O294  1  0.585000  0.825000  0.500000  1.0  -0.5427
  O  O295  1  0.672000  0.412000  0.000000  1.0  -0.5338
  O  O296  1  0.585000  0.325000  0.000000  1.0  -0.5427
  O  O297  1  0.828000  0.912000  0.000000  1.0  -0.5333
  O  O298  1  0.915000  0.825000  0.000000  1.0  -0.5405
  O  O299  1  0.828000  0.412000  0.500000  1.0  -0.5333
  O  O300  1  0.915000  0.325000  0.500000  1.0  -0.5405
  O  O301  1  0.328000  0.912000  0.500000  1.0  -0.5333
  O  O302  1  0.415000  0.825000  0.500000  1.0  -0.5405
  O  O303  1  0.328000  0.412000  0.000000  1.0  -0.5333
  O  O304  1  0.415000  0.325000  0.000000  1.0  -0.5405
  O  O305  1  0.828000  0.088000  0.000000  1.0  -0.5343
  O  O306  1  0.915000  0.175000  0.000000  1.0  -0.5417
  O  O307  1  0.828000  0.588000  0.500000  1.0  -0.5343
  O  O308  1  0.915000  0.675000  0.500000  1.0  -0.5417
  O  O309  1  0.328000  0.088000  0.500000  1.0  -0.5343
  O  O310  1  0.415000  0.175000  0.500000  1.0  -0.5417
  O  O311  1  0.328000  0.588000  0.000000  1.0  -0.5343
  O  O312  1  0.415000  0.675000  0.000000  1.0  -0.5417
  O  O313  1  0.000000  0.172000  0.088000  1.0  -0.5428
  O  O314  1  0.000000  0.085000  0.175000  1.0  -0.5491
  O  O315  1  0.000000  0.672000  0.588000  1.0  -0.5428
  O  O316  1  0.000000  0.585000  0.675000  1.0  -0.5491
  O  O317  1  0.500000  0.172000  0.588000  1.0  -0.5428
  O  O318  1  0.500000  0.085000  0.675000  1.0  -0.5491
  O  O319  1  0.500000  0.672000  0.088000  1.0  -0.5428
  O  O320  1  0.500000  0.585000  0.175000  1.0  -0.5491
  O  O321  1  0.000000  0.172000  0.912000  1.0  -0.5432
  O  O322  1  0.000000  0.085000  0.825000  1.0  -0.5482
  O  O323  1  0.000000  0.672000  0.412000  1.0  -0.5432
  O  O324  1  0.000000  0.585000  0.325000  1.0  -0.5482
  O  O325  1  0.500000  0.172000  0.412000  1.0  -0.5432
  O  O326  1  0.500000  0.085000  0.325000  1.0  -0.5482
  O  O327  1  0.500000  0.672000  0.912000  1.0  -0.5432
  O  O328  1  0.500000  0.585000  0.825000  1.0  -0.5482
  O  O329  1  0.000000  0.828000  0.912000  1.0  -0.543
  O  O330  1  0.000000  0.915000  0.825000  1.0  -0.5469
  O  O331  1  0.000000  0.328000  0.412000  1.0  -0.543
  O  O332  1  0.000000  0.415000  0.325000  1.0  -0.5469
  O  O333  1  0.500000  0.828000  0.412000  1.0  -0.543
  O  O334  1  0.500000  0.915000  0.325000  1.0  -0.5469
  O  O335  1  0.500000  0.328000  0.912000  1.0  -0.543
  O  O336  1  0.500000  0.415000  0.825000  1.0  -0.5469
  O  O337  1  0.000000  0.828000  0.088000  1.0  -0.5428
  O  O338  1  0.000000  0.915000  0.175000  1.0  -0.5483
  O  O339  1  0.000000  0.328000  0.588000  1.0  -0.5428
  O  O340  1  0.000000  0.415000  0.675000  1.0  -0.5483
  O  O341  1  0.500000  0.828000  0.588000  1.0  -0.5428
  O  O342  1  0.500000  0.915000  0.675000  1.0  -0.5483
  O  O343  1  0.500000  0.328000  0.088000  1.0  -0.5428
  O  O344  1  0.500000  0.415000  0.175000  1.0  -0.5483
