# generated using pymatgen
data_FeAg2H4(C4N3)2
_symmetry_space_group_name_H-M   'P 1'
_cell_length_a   7.38520000
_cell_length_b   13.29620000
_cell_length_c   14.70350000
_cell_angle_alpha   90.00000000
_cell_angle_beta   91.44100000
_cell_angle_gamma   90.00000000
_symmetry_Int_Tables_number   1
_chemical_formula_structural   FeAg2H4(C4N3)2
_chemical_formula_sum   'Fe4 Ag8 H16 C32 N24'
_cell_volume   1443.35499291
_cell_formula_units_Z   4
loop_
 _symmetry_equiv_pos_site_id
 _symmetry_equiv_pos_as_xyz
  1  'x, y, z'
loop_
 _atom_site_type_symbol
 _atom_site_label
 _atom_site_symmetry_multiplicity
 _atom_site_fract_x
 _atom_site_fract_y
 _atom_site_fract_z
 _atom_site_occupancy
 _atom_site_charge
  Fe  Fe1  1  0.500000  0.500000  0.000000  1.0  0.4145
  Fe  Fe2  1  0.000000  0.000000  0.000000  1.0  0.4158
  Fe  Fe3  1  0.000000  0.000000  0.500000  1.0  1.0405
  Fe  Fe4  1  0.500000  0.500000  0.500000  1.0  1.0407
  Ag  Ag5  1  0.730040  0.245000  0.749680  1.0  0.1874
  Ag  Ag6  1  0.971770  0.443270  0.771090  1.0  0.1974
  Ag  Ag7  1  0.769960  0.745000  0.250320  1.0  0.1888
  Ag  Ag8  1  0.528230  0.943270  0.228900  1.0  0.1977
  Ag  Ag9  1  0.269960  0.755000  0.250320  1.0  0.1887
  Ag  Ag10  1  0.028230  0.556730  0.228900  1.0  0.1973
  Ag  Ag11  1  0.230040  0.255000  0.749680  1.0  0.1872
  Ag  Ag12  1  0.471770  0.056730  0.771090  1.0  0.1967
  H  H13  1  0.435000  0.269000  0.019000  1.0  0.0903
  H  H14  1  0.447000  0.143000  0.122000  1.0  0.1325
  H  H15  1  0.523000  0.185000  0.274000  1.0  0.0719
  H  H16  1  0.539000  0.463000  0.206700  1.0  0.0533
  H  H17  1  0.065000  0.769000  0.981000  1.0  0.0899
  H  H18  1  0.053000  0.643000  0.878000  1.0  0.1327
  H  H19  1  0.977000  0.685000  0.726000  1.0  0.0727
  H  H20  1  0.961000  0.963000  0.793300  1.0  0.0533
  H  H21  1  0.565000  0.731000  0.981000  1.0  0.0901
  H  H22  1  0.553000  0.857000  0.878000  1.0  0.1321
  H  H23  1  0.477000  0.815000  0.726000  1.0  0.0725
  H  H24  1  0.461000  0.537000  0.793300  1.0  0.0549
  H  H25  1  0.935000  0.231000  0.019000  1.0  0.0903
  H  H26  1  0.947000  0.357000  0.122000  1.0  0.1324
  H  H27  1  0.023000  0.315000  0.274000  1.0  0.0715
  H  H28  1  0.039000  0.037000  0.206700  1.0  0.055
  C  C29  1  0.661200  0.339060  0.854830  1.0  -0.0548
  C  C30  1  0.140200  0.442640  0.885030  1.0  -0.0574
  C  C31  1  0.459400  0.283780  0.079430  1.0  0.1966
  C  C32  1  0.470700  0.206600  0.141480  1.0  -0.2362
  C  C33  1  0.507600  0.231300  0.230670  1.0  0.2438
  C  C34  1  0.519000  0.396160  0.192790  1.0  0.3617
  C  C35  1  0.805500  0.152140  0.645010  1.0  0.0324
  C  C36  1  0.813600  0.479080  0.658260  1.0  0.0334
  C  C37  1  0.838800  0.839060  0.145170  1.0  -0.0541
  C  C38  1  0.359800  0.942640  0.114970  1.0  -0.0579
  C  C39  1  0.040600  0.783780  0.920570  1.0  0.1996
  C  C40  1  0.029300  0.706600  0.858520  1.0  -0.2325
  C  C41  1  0.992400  0.731300  0.769330  1.0  0.2441
  C  C42  1  0.981000  0.896160  0.807210  1.0  0.3612
  C  C43  1  0.694500  0.652140  0.354990  1.0  0.0332
  C  C44  1  0.686400  0.979080  0.341740  1.0  0.035
  C  C45  1  0.338800  0.660940  0.145170  1.0  -0.0558
  C  C46  1  0.859800  0.557360  0.114970  1.0  -0.0581
  C  C47  1  0.540600  0.716220  0.920570  1.0  0.1998
  C  C48  1  0.529300  0.793400  0.858520  1.0  -0.2339
  C  C49  1  0.492400  0.768700  0.769330  1.0  0.2437
  C  C50  1  0.481000  0.603840  0.807210  1.0  0.3612
  C  C51  1  0.194500  0.847860  0.354990  1.0  0.0337
  C  C52  1  0.186400  0.520920  0.341740  1.0  0.0351
  C  C53  1  0.161200  0.160940  0.854830  1.0  -0.0554
  C  C54  1  0.640200  0.057360  0.885030  1.0  -0.0575
  C  C55  1  0.959400  0.216220  0.079430  1.0  0.1962
  C  C56  1  0.970700  0.293400  0.141480  1.0  -0.2373
  C  C57  1  0.007600  0.268700  0.230670  1.0  0.2438
  C  C58  1  0.019000  0.103840  0.192790  1.0  0.3622
  C  C59  1  0.305500  0.347860  0.645010  1.0  0.0335
  C  C60  1  0.313600  0.020920  0.658260  1.0  0.0334
  N  N61  1  0.620800  0.394260  0.910260  1.0  -0.2274
  N  N62  1  0.246000  0.453320  0.942150  1.0  -0.2546
  N  N63  1  0.485500  0.379460  0.104400  1.0  -0.2832
  N  N64  1  0.532000  0.326430  0.257520  1.0  -0.431
  N  N65  1  0.852800  0.099120  0.589980  1.0  -0.4046
  N  N66  1  0.715700  0.498300  0.599790  1.0  -0.3911
  N  N67  1  0.879200  0.894260  0.089740  1.0  -0.2265
  N  N68  1  0.254000  0.953320  0.057850  1.0  -0.2486
  N  N69  1  0.014500  0.879460  0.895600  1.0  -0.2818
  N  N70  1  0.968000  0.826430  0.742480  1.0  -0.4271
  N  N71  1  0.647200  0.599120  0.410020  1.0  -0.4048
  N  N72  1  0.784300  0.998300  0.400210  1.0  -0.3915
  N  N73  1  0.379200  0.605740  0.089740  1.0  -0.2267
  N  N74  1  0.754000  0.546680  0.057850  1.0  -0.2489
  N  N75  1  0.514500  0.620540  0.895600  1.0  -0.2812
  N  N76  1  0.468000  0.673570  0.742480  1.0  -0.4262
  N  N77  1  0.147200  0.900880  0.410020  1.0  -0.4038
  N  N78  1  0.284300  0.501700  0.400210  1.0  -0.3904
  N  N79  1  0.120800  0.105740  0.910260  1.0  -0.2281
  N  N80  1  0.746000  0.046680  0.942150  1.0  -0.2545
  N  N81  1  0.985500  0.120540  0.104400  1.0  -0.2833
  N  N82  1  0.032000  0.173570  0.257520  1.0  -0.4305
  N  N83  1  0.352800  0.400880  0.589980  1.0  -0.4042
  N  N84  1  0.215700  0.001700  0.599790  1.0  -0.391
