# generated using pymatgen
data_FeAg2H4(C4N3)2
_symmetry_space_group_name_H-M   'P 1'
_cell_length_a   7.49300000
_cell_length_b   13.05280000
_cell_length_c   14.25840000
_cell_angle_alpha   90.00000000
_cell_angle_beta   92.05500000
_cell_angle_gamma   90.00000000
_symmetry_Int_Tables_number   1
_chemical_formula_structural   FeAg2H4(C4N3)2
_chemical_formula_sum   'Fe4 Ag8 H16 C32 N24'
_cell_volume   1393.64066683
_cell_formula_units_Z   4
loop_
 _symmetry_equiv_pos_site_id
 _symmetry_equiv_pos_as_xyz
  1  'x, y, z'
loop_
 _atom_site_type_symbol
 _atom_site_label
 _atom_site_symmetry_multiplicity
 _atom_site_fract_x
 _atom_site_fract_y
 _atom_site_fract_z
 _atom_site_occupancy
 _atom_site_charge
  Fe  Fe1  1  0.500000  0.500000  0.000000  1.0  0.3082
  Fe  Fe2  1  0.000000  0.000000  0.000000  1.0  0.3082
  Fe  Fe3  1  0.000000  0.000000  0.500000  1.0  0.8942
  Fe  Fe4  1  0.500000  0.500000  0.500000  1.0  0.8942
  Ag  Ag5  1  0.729490  0.244620  0.759320  1.0  0.2037
  Ag  Ag6  1  0.963950  0.444830  0.783240  1.0  0.2186
  Ag  Ag7  1  0.770510  0.744620  0.240680  1.0  0.2033
  Ag  Ag8  1  0.536050  0.944830  0.216760  1.0  0.2175
  Ag  Ag9  1  0.270510  0.755380  0.240680  1.0  0.2034
  Ag  Ag10  1  0.036050  0.555170  0.216760  1.0  0.2181
  Ag  Ag11  1  0.229490  0.255380  0.759320  1.0  0.2037
  Ag  Ag12  1  0.463950  0.055170  0.783240  1.0  0.2188
  H  H13  1  0.387000  0.288000  0.005000  1.0  0.0888
  H  H14  1  0.382000  0.153000  0.113000  1.0  0.1444
  H  H15  1  0.478000  0.196000  0.265000  1.0  0.0497
  H  H16  1  0.541000  0.479000  0.209000  1.0  0.0853
  H  H17  1  0.113000  0.788000  0.995000  1.0  0.088
  H  H18  1  0.118000  0.653000  0.887000  1.0  0.1448
  H  H19  1  0.022000  0.696000  0.735000  1.0  0.049
  H  H20  1  0.959000  0.979000  0.791000  1.0  0.0848
  H  H21  1  0.613000  0.712000  0.995000  1.0  0.0877
  H  H22  1  0.618000  0.847000  0.887000  1.0  0.1452
  H  H23  1  0.522000  0.804000  0.735000  1.0  0.0501
  H  H24  1  0.459000  0.521000  0.791000  1.0  0.0853
  H  H25  1  0.887000  0.212000  0.005000  1.0  0.0886
  H  H26  1  0.882000  0.347000  0.113000  1.0  0.145
  H  H27  1  0.978000  0.304000  0.265000  1.0  0.0494
  H  H28  1  0.041000  0.021000  0.209000  1.0  0.0862
  C  C29  1  0.658300  0.342700  0.865100  1.0  -0.1076
  C  C30  1  0.148600  0.446700  0.893800  1.0  -0.1079
  C  C31  1  0.423900  0.294200  0.069500  1.0  0.1542
  C  C32  1  0.421500  0.214800  0.133200  1.0  -0.2464
  C  C33  1  0.470800  0.236900  0.225300  1.0  0.2921
  C  C34  1  0.514600  0.404100  0.187370  1.0  0.2843
  C  C35  1  0.804900  0.150800  0.651500  1.0  0.0184
  C  C36  1  0.808100  0.480200  0.665400  1.0  0.0227
  C  C37  1  0.841700  0.842700  0.134900  1.0  -0.1062
  C  C38  1  0.351400  0.946700  0.106200  1.0  -0.1093
  C  C39  1  0.076100  0.794200  0.930500  1.0  0.1504
  C  C40  1  0.078500  0.714800  0.866800  1.0  -0.246
  C  C41  1  0.029200  0.736900  0.774700  1.0  0.2911
  C  C42  1  0.985400  0.904100  0.812630  1.0  0.2852
  C  C43  1  0.695100  0.650800  0.348500  1.0  0.0185
  C  C44  1  0.691900  0.980200  0.334600  1.0  0.0214
  C  C45  1  0.341700  0.657300  0.134900  1.0  -0.1086
  C  C46  1  0.851400  0.553300  0.106200  1.0  -0.1098
  C  C47  1  0.576100  0.705800  0.930500  1.0  0.1505
  C  C48  1  0.578500  0.785200  0.866800  1.0  -0.2474
  C  C49  1  0.529200  0.763100  0.774700  1.0  0.2899
  C  C50  1  0.485400  0.595900  0.812630  1.0  0.2868
  C  C51  1  0.195100  0.849200  0.348500  1.0  0.0197
  C  C52  1  0.191900  0.519800  0.334600  1.0  0.0214
  C  C53  1  0.158300  0.157300  0.865100  1.0  -0.1085
  C  C54  1  0.648600  0.053300  0.893800  1.0  -0.1086
  C  C55  1  0.923900  0.205800  0.069500  1.0  0.1542
  C  C56  1  0.921500  0.285200  0.133200  1.0  -0.2473
  C  C57  1  0.970800  0.263100  0.225300  1.0  0.2918
  C  C58  1  0.014600  0.095900  0.187370  1.0  0.287
  C  C59  1  0.304900  0.349200  0.651500  1.0  0.0196
  C  C60  1  0.308100  0.019800  0.665400  1.0  0.0223
  N  N61  1  0.609000  0.401860  0.918390  1.0  -0.166
  N  N62  1  0.272200  0.464040  0.941690  1.0  -0.1841
  N  N63  1  0.473200  0.389760  0.095190  1.0  -0.2168
  N  N64  1  0.516200  0.331400  0.252830  1.0  -0.4291
  N  N65  1  0.853600  0.097800  0.593960  1.0  -0.3545
  N  N66  1  0.712800  0.499440  0.603800  1.0  -0.3476
  N  N67  1  0.891000  0.901860  0.081610  1.0  -0.1651
  N  N68  1  0.227800  0.964040  0.058310  1.0  -0.1834
  N  N69  1  0.026800  0.889760  0.904810  1.0  -0.2168
  N  N70  1  0.983800  0.831400  0.747170  1.0  -0.4313
  N  N71  1  0.646400  0.597800  0.406040  1.0  -0.3537
  N  N72  1  0.787200  0.999440  0.396200  1.0  -0.348
  N  N73  1  0.391000  0.598140  0.081610  1.0  -0.1649
  N  N74  1  0.727800  0.535960  0.058310  1.0  -0.1835
  N  N75  1  0.526800  0.610240  0.904810  1.0  -0.2169
  N  N76  1  0.483800  0.668600  0.747170  1.0  -0.4313
  N  N77  1  0.146400  0.902200  0.406040  1.0  -0.3528
  N  N78  1  0.287200  0.500560  0.396200  1.0  -0.3478
  N  N79  1  0.109000  0.098140  0.918390  1.0  -0.1653
  N  N80  1  0.772200  0.035960  0.941690  1.0  -0.1845
  N  N81  1  0.973200  0.110240  0.095190  1.0  -0.217
  N  N82  1  0.016200  0.168600  0.252830  1.0  -0.429
  N  N83  1  0.353600  0.402200  0.593960  1.0  -0.3548
  N  N84  1  0.212800  0.000560  0.603800  1.0  -0.3478
