# generated using pymatgen
data_FeH4Au2(C4N3)2
_symmetry_space_group_name_H-M   'P 1'
_cell_length_a   7.43060000
_cell_length_b   13.17700000
_cell_length_c   14.01940000
_cell_angle_alpha   90.00000000
_cell_angle_beta   91.37800000
_cell_angle_gamma   90.00000000
_symmetry_Int_Tables_number   1
_chemical_formula_structural   FeH4Au2(C4N3)2
_chemical_formula_sum   'Fe4 H16 Au8 C32 N24'
_cell_volume   1372.28475614
_cell_formula_units_Z   4
loop_
 _symmetry_equiv_pos_site_id
 _symmetry_equiv_pos_as_xyz
  1  'x, y, z'
loop_
 _atom_site_type_symbol
 _atom_site_label
 _atom_site_symmetry_multiplicity
 _atom_site_fract_x
 _atom_site_fract_y
 _atom_site_fract_z
 _atom_site_occupancy
 _atom_site_charge
  Fe  Fe1  1  0.500000  0.500000  0.000000  1.0  0.3981
  Fe  Fe2  1  0.000000  0.000000  0.000000  1.0  0.3981
  Fe  Fe3  1  0.000000  0.000000  0.500000  1.0  1.0498
  Fe  Fe4  1  0.500000  0.500000  0.500000  1.0  1.0498
  H  H5  1  0.375000  0.284000  0.011000  1.0  0.0758
  H  H6  1  0.372000  0.154000  0.115000  1.0  0.13
  H  H7  1  0.457000  0.190000  0.263000  1.0  0.0528
  H  H8  1  0.526000  0.459000  0.204000  1.0  0.0496
  H  H9  1  0.125000  0.784000  0.989000  1.0  0.0752
  H  H10  1  0.128000  0.654000  0.885000  1.0  0.1292
  H  H11  1  0.043000  0.690000  0.737000  1.0  0.0513
  H  H12  1  0.974000  0.959000  0.796000  1.0  0.0412
  H  H13  1  0.625000  0.716000  0.989000  1.0  0.0751
  H  H14  1  0.628000  0.846000  0.885000  1.0  0.129
  H  H15  1  0.543000  0.810000  0.737000  1.0  0.0539
  H  H16  1  0.474000  0.541000  0.796000  1.0  0.0348
  H  H17  1  0.875000  0.216000  0.011000  1.0  0.0755
  H  H18  1  0.872000  0.346000  0.115000  1.0  0.13
  H  H19  1  0.957000  0.310000  0.263000  1.0  0.0523
  H  H20  1  0.026000  0.041000  0.204000  1.0  0.0385
  Au  Au21  1  0.731540  0.247350  0.759330  1.0  0.0288
  Au  Au22  1  0.977120  0.460330  0.776430  1.0  0.0376
  Au  Au23  1  0.768460  0.747350  0.240670  1.0  0.0281
  Au  Au24  1  0.522880  0.960330  0.223570  1.0  0.0378
  Au  Au25  1  0.268460  0.752650  0.240670  1.0  0.028
  Au  Au26  1  0.022880  0.539670  0.223570  1.0  0.0381
  Au  Au27  1  0.231540  0.252650  0.759330  1.0  0.0288
  Au  Au28  1  0.477120  0.039670  0.776430  1.0  0.0377
  C  C29  1  0.653200  0.340300  0.861400  1.0  0.0352
  C  C30  1  0.150500  0.459200  0.885500  1.0  0.0159
  C  C31  1  0.400400  0.299600  0.068900  1.0  0.1992
  C  C32  1  0.393200  0.219800  0.133200  1.0  -0.2365
  C  C33  1  0.444300  0.239400  0.225400  1.0  0.2617
  C  C34  1  0.499000  0.404500  0.187800  1.0  0.4117
  C  C35  1  0.810800  0.155500  0.654800  1.0  0.1326
  C  C36  1  0.816900  0.483100  0.663900  1.0  0.1402
  C  C37  1  0.846800  0.840300  0.138600  1.0  0.0362
  C  C38  1  0.349500  0.959200  0.114500  1.0  0.0162
  C  C39  1  0.099600  0.799600  0.931100  1.0  0.2011
  C  C40  1  0.106800  0.719800  0.866800  1.0  -0.2353
  C  C41  1  0.055700  0.739400  0.774600  1.0  0.2625
  C  C42  1  0.001000  0.904500  0.812200  1.0  0.4134
  C  C43  1  0.689200  0.655500  0.345200  1.0  0.1317
  C  C44  1  0.683100  0.983100  0.336100  1.0  0.1387
  C  C45  1  0.346800  0.659700  0.138600  1.0  0.0322
  C  C46  1  0.849500  0.540800  0.114500  1.0  0.0165
  C  C47  1  0.599600  0.700400  0.931100  1.0  0.2011
  C  C48  1  0.606800  0.780200  0.866800  1.0  -0.237
  C  C49  1  0.555700  0.760600  0.774600  1.0  0.2593
  C  C50  1  0.501000  0.595500  0.812200  1.0  0.4133
  C  C51  1  0.189200  0.844500  0.345200  1.0  0.133
  C  C52  1  0.183100  0.516900  0.336100  1.0  0.1388
  C  C53  1  0.153200  0.159700  0.861400  1.0  0.0324
  C  C54  1  0.650500  0.040800  0.885500  1.0  0.0149
  C  C55  1  0.900400  0.200400  0.068900  1.0  0.199
  C  C56  1  0.893200  0.280200  0.133200  1.0  -0.2373
  C  C57  1  0.944300  0.260600  0.225400  1.0  0.2592
  C  C58  1  0.999000  0.095500  0.187800  1.0  0.4108
  C  C59  1  0.310800  0.344500  0.654800  1.0  0.134
  C  C60  1  0.316900  0.016900  0.663900  1.0  0.1402
  N  N61  1  0.605100  0.398500  0.917000  1.0  -0.2382
  N  N62  1  0.270600  0.471300  0.938300  1.0  -0.2414
  N  N63  1  0.458200  0.392600  0.096400  1.0  -0.2708
  N  N64  1  0.497500  0.332500  0.254300  1.0  -0.4512
  N  N65  1  0.857100  0.100800  0.597400  1.0  -0.427
  N  N66  1  0.717800  0.500200  0.602000  1.0  -0.4229
  N  N67  1  0.894900  0.898500  0.083000  1.0  -0.2371
  N  N68  1  0.229400  0.971300  0.061700  1.0  -0.2413
  N  N69  1  0.041800  0.892600  0.903600  1.0  -0.2721
  N  N70  1  0.002500  0.832500  0.745700  1.0  -0.4423
  N  N71  1  0.642900  0.600800  0.402600  1.0  -0.4257
  N  N72  1  0.782200  0.000200  0.398000  1.0  -0.4231
  N  N73  1  0.394900  0.601500  0.083000  1.0  -0.2367
  N  N74  1  0.729400  0.528700  0.061700  1.0  -0.241
  N  N75  1  0.541800  0.607400  0.903600  1.0  -0.2719
  N  N76  1  0.502500  0.667500  0.745700  1.0  -0.4424
  N  N77  1  0.142900  0.899200  0.402600  1.0  -0.4284
  N  N78  1  0.282200  0.499800  0.398000  1.0  -0.4227
  N  N79  1  0.105100  0.101500  0.917000  1.0  -0.2374
  N  N80  1  0.770600  0.028700  0.938300  1.0  -0.2413
  N  N81  1  0.958200  0.107400  0.096400  1.0  -0.2706
  N  N82  1  0.997500  0.167500  0.254300  1.0  -0.4511
  N  N83  1  0.357100  0.399200  0.597400  1.0  -0.4302
  N  N84  1  0.217800  0.999800  0.602000  1.0  -0.4229
