# generated using pymatgen
data_FeH4Au2(C4N3)2
_symmetry_space_group_name_H-M   'P 1'
_cell_length_a   7.22720000
_cell_length_b   13.30750000
_cell_length_c   14.61570000
_cell_angle_alpha   90.00000000
_cell_angle_beta   90.94400000
_cell_angle_gamma   90.00000000
_symmetry_Int_Tables_number   1
_chemical_formula_structural   FeH4Au2(C4N3)2
_chemical_formula_sum   'Fe4 H16 Au8 C32 N24'
_cell_volume   1405.48825166
_cell_formula_units_Z   4
loop_
 _symmetry_equiv_pos_site_id
 _symmetry_equiv_pos_as_xyz
  1  'x, y, z'
loop_
 _atom_site_type_symbol
 _atom_site_label
 _atom_site_symmetry_multiplicity
 _atom_site_fract_x
 _atom_site_fract_y
 _atom_site_fract_z
 _atom_site_occupancy
 _atom_site_charge
  Fe  Fe1  1  0.500000  0.500000  0.000000  1.0  0.8421
  Fe  Fe2  1  0.000000  0.000000  0.000000  1.0  0.8421
  Fe  Fe3  1  0.000000  0.000000  0.500000  1.0  1.0322
  Fe  Fe4  1  0.500000  0.500000  0.500000  1.0  1.0322
  H  H5  1  0.397000  0.289000  0.019000  1.0  0.0786
  H  H6  1  0.405000  0.148000  0.128000  1.0  0.1312
  H  H7  1  0.498000  0.184000  0.275000  1.0  0.0815
  H  H8  1  0.524000  0.465000  0.202000  1.0  0.0443
  H  H9  1  0.103000  0.789000  0.981000  1.0  0.0787
  H  H10  1  0.095000  0.648000  0.872000  1.0  0.1307
  H  H11  1  0.002000  0.684000  0.725000  1.0  0.0811
  H  H12  1  0.976000  0.965000  0.798000  1.0  0.0438
  H  H13  1  0.603000  0.711000  0.981000  1.0  0.0787
  H  H14  1  0.595000  0.852000  0.872000  1.0  0.1306
  H  H15  1  0.502000  0.816000  0.725000  1.0  0.0808
  H  H16  1  0.476000  0.535000  0.798000  1.0  0.0406
  H  H17  1  0.897000  0.211000  0.019000  1.0  0.0783
  H  H18  1  0.905000  0.352000  0.128000  1.0  0.1313
  H  H19  1  0.998000  0.316000  0.275000  1.0  0.081
  H  H20  1  0.024000  0.035000  0.202000  1.0  0.0408
  Au  Au21  1  0.731770  0.245110  0.750960  1.0  0.0305
  Au  Au22  1  0.977680  0.455690  0.768250  1.0  0.031
  Au  Au23  1  0.768230  0.745110  0.249040  1.0  0.0303
  Au  Au24  1  0.522320  0.955690  0.231750  1.0  0.0342
  Au  Au25  1  0.268230  0.754890  0.249040  1.0  0.0303
  Au  Au26  1  0.022320  0.544310  0.231750  1.0  0.0337
  Au  Au27  1  0.231770  0.254890  0.750960  1.0  0.0306
  Au  Au28  1  0.477680  0.044310  0.768250  1.0  0.0302
  C  C29  1  0.658400  0.333100  0.854200  1.0  0.1016
  C  C30  1  0.135700  0.451700  0.881100  1.0  0.0985
  C  C31  1  0.429900  0.289800  0.081500  1.0  0.1671
  C  C32  1  0.436000  0.212300  0.144300  1.0  -0.2389
  C  C33  1  0.481500  0.236000  0.233000  1.0  0.2404
  C  C34  1  0.505400  0.400300  0.194500  1.0  0.4017
  C  C35  1  0.807300  0.157300  0.647500  1.0  0.1382
  C  C36  1  0.821500  0.480200  0.659200  1.0  0.137
  C  C37  1  0.841600  0.833100  0.145800  1.0  0.0986
  C  C38  1  0.364300  0.951700  0.118900  1.0  0.0986
  C  C39  1  0.070100  0.789800  0.918500  1.0  0.183
  C  C40  1  0.064000  0.712300  0.855700  1.0  -0.2387
  C  C41  1  0.018500  0.736000  0.767000  1.0  0.2418
  C  C42  1  0.994600  0.900300  0.805500  1.0  0.401
  C  C43  1  0.692700  0.657300  0.352500  1.0  0.1382
  C  C44  1  0.678500  0.980200  0.340800  1.0  0.1371
  C  C45  1  0.341600  0.666900  0.145800  1.0  0.0983
  C  C46  1  0.864300  0.548300  0.118900  1.0  0.0987
  C  C47  1  0.570100  0.710200  0.918500  1.0  0.1822
  C  C48  1  0.564000  0.787700  0.855700  1.0  -0.2404
  C  C49  1  0.518500  0.764000  0.767000  1.0  0.2397
  C  C50  1  0.494600  0.599700  0.805500  1.0  0.4004
  C  C51  1  0.192700  0.842700  0.352500  1.0  0.1384
  C  C52  1  0.178500  0.519800  0.340800  1.0  0.1371
  C  C53  1  0.158400  0.166900  0.854200  1.0  0.1016
  C  C54  1  0.635700  0.048300  0.881100  1.0  0.0986
  C  C55  1  0.929900  0.210200  0.081500  1.0  0.1662
  C  C56  1  0.936000  0.287700  0.144300  1.0  -0.2406
  C  C57  1  0.981500  0.264000  0.233000  1.0  0.2396
  C  C58  1  0.005400  0.099700  0.194500  1.0  0.4021
  C  C59  1  0.307300  0.342700  0.647500  1.0  0.1386
  C  C60  1  0.321500  0.019800  0.659200  1.0  0.1364
  N  N61  1  0.615700  0.386100  0.912100  1.0  -0.3561
  N  N62  1  0.236300  0.458600  0.941200  1.0  -0.3791
  N  N63  1  0.466900  0.385000  0.106600  1.0  -0.3797
  N  N64  1  0.515000  0.330400  0.259300  1.0  -0.4353
  N  N65  1  0.854100  0.105100  0.591100  1.0  -0.4088
  N  N66  1  0.722900  0.497400  0.597800  1.0  -0.4236
  N  N67  1  0.884300  0.886100  0.087900  1.0  -0.3548
  N  N68  1  0.263700  0.958600  0.058800  1.0  -0.3798
  N  N69  1  0.033100  0.885000  0.893400  1.0  -0.3816
  N  N70  1  0.985000  0.830400  0.740700  1.0  -0.4318
  N  N71  1  0.645900  0.605100  0.408900  1.0  -0.409
  N  N72  1  0.777100  0.997400  0.402200  1.0  -0.4239
  N  N73  1  0.384300  0.613900  0.087900  1.0  -0.3555
  N  N74  1  0.763700  0.541400  0.058800  1.0  -0.3795
  N  N75  1  0.533100  0.615000  0.893400  1.0  -0.3801
  N  N76  1  0.485000  0.669600  0.740700  1.0  -0.4323
  N  N77  1  0.145900  0.894900  0.408900  1.0  -0.4119
  N  N78  1  0.277100  0.502600  0.402200  1.0  -0.4236
  N  N79  1  0.115700  0.113900  0.912100  1.0  -0.3573
  N  N80  1  0.736300  0.041400  0.941200  1.0  -0.3791
  N  N81  1  0.966900  0.115000  0.106600  1.0  -0.379
  N  N82  1  0.015000  0.169600  0.259300  1.0  -0.4355
  N  N83  1  0.354100  0.394900  0.591100  1.0  -0.4122
  N  N84  1  0.222900  0.002600  0.597800  1.0  -0.4238
