# generated using pymatgen
data_MnH6(C8O3)2
_symmetry_space_group_name_H-M   'P 1'
_cell_length_a   14.69100000
_cell_length_b   14.81800000
_cell_length_c   17.71300000
_cell_angle_alpha   98.13000000
_cell_angle_beta   93.10000000
_cell_angle_gamma   115.29000000
_symmetry_Int_Tables_number   1
_chemical_formula_structural   MnH6(C8O3)2
_chemical_formula_sum   'Mn7 H42 C112 O42'
_cell_volume   3423.00630989
_cell_formula_units_Z   7
loop_
 _symmetry_equiv_pos_site_id
 _symmetry_equiv_pos_as_xyz
  1  'x, y, z'
loop_
 _atom_site_type_symbol
 _atom_site_label
 _atom_site_symmetry_multiplicity
 _atom_site_fract_x
 _atom_site_fract_y
 _atom_site_fract_z
 _atom_site_occupancy
 _atom_site_charge
  Mn  Mn1  1  0.969820  0.008570  0.217540  1.0  1.1487
  Mn  Mn2  1  0.755570  0.761530  0.257700  1.0  1.1468
  Mn  Mn3  1  0.513900  0.540400  0.283400  1.0  1.1434
  Mn  Mn4  1  0.030180  0.991430  0.782460  1.0  1.145
  Mn  Mn5  1  0.244430  0.238470  0.742300  1.0  1.1458
  Mn  Mn6  1  0.486100  0.459600  0.716600  1.0  1.1415
  Mn  Mn7  1  0.000000  0.000000  0.000000  1.0  1.1506
  H  H8  1  0.145500  0.716400  0.991700  1.0  0.117
  H  H9  1  0.007600  0.311000  0.173800  1.0  0.1413
  H  H10  1  0.057500  0.811500  0.028900  1.0  0.147
  H  H11  1  0.716000  0.846300  0.535300  1.0  0.1284
  H  H12  1  0.561800  0.229500  0.559300  1.0  0.1434
  H  H13  1  0.754300  0.405600  0.532100  1.0  0.1091
  H  H14  1  0.258500  0.449100  0.007400  1.0  0.1979
  H  H15  1  0.446100  0.951400  0.817400  1.0  0.1508
  H  H16  1  0.217100  0.282100  0.044800  1.0  0.1329
  H  H17  1  0.823900  0.866800  0.445500  1.0  0.1254
  H  H18  1  0.497100  0.954900  0.690300  1.0  0.1378
  H  H19  1  0.919800  0.612400  0.174800  1.0  0.1508
  H  H20  1  0.788200  0.122400  0.403500  1.0  0.1399
  H  H21  1  0.632000  0.669500  0.037200  1.0  0.1281
  H  H22  1  0.646700  0.795800  0.952600  1.0  0.1341
  H  H23  1  0.246600  0.906800  0.020900  1.0  0.1265
  H  H24  1  0.316800  0.000600  0.819700  1.0  0.1165
  H  H25  1  0.934200  0.634600  0.381100  1.0  0.136
  H  H26  1  0.426100  0.070500  0.724100  1.0  0.1323
  H  H27  1  0.421600  0.726700  0.133000  1.0  0.1277
  H  H28  1  0.663200  0.471100  0.456500  1.0  0.1429
  H  H29  1  0.854500  0.283600  0.008300  1.0  0.1166
  H  H30  1  0.992400  0.689000  0.826200  1.0  0.1401
  H  H31  1  0.942500  0.188500  0.971100  1.0  0.1466
  H  H32  1  0.284000  0.153700  0.464700  1.0  0.1283
  H  H33  1  0.438200  0.770500  0.440700  1.0  0.1425
  H  H34  1  0.245700  0.594400  0.467900  1.0  0.1087
  H  H35  1  0.741500  0.550900  0.992600  1.0  0.1974
  H  H36  1  0.553900  0.048600  0.182600  1.0  0.1514
  H  H37  1  0.782900  0.717900  0.955200  1.0  0.133
  H  H38  1  0.176100  0.133200  0.554500  1.0  0.1248
  H  H39  1  0.502900  0.045100  0.309700  1.0  0.1388
  H  H40  1  0.080200  0.387600  0.825200  1.0  0.1505
  H  H41  1  0.211800  0.877600  0.596500  1.0  0.1411
  H  H42  1  0.368000  0.330500  0.962800  1.0  0.1287
  H  H43  1  0.353300  0.204200  0.047400  1.0  0.1331
  H  H44  1  0.753400  0.093200  0.979100  1.0  0.1264
  H  H45  1  0.683200  0.999400  0.180300  1.0  0.1172
  H  H46  1  0.065800  0.365400  0.618900  1.0  0.1359
  H  H47  1  0.573900  0.929500  0.275900  1.0  0.1316
  H  H48  1  0.578400  0.273300  0.867000  1.0  0.1275
  H  H49  1  0.336800  0.528900  0.543500  1.0  0.1448
  C  C50  1  0.076100  0.434300  0.120400  1.0  0.0681
  C  C51  1  0.030100  0.582100  0.113800  1.0  -0.0579
  C  C52  1  0.093500  0.612900  0.061500  1.0  -0.0816
  C  C53  1  0.506600  0.857300  0.919400  1.0  0.3193
  C  C54  1  0.691900  0.973300  0.528900  1.0  -0.0907
  C  C55  1  0.102300  0.697500  0.030400  1.0  -0.0483
  C  C56  1  0.057200  0.339200  0.140800  1.0  0.0005
  C  C57  1  0.459100  0.792100  0.039900  1.0  -0.1001
  C  C58  1  0.369200  0.892200  0.984900  1.0  -0.0973
  C  C59  1  0.992300  0.730200  0.111500  1.0  -0.133
  C  C60  1  0.660000  0.126000  0.504300  1.0  0.2984
  C  C61  1  0.595500  0.111200  0.567800  1.0  -0.0848
  C  C62  1  0.051500  0.756100  0.052900  1.0  -0.1295
  C  C63  1  0.488500  0.159300  0.646800  1.0  -0.1185
  C  C64  1  0.732500  0.901600  0.508800  1.0  -0.0143
  C  C65  1  0.709800  0.050900  0.486800  1.0  -0.0595
  C  C66  1  0.551000  0.175500  0.586300  1.0  -0.0335
  C  C67  1  0.788900  0.448400  0.497600  1.0  -0.0346
  C  C68  1  0.022100  0.492900  0.154400  1.0  0.2981
  C  C69  1  0.622900  0.954800  0.591500  1.0  0.2563
  C  C70  1  0.084800  0.181200  0.133100  1.0  0.6903
  C  C71  1  0.422600  0.891800  0.919200  1.0  -0.0519
  C  C72  1  0.207800  0.420000  0.039500  1.0  -0.0555
  C  C73  1  0.405600  0.940700  0.858300  1.0  -0.0417
  C  C74  1  0.143400  0.469600  0.071700  1.0  -0.1378
  C  C75  1  0.572700  0.025600  0.608900  1.0  -0.0969
  C  C76  1  0.810300  0.990600  0.405700  1.0  -0.0946
  C  C77  1  0.111500  0.287400  0.112300  1.0  -0.0451
  C  C78  1  0.433000  0.229800  0.666800  1.0  0.6864
  C  C79  1  0.183400  0.321600  0.063200  1.0  -0.0414
  C  C80  1  0.947300  0.544100  0.454900  1.0  0.0217
  C  C81  1  0.792300  0.910900  0.454000  1.0  -0.0701
  C  C82  1  0.511500  0.010700  0.664600  1.0  -0.029
  C  C83  1  0.052200  0.572700  0.452800  1.0  0.179
  C  C84  1  0.545700  0.637600  0.152900  1.0  0.7046
  C  C85  1  0.969400  0.636700  0.140900  1.0  0.0141
  C  C86  1  0.517000  0.808100  0.979400  1.0  0.0468
  C  C87  1  0.795300  0.563700  0.416800  1.0  -0.0861
  C  C88  1  0.871600  0.004300  0.340400  1.0  0.6128
  C  C89  1  0.771600  0.065500  0.428100  1.0  -0.0143
  C  C90  1  0.538900  0.700400  0.097300  1.0  0.0416
  C  C91  1  0.593100  0.706800  0.042300  1.0  -0.0756
  C  C92  1  0.738300  0.610300  0.364000  1.0  0.7178
  C  C93  1  0.380400  0.837000  0.049900  1.0  0.2873
  C  C94  1  0.594300  0.775400  0.984600  1.0  -0.0166
  C  C95  1  0.160500  0.563600  0.033900  1.0  0.2673
  C  C96  1  0.884900  0.464200  0.491100  1.0  -0.0625
  C  C97  1  0.289500  0.918500  0.981400  1.0  -0.0675
  C  C98  1  0.329900  0.971400  0.860900  1.0  -0.0071
  C  C99  1  0.897500  0.588000  0.412700  1.0  -0.0512
  C  C100  1  0.468600  0.079900  0.684500  1.0  -0.0102
  C  C101  1  0.934700  0.794300  0.148400  1.0  0.7032
  C  C102  1  0.466700  0.738400  0.095100  1.0  -0.0706
  C  C103  1  0.733800  0.490800  0.456400  1.0  -0.0716
  C  C104  1  0.271100  0.961700  0.921500  1.0  -0.1078
  C  C105  1  0.178700  0.990500  0.916500  1.0  0.6787
  C  C106  1  0.923900  0.565700  0.879600  1.0  0.0669
  C  C107  1  0.969900  0.417900  0.886200  1.0  -0.066
  C  C108  1  0.906500  0.387100  0.938500  1.0  -0.0815
  C  C109  1  0.493400  0.142700  0.080600  1.0  0.3194
  C  C110  1  0.308100  0.026700  0.471100  1.0  -0.1004
  C  C111  1  0.897700  0.302500  0.969600  1.0  -0.0464
  C  C112  1  0.942800  0.660800  0.859200  1.0  -0.0012
  C  C113  1  0.540900  0.207900  0.960100  1.0  -0.1007
  C  C114  1  0.630800  0.107800  0.015100  1.0  -0.0998
  C  C115  1  0.007700  0.269800  0.888500  1.0  -0.1392
  C  C116  1  0.340000  0.874000  0.495700  1.0  0.2954
  C  C117  1  0.404500  0.888800  0.432200  1.0  -0.0873
  C  C118  1  0.948500  0.243900  0.947100  1.0  -0.1289
  C  C119  1  0.511500  0.840700  0.353200  1.0  -0.1199
  C  C120  1  0.267500  0.098400  0.491200  1.0  -0.0145
  C  C121  1  0.290200  0.949100  0.513200  1.0  -0.063
  C  C122  1  0.449000  0.824500  0.413700  1.0  -0.0339
  C  C123  1  0.211100  0.551600  0.502400  1.0  -0.0332
  C  C124  1  0.977900  0.507100  0.845600  1.0  0.2965
  C  C125  1  0.377100  0.045200  0.408500  1.0  0.257
  C  C126  1  0.915200  0.818800  0.866900  1.0  0.6907
  C  C127  1  0.577400  0.108200  0.080800  1.0  -0.0501
  C  C128  1  0.792200  0.580000  0.960500  1.0  -0.0589
  C  C129  1  0.594400  0.059300  0.141700  1.0  -0.0406
  C  C130  1  0.856600  0.530400  0.928300  1.0  -0.1363
  C  C131  1  0.427300  0.974400  0.391100  1.0  -0.0956
  C  C132  1  0.189700  0.009400  0.594300  1.0  -0.0971
  C  C133  1  0.888500  0.712600  0.887700  1.0  -0.0464
  C  C134  1  0.567000  0.770200  0.333200  1.0  0.6865
  C  C135  1  0.816600  0.678400  0.936800  1.0  -0.0407
  C  C136  1  0.052700  0.455900  0.545100  1.0  0.0237
  C  C137  1  0.207700  0.089100  0.546000  1.0  -0.0734
  C  C138  1  0.488500  0.989300  0.335400  1.0  -0.0311
  C  C139  1  0.947800  0.427300  0.547200  1.0  0.1826
  C  C140  1  0.454300  0.362400  0.847100  1.0  0.7023
  C  C141  1  0.030600  0.363300  0.859100  1.0  0.015
  C  C142  1  0.483000  0.191900  0.020600  1.0  0.0482
  C  C143  1  0.204700  0.436300  0.583200  1.0  -0.0867
  C  C144  1  0.128400  0.995700  0.659600  1.0  0.6122
  C  C145  1  0.228400  0.934500  0.571900  1.0  -0.0135
  C  C146  1  0.461100  0.299600  0.902700  1.0  0.0424
  C  C147  1  0.406900  0.293200  0.957700  1.0  -0.0745
  C  C148  1  0.261700  0.389700  0.636000  1.0  0.7179
  C  C149  1  0.619600  0.163000  0.950100  1.0  0.2894
  C  C150  1  0.405700  0.224600  0.015400  1.0  -0.0166
  C  C151  1  0.839500  0.436400  0.966100  1.0  0.2659
  C  C152  1  0.115100  0.535800  0.508900  1.0  -0.0631
  C  C153  1  0.710500  0.081500  0.018600  1.0  -0.0666
  C  C154  1  0.670100  0.028600  0.139100  1.0  -0.0087
  C  C155  1  0.102500  0.412000  0.587300  1.0  -0.0525
  C  C156  1  0.531400  0.920100  0.315500  1.0  -0.0096
  C  C157  1  0.065300  0.205700  0.851600  1.0  0.703
  C  C158  1  0.533300  0.261600  0.904900  1.0  -0.0719
  C  C159  1  0.266200  0.509200  0.543600  1.0  -0.0712
  C  C160  1  0.728900  0.038300  0.078500  1.0  -0.1071
  C  C161  1  0.821300  0.009500  0.083500  1.0  0.6791
  O  O162  1  0.866700  0.915000  0.301300  1.0  -0.7025
  O  O163  1  0.642600  0.560400  0.357600  1.0  -0.6311
  O  O164  1  0.959200  0.460900  0.197000  1.0  -0.4011
  O  O165  1  0.100800  0.119700  0.082700  1.0  -0.6027
  O  O166  1  0.363400  0.196400  0.707600  1.0  -0.5913
  O  O167  1  0.864400  0.750800  0.182800  1.0  -0.6186
  O  O168  1  0.562800  0.876400  0.866400  1.0  -0.4804
  O  O169  1  0.606400  0.886100  0.629300  1.0  -0.4374
  O  O170  1  0.476200  0.315300  0.649700  1.0  -0.569
  O  O171  1  0.339000  0.839200  0.104900  1.0  -0.4131
  O  O172  1  0.223400  0.601800  0.993000  1.0  -0.4098
  O  O173  1  0.041700  0.158600  0.194100  1.0  -0.5975
  O  O174  1  0.672600  0.189900  0.466200  1.0  -0.4044
  O  O175  1  0.791200  0.681900  0.337600  1.0  -0.5768
  O  O176  1  0.109200  0.643400  0.415300  1.0  -0.4572
  O  O177  1  0.923600  0.086200  0.320700  1.0  -0.5264
  O  O178  1  0.971600  0.881000  0.132800  1.0  -0.5722
  O  O179  1  0.467600  0.588400  0.186500  1.0  -0.5665
  O  O180  1  0.628000  0.641400  0.177100  1.0  -0.6278
  O  O181  1  0.166200  0.022300  0.854600  1.0  -0.6035
  O  O182  1  0.122000  0.970500  0.967400  1.0  -0.5675
  O  O183  1  0.133300  0.085000  0.698700  1.0  -0.7032
  O  O184  1  0.357400  0.439600  0.642400  1.0  -0.6314
  O  O185  1  0.040800  0.539100  0.803000  1.0  -0.4023
  O  O186  1  0.899200  0.880300  0.917300  1.0  -0.6013
  O  O187  1  0.636600  0.803600  0.292400  1.0  -0.5911
  O  O188  1  0.135600  0.249200  0.817200  1.0  -0.618
  O  O189  1  0.437200  0.123600  0.133600  1.0  -0.4847
  O  O190  1  0.393600  0.113900  0.370700  1.0  -0.4413
  O  O191  1  0.523800  0.684700  0.350300  1.0  -0.5679
  O  O192  1  0.661000  0.160800  0.895100  1.0  -0.4128
  O  O193  1  0.776600  0.398200  0.007000  1.0  -0.4081
  O  O194  1  0.958300  0.841400  0.805900  1.0  -0.597
  O  O195  1  0.327400  0.810100  0.533800  1.0  -0.4039
  O  O196  1  0.208800  0.318100  0.662400  1.0  -0.5781
  O  O197  1  0.890800  0.356600  0.584700  1.0  -0.4593
  O  O198  1  0.076400  0.913800  0.679300  1.0  -0.5266
  O  O199  1  0.028400  0.119000  0.867200  1.0  -0.5738
  O  O200  1  0.532400  0.411600  0.813500  1.0  -0.5665
  O  O201  1  0.372000  0.358600  0.822900  1.0  -0.6292
  O  O202  1  0.833800  0.977700  0.145400  1.0  -0.6018
  O  O203  1  0.878000  0.029500  0.032600  1.0  -0.567
