# generated using pymatgen
data_MnH6(C8O3)2
_symmetry_space_group_name_H-M   'P 1'
_cell_length_a   14.61500000
_cell_length_b   16.58500000
_cell_length_c   20.55900000
_cell_angle_alpha   99.33000000
_cell_angle_beta   107.46000000
_cell_angle_gamma   100.74000000
_symmetry_Int_Tables_number   1
_chemical_formula_structural   MnH6(C8O3)2
_chemical_formula_sum   'Mn7 H42 C112 O42'
_cell_volume   4542.28133145
_cell_formula_units_Z   7
loop_
 _symmetry_equiv_pos_site_id
 _symmetry_equiv_pos_as_xyz
  1  'x, y, z'
loop_
 _atom_site_type_symbol
 _atom_site_label
 _atom_site_symmetry_multiplicity
 _atom_site_fract_x
 _atom_site_fract_y
 _atom_site_fract_z
 _atom_site_occupancy
 _atom_site_charge
  Mn  Mn1  1  0.060380  0.220730  0.237750  1.0  1.1336
  Mn  Mn2  1  0.148610  0.062660  0.182660  1.0  1.1177
  Mn  Mn3  1  0.009920  0.393370  0.343700  1.0  1.1313
  Mn  Mn4  1  0.939620  0.779270  0.762250  1.0  1.1328
  Mn  Mn5  1  0.851390  0.937340  0.817340  1.0  1.1182
  Mn  Mn6  1  0.990080  0.606630  0.656300  1.0  1.1323
  Mn  Mn7  1  0.000000  0.000000  0.000000  1.0  1.1764
  H  H8  1  0.422100  0.247800  0.380700  1.0  0.1416
  H  H9  1  0.410200  0.045200  0.121900  1.0  0.1446
  H  H10  1  0.851600  0.886200  0.050000  1.0  0.1374
  H  H11  1  0.766200  0.071500  0.152500  1.0  0.1278
  H  H12  1  0.331200  0.785500  0.961300  1.0  0.1461
  H  H13  1  0.685700  0.807600  0.002500  1.0  0.1288
  H  H14  1  0.692600  0.479500  0.553600  1.0  0.1511
  H  H15  1  0.936600  0.743800  0.021600  1.0  0.1411
  H  H16  1  0.205800  0.847300  0.982400  1.0  0.1309
  H  H17  1  0.159700  0.189100  0.405200  1.0  0.1037
  H  H18  1  0.786800  0.670900  0.814900  1.0  0.1193
  H  H19  1  0.927400  0.088200  0.290600  1.0  0.1406
  H  H20  1  0.893800  0.277300  0.057400  1.0  0.1371
  H  H21  1  0.756700  0.530000  0.819100  1.0  0.1469
  H  H22  1  0.021700  0.206700  0.497000  1.0  0.1423
  H  H23  1  0.984900  0.523400  0.161500  1.0  0.1518
  H  H24  1  0.643700  0.611200  0.718000  1.0  0.1267
  H  H25  1  0.488900  0.520300  0.687400  1.0  0.1495
  H  H26  1  0.921300  0.957800  0.322500  1.0  0.1367
  H  H27  1  0.220100  0.280000  0.518700  1.0  0.1561
  H  H28  1  0.816800  0.314700  0.956600  1.0  0.1235
  H  H29  1  0.577900  0.752200  0.619300  1.0  0.1414
  H  H30  1  0.589800  0.954800  0.878100  1.0  0.1433
  H  H31  1  0.148400  0.113800  0.950000  1.0  0.1369
  H  H32  1  0.233800  0.928500  0.847500  1.0  0.1272
  H  H33  1  0.668800  0.214500  0.038700  1.0  0.1462
  H  H34  1  0.314300  0.192400  0.997500  1.0  0.1293
  H  H35  1  0.307400  0.520500  0.446400  1.0  0.1517
  H  H36  1  0.063400  0.256200  0.978400  1.0  0.1407
  H  H37  1  0.794200  0.152700  0.017600  1.0  0.1309
  H  H38  1  0.840300  0.810900  0.594800  1.0  0.1026
  H  H39  1  0.213200  0.329100  0.185100  1.0  0.1195
  H  H40  1  0.072600  0.911800  0.709400  1.0  0.1403
  H  H41  1  0.106200  0.722700  0.942600  1.0  0.1373
  H  H42  1  0.243300  0.470000  0.180900  1.0  0.1466
  H  H43  1  0.978300  0.793300  0.503000  1.0  0.142
  H  H44  1  0.015100  0.476600  0.838500  1.0  0.1493
  H  H45  1  0.356300  0.388800  0.282000  1.0  0.1256
  H  H46  1  0.511100  0.479700  0.312600  1.0  0.1491
  H  H47  1  0.078700  0.042200  0.677500  1.0  0.1367
  H  H48  1  0.779900  0.720000  0.481300  1.0  0.1563
  H  H49  1  0.183200  0.685300  0.043400  1.0  0.1237
  C  C50  1  0.626700  0.893100  0.044900  1.0  -0.0084
  C  C51  1  0.381100  0.256200  0.408000  1.0  -0.0068
  C  C52  1  0.297800  0.951400  0.053100  1.0  -0.0362
  C  C53  1  0.824700  0.985800  0.103900  1.0  -0.0985
  C  C54  1  0.651400  0.972300  0.092900  1.0  -0.0875
  C  C55  1  0.419400  0.314400  0.472700  1.0  -0.0589
  C  C56  1  0.983700  0.242500  0.372700  1.0  0.6767
  C  C57  1  0.681700  0.557300  0.639000  1.0  -0.1162
  C  C58  1  0.394300  0.993500  0.088300  1.0  -0.0186
  C  C59  1  0.972900  0.158800  0.390900  1.0  -0.0953
  C  C60  1  0.888200  0.808600  0.908500  1.0  0.7447
  C  C61  1  0.801400  0.908800  0.060800  1.0  -0.0444
  C  C62  1  0.929800  0.040100  0.135400  1.0  0.6954
  C  C63  1  0.471000  0.960100  0.074600  1.0  -0.0654
  C  C64  1  0.749200  0.018000  0.121100  1.0  -0.039
  C  C65  1  0.555000  0.436300  0.559800  1.0  -0.0877
  C  C66  1  0.217200  0.985000  0.069100  1.0  0.7491
  C  C67  1  0.574300  0.008800  0.109300  1.0  0.2905
  C  C68  1  0.444000  0.882500  0.027800  1.0  -0.0496
  C  C69  1  0.347600  0.838700  0.993100  1.0  -0.0211
  C  C70  1  0.701500  0.862300  0.032000  1.0  -0.011
  C  C71  1  0.524900  0.845300  0.014300  1.0  0.2861
  C  C72  1  0.282200  0.210200  0.383700  1.0  -0.0432
  C  C73  1  0.650100  0.489100  0.579600  1.0  -0.0532
  C  C74  1  0.782300  0.614200  0.659900  1.0  0.7309
  C  C75  1  0.900200  0.700700  0.980500  1.0  -0.0696
  C  C76  1  0.908600  0.503000  0.055000  1.0  -0.0936
  C  C77  1  0.273500  0.875600  0.006400  1.0  0.0025
  C  C78  1  0.226900  0.220700  0.423100  1.0  0.0023
  C  C79  1  0.360300  0.326000  0.513300  1.0  -0.066
  C  C80  1  0.240700  0.156200  0.312800  1.0  0.6914
  C  C81  1  0.523200  0.368200  0.498100  1.0  0.2711
  C  C82  1  0.943000  0.397700  0.120800  1.0  -0.0916
  C  C83  1  0.812100  0.656700  0.858600  1.0  -0.0249
  C  C84  1  0.865500  0.720600  0.916600  1.0  -0.0979
  C  C85  1  0.944500  0.085800  0.338500  1.0  -0.0188
  C  C86  1  0.829100  0.551000  0.925500  1.0  -0.0429
  C  C87  1  0.983800  0.368700  0.186900  1.0  0.7159
  C  C88  1  0.497500  0.445000  0.601300  1.0  -0.0911
  C  C89  1  0.880300  0.613700  0.983800  1.0  -0.0775
  C  C90  1  0.895500  0.334900  0.057700  1.0  -0.1185
  C  C91  1  0.858300  0.439800  0.994600  1.0  -0.0618
  C  C92  1  0.793200  0.572500  0.860600  1.0  -0.0738
  C  C93  1  0.000700  0.155900  0.461700  1.0  -0.0416
  C  C94  1  0.397000  0.390300  0.579900  1.0  0.2668
  C  C95  1  0.951200  0.480800  0.119600  1.0  -0.0362
  C  C96  1  0.621600  0.566100  0.677500  1.0  -0.0166
  C  C97  1  0.968200  0.004900  0.427100  1.0  -0.0953
  C  C98  1  0.529700  0.512000  0.659900  1.0  -0.0818
  C  C99  1  0.916400  0.593800  0.052400  1.0  0.2642
  C  C100  1  0.997500  0.079800  0.480100  1.0  -0.1241
  C  C101  1  0.941800  0.008500  0.357800  1.0  0.0007
  C  C102  1  0.260900  0.276300  0.490600  1.0  -0.074
  C  C103  1  0.852500  0.357600  0.998000  1.0  -0.0149
  C  C104  1  0.966900  0.922800  0.446300  1.0  0.2607
  C  C105  1  0.816900  0.461100  0.927100  1.0  0.2835
  C  C106  1  0.373300  0.106900  0.955100  1.0  -0.0074
  C  C107  1  0.618900  0.743800  0.592000  1.0  -0.005
  C  C108  1  0.702200  0.048600  0.946900  1.0  -0.0382
  C  C109  1  0.175300  0.014200  0.896100  1.0  -0.1006
  C  C110  1  0.348600  0.027700  0.907100  1.0  -0.0929
  C  C111  1  0.580600  0.685600  0.527300  1.0  -0.0593
  C  C112  1  0.016300  0.757500  0.627300  1.0  0.6795
  C  C113  1  0.318300  0.442700  0.361000  1.0  -0.1173
  C  C114  1  0.605700  0.006500  0.911700  1.0  -0.0212
  C  C115  1  0.027100  0.841200  0.609100  1.0  -0.0958
  C  C116  1  0.111800  0.191400  0.091500  1.0  0.7448
  C  C117  1  0.198600  0.091200  0.939200  1.0  -0.0439
  C  C118  1  0.070200  0.959900  0.864600  1.0  0.6963
  C  C119  1  0.529000  0.039900  0.925400  1.0  -0.0704
  C  C120  1  0.250800  0.982000  0.878900  1.0  -0.0377
  C  C121  1  0.445000  0.563700  0.440200  1.0  -0.0903
  C  C122  1  0.782800  0.015000  0.930900  1.0  0.7486
  C  C123  1  0.425700  0.991200  0.890700  1.0  0.2848
  C  C124  1  0.556000  0.117500  0.972200  1.0  -0.0519
  C  C125  1  0.652400  0.161300  0.006900  1.0  -0.02
  C  C126  1  0.298500  0.137700  0.968000  1.0  -0.0091
  C  C127  1  0.475100  0.154700  0.985700  1.0  0.2829
  C  C128  1  0.717800  0.789800  0.616300  1.0  -0.0439
  C  C129  1  0.349900  0.510900  0.420400  1.0  -0.0536
  C  C130  1  0.217700  0.385800  0.340100  1.0  0.7309
  C  C131  1  0.099800  0.299300  0.019500  1.0  -0.0704
  C  C132  1  0.091400  0.497000  0.945000  1.0  -0.0919
  C  C133  1  0.726500  0.124400  0.993600  1.0  0.0004
  C  C134  1  0.773100  0.779300  0.576900  1.0  0.0005
  C  C135  1  0.639700  0.674000  0.486700  1.0  -0.0695
  C  C136  1  0.759300  0.843800  0.687200  1.0  0.6895
  C  C137  1  0.476800  0.631800  0.501900  1.0  0.2712
  C  C138  1  0.057000  0.602300  0.879200  1.0  -0.0952
  C  C139  1  0.187900  0.343300  0.141400  1.0  -0.0251
  C  C140  1  0.134500  0.279400  0.083400  1.0  -0.0963
  C  C141  1  0.055500  0.914200  0.661500  1.0  -0.0225
  C  C142  1  0.170900  0.449000  0.074500  1.0  -0.0428
  C  C143  1  0.016200  0.631300  0.813100  1.0  0.7194
  C  C144  1  0.502500  0.555000  0.398700  1.0  -0.0977
  C  C145  1  0.119700  0.386300  0.016200  1.0  -0.0804
  C  C146  1  0.104500  0.665100  0.942300  1.0  -0.1161
  C  C147  1  0.141700  0.560200  0.005400  1.0  -0.0626
  C  C148  1  0.206800  0.427500  0.139400  1.0  -0.073
  C  C149  1  0.999300  0.844100  0.538300  1.0  -0.0401
  C  C150  1  0.603000  0.609700  0.420100  1.0  0.2629
  C  C151  1  0.048800  0.519200  0.880400  1.0  -0.0348
  C  C152  1  0.378400  0.433900  0.322500  1.0  -0.0178
  C  C153  1  0.031800  0.995100  0.572900  1.0  -0.0948
  C  C154  1  0.470300  0.488000  0.340100  1.0  -0.081
  C  C155  1  0.083600  0.406200  0.947600  1.0  0.2643
  C  C156  1  0.002500  0.920200  0.519900  1.0  -0.1256
  C  C157  1  0.058200  0.991500  0.642200  1.0  0.0004
  C  C158  1  0.739100  0.723700  0.509400  1.0  -0.0742
  C  C159  1  0.147500  0.642400  0.002000  1.0  -0.014
  C  C160  1  0.033100  0.077200  0.553700  1.0  0.2621
  C  C161  1  0.183100  0.538900  0.072900  1.0  0.284
  O  O162  1  0.984100  0.246400  0.310600  1.0  -0.67
  O  O163  1  0.948500  0.103700  0.178700  1.0  -0.5702
  O  O164  1  0.239900  0.038800  0.126000  1.0  -0.6
  O  O165  1  0.145600  0.137000  0.284540  1.0  -0.6385
  O  O166  1  0.922100  0.866800  0.961100  1.0  -0.5795
  O  O167  1  0.984100  0.292100  0.177000  1.0  -0.5782
  O  O168  1  0.129900  0.955400  0.026200  1.0  -0.5974
  O  O169  1  0.869400  0.818700  0.846800  1.0  -0.6211
  O  O170  1  0.836500  0.594800  0.625600  1.0  -0.6081
  O  O171  1  0.993900  0.011500  0.112370  1.0  -0.6585
  O  O172  1  0.807600  0.679200  0.708500  1.0  -0.5718
  O  O173  1  0.995100  0.308700  0.416300  1.0  -0.5563
  O  O174  1  0.290800  0.129800  0.278900  1.0  -0.581
  O  O175  1  0.595100  0.076200  0.152000  1.0  -0.4256
  O  O176  1  0.502200  0.775600  0.972100  1.0  -0.4241
  O  O177  1  0.007300  0.421500  0.244300  1.0  -0.6176
  O  O178  1  0.575500  0.353700  0.463200  1.0  -0.4107
  O  O179  1  0.347000  0.396900  0.619000  1.0  -0.4105
  O  O180  1  0.955900  0.648600  0.107600  1.0  -0.4204
  O  O181  1  0.941600  0.856900  0.399000  1.0  -0.4173
  O  O182  1  0.764200  0.405900  0.873700  1.0  -0.4544
  O  O183  1  0.015900  0.753600  0.689400  1.0  -0.6694
  O  O184  1  0.051500  0.896300  0.821300  1.0  -0.5697
  O  O185  1  0.760100  0.961200  0.874000  1.0  -0.6032
  O  O186  1  0.854400  0.863000  0.715460  1.0  -0.6419
  O  O187  1  0.077900  0.133200  0.038900  1.0  -0.5801
  O  O188  1  0.015900  0.707900  0.823000  1.0  -0.5768
  O  O189  1  0.870100  0.044600  0.973800  1.0  -0.5964
  O  O190  1  0.130600  0.181300  0.153200  1.0  -0.6211
  O  O191  1  0.163500  0.405200  0.374400  1.0  -0.6056
  O  O192  1  0.006100  0.988500  0.887630  1.0  -0.6604
  O  O193  1  0.192400  0.320800  0.291500  1.0  -0.5708
  O  O194  1  0.004900  0.691300  0.583700  1.0  -0.5577
  O  O195  1  0.709200  0.870200  0.721100  1.0  -0.5762
  O  O196  1  0.404900  0.923800  0.848000  1.0  -0.4266
  O  O197  1  0.497800  0.224400  0.027900  1.0  -0.4236
  O  O198  1  0.992700  0.578500  0.755700  1.0  -0.6161
  O  O199  1  0.424500  0.646300  0.536800  1.0  -0.4107
  O  O200  1  0.653000  0.603100  0.381000  1.0  -0.4082
  O  O201  1  0.044100  0.351400  0.892400  1.0  -0.4203
  O  O202  1  0.058400  0.143100  0.601000  1.0  -0.4155
  O  O203  1  0.235800  0.594100  0.126300  1.0  -0.4579
