# generated using pymatgen
data_V9Si4H16C8(N2O9)2
_symmetry_space_group_name_H-M   'P 1'
_cell_length_a   16.16900000
_cell_length_b   16.16900000
_cell_length_c   18.19900000
_cell_angle_alpha   90.00000000
_cell_angle_beta   90.00000000
_cell_angle_gamma   90.00000000
_symmetry_Int_Tables_number   1
_chemical_formula_structural   V9Si4H16C8(N2O9)2
_chemical_formula_sum   'V36 Si16 H64 C32 N16 O72'
_cell_volume   4757.88397364
_cell_formula_units_Z   4
loop_
 _symmetry_equiv_pos_site_id
 _symmetry_equiv_pos_as_xyz
  1  'x, y, z'
loop_
 _atom_site_type_symbol
 _atom_site_label
 _atom_site_symmetry_multiplicity
 _atom_site_fract_x
 _atom_site_fract_y
 _atom_site_fract_z
 _atom_site_occupancy
 _atom_site_charge
  V  V1  1  0.004200  0.822460  0.864070  1.0  1.3498
  V  V2  1  0.175320  0.831030  0.000100  1.0  1.3501
  V  V3  1  0.246850  0.004570  0.992450  1.0  1.2144
  V  V4  1  0.213900  0.251400  0.727580  1.0  1.1949
  V  V5  1  0.995800  0.177540  0.864070  1.0  1.3499
  V  V6  1  0.824680  0.168970  0.000100  1.0  1.3495
  V  V7  1  0.753150  0.995430  0.992450  1.0  1.2155
  V  V8  1  0.786100  0.748600  0.727580  1.0  1.195
  V  V9  1  0.822460  0.995800  0.135930  1.0  1.3486
  V  V10  1  0.831030  0.824680  0.999900  1.0  1.3517
  V  V11  1  0.004570  0.753150  0.007550  1.0  1.1999
  V  V12  1  0.251400  0.786100  0.272420  1.0  1.1897
  V  V13  1  0.177540  0.004200  0.135930  1.0  1.3485
  V  V14  1  0.168970  0.175320  0.999900  1.0  1.3493
  V  V15  1  0.995430  0.246850  0.007550  1.0  1.2096
  V  V16  1  0.748600  0.213900  0.272420  1.0  1.183
  V  V17  1  0.495800  0.322460  0.635930  1.0  1.3486
  V  V18  1  0.324680  0.331030  0.499900  1.0  1.3516
  V  V19  1  0.253150  0.504570  0.507550  1.0  1.2152
  V  V20  1  0.286100  0.751400  0.772420  1.0  1.1947
  V  V21  1  0.504200  0.677540  0.635930  1.0  1.3483
  V  V22  1  0.675320  0.668970  0.499900  1.0  1.3489
  V  V23  1  0.746850  0.495430  0.507550  1.0  1.2145
  V  V24  1  0.713900  0.248600  0.772420  1.0  1.1948
  V  V25  1  0.677540  0.495800  0.364070  1.0  1.3498
  V  V26  1  0.668970  0.324680  0.500100  1.0  1.3503
  V  V27  1  0.495430  0.253150  0.492450  1.0  1.2002
  V  V28  1  0.248600  0.286100  0.227580  1.0  1.19
  V  V29  1  0.322460  0.504200  0.364070  1.0  1.3496
  V  V30  1  0.331030  0.675320  0.500100  1.0  1.3496
  V  V31  1  0.504570  0.746850  0.492450  1.0  1.2094
  V  V32  1  0.751400  0.713900  0.227580  1.0  1.1827
  V  V33  1  0.000000  0.000000  0.796980  1.0  1.2162
  V  V34  1  0.000000  0.000000  0.203020  1.0  1.2125
  V  V35  1  0.500000  0.500000  0.703020  1.0  1.2125
  V  V36  1  0.500000  0.500000  0.296980  1.0  1.2162
  Si  Si37  1  0.177000  0.093000  0.837700  1.0  2.0742
  Si  Si38  1  0.179900  0.914600  0.837800  1.0  2.0693
  Si  Si39  1  0.823000  0.907000  0.837700  1.0  2.0751
  Si  Si40  1  0.820100  0.085400  0.837800  1.0  2.0687
  Si  Si41  1  0.093000  0.823000  0.162300  1.0  2.0737
  Si  Si42  1  0.914600  0.820100  0.162200  1.0  2.0678
  Si  Si43  1  0.907000  0.177000  0.162300  1.0  2.0747
  Si  Si44  1  0.085400  0.179900  0.162200  1.0  2.0676
  Si  Si45  1  0.323000  0.593000  0.662300  1.0  2.0664
  Si  Si46  1  0.320100  0.414600  0.662200  1.0  2.0697
  Si  Si47  1  0.677000  0.407000  0.662300  1.0  2.0663
  Si  Si48  1  0.679900  0.585400  0.662200  1.0  2.0686
  Si  Si49  1  0.407000  0.323000  0.337700  1.0  2.0663
  Si  Si50  1  0.585400  0.320100  0.337800  1.0  2.0682
  Si  Si51  1  0.593000  0.677000  0.337700  1.0  2.0654
  Si  Si52  1  0.414600  0.679900  0.337800  1.0  2.0684
  H  H53  1  0.288800  0.073000  0.706900  1.0  0.0815
  H  H54  1  0.243500  0.078200  0.631200  1.0  0.0708
  H  H55  1  0.415300  0.062600  0.646200  1.0  0.0613
  H  H56  1  0.369700  0.067200  0.570800  1.0  0.0567
  H  H57  1  0.417900  0.935700  0.608100  1.0  0.0453
  H  H58  1  0.329000  0.939900  0.575200  1.0  0.0569
  H  H59  1  0.369200  0.928100  0.713300  1.0  0.0767
  H  H60  1  0.280200  0.935200  0.682200  1.0  0.0763
  H  H61  1  0.711200  0.927000  0.706900  1.0  0.0823
  H  H62  1  0.756500  0.921800  0.631200  1.0  0.0753
  H  H63  1  0.584700  0.937400  0.646200  1.0  0.061
  H  H64  1  0.630300  0.932800  0.570800  1.0  0.0587
  H  H65  1  0.582100  0.064300  0.608100  1.0  0.0458
  H  H66  1  0.671000  0.060100  0.575200  1.0  0.0575
  H  H67  1  0.630800  0.071900  0.713300  1.0  0.0766
  H  H68  1  0.719800  0.064800  0.682200  1.0  0.0745
  H  H69  1  0.073000  0.711200  0.293100  1.0  0.0821
  H  H70  1  0.078200  0.756500  0.368800  1.0  0.0789
  H  H71  1  0.062600  0.584700  0.353800  1.0  0.0647
  H  H72  1  0.067200  0.630300  0.429200  1.0  0.0556
  H  H73  1  0.935700  0.582100  0.391900  1.0  0.0446
  H  H74  1  0.939900  0.671000  0.424800  1.0  0.0555
  H  H75  1  0.928100  0.630800  0.286700  1.0  0.0766
  H  H76  1  0.935200  0.719800  0.317800  1.0  0.0741
  H  H77  1  0.927000  0.288800  0.293100  1.0  0.0814
  H  H78  1  0.921800  0.243500  0.368800  1.0  0.0761
  H  H79  1  0.937400  0.415300  0.353800  1.0  0.0663
  H  H80  1  0.932800  0.369700  0.429200  1.0  0.0556
  H  H81  1  0.064300  0.417900  0.391900  1.0  0.0474
  H  H82  1  0.060100  0.329000  0.424800  1.0  0.0557
  H  H83  1  0.071900  0.369200  0.286700  1.0  0.0779
  H  H84  1  0.064800  0.280200  0.317800  1.0  0.0745
  H  H85  1  0.211200  0.573000  0.793100  1.0  0.0818
  H  H86  1  0.256500  0.578200  0.868800  1.0  0.0762
  H  H87  1  0.084700  0.562600  0.853800  1.0  0.0618
  H  H88  1  0.130300  0.567200  0.929200  1.0  0.0554
  H  H89  1  0.082100  0.435700  0.891900  1.0  0.0469
  H  H90  1  0.171000  0.439900  0.924800  1.0  0.0559
  H  H91  1  0.130800  0.428100  0.786700  1.0  0.0785
  H  H92  1  0.219800  0.435200  0.817800  1.0  0.0761
  H  H93  1  0.788800  0.427000  0.793100  1.0  0.0812
  H  H94  1  0.743500  0.421800  0.868800  1.0  0.0724
  H  H95  1  0.915300  0.437400  0.853800  1.0  0.0608
  H  H96  1  0.869700  0.432800  0.929200  1.0  0.0549
  H  H97  1  0.917900  0.564300  0.891900  1.0  0.0452
  H  H98  1  0.829000  0.560100  0.924800  1.0  0.0566
  H  H99  1  0.869200  0.571900  0.786700  1.0  0.0788
  H  H100  1  0.780200  0.564800  0.817800  1.0  0.0752
  H  H101  1  0.427000  0.211200  0.206900  1.0  0.0822
  H  H102  1  0.421800  0.256500  0.131200  1.0  0.0782
  H  H103  1  0.437400  0.084700  0.146200  1.0  0.0643
  H  H104  1  0.432800  0.130300  0.070800  1.0  0.0595
  H  H105  1  0.564300  0.082100  0.108100  1.0  0.0453
  H  H106  1  0.560100  0.171000  0.075200  1.0  0.0575
  H  H107  1  0.571900  0.130800  0.213300  1.0  0.0763
  H  H108  1  0.564800  0.219800  0.182200  1.0  0.0736
  H  H109  1  0.573000  0.788800  0.206900  1.0  0.0824
  H  H110  1  0.578200  0.743500  0.131200  1.0  0.076
  H  H111  1  0.562600  0.915300  0.146200  1.0  0.0658
  H  H112  1  0.567200  0.869700  0.070800  1.0  0.0585
  H  H113  1  0.435700  0.917900  0.108100  1.0  0.0473
  H  H114  1  0.439900  0.829000  0.075200  1.0  0.056
  H  H115  1  0.428100  0.869200  0.213300  1.0  0.0761
  H  H116  1  0.435200  0.780200  0.182200  1.0  0.0745
  C  C117  1  0.294000  0.092900  0.656800  1.0  0.0444
  C  C118  1  0.364900  0.047100  0.621000  1.0  -0.1278
  C  C119  1  0.362000  0.954700  0.617700  1.0  -0.1396
  C  C120  1  0.335000  0.912900  0.672000  1.0  0.1023
  C  C121  1  0.706000  0.907100  0.656800  1.0  0.0427
  C  C122  1  0.635100  0.952900  0.621000  1.0  -0.1285
  C  C123  1  0.638000  0.045300  0.617700  1.0  -0.1395
  C  C124  1  0.665000  0.087100  0.672000  1.0  0.1038
  C  C125  1  0.092900  0.706000  0.343200  1.0  0.0411
  C  C126  1  0.047100  0.635100  0.379000  1.0  -0.1296
  C  C127  1  0.954700  0.638000  0.382300  1.0  -0.1379
  C  C128  1  0.912900  0.665000  0.328000  1.0  0.1046
  C  C129  1  0.907100  0.294000  0.343200  1.0  0.0411
  C  C130  1  0.952900  0.364900  0.379000  1.0  -0.128
  C  C131  1  0.045300  0.362000  0.382300  1.0  -0.137
  C  C132  1  0.087100  0.335000  0.328000  1.0  0.1066
  C  C133  1  0.206000  0.592900  0.843200  1.0  0.043
  C  C134  1  0.135100  0.547100  0.879000  1.0  -0.1294
  C  C135  1  0.138000  0.454700  0.882300  1.0  -0.139
  C  C136  1  0.165000  0.412900  0.828000  1.0  0.1019
  C  C137  1  0.794000  0.407100  0.843200  1.0  0.0446
  C  C138  1  0.864900  0.452900  0.879000  1.0  -0.1272
  C  C139  1  0.862000  0.545300  0.882300  1.0  -0.1402
  C  C140  1  0.835000  0.587100  0.828000  1.0  0.1036
  C  C141  1  0.407100  0.206000  0.156800  1.0  0.0415
  C  C142  1  0.452900  0.135100  0.121000  1.0  -0.1291
  C  C143  1  0.545300  0.138000  0.117700  1.0  -0.1378
  C  C144  1  0.587100  0.165000  0.172000  1.0  0.1054
  C  C145  1  0.592900  0.794000  0.156800  1.0  0.0406
  C  C146  1  0.547100  0.864900  0.121000  1.0  -0.1302
  C  C147  1  0.454700  0.862000  0.117700  1.0  -0.1382
  C  C148  1  0.412900  0.835000  0.172000  1.0  0.1049
  N  N149  1  0.300000  0.184700  0.658900  1.0  -0.4878
  N  N150  1  0.325700  0.826100  0.676400  1.0  -0.5455
  N  N151  1  0.700000  0.815300  0.658900  1.0  -0.4887
  N  N152  1  0.674300  0.173900  0.676400  1.0  -0.544
  N  N153  1  0.184700  0.700000  0.341100  1.0  -0.4861
  N  N154  1  0.826100  0.674300  0.323600  1.0  -0.5442
  N  N155  1  0.815300  0.300000  0.341100  1.0  -0.4847
  N  N156  1  0.173900  0.325700  0.323600  1.0  -0.5442
  N  N157  1  0.200000  0.684700  0.841100  1.0  -0.4866
  N  N158  1  0.174300  0.326100  0.823600  1.0  -0.5447
  N  N159  1  0.800000  0.315300  0.841100  1.0  -0.4886
  N  N160  1  0.825700  0.673900  0.823600  1.0  -0.5454
  N  N161  1  0.315300  0.200000  0.158900  1.0  -0.4851
  N  N162  1  0.673900  0.174300  0.176400  1.0  -0.5444
  N  N163  1  0.684700  0.800000  0.158900  1.0  -0.4859
  N  N164  1  0.326100  0.825700  0.176400  1.0  -0.5442
  O  O165  1  0.084800  0.797400  0.936000  1.0  -0.9694
  O  O166  1  0.208800  0.002500  0.805600  1.0  -1.0682
  O  O167  1  0.218400  0.166700  0.797200  1.0  -0.9754
  O  O168  1  0.206800  0.914200  0.925500  1.0  -1.0833
  O  O169  1  0.200200  0.091500  0.924000  1.0  -1.0646
  O  O170  1  0.078000  0.913800  0.836100  1.0  -1.0368
  O  O171  1  0.074200  0.088700  0.827400  1.0  -1.0938
  O  O172  1  0.925400  0.792800  0.939500  1.0  -0.9657
  O  O173  1  0.218200  0.837400  0.793600  1.0  -0.9694
  O  O174  1  0.915200  0.202600  0.936000  1.0  -0.9686
  O  O175  1  0.791200  0.997500  0.805600  1.0  -1.0664
  O  O176  1  0.781600  0.833300  0.797200  1.0  -0.973
  O  O177  1  0.793200  0.085800  0.925500  1.0  -1.0842
  O  O178  1  0.799800  0.908500  0.924000  1.0  -1.0655
  O  O179  1  0.922000  0.086200  0.836100  1.0  -1.0371
  O  O180  1  0.925800  0.911300  0.827400  1.0  -1.0928
  O  O181  1  0.074600  0.207200  0.939500  1.0  -0.9638
  O  O182  1  0.781800  0.162600  0.793600  1.0  -0.9693
  O  O183  1  0.797400  0.915200  0.064000  1.0  -0.9693
  O  O184  1  0.002500  0.791200  0.194400  1.0  -1.0696
  O  O185  1  0.166700  0.781600  0.202800  1.0  -0.9736
  O  O186  1  0.914200  0.793200  0.074500  1.0  -1.0843
  O  O187  1  0.091500  0.799800  0.076000  1.0  -1.0671
  O  O188  1  0.913800  0.922000  0.163900  1.0  -1.0376
  O  O189  1  0.088700  0.925800  0.172600  1.0  -1.0933
  O  O190  1  0.792800  0.074600  0.060500  1.0  -0.9647
  O  O191  1  0.837400  0.781800  0.206400  1.0  -0.9689
  O  O192  1  0.202600  0.084800  0.064000  1.0  -0.9697
  O  O193  1  0.997500  0.208800  0.194400  1.0  -1.0694
  O  O194  1  0.833300  0.218400  0.202800  1.0  -0.9737
  O  O195  1  0.085800  0.206800  0.074500  1.0  -1.0838
  O  O196  1  0.908500  0.200200  0.076000  1.0  -1.0675
  O  O197  1  0.086200  0.078000  0.163900  1.0  -1.0367
  O  O198  1  0.911300  0.074200  0.172600  1.0  -1.0945
  O  O199  1  0.207200  0.925400  0.060500  1.0  -0.9641
  O  O200  1  0.162600  0.218200  0.206400  1.0  -0.9691
  O  O201  1  0.415200  0.297400  0.564000  1.0  -0.9689
  O  O202  1  0.291200  0.502500  0.694400  1.0  -1.0664
  O  O203  1  0.281600  0.666667  0.702800  1.0  -0.9755
  O  O204  1  0.293200  0.414200  0.574500  1.0  -1.0839
  O  O205  1  0.299800  0.591500  0.576000  1.0  -1.0661
  O  O206  1  0.422000  0.413800  0.663900  1.0  -1.0362
  O  O207  1  0.425800  0.588700  0.672600  1.0  -1.0932
  O  O208  1  0.574600  0.292800  0.560500  1.0  -0.9644
  O  O209  1  0.281800  0.337400  0.706400  1.0  -0.9693
  O  O210  1  0.584800  0.702600  0.564000  1.0  -0.9692
  O  O211  1  0.708800  0.497500  0.694400  1.0  -1.0681
  O  O212  1  0.718400  0.333333  0.702800  1.0  -0.9732
  O  O213  1  0.706800  0.585800  0.574500  1.0  -1.0832
  O  O214  1  0.700200  0.408500  0.576000  1.0  -1.065
  O  O215  1  0.578000  0.586200  0.663900  1.0  -1.0369
  O  O216  1  0.574200  0.411300  0.672600  1.0  -1.0941
  O  O217  1  0.425400  0.707200  0.560500  1.0  -0.9654
  O  O218  1  0.718200  0.662600  0.706400  1.0  -0.9697
  O  O219  1  0.702600  0.415200  0.436000  1.0  -0.9695
  O  O220  1  0.497500  0.291200  0.305600  1.0  -1.0697
  O  O221  1  0.333333  0.281600  0.297200  1.0  -0.9708
  O  O222  1  0.585800  0.293200  0.425500  1.0  -1.0844
  O  O223  1  0.408500  0.299800  0.424000  1.0  -1.0659
  O  O224  1  0.586200  0.422000  0.336100  1.0  -1.0373
  O  O225  1  0.411300  0.425800  0.327400  1.0  -1.0937
  O  O226  1  0.707200  0.574600  0.439500  1.0  -0.9636
  O  O227  1  0.662600  0.281800  0.293600  1.0  -0.9688
  O  O228  1  0.297400  0.584800  0.436000  1.0  -0.9694
  O  O229  1  0.502500  0.708800  0.305600  1.0  -1.0695
  O  O230  1  0.666667  0.718400  0.297200  1.0  -0.972
  O  O231  1  0.414200  0.706800  0.425500  1.0  -1.0851
  O  O232  1  0.591500  0.700200  0.424000  1.0  -1.0666
  O  O233  1  0.413800  0.578000  0.336100  1.0  -1.0379
  O  O234  1  0.588700  0.574200  0.327400  1.0  -1.0933
  O  O235  1  0.292800  0.425400  0.439500  1.0  -0.9651
  O  O236  1  0.337400  0.718200  0.293600  1.0  -0.9688
