# generated using pymatgen
data_Zn2SiH21C34N2O9
_symmetry_space_group_name_H-M   'P 1'
_cell_length_a   16.54920000
_cell_length_b   14.85230000
_cell_length_c   17.73130000
_cell_angle_alpha   90.00000000
_cell_angle_beta   112.75800000
_cell_angle_gamma   90.00000000
_symmetry_Int_Tables_number   1
_chemical_formula_structural   Zn2SiH21C34N2O9
_chemical_formula_sum   'Zn8 Si4 H84 C136 N8 O36'
_cell_volume   4018.93921504
_cell_formula_units_Z   4
loop_
 _symmetry_equiv_pos_site_id
 _symmetry_equiv_pos_as_xyz
  1  'x, y, z'
loop_
 _atom_site_type_symbol
 _atom_site_label
 _atom_site_symmetry_multiplicity
 _atom_site_fract_x
 _atom_site_fract_y
 _atom_site_fract_z
 _atom_site_occupancy
 _atom_site_charge
  Zn  Zn1  1  0.047320  0.805350  0.358990  1.0  0.976
  Zn  Zn2  1  0.217120  0.854960  0.509320  1.0  1.115
  Zn  Zn3  1  0.952680  0.305350  0.141010  1.0  0.975
  Zn  Zn4  1  0.782880  0.354960  0.990680  1.0  1.1146
  Zn  Zn5  1  0.952680  0.194650  0.641010  1.0  0.9753
  Zn  Zn6  1  0.782880  0.145040  0.490680  1.0  1.1164
  Zn  Zn7  1  0.047320  0.694650  0.858990  1.0  0.9768
  Zn  Zn8  1  0.217120  0.645040  0.009320  1.0  1.1163
  Si  Si9  1  0.637250  0.582490  0.340620  1.0  0.9111
  Si  Si10  1  0.362750  0.082490  0.159380  1.0  0.9113
  Si  Si11  1  0.362750  0.417510  0.659380  1.0  0.9114
  Si  Si12  1  0.637250  0.917510  0.840620  1.0  0.9111
  H  H13  1  0.800800  0.666400  0.346800  1.0  0.0991
  H  H14  1  0.556600  0.757800  0.279500  1.0  0.0974
  H  H15  1  0.601400  0.894500  0.247400  1.0  0.1019
  H  H16  1  0.743500  0.915800  0.260800  1.0  0.1104
  H  H17  1  0.729400  0.418400  0.413900  1.0  0.1049
  H  H18  1  0.720400  0.664000  0.503700  1.0  0.1143
  H  H19  1  0.805800  0.612900  0.633800  1.0  0.1171
  H  H20  1  0.856100  0.465800  0.652400  1.0  0.1115
  H  H21  1  0.712700  0.549500  0.214600  1.0  0.1109
  H  H22  1  0.563600  0.406300  0.301700  1.0  0.1097
  H  H23  1  0.576500  0.283800  0.230400  1.0  0.1166
  H  H24  1  0.652000  0.294800  0.146300  1.0  0.1033
  H  H25  1  0.463100  0.595800  0.213800  1.0  0.1165
  H  H26  1  0.547800  0.579300  0.457100  1.0  0.1114
  H  H27  1  0.404200  0.583300  0.446500  1.0  0.1134
  H  H28  1  0.291300  0.599000  0.320900  1.0  0.1083
  H  H29  1  0.151400  0.733400  0.252100  1.0  0.1132
  H  H30  1  0.139400  0.796900  0.121500  1.0  0.1306
  H  H31  1  0.993000  0.938900  0.207000  1.0  0.1084
  H  H32  1  0.998100  0.844800  0.986700  1.0  0.1329
  H  H33  1  0.051900  0.064600  0.129000  1.0  0.1314
  H  H34  1  0.199200  0.166400  0.153200  1.0  0.0995
  H  H35  1  0.443400  0.257800  0.220500  1.0  0.0981
  H  H36  1  0.398600  0.394500  0.252600  1.0  0.1021
  H  H37  1  0.256500  0.415800  0.239200  1.0  0.1102
  H  H38  1  0.270600  0.918400  0.086100  1.0  0.1049
  H  H39  1  0.279600  0.164000  0.996300  1.0  0.1144
  H  H40  1  0.194200  0.112900  0.866200  1.0  0.1173
  H  H41  1  0.143900  0.965800  0.847600  1.0  0.1125
  H  H42  1  0.287300  0.049500  0.285400  1.0  0.1108
  H  H43  1  0.436400  0.906300  0.198300  1.0  0.1091
  H  H44  1  0.423500  0.783800  0.269600  1.0  0.1164
  H  H45  1  0.348000  0.794800  0.353700  1.0  0.1034
  H  H46  1  0.536900  0.095800  0.286200  1.0  0.1156
  H  H47  1  0.452200  0.079300  0.042900  1.0  0.111
  H  H48  1  0.595800  0.083300  0.053500  1.0  0.1131
  H  H49  1  0.708700  0.099000  0.179100  1.0  0.1079
  H  H50  1  0.848600  0.233400  0.247900  1.0  0.1132
  H  H51  1  0.860600  0.296900  0.378500  1.0  0.1305
  H  H52  1  0.007000  0.438900  0.293000  1.0  0.1092
  H  H53  1  0.001900  0.344800  0.513300  1.0  0.1329
  H  H54  1  0.948100  0.564600  0.371000  1.0  0.1313
  H  H55  1  0.199200  0.333600  0.653200  1.0  0.0987
  H  H56  1  0.443400  0.242200  0.720500  1.0  0.0967
  H  H57  1  0.398600  0.105500  0.752600  1.0  0.1022
  H  H58  1  0.256500  0.084200  0.739200  1.0  0.1102
  H  H59  1  0.270600  0.581600  0.586100  1.0  0.1049
  H  H60  1  0.279600  0.336000  0.496300  1.0  0.1156
  H  H61  1  0.194200  0.387100  0.366200  1.0  0.1166
  H  H62  1  0.143900  0.534200  0.347600  1.0  0.1124
  H  H63  1  0.287300  0.450500  0.785400  1.0  0.1104
  H  H64  1  0.436400  0.593700  0.698300  1.0  0.1092
  H  H65  1  0.423500  0.716200  0.769600  1.0  0.1167
  H  H66  1  0.348000  0.705200  0.853700  1.0  0.1028
  H  H67  1  0.536900  0.404200  0.786200  1.0  0.1156
  H  H68  1  0.452200  0.420700  0.542900  1.0  0.1108
  H  H69  1  0.595800  0.416700  0.553500  1.0  0.113
  H  H70  1  0.708700  0.401000  0.679100  1.0  0.108
  H  H71  1  0.848600  0.266600  0.747900  1.0  0.1138
  H  H72  1  0.860600  0.203100  0.878500  1.0  0.1306
  H  H73  1  0.007000  0.061100  0.793000  1.0  0.109
  H  H74  1  0.001900  0.155200  0.013300  1.0  0.1318
  H  H75  1  0.948100  0.935400  0.871000  1.0  0.1317
  H  H76  1  0.800800  0.833600  0.846800  1.0  0.0986
  H  H77  1  0.556600  0.742200  0.779500  1.0  0.0982
  H  H78  1  0.601400  0.605500  0.747400  1.0  0.1017
  H  H79  1  0.743500  0.584200  0.760800  1.0  0.1107
  H  H80  1  0.729400  0.081600  0.913900  1.0  0.1054
  H  H81  1  0.720400  0.836000  0.003700  1.0  0.1151
  H  H82  1  0.805800  0.887100  0.133800  1.0  0.1169
  H  H83  1  0.856100  0.034200  0.152400  1.0  0.1114
  H  H84  1  0.712700  0.950500  0.714600  1.0  0.111
  H  H85  1  0.563600  0.093700  0.801700  1.0  0.1095
  H  H86  1  0.576500  0.216200  0.730400  1.0  0.117
  H  H87  1  0.652000  0.205200  0.646300  1.0  0.1035
  H  H88  1  0.463100  0.904200  0.713800  1.0  0.1164
  H  H89  1  0.547800  0.920700  0.957100  1.0  0.1115
  H  H90  1  0.404200  0.916700  0.946500  1.0  0.1135
  H  H91  1  0.291300  0.901000  0.820900  1.0  0.1084
  H  H92  1  0.151400  0.766600  0.752100  1.0  0.1134
  H  H93  1  0.139400  0.703100  0.621500  1.0  0.1305
  H  H94  1  0.993000  0.561100  0.707000  1.0  0.1086
  H  H95  1  0.998100  0.655200  0.486700  1.0  0.1317
  H  H96  1  0.051900  0.435400  0.629000  1.0  0.132
  C  C97  1  0.879000  0.811000  0.318700  1.0  0.6956
  C  C98  1  0.786400  0.793100  0.306300  1.0  -0.1889
  C  C99  1  0.759300  0.711600  0.325500  1.0  -0.0039
  C  C100  1  0.672700  0.693500  0.314600  1.0  -0.2551
  C  C101  1  0.614700  0.765200  0.285900  1.0  -0.0395
  C  C102  1  0.641700  0.847800  0.266600  1.0  -0.0914
  C  C103  1  0.726500  0.861000  0.275500  1.0  -0.0972
  C  C104  1  0.826800  0.329900  0.546400  1.0  0.6893
  C  C105  1  0.796300  0.426500  0.535000  1.0  -0.1653
  C  C106  1  0.744400  0.457500  0.458300  1.0  -0.0166
  C  C107  1  0.713500  0.546600  0.445300  1.0  -0.3045
  C  C108  1  0.738600  0.604200  0.511400  1.0  -0.0341
  C  C109  1  0.790700  0.574000  0.589300  1.0  -0.0729
  C  C110  1  0.820100  0.485600  0.600500  1.0  -0.0198
  C  C111  1  0.735100  0.429400  0.115100  1.0  0.7168
  C  C112  1  0.689300  0.422600  0.170900  1.0  -0.1455
  C  C113  1  0.684500  0.496300  0.217800  1.0  -0.0041
  C  C114  1  0.639400  0.492900  0.268700  1.0  -0.2501
  C  C115  1  0.596900  0.410600  0.270000  1.0  -0.0588
  C  C116  1  0.603100  0.337800  0.226500  1.0  -0.0879
  C  C117  1  0.648700  0.344600  0.176800  1.0  -0.044
  C  C118  1  0.290300  0.610000  0.173000  1.0  0.6751
  C  C119  1  0.364900  0.598500  0.255400  1.0  -0.1757
  C  C120  1  0.452100  0.594100  0.261400  1.0  -0.0514
  C  C121  1  0.521800  0.587300  0.335900  1.0  -0.3067
  C  C122  1  0.502500  0.583800  0.405900  1.0  -0.0295
  C  C123  1  0.416300  0.586900  0.399600  1.0  -0.0919
  C  C124  1  0.348700  0.595400  0.324300  1.0  -0.0326
  C  C125  1  0.117900  0.783100  0.226500  1.0  0.0005
  C  C126  1  0.111500  0.817700  0.154700  1.0  -0.1406
  C  C127  1  0.031100  0.895400  0.202200  1.0  0.1705
  C  C128  1  0.027500  0.946500  0.068200  1.0  0.1577
  C  C129  1  0.998300  0.907100  0.991800  1.0  -0.14
  C  C130  1  0.030600  0.038800  0.077100  1.0  -0.1546
  C  C131  1  0.121000  0.311000  0.181300  1.0  0.6953
  C  C132  1  0.213600  0.293100  0.193700  1.0  -0.1897
  C  C133  1  0.240700  0.211600  0.174500  1.0  -0.0042
  C  C134  1  0.327300  0.193500  0.185400  1.0  -0.2568
  C  C135  1  0.385300  0.265200  0.214100  1.0  -0.0379
  C  C136  1  0.358300  0.347800  0.233400  1.0  -0.0907
  C  C137  1  0.273500  0.361000  0.224500  1.0  -0.099
  C  C138  1  0.173200  0.829900  0.953600  1.0  0.6893
  C  C139  1  0.203700  0.926500  0.965000  1.0  -0.1664
  C  C140  1  0.255600  0.957500  0.041700  1.0  -0.0161
  C  C141  1  0.286500  0.046600  0.054700  1.0  -0.3042
  C  C142  1  0.261400  0.104200  0.988600  1.0  -0.0331
  C  C143  1  0.209300  0.074000  0.910700  1.0  -0.0741
  C  C144  1  0.179900  0.985600  0.899500  1.0  -0.0189
  C  C145  1  0.264900  0.929400  0.384900  1.0  0.7157
  C  C146  1  0.310700  0.922600  0.329100  1.0  -0.1441
  C  C147  1  0.315500  0.996300  0.282200  1.0  -0.0051
  C  C148  1  0.360600  0.992900  0.231300  1.0  -0.2492
  C  C149  1  0.403100  0.910600  0.230000  1.0  -0.0604
  C  C150  1  0.396900  0.837800  0.273500  1.0  -0.0868
  C  C151  1  0.351300  0.844600  0.323200  1.0  -0.0428
  C  C152  1  0.709700  0.110000  0.327000  1.0  0.6752
  C  C153  1  0.635100  0.098500  0.244600  1.0  -0.1772
  C  C154  1  0.547900  0.094100  0.238600  1.0  -0.0542
  C  C155  1  0.478200  0.087300  0.164100  1.0  -0.3105
  C  C156  1  0.497500  0.083800  0.094100  1.0  -0.0301
  C  C157  1  0.583700  0.086900  0.100400  1.0  -0.0906
  C  C158  1  0.651300  0.095400  0.175700  1.0  -0.0353
  C  C159  1  0.882100  0.283100  0.273500  1.0  0.0013
  C  C160  1  0.888500  0.317700  0.345300  1.0  -0.1394
  C  C161  1  0.968900  0.395400  0.297800  1.0  0.1688
  C  C162  1  0.972500  0.446500  0.431800  1.0  0.1578
  C  C163  1  0.001700  0.407100  0.508200  1.0  -0.1392
  C  C164  1  0.969400  0.538800  0.422900  1.0  -0.1545
  C  C165  1  0.121000  0.189000  0.681300  1.0  0.6952
  C  C166  1  0.213600  0.206900  0.693700  1.0  -0.19
  C  C167  1  0.240700  0.288400  0.674500  1.0  -0.004
  C  C168  1  0.327300  0.306500  0.685400  1.0  -0.2548
  C  C169  1  0.385300  0.234800  0.714100  1.0  -0.037
  C  C170  1  0.358300  0.152200  0.733400  1.0  -0.0908
  C  C171  1  0.273500  0.139000  0.724500  1.0  -0.0988
  C  C172  1  0.173200  0.670100  0.453600  1.0  0.6887
  C  C173  1  0.203700  0.573500  0.465000  1.0  -0.1653
  C  C174  1  0.255600  0.542500  0.541700  1.0  -0.0172
  C  C175  1  0.286500  0.453400  0.554700  1.0  -0.3033
  C  C176  1  0.261400  0.395800  0.488600  1.0  -0.0349
  C  C177  1  0.209300  0.426000  0.410700  1.0  -0.0749
  C  C178  1  0.179900  0.514400  0.399500  1.0  -0.0191
  C  C179  1  0.264900  0.570600  0.884900  1.0  0.7168
  C  C180  1  0.310700  0.577400  0.829100  1.0  -0.1428
  C  C181  1  0.315500  0.503700  0.782200  1.0  -0.0044
  C  C182  1  0.360600  0.507100  0.731300  1.0  -0.2506
  C  C183  1  0.403100  0.589400  0.730000  1.0  -0.0605
  C  C184  1  0.396900  0.662200  0.773500  1.0  -0.0874
  C  C185  1  0.351300  0.655400  0.823200  1.0  -0.0432
  C  C186  1  0.709700  0.390000  0.827000  1.0  0.6751
  C  C187  1  0.635100  0.401500  0.744600  1.0  -0.1772
  C  C188  1  0.547900  0.405900  0.738600  1.0  -0.054
  C  C189  1  0.478200  0.412700  0.664100  1.0  -0.3108
  C  C190  1  0.497500  0.416200  0.594100  1.0  -0.03
  C  C191  1  0.583700  0.413100  0.600400  1.0  -0.0904
  C  C192  1  0.651300  0.404600  0.675700  1.0  -0.0351
  C  C193  1  0.882100  0.216900  0.773500  1.0  0.0016
  C  C194  1  0.888500  0.182300  0.845300  1.0  -0.1396
  C  C195  1  0.968900  0.104600  0.797800  1.0  0.1693
  C  C196  1  0.972500  0.053500  0.931800  1.0  0.1573
  C  C197  1  0.001700  0.092900  0.008200  1.0  -0.1416
  C  C198  1  0.969400  0.961200  0.922900  1.0  -0.1564
  C  C199  1  0.879000  0.689000  0.818700  1.0  0.6954
  C  C200  1  0.786400  0.706900  0.806300  1.0  -0.1888
  C  C201  1  0.759300  0.788400  0.825500  1.0  -0.0038
  C  C202  1  0.672700  0.806500  0.814600  1.0  -0.2538
  C  C203  1  0.614700  0.734800  0.785900  1.0  -0.0394
  C  C204  1  0.641700  0.652200  0.766600  1.0  -0.0914
  C  C205  1  0.726500  0.639000  0.775500  1.0  -0.097
  C  C206  1  0.826800  0.170100  0.046400  1.0  0.689
  C  C207  1  0.796300  0.073500  0.035000  1.0  -0.1647
  C  C208  1  0.744400  0.042500  0.958300  1.0  -0.0176
  C  C209  1  0.713500  0.953400  0.945300  1.0  -0.3046
  C  C210  1  0.738600  0.895800  0.011400  1.0  -0.0337
  C  C211  1  0.790700  0.926000  0.089300  1.0  -0.0736
  C  C212  1  0.820100  0.014400  0.100500  1.0  -0.0195
  C  C213  1  0.735100  0.070600  0.615100  1.0  0.7169
  C  C214  1  0.689300  0.077400  0.670900  1.0  -0.1461
  C  C215  1  0.684500  0.003700  0.717800  1.0  -0.0045
  C  C216  1  0.639400  0.007100  0.768700  1.0  -0.2511
  C  C217  1  0.596900  0.089400  0.770000  1.0  -0.0592
  C  C218  1  0.603100  0.162200  0.726500  1.0  -0.0889
  C  C219  1  0.648700  0.155400  0.676800  1.0  -0.0449
  C  C220  1  0.290300  0.890000  0.673000  1.0  0.6757
  C  C221  1  0.364900  0.901500  0.755400  1.0  -0.1751
  C  C222  1  0.452100  0.905900  0.761400  1.0  -0.0516
  C  C223  1  0.521800  0.912700  0.835900  1.0  -0.3068
  C  C224  1  0.502500  0.916200  0.905900  1.0  -0.0289
  C  C225  1  0.416300  0.913100  0.899600  1.0  -0.0916
  C  C226  1  0.348700  0.904600  0.824300  1.0  -0.0324
  C  C227  1  0.117900  0.716900  0.726500  1.0  0.0005
  C  C228  1  0.111500  0.682300  0.654700  1.0  -0.1403
  C  C229  1  0.031100  0.604600  0.702200  1.0  0.1709
  C  C230  1  0.027500  0.553500  0.568200  1.0  0.1571
  C  C231  1  0.998300  0.592900  0.491800  1.0  -0.1418
  C  C232  1  0.030600  0.461200  0.577100  1.0  -0.1565
  N  N233  1  0.066800  0.832800  0.256100  1.0  -0.3409
  N  N234  1  0.055900  0.889500  0.139700  1.0  0.0397
  N  N235  1  0.933200  0.332800  0.243900  1.0  -0.3423
  N  N236  1  0.944100  0.389500  0.360300  1.0  0.0404
  N  N237  1  0.933200  0.167200  0.743900  1.0  -0.3417
  N  N238  1  0.944100  0.110500  0.860300  1.0  0.0407
  N  N239  1  0.066800  0.667200  0.756100  1.0  -0.3411
  N  N240  1  0.055900  0.610500  0.639700  1.0  0.04
  O  O241  1  0.902100  0.884300  0.300500  1.0  -0.6224
  O  O242  1  0.934300  0.747600  0.348300  1.0  -0.5854
  O  O243  1  0.880400  0.307500  0.613400  1.0  -0.5585
  O  O244  1  0.792700  0.279000  0.484100  1.0  -0.5998
  O  O245  1  0.217100  0.625800  0.169800  1.0  -0.51
  O  O246  1  0.310000  0.607400  0.110300  1.0  -0.606
  O  O247  1  0.730600  0.360000  0.071800  1.0  -0.5969
  O  O248  1  0.774300  0.496600  0.113400  1.0  -0.4863
  O  O249  1  0.096300  0.889100  0.450400  1.0  -0.5966
  O  O250  1  0.097900  0.384300  0.199500  1.0  -0.6234
  O  O251  1  0.065700  0.247600  0.151700  1.0  -0.5848
  O  O252  1  0.119600  0.807500  0.886600  1.0  -0.5592
  O  O253  1  0.207300  0.779000  0.015900  1.0  -0.5975
  O  O254  1  0.782900  0.125800  0.330200  1.0  -0.5095
  O  O255  1  0.690000  0.107400  0.389700  1.0  -0.6061
  O  O256  1  0.269400  0.860000  0.428200  1.0  -0.5965
  O  O257  1  0.225700  0.996600  0.386600  1.0  -0.4853
  O  O258  1  0.903700  0.389100  0.049600  1.0  -0.5958
  O  O259  1  0.097900  0.115700  0.699500  1.0  -0.6224
  O  O260  1  0.065700  0.252400  0.651700  1.0  -0.5862
  O  O261  1  0.119600  0.692500  0.386600  1.0  -0.5586
  O  O262  1  0.207300  0.721000  0.515900  1.0  -0.5982
  O  O263  1  0.782900  0.374200  0.830200  1.0  -0.5092
  O  O264  1  0.690000  0.392600  0.889700  1.0  -0.6067
  O  O265  1  0.269400  0.640000  0.928200  1.0  -0.595
  O  O266  1  0.225700  0.503400  0.886600  1.0  -0.4863
  O  O267  1  0.903700  0.110900  0.549600  1.0  -0.5947
  O  O268  1  0.902100  0.615700  0.800500  1.0  -0.6217
  O  O269  1  0.934300  0.752400  0.848300  1.0  -0.5849
  O  O270  1  0.880400  0.192500  0.113400  1.0  -0.5589
  O  O271  1  0.792700  0.221000  0.984100  1.0  -0.6002
  O  O272  1  0.217100  0.874200  0.669800  1.0  -0.5105
  O  O273  1  0.310000  0.892600  0.610300  1.0  -0.6073
  O  O274  1  0.730600  0.140000  0.571800  1.0  -0.5966
  O  O275  1  0.774300  0.003400  0.613400  1.0  -0.4871
  O  O276  1  0.096300  0.610900  0.950400  1.0  -0.5967
