# generated using pymatgen
data_ZnH27(C3O)12
_symmetry_space_group_name_H-M   'P 1'
_cell_length_a   11.80400000
_cell_length_b   24.81000000
_cell_length_c   15.67200000
_cell_angle_alpha   90.00000000
_cell_angle_beta   96.26900000
_cell_angle_gamma   90.00000000
_symmetry_Int_Tables_number   1
_chemical_formula_structural   ZnH27(C3O)12
_chemical_formula_sum   'Zn4 H108 C144 O48'
_cell_volume   4562.21334152
_cell_formula_units_Z   4
loop_
 _symmetry_equiv_pos_site_id
 _symmetry_equiv_pos_as_xyz
  1  'x, y, z'
loop_
 _atom_site_type_symbol
 _atom_site_label
 _atom_site_symmetry_multiplicity
 _atom_site_fract_x
 _atom_site_fract_y
 _atom_site_fract_z
 _atom_site_occupancy
 _atom_site_charge
  Zn  Zn1  1  0.087140  0.333140  0.992980  1.0  1.1113
  Zn  Zn2  1  0.412860  0.833140  0.507020  1.0  1.1102
  Zn  Zn3  1  0.912860  0.666860  0.007020  1.0  1.1107
  Zn  Zn4  1  0.587140  0.166860  0.492980  1.0  1.1117
  H  H5  1  0.072900  0.404200  0.733500  1.0  0.1084
  H  H6  1  0.068600  0.341200  0.733600  1.0  0.1399
  H  H7  1  0.980200  0.552900  0.799300  1.0  0.0928
  H  H8  1  0.868100  0.528100  0.828100  1.0  0.0909
  H  H9  1  0.930000  0.465800  0.753200  1.0  0.1281
  H  H10  1  0.765300  0.478300  0.474200  1.0  0.0861
  H  H11  1  0.707100  0.588100  0.593700  1.0  0.1151
  H  H12  1  0.535800  0.551400  0.517500  1.0  0.0974
  H  H13  1  0.413800  0.552200  0.393500  1.0  0.0972
  H  H14  1  0.668700  0.593800  0.263000  1.0  0.1038
  H  H15  1  0.790500  0.593900  0.386200  1.0  0.0936
  H  H16  1  0.371300  0.565900  0.244600  1.0  0.137
  H  H17  1  0.471800  0.550300  0.191800  1.0  0.1361
  H  H18  1  0.445500  0.611100  0.208300  1.0  0.1441
  H  H19  1  0.612400  0.686900  0.466300  1.0  0.1174
  H  H20  1  0.706200  0.731800  0.468300  1.0  0.1056
  H  H21  1  0.051300  0.791400  0.586900  1.0  0.0988
  H  H22  1  0.016800  0.794900  0.487400  1.0  0.0972
  H  H23  1  0.890900  0.745700  0.554000  1.0  0.1144
  H  H24  1  0.973800  0.566300  0.520800  1.0  0.0875
  H  H25  1  0.155200  0.579600  0.652700  1.0  0.1132
  H  H26  1  0.300100  0.563300  0.758200  1.0  0.1102
  H  H27  1  0.513800  0.645100  0.630100  1.0  0.1032
  H  H28  1  0.370100  0.660400  0.521800  1.0  0.1103
  H  H29  1  0.588600  0.604600  0.759800  1.0  0.1381
  H  H30  1  0.529300  0.549900  0.777800  1.0  0.1334
  H  H31  1  0.501200  0.601900  0.828100  1.0  0.1364
  H  H32  1  0.427100  0.904200  0.766500  1.0  0.1094
  H  H33  1  0.431400  0.841200  0.766400  1.0  0.1399
  H  H34  1  0.519800  0.052900  0.700700  1.0  0.0926
  H  H35  1  0.631900  0.028100  0.671900  1.0  0.0898
  H  H36  1  0.570000  0.965800  0.746800  1.0  0.1282
  H  H37  1  0.734700  0.978300  0.025800  1.0  0.0864
  H  H38  1  0.792900  0.088100  0.906300  1.0  0.1175
  H  H39  1  0.964200  0.051400  0.982500  1.0  0.098
  H  H40  1  0.086200  0.052200  0.106500  1.0  0.0969
  H  H41  1  0.831300  0.093800  0.237000  1.0  0.1043
  H  H42  1  0.709500  0.093900  0.113800  1.0  0.0943
  H  H43  1  0.128700  0.065900  0.255400  1.0  0.135
  H  H44  1  0.028200  0.050300  0.308200  1.0  0.1368
  H  H45  1  0.054500  0.111100  0.291700  1.0  0.1433
  H  H46  1  0.887600  0.186900  0.033700  1.0  0.1177
  H  H47  1  0.793800  0.231800  0.031700  1.0  0.106
  H  H48  1  0.448700  0.291400  0.913100  1.0  0.0981
  H  H49  1  0.483200  0.294900  0.012600  1.0  0.0973
  H  H50  1  0.609100  0.245700  0.946000  1.0  0.1142
  H  H51  1  0.526200  0.066300  0.979200  1.0  0.0875
  H  H52  1  0.344800  0.079600  0.847300  1.0  0.1131
  H  H53  1  0.199900  0.063300  0.741800  1.0  0.111
  H  H54  1  0.986200  0.145100  0.869900  1.0  0.1028
  H  H55  1  0.129900  0.160400  0.978200  1.0  0.11
  H  H56  1  0.911400  0.104600  0.740200  1.0  0.1389
  H  H57  1  0.970700  0.049900  0.722200  1.0  0.1354
  H  H58  1  0.998800  0.101900  0.671900  1.0  0.1364
  H  H59  1  0.927100  0.595800  0.266500  1.0  0.1091
  H  H60  1  0.931400  0.658800  0.266400  1.0  0.1391
  H  H61  1  0.019800  0.447100  0.200700  1.0  0.0928
  H  H62  1  0.131900  0.471900  0.171900  1.0  0.0897
  H  H63  1  0.070000  0.534200  0.246800  1.0  0.1283
  H  H64  1  0.234700  0.521700  0.525800  1.0  0.0857
  H  H65  1  0.292900  0.411900  0.406300  1.0  0.1175
  H  H66  1  0.464200  0.448600  0.482500  1.0  0.0981
  H  H67  1  0.586200  0.447800  0.606500  1.0  0.0971
  H  H68  1  0.331300  0.406200  0.737000  1.0  0.1045
  H  H69  1  0.209500  0.406100  0.613800  1.0  0.0942
  H  H70  1  0.628700  0.434100  0.755400  1.0  0.1359
  H  H71  1  0.528200  0.449700  0.808200  1.0  0.1371
  H  H72  1  0.554500  0.388900  0.791700  1.0  0.1423
  H  H73  1  0.387600  0.313100  0.533700  1.0  0.1184
  H  H74  1  0.293800  0.268200  0.531700  1.0  0.1053
  H  H75  1  0.948700  0.208600  0.413100  1.0  0.0983
  H  H76  1  0.983200  0.205100  0.512600  1.0  0.098
  H  H77  1  0.109100  0.254300  0.446000  1.0  0.1137
  H  H78  1  0.026200  0.433700  0.479200  1.0  0.088
  H  H79  1  0.844800  0.420400  0.347300  1.0  0.1131
  H  H80  1  0.699900  0.436700  0.241800  1.0  0.1107
  H  H81  1  0.486200  0.354900  0.369900  1.0  0.1029
  H  H82  1  0.629900  0.339600  0.478200  1.0  0.1098
  H  H83  1  0.411400  0.395400  0.240200  1.0  0.1384
  H  H84  1  0.470700  0.450100  0.222200  1.0  0.1365
  H  H85  1  0.498800  0.398100  0.171900  1.0  0.1363
  H  H86  1  0.572900  0.095800  0.233500  1.0  0.1091
  H  H87  1  0.568600  0.158800  0.233600  1.0  0.1382
  H  H88  1  0.480200  0.947100  0.299300  1.0  0.0931
  H  H89  1  0.368100  0.971900  0.328100  1.0  0.0902
  H  H90  1  0.430000  0.034200  0.253200  1.0  0.1281
  H  H91  1  0.265300  0.021700  0.974200  1.0  0.0859
  H  H92  1  0.207100  0.911900  0.093700  1.0  0.115
  H  H93  1  0.035800  0.948600  0.017500  1.0  0.0974
  H  H94  1  0.913800  0.947800  0.893500  1.0  0.0974
  H  H95  1  0.168700  0.906200  0.763000  1.0  0.1039
  H  H96  1  0.290500  0.906100  0.886200  1.0  0.0935
  H  H97  1  0.871300  0.934100  0.744600  1.0  0.137
  H  H98  1  0.971800  0.949700  0.691800  1.0  0.136
  H  H99  1  0.945500  0.888900  0.708300  1.0  0.1424
  H  H100  1  0.112400  0.813100  0.966300  1.0  0.1177
  H  H101  1  0.206200  0.768200  0.968300  1.0  0.1053
  H  H102  1  0.551300  0.708600  0.086900  1.0  0.0991
  H  H103  1  0.516800  0.705100  0.987400  1.0  0.0977
  H  H104  1  0.390900  0.754300  0.054000  1.0  0.114
  H  H105  1  0.473800  0.933700  0.020800  1.0  0.088
  H  H106  1  0.655200  0.920400  0.152700  1.0  0.1133
  H  H107  1  0.800100  0.936700  0.258200  1.0  0.1101
  H  H108  1  0.013800  0.854900  0.130100  1.0  0.1036
  H  H109  1  0.870100  0.839600  0.021800  1.0  0.1101
  H  H110  1  0.088600  0.895400  0.259800  1.0  0.1383
  H  H111  1  0.029300  0.950100  0.277800  1.0  0.135
  H  H112  1  0.001200  0.898100  0.328100  1.0  0.1364
  C  C113  1  0.987800  0.374290  0.827900  1.0  0.714
  C  C114  1  0.023500  0.373450  0.739400  1.0  -0.0559
  C  C115  1  0.879700  0.609190  0.848900  1.0  0.6869
  C  C116  1  0.899000  0.558660  0.799700  1.0  -0.0586
  C  C117  1  0.850500  0.516290  0.666000  1.0  0.2903
  C  C118  1  0.896600  0.468270  0.696800  1.0  -0.211
  C  C119  1  0.893200  0.423700  0.643500  1.0  0.2651
  C  C120  1  0.843500  0.426110  0.559660  1.0  -0.0342
  C  C121  1  0.798600  0.475680  0.530580  1.0  -0.0902
  C  C122  1  0.801600  0.521230  0.582220  1.0  0.0454
  C  C123  1  0.754300  0.575050  0.550340  1.0  -0.1072
  C  C124  1  0.677500  0.573170  0.466300  1.0  0.0991
  C  C125  1  0.563600  0.560490  0.466100  1.0  -0.1186
  C  C126  1  0.490000  0.560940  0.391400  1.0  -0.1585
  C  C127  1  0.527200  0.574010  0.314000  1.0  0.0848
  C  C128  1  0.640600  0.585600  0.314600  1.0  -0.1312
  C  C129  1  0.714100  0.585470  0.388700  1.0  -0.1508
  C  C130  1  0.446600  0.575400  0.232200  1.0  -0.409
  C  C131  1  0.573300  0.753220  0.534200  1.0  0.7015
  C  C132  1  0.181600  0.818150  0.522100  1.0  0.7598
  C  C133  1  0.654700  0.713310  0.502600  1.0  -0.0575
  C  C134  1  0.077400  0.784720  0.531300  1.0  -0.037
  C  C135  1  0.015300  0.694150  0.529900  1.0  0.2299
  C  C136  1  0.908000  0.709460  0.547200  1.0  -0.2576
  C  C137  1  0.825600  0.670380  0.554300  1.0  0.2433
  C  C138  1  0.848600  0.616470  0.546040  1.0  -0.0201
  C  C139  1  0.957300  0.602580  0.527610  1.0  -0.1159
  C  C140  1  0.041900  0.639780  0.518880  1.0  0.0107
  C  C141  1  0.160100  0.624900  0.495800  1.0  -0.0673
  C  C142  1  0.247400  0.620090  0.573300  1.0  0.0749
  C  C143  1  0.228000  0.592170  0.646500  1.0  -0.1352
  C  C144  1  0.315000  0.582800  0.710000  1.0  -0.1333
  C  C145  1  0.422900  0.601300  0.704600  1.0  0.0705
  C  C146  1  0.441700  0.630880  0.634400  1.0  -0.1424
  C  C147  1  0.355100  0.640140  0.569300  1.0  -0.0989
  C  C148  1  0.519400  0.588200  0.774000  1.0  -0.4227
  C  C149  1  0.512200  0.874290  0.672100  1.0  0.7139
  C  C150  1  0.476500  0.873450  0.760600  1.0  -0.0539
  C  C151  1  0.620300  0.109190  0.651100  1.0  0.6863
  C  C152  1  0.601000  0.058660  0.700300  1.0  -0.0597
  C  C153  1  0.649500  0.016290  0.834000  1.0  0.2905
  C  C154  1  0.603400  0.968270  0.803200  1.0  -0.2111
  C  C155  1  0.606800  0.923700  0.856500  1.0  0.265
  C  C156  1  0.656500  0.926110  0.940340  1.0  -0.035
  C  C157  1  0.701400  0.975680  0.969420  1.0  -0.0904
  C  C158  1  0.698400  0.021230  0.917780  1.0  0.0446
  C  C159  1  0.745700  0.075050  0.949660  1.0  -0.1061
  C  C160  1  0.822500  0.073170  0.033700  1.0  0.1009
  C  C161  1  0.936400  0.060490  0.033900  1.0  -0.1181
  C  C162  1  0.010000  0.060940  0.108600  1.0  -0.1601
  C  C163  1  0.972800  0.074010  0.186000  1.0  0.0872
  C  C164  1  0.859400  0.085600  0.185400  1.0  -0.1295
  C  C165  1  0.785900  0.085470  0.111300  1.0  -0.1508
  C  C166  1  0.053400  0.075400  0.267800  1.0  -0.4119
  C  C167  1  0.926700  0.253220  0.965800  1.0  0.7025
  C  C168  1  0.318400  0.318150  0.977900  1.0  0.7592
  C  C169  1  0.845300  0.213310  0.997400  1.0  -0.0574
  C  C170  1  0.422600  0.284720  0.968700  1.0  -0.0372
  C  C171  1  0.484700  0.194150  0.970100  1.0  0.2298
  C  C172  1  0.592000  0.209460  0.952800  1.0  -0.2556
  C  C173  1  0.674400  0.170380  0.945700  1.0  0.2444
  C  C174  1  0.651400  0.116470  0.953960  1.0  -0.0205
  C  C175  1  0.542700  0.102580  0.972390  1.0  -0.1174
  C  C176  1  0.458100  0.139780  0.981120  1.0  0.0091
  C  C177  1  0.339900  0.124900  0.004200  1.0  -0.0675
  C  C178  1  0.252600  0.120090  0.926700  1.0  0.075
  C  C179  1  0.272000  0.092170  0.853500  1.0  -0.134
  C  C180  1  0.185000  0.082800  0.790000  1.0  -0.1318
  C  C181  1  0.077100  0.101300  0.795400  1.0  0.0706
  C  C182  1  0.058300  0.130880  0.865600  1.0  -0.1406
  C  C183  1  0.144900  0.140140  0.930700  1.0  -0.1007
  C  C184  1  0.980600  0.088200  0.726000  1.0  -0.4217
  C  C185  1  0.012200  0.625710  0.172100  1.0  0.7137
  C  C186  1  0.976500  0.626550  0.260600  1.0  -0.055
  C  C187  1  0.120300  0.390810  0.151100  1.0  0.6868
  C  C188  1  0.101000  0.441340  0.200300  1.0  -0.0599
  C  C189  1  0.149500  0.483710  0.334000  1.0  0.2902
  C  C190  1  0.103400  0.531730  0.303200  1.0  -0.2116
  C  C191  1  0.106800  0.576300  0.356500  1.0  0.2664
  C  C192  1  0.156500  0.573890  0.440340  1.0  -0.035
  C  C193  1  0.201400  0.524320  0.469420  1.0  -0.0908
  C  C194  1  0.198400  0.478770  0.417780  1.0  0.0446
  C  C195  1  0.245700  0.424950  0.449660  1.0  -0.1056
  C  C196  1  0.322500  0.426830  0.533700  1.0  0.1013
  C  C197  1  0.436400  0.439510  0.533900  1.0  -0.1181
  C  C198  1  0.510000  0.439060  0.608600  1.0  -0.1613
  C  C199  1  0.472800  0.425990  0.686000  1.0  0.0873
  C  C200  1  0.359400  0.414400  0.685400  1.0  -0.1285
  C  C201  1  0.285900  0.414530  0.611300  1.0  -0.1504
  C  C202  1  0.553400  0.424600  0.767800  1.0  -0.4112
  C  C203  1  0.426700  0.246780  0.465800  1.0  0.7023
  C  C204  1  0.818400  0.181850  0.477900  1.0  0.7598
  C  C205  1  0.345300  0.286690  0.497400  1.0  -0.0564
  C  C206  1  0.922600  0.215280  0.468700  1.0  -0.0383
  C  C207  1  0.984700  0.305850  0.470100  1.0  0.2292
  C  C208  1  0.092000  0.290540  0.452800  1.0  -0.2576
  C  C209  1  0.174400  0.329620  0.445700  1.0  0.2451
  C  C210  1  0.151400  0.383530  0.453960  1.0  -0.0211
  C  C211  1  0.042700  0.397420  0.472390  1.0  -0.1169
  C  C212  1  0.958100  0.360220  0.481120  1.0  0.0079
  C  C213  1  0.839900  0.375100  0.504200  1.0  -0.0675
  C  C214  1  0.752600  0.379910  0.426700  1.0  0.0755
  C  C215  1  0.772000  0.407830  0.353500  1.0  -0.1345
  C  C216  1  0.685000  0.417200  0.290000  1.0  -0.1319
  C  C217  1  0.577100  0.398700  0.295400  1.0  0.0692
  C  C218  1  0.558300  0.369120  0.365600  1.0  -0.1411
  C  C219  1  0.644900  0.359860  0.430700  1.0  -0.0992
  C  C220  1  0.480600  0.411800  0.226000  1.0  -0.4218
  C  C221  1  0.487800  0.125710  0.327900  1.0  0.7133
  C  C222  1  0.523500  0.126550  0.239400  1.0  -0.0541
  C  C223  1  0.379700  0.890810  0.348900  1.0  0.6876
  C  C224  1  0.399000  0.941340  0.299700  1.0  -0.0574
  C  C225  1  0.350500  0.983710  0.166000  1.0  0.2905
  C  C226  1  0.396600  0.031730  0.196800  1.0  -0.211
  C  C227  1  0.393200  0.076300  0.143500  1.0  0.2665
  C  C228  1  0.343500  0.073890  0.059660  1.0  -0.0341
  C  C229  1  0.298600  0.024320  0.030580  1.0  -0.0908
  C  C230  1  0.301600  0.978770  0.082220  1.0  0.0453
  C  C231  1  0.254300  0.924950  0.050340  1.0  -0.1065
  C  C232  1  0.177500  0.926830  0.966300  1.0  0.0996
  C  C233  1  0.063600  0.939510  0.966100  1.0  -0.1186
  C  C234  1  0.990000  0.939060  0.891400  1.0  -0.1591
  C  C235  1  0.027200  0.925990  0.814000  1.0  0.0841
  C  C236  1  0.140600  0.914400  0.814600  1.0  -0.1306
  C  C237  1  0.214100  0.914530  0.888700  1.0  -0.1505
  C  C238  1  0.946600  0.924600  0.732200  1.0  -0.4092
  C  C239  1  0.073300  0.746780  0.034200  1.0  0.7021
  C  C240  1  0.681600  0.681850  0.022100  1.0  0.7598
  C  C241  1  0.154700  0.786690  0.002600  1.0  -0.0568
  C  C242  1  0.577400  0.715280  0.031300  1.0  -0.0366
  C  C243  1  0.515300  0.805850  0.029900  1.0  0.2295
  C  C244  1  0.408000  0.790540  0.047200  1.0  -0.2599
  C  C245  1  0.325600  0.829620  0.054300  1.0  0.2438
  C  C246  1  0.348600  0.883530  0.046040  1.0  -0.0203
  C  C247  1  0.457300  0.897420  0.027610  1.0  -0.1156
  C  C248  1  0.541900  0.860220  0.018880  1.0  0.0102
  C  C249  1  0.660100  0.875100  0.995800  1.0  -0.0677
  C  C250  1  0.747400  0.879910  0.073300  1.0  0.0759
  C  C251  1  0.728000  0.907830  0.146500  1.0  -0.1355
  C  C252  1  0.815000  0.917200  0.210000  1.0  -0.1326
  C  C253  1  0.922900  0.898700  0.204600  1.0  0.0714
  C  C254  1  0.941700  0.869120  0.134400  1.0  -0.1437
  C  C255  1  0.855100  0.859860  0.069300  1.0  -0.0995
  C  C256  1  0.019400  0.911800  0.274000  1.0  -0.4222
  O  O257  1  0.073500  0.371960  0.884740  1.0  -0.6103
  O  O258  1  0.888500  0.378490  0.839930  1.0  -0.483
  O  O259  1  0.916100  0.605040  0.928760  1.0  -0.6048
  O  O260  1  0.835200  0.648790  0.815990  1.0  -0.4664
  O  O261  1  0.936300  0.374610  0.671070  1.0  -0.2857
  O  O262  1  0.847800  0.561670  0.715880  1.0  -0.2552
  O  O263  1  0.562100  0.758370  0.610280  1.0  -0.4978
  O  O264  1  0.518300  0.779910  0.473640  1.0  -0.6005
  O  O265  1  0.168500  0.867330  0.527900  1.0  -0.5076
  O  O266  1  0.269900  0.794850  0.508470  1.0  -0.5721
  O  O267  1  0.718410  0.686790  0.572160  1.0  -0.2696
  O  O268  1  0.102160  0.729720  0.523340  1.0  -0.2664
  O  O269  1  0.426500  0.871960  0.615260  1.0  -0.6115
  O  O270  1  0.611500  0.878490  0.660070  1.0  -0.4827
  O  O271  1  0.583900  0.105040  0.571240  1.0  -0.6059
  O  O272  1  0.664800  0.148790  0.684010  1.0  -0.4666
  O  O273  1  0.563700  0.874610  0.828930  1.0  -0.2881
  O  O274  1  0.652200  0.061670  0.784120  1.0  -0.2543
  O  O275  1  0.937900  0.258370  0.889720  1.0  -0.4924
  O  O276  1  0.981700  0.279910  0.026360  1.0  -0.5995
  O  O277  1  0.331500  0.367330  0.972100  1.0  -0.5063
  O  O278  1  0.230100  0.294850  0.991530  1.0  -0.5708
  O  O279  1  0.781590  0.186790  0.927840  1.0  -0.2672
  O  O280  1  0.397840  0.229720  0.976660  1.0  -0.2642
  O  O281  1  0.926500  0.628040  0.115260  1.0  -0.6093
  O  O282  1  0.111500  0.621510  0.160070  1.0  -0.4823
  O  O283  1  0.083900  0.394960  0.071240  1.0  -0.6059
  O  O284  1  0.164800  0.351210  0.184010  1.0  -0.4667
  O  O285  1  0.063700  0.625390  0.328930  1.0  -0.2891
  O  O286  1  0.152200  0.438330  0.284120  1.0  -0.2544
  O  O287  1  0.437900  0.241630  0.389720  1.0  -0.4922
  O  O288  1  0.481700  0.220090  0.526360  1.0  -0.5998
  O  O289  1  0.831500  0.132670  0.472100  1.0  -0.5085
  O  O290  1  0.730100  0.205150  0.491530  1.0  -0.5711
  O  O291  1  0.281590  0.313210  0.427840  1.0  -0.2668
  O  O292  1  0.897840  0.270280  0.476660  1.0  -0.2641
  O  O293  1  0.573500  0.128040  0.384740  1.0  -0.6096
  O  O294  1  0.388500  0.121510  0.339930  1.0  -0.4828
  O  O295  1  0.416100  0.894960  0.428760  1.0  -0.6051
  O  O296  1  0.335200  0.851210  0.315990  1.0  -0.4683
  O  O297  1  0.436300  0.125390  0.171070  1.0  -0.2865
  O  O298  1  0.347800  0.938330  0.215880  1.0  -0.2549
  O  O299  1  0.062100  0.741630  0.110280  1.0  -0.498
  O  O300  1  0.018300  0.720090  0.973640  1.0  -0.6
  O  O301  1  0.668500  0.632670  0.027900  1.0  -0.509
  O  O302  1  0.769900  0.705150  0.008470  1.0  -0.5722
  O  O303  1  0.218410  0.813210  0.072160  1.0  -0.2707
  O  O304  1  0.602160  0.770280  0.023340  1.0  -0.2662
