# generated using pymatgen
data_CoH28(C3O)12
_symmetry_space_group_name_H-M   'P 1'
_cell_length_a   11.83800000
_cell_length_b   24.77200000
_cell_length_c   15.77300000
_cell_angle_alpha   90.00000000
_cell_angle_beta   96.83400000
_cell_angle_gamma   90.00000000
_symmetry_Int_Tables_number   1
_chemical_formula_structural   CoH28(C3O)12
_chemical_formula_sum   'Co4 H112 C144 O48'
_cell_volume   4592.58354068
_cell_formula_units_Z   4
loop_
 _symmetry_equiv_pos_site_id
 _symmetry_equiv_pos_as_xyz
  1  'x, y, z'
loop_
 _atom_site_type_symbol
 _atom_site_label
 _atom_site_symmetry_multiplicity
 _atom_site_fract_x
 _atom_site_fract_y
 _atom_site_fract_z
 _atom_site_occupancy
 _atom_site_charge
  Co  Co1  1  0.911880  0.335030  0.007530  1.0  1.1047
  Co  Co2  1  0.588120  0.835030  0.492470  1.0  1.1093
  Co  Co3  1  0.088120  0.664970  0.992470  1.0  1.1096
  Co  Co4  1  0.411880  0.164970  0.507530  1.0  1.1049
  H  H5  1  0.928300  0.402400  0.263700  1.0  0.109
  H  H6  1  0.935700  0.339500  0.262700  1.0  0.1438
  H  H7  1  0.024500  0.550200  0.198900  1.0  0.0882
  H  H8  1  0.139400  0.526800  0.174300  1.0  0.0931
  H  H9  1  0.069900  0.465300  0.248700  1.0  0.1195
  H  H10  1  0.236000  0.477000  0.526700  1.0  0.0883
  H  H11  1  0.184200  0.345100  0.463400  1.0  0.1084
  H  H12  1  0.156100  0.420400  0.652500  1.0  0.1027
  H  H13  1  0.300400  0.435800  0.761000  1.0  0.1134
  H  H14  1  0.589800  0.394000  0.766200  1.0  0.1322
  H  H15  1  0.501500  0.396900  0.832600  1.0  0.1344
  H  H16  1  0.530800  0.449000  0.783000  1.0  0.1386
  H  H17  1  0.513300  0.354100  0.633100  1.0  0.1027
  H  H18  1  0.370500  0.338900  0.525900  1.0  0.0994
  H  H19  1  0.017200  0.202300  0.491200  1.0  0.0902
  H  H20  1  0.052900  0.207700  0.590000  1.0  0.0947
  H  H21  1  0.703100  0.268000  0.468800  1.0  0.1026
  H  H22  1  0.609700  0.313000  0.467700  1.0  0.1162
  H  H23  1  0.890200  0.253500  0.554700  1.0  0.1141
  H  H24  1  0.973900  0.433400  0.521400  1.0  0.0918
  H  H25  1  0.707500  0.411600  0.591700  1.0  0.1118
  H  H26  1  0.790500  0.406400  0.386300  1.0  0.0903
  H  H27  1  0.665900  0.405700  0.260500  1.0  0.1008
  H  H28  1  0.486400  0.414600  0.182300  1.0  0.1315
  H  H29  1  0.410900  0.459200  0.218000  1.0  0.1404
  H  H30  1  0.386100  0.398100  0.233500  1.0  0.1337
  H  H31  1  0.413200  0.447400  0.389400  1.0  0.0918
  H  H32  1  0.534500  0.447300  0.515000  1.0  0.1053
  H  H33  1  0.571700  0.902400  0.236300  1.0  0.1073
  H  H34  1  0.564300  0.839500  0.237300  1.0  0.1425
  H  H35  1  0.475500  0.050200  0.301100  1.0  0.0879
  H  H36  1  0.360600  0.026800  0.325700  1.0  0.0935
  H  H37  1  0.430100  0.965300  0.251300  1.0  0.1177
  H  H38  1  0.264000  0.977000  0.973300  1.0  0.0883
  H  H39  1  0.315800  0.845100  0.036600  1.0  0.1089
  H  H40  1  0.343900  0.920400  0.847500  1.0  0.1033
  H  H41  1  0.199600  0.935800  0.739000  1.0  0.1136
  H  H42  1  0.910200  0.894000  0.733800  1.0  0.1321
  H  H43  1  0.998500  0.896900  0.667400  1.0  0.1335
  H  H44  1  0.969200  0.949000  0.717000  1.0  0.1373
  H  H45  1  0.986700  0.854100  0.866900  1.0  0.1022
  H  H46  1  0.129500  0.838900  0.974100  1.0  0.0987
  H  H47  1  0.482800  0.702300  0.008800  1.0  0.0916
  H  H48  1  0.447100  0.707700  0.910000  1.0  0.0951
  H  H49  1  0.796900  0.768000  0.031200  1.0  0.1025
  H  H50  1  0.890300  0.813000  0.032300  1.0  0.1158
  H  H51  1  0.609800  0.753500  0.945300  1.0  0.1133
  H  H52  1  0.526100  0.933400  0.978600  1.0  0.0917
  H  H53  1  0.792500  0.911600  0.908300  1.0  0.1132
  H  H54  1  0.709500  0.906400  0.113700  1.0  0.0909
  H  H55  1  0.834100  0.905700  0.239500  1.0  0.101
  H  H56  1  0.013600  0.914600  0.317700  1.0  0.1329
  H  H57  1  0.089100  0.959200  0.282000  1.0  0.1392
  H  H58  1  0.113900  0.898100  0.266500  1.0  0.1328
  H  H59  1  0.086800  0.947400  0.110600  1.0  0.0917
  H  H60  1  0.965500  0.947300  0.985000  1.0  0.1057
  H  H61  1  0.071700  0.597600  0.736300  1.0  0.1079
  H  H62  1  0.064300  0.660500  0.737300  1.0  0.1409
  H  H63  1  0.975500  0.449800  0.801100  1.0  0.088
  H  H64  1  0.860600  0.473200  0.825700  1.0  0.0937
  H  H65  1  0.930100  0.534700  0.751300  1.0  0.1177
  H  H66  1  0.764000  0.523000  0.473300  1.0  0.0885
  H  H67  1  0.815800  0.654900  0.536600  1.0  0.1079
  H  H68  1  0.843900  0.579600  0.347500  1.0  0.1033
  H  H69  1  0.699600  0.564200  0.239000  1.0  0.114
  H  H70  1  0.410200  0.606000  0.233800  1.0  0.1327
  H  H71  1  0.498500  0.603100  0.167400  1.0  0.1336
  H  H72  1  0.469200  0.551000  0.217000  1.0  0.1348
  H  H73  1  0.486700  0.645900  0.366900  1.0  0.1023
  H  H74  1  0.629500  0.661100  0.474100  1.0  0.0986
  H  H75  1  0.982800  0.797700  0.508800  1.0  0.0913
  H  H76  1  0.947100  0.792300  0.410000  1.0  0.0945
  H  H77  1  0.296900  0.732000  0.531200  1.0  0.1028
  H  H78  1  0.390300  0.687000  0.532300  1.0  0.1158
  H  H79  1  0.109800  0.746500  0.445300  1.0  0.1139
  H  H80  1  0.026100  0.566600  0.478600  1.0  0.0918
  H  H81  1  0.292500  0.588400  0.408300  1.0  0.1133
  H  H82  1  0.209500  0.593600  0.613700  1.0  0.0913
  H  H83  1  0.334100  0.594300  0.739500  1.0  0.1009
  H  H84  1  0.513600  0.585400  0.817700  1.0  0.1331
  H  H85  1  0.589100  0.540800  0.782000  1.0  0.1384
  H  H86  1  0.613900  0.601900  0.766500  1.0  0.1327
  H  H87  1  0.586800  0.552600  0.610600  1.0  0.0916
  H  H88  1  0.465500  0.552700  0.485000  1.0  0.1059
  H  H89  1  0.428300  0.097600  0.763700  1.0  0.1084
  H  H90  1  0.435700  0.160500  0.762700  1.0  0.1418
  H  H91  1  0.524500  0.949800  0.698900  1.0  0.0881
  H  H92  1  0.639400  0.973200  0.674300  1.0  0.0933
  H  H93  1  0.569900  0.034700  0.748700  1.0  0.1194
  H  H94  1  0.736000  0.023000  0.026700  1.0  0.0883
  H  H95  1  0.684200  0.154900  0.963400  1.0  0.1084
  H  H96  1  0.656100  0.079600  0.152500  1.0  0.1023
  H  H97  1  0.800400  0.064200  0.261000  1.0  0.1134
  H  H98  1  0.089800  0.106000  0.266200  1.0  0.1319
  H  H99  1  0.001500  0.103100  0.332600  1.0  0.1342
  H  H100  1  0.030800  0.051000  0.283000  1.0  0.1354
  H  H101  1  0.013300  0.145900  0.133100  1.0  0.1025
  H  H102  1  0.870500  0.161100  0.025900  1.0  0.0992
  H  H103  1  0.517200  0.297700  0.991200  1.0  0.09
  H  H104  1  0.552900  0.292300  0.090000  1.0  0.0943
  H  H105  1  0.203100  0.232000  0.968800  1.0  0.1025
  H  H106  1  0.109700  0.187000  0.967700  1.0  0.1156
  H  H107  1  0.390200  0.246500  0.054700  1.0  0.1144
  H  H108  1  0.473900  0.066600  0.021400  1.0  0.0919
  H  H109  1  0.207500  0.088400  0.091700  1.0  0.112
  H  H110  1  0.290500  0.093600  0.886300  1.0  0.0903
  H  H111  1  0.165900  0.094300  0.760500  1.0  0.1007
  H  H112  1  0.986400  0.085400  0.682300  1.0  0.132
  H  H113  1  0.910900  0.040800  0.718000  1.0  0.1391
  H  H114  1  0.886100  0.101900  0.733500  1.0  0.1345
  H  H115  1  0.913200  0.052600  0.889400  1.0  0.0917
  H  H116  1  0.034500  0.052700  0.015000  1.0  0.1052
  C  C117  1  0.018500  0.374320  0.174100  1.0  0.726
  C  C118  1  0.979700  0.372300  0.259300  1.0  -0.0486
  C  C119  1  0.124200  0.608630  0.151600  1.0  0.6807
  C  C120  1  0.105400  0.557090  0.200900  1.0  -0.0662
  C  C121  1  0.103200  0.467750  0.305000  1.0  -0.2278
  C  C122  1  0.150000  0.515610  0.335700  1.0  0.2562
  C  C123  1  0.199400  0.520770  0.419700  1.0  0.0342
  C  C124  1  0.202000  0.474740  0.470600  1.0  -0.0885
  C  C125  1  0.156200  0.425540  0.441400  1.0  0.0129
  C  C126  1  0.105800  0.423100  0.358200  1.0  0.2652
  C  C127  1  0.159100  0.374790  0.497800  1.0  -0.121
  C  C128  1  0.247700  0.379690  0.575700  1.0  0.1022
  C  C129  1  0.228700  0.407400  0.647500  1.0  -0.1057
  C  C130  1  0.315400  0.416500  0.712900  1.0  -0.1348
  C  C131  1  0.423600  0.397300  0.707800  1.0  0.1009
  C  C132  1  0.520600  0.410600  0.779200  1.0  -0.4121
  C  C133  1  0.441400  0.368200  0.637400  1.0  -0.1369
  C  C134  1  0.355700  0.359300  0.572900  1.0  -0.1428
  C  C135  1  0.182000  0.180900  0.526700  1.0  0.7608
  C  C136  1  0.077900  0.213570  0.534400  1.0  0.0093
  C  C137  1  0.572200  0.246380  0.534300  1.0  0.7035
  C  C138  1  0.652500  0.286390  0.503400  1.0  -0.0663
  C  C139  1  0.907400  0.289790  0.547900  1.0  -0.2396
  C  C140  1  0.825900  0.328900  0.554900  1.0  0.1885
  C  C141  1  0.848300  0.383330  0.545600  1.0  -0.0026
  C  C142  1  0.957100  0.397090  0.527900  1.0  -0.0928
  C  C143  1  0.041800  0.359450  0.519400  1.0  0.0246
  C  C144  1  0.015000  0.304920  0.530800  1.0  0.1843
  C  C145  1  0.754400  0.424620  0.548800  1.0  -0.1211
  C  C146  1  0.676200  0.426540  0.464200  1.0  0.044
  C  C147  1  0.714100  0.414400  0.388000  1.0  -0.118
  C  C148  1  0.638600  0.414100  0.311800  1.0  -0.1172
  C  C149  1  0.526000  0.425900  0.312200  1.0  0.0488
  C  C150  1  0.444700  0.424300  0.228700  1.0  -0.4092
  C  C151  1  0.489400  0.438600  0.388100  1.0  -0.1071
  C  C152  1  0.562500  0.438800  0.464000  1.0  -0.1134
  C  C153  1  0.481500  0.874320  0.325900  1.0  0.7292
  C  C154  1  0.520300  0.872300  0.240700  1.0  -0.049
  C  C155  1  0.375800  0.108630  0.348400  1.0  0.6809
  C  C156  1  0.394600  0.057090  0.299100  1.0  -0.0658
  C  C157  1  0.396800  0.967750  0.195000  1.0  -0.2268
  C  C158  1  0.350000  0.015610  0.164300  1.0  0.2561
  C  C159  1  0.300600  0.020770  0.080300  1.0  0.035
  C  C160  1  0.298000  0.974740  0.029400  1.0  -0.0877
  C  C161  1  0.343800  0.925540  0.058600  1.0  0.0135
  C  C162  1  0.394200  0.923100  0.141800  1.0  0.2657
  C  C163  1  0.340900  0.874790  0.002200  1.0  -0.1207
  C  C164  1  0.252300  0.879690  0.924300  1.0  0.101
  C  C165  1  0.271300  0.907400  0.852500  1.0  -0.1056
  C  C166  1  0.184600  0.916500  0.787100  1.0  -0.1335
  C  C167  1  0.076400  0.897300  0.792200  1.0  0.0982
  C  C168  1  0.979400  0.910600  0.720800  1.0  -0.4123
  C  C169  1  0.058600  0.868200  0.862600  1.0  -0.1359
  C  C170  1  0.144300  0.859300  0.927100  1.0  -0.1437
  C  C171  1  0.318000  0.680900  0.973300  1.0  0.7601
  C  C172  1  0.422100  0.713570  0.965600  1.0  0.0084
  C  C173  1  0.927800  0.746380  0.965700  1.0  0.7038
  C  C174  1  0.847500  0.786390  0.996600  1.0  -0.0648
  C  C175  1  0.592600  0.789790  0.952100  1.0  -0.239
  C  C176  1  0.674100  0.828900  0.945100  1.0  0.1884
  C  C177  1  0.651700  0.883330  0.954400  1.0  -0.0038
  C  C178  1  0.542900  0.897090  0.972100  1.0  -0.0931
  C  C179  1  0.458200  0.859450  0.980600  1.0  0.0237
  C  C180  1  0.485000  0.804920  0.969200  1.0  0.1838
  C  C181  1  0.745600  0.924620  0.951200  1.0  -0.1207
  C  C182  1  0.823800  0.926540  0.035800  1.0  0.0449
  C  C183  1  0.785900  0.914400  0.112000  1.0  -0.1185
  C  C184  1  0.861400  0.914100  0.188200  1.0  -0.1182
  C  C185  1  0.974000  0.925900  0.187800  1.0  0.0495
  C  C186  1  0.055300  0.924300  0.271300  1.0  -0.4118
  C  C187  1  0.010600  0.938600  0.111900  1.0  -0.1063
  C  C188  1  0.937500  0.938800  0.036000  1.0  -0.1136
  C  C189  1  0.981500  0.625680  0.825900  1.0  0.7284
  C  C190  1  0.020300  0.627700  0.740700  1.0  -0.0484
  C  C191  1  0.875800  0.391370  0.848400  1.0  0.6884
  C  C192  1  0.894600  0.442910  0.799100  1.0  -0.0647
  C  C193  1  0.896800  0.532250  0.695000  1.0  -0.2267
  C  C194  1  0.850000  0.484390  0.664300  1.0  0.2567
  C  C195  1  0.800600  0.479230  0.580300  1.0  0.0351
  C  C196  1  0.798000  0.525260  0.529400  1.0  -0.0883
  C  C197  1  0.843800  0.574460  0.558600  1.0  0.0125
  C  C198  1  0.894200  0.576900  0.641800  1.0  0.2658
  C  C199  1  0.840900  0.625210  0.502200  1.0  -0.1204
  C  C200  1  0.752300  0.620310  0.424300  1.0  0.1018
  C  C201  1  0.771300  0.592600  0.352500  1.0  -0.1051
  C  C202  1  0.684600  0.583500  0.287100  1.0  -0.1335
  C  C203  1  0.576400  0.602700  0.292200  1.0  0.0991
  C  C204  1  0.479400  0.589400  0.220800  1.0  -0.4121
  C  C205  1  0.558600  0.631800  0.362600  1.0  -0.1367
  C  C206  1  0.644300  0.640700  0.427100  1.0  -0.1455
  C  C207  1  0.818000  0.819100  0.473300  1.0  0.7601
  C  C208  1  0.922100  0.786430  0.465600  1.0  0.0086
  C  C209  1  0.427800  0.753620  0.465700  1.0  0.7043
  C  C210  1  0.347500  0.713610  0.496600  1.0  -0.0659
  C  C211  1  0.092600  0.710210  0.452100  1.0  -0.2362
  C  C212  1  0.174100  0.671100  0.445100  1.0  0.1876
  C  C213  1  0.151700  0.616670  0.454400  1.0  -0.0036
  C  C214  1  0.042900  0.602910  0.472100  1.0  -0.0943
  C  C215  1  0.958200  0.640550  0.480600  1.0  0.0243
  C  C216  1  0.985000  0.695080  0.469200  1.0  0.1834
  C  C217  1  0.245600  0.575380  0.451200  1.0  -0.1217
  C  C218  1  0.323800  0.573460  0.535800  1.0  0.0451
  C  C219  1  0.285900  0.585600  0.612000  1.0  -0.1186
  C  C220  1  0.361400  0.585900  0.688200  1.0  -0.1184
  C  C221  1  0.474000  0.574100  0.687800  1.0  0.0498
  C  C222  1  0.555300  0.575700  0.771300  1.0  -0.4121
  C  C223  1  0.510600  0.561400  0.611900  1.0  -0.1063
  C  C224  1  0.437500  0.561200  0.536000  1.0  -0.1135
  C  C225  1  0.518500  0.125680  0.674100  1.0  0.7257
  C  C226  1  0.479700  0.127700  0.759300  1.0  -0.0491
  C  C227  1  0.624200  0.891370  0.651600  1.0  0.6882
  C  C228  1  0.605400  0.942910  0.700900  1.0  -0.0665
  C  C229  1  0.603200  0.032250  0.805000  1.0  -0.2278
  C  C230  1  0.650000  0.984390  0.835700  1.0  0.2559
  C  C231  1  0.699400  0.979230  0.919700  1.0  0.0345
  C  C232  1  0.702000  0.025260  0.970600  1.0  -0.0885
  C  C233  1  0.656200  0.074460  0.941400  1.0  0.0121
  C  C234  1  0.605800  0.076900  0.858200  1.0  0.2651
  C  C235  1  0.659100  0.125210  0.997800  1.0  -0.1199
  C  C236  1  0.747700  0.120310  0.075700  1.0  0.1022
  C  C237  1  0.728700  0.092600  0.147500  1.0  -0.1057
  C  C238  1  0.815400  0.083500  0.212900  1.0  -0.1358
  C  C239  1  0.923600  0.102700  0.207800  1.0  0.1002
  C  C240  1  0.020600  0.089400  0.279200  1.0  -0.4126
  C  C241  1  0.941400  0.131800  0.137400  1.0  -0.1377
  C  C242  1  0.855700  0.140700  0.072900  1.0  -0.1432
  C  C243  1  0.682000  0.319100  0.026700  1.0  0.7604
  C  C244  1  0.577900  0.286430  0.034400  1.0  0.0089
  C  C245  1  0.072200  0.253620  0.034300  1.0  0.7027
  C  C246  1  0.152500  0.213610  0.003400  1.0  -0.067
  C  C247  1  0.407400  0.210210  0.047900  1.0  -0.2376
  C  C248  1  0.325900  0.171100  0.054900  1.0  0.1878
  C  C249  1  0.348300  0.116670  0.045600  1.0  -0.0028
  C  C250  1  0.457100  0.102910  0.027900  1.0  -0.0936
  C  C251  1  0.541800  0.140550  0.019400  1.0  0.0249
  C  C252  1  0.515000  0.195080  0.030800  1.0  0.1839
  C  C253  1  0.254400  0.075380  0.048800  1.0  -0.122
  C  C254  1  0.176200  0.073460  0.964200  1.0  0.0439
  C  C255  1  0.214100  0.085600  0.888000  1.0  -0.1174
  C  C256  1  0.138600  0.085900  0.811800  1.0  -0.1174
  C  C257  1  0.026000  0.074100  0.812200  1.0  0.0495
  C  C258  1  0.944700  0.075700  0.728700  1.0  -0.4084
  C  C259  1  0.989400  0.061400  0.888100  1.0  -0.1069
  C  C260  1  0.062500  0.061200  0.964000  1.0  -0.113
  O  O261  1  0.935800  0.374170  0.114900  1.0  -0.6178
  O  O262  1  0.119900  0.376190  0.165800  1.0  -0.5249
  O  O263  1  0.089300  0.603580  0.071560  1.0  -0.6125
  O  O264  1  0.164800  0.648710  0.184900  1.0  -0.4836
  O  O265  1  0.269900  0.203970  0.511300  1.0  -0.5791
  O  O266  1  0.170500  0.131730  0.534200  1.0  -0.5191
  O  O267  1  0.516400  0.219490  0.473670  1.0  -0.6096
  O  O268  1  0.560600  0.241590  0.610000  1.0  -0.4735
  O  O269  1  0.062400  0.373780  0.330850  1.0  -0.2838
  O  O270  1  0.153400  0.561470  0.285610  1.0  -0.2315
  O  O271  1  0.717800  0.312790  0.572450  1.0  -0.2741
  O  O272  1  0.101300  0.269000  0.523950  1.0  -0.2599
  O  O273  1  0.564200  0.874170  0.385100  1.0  -0.6188
  O  O274  1  0.380100  0.876190  0.334200  1.0  -0.5241
  O  O275  1  0.410700  0.103580  0.428440  1.0  -0.6106
  O  O276  1  0.335200  0.148710  0.315100  1.0  -0.4832
  O  O277  1  0.230100  0.703970  0.988700  1.0  -0.5791
  O  O278  1  0.329500  0.631730  0.965800  1.0  -0.5188
  O  O279  1  0.983600  0.719490  0.026330  1.0  -0.6082
  O  O280  1  0.939400  0.741590  0.890000  1.0  -0.4701
  O  O281  1  0.437600  0.873780  0.169150  1.0  -0.2848
  O  O282  1  0.346600  0.061470  0.214390  1.0  -0.2321
  O  O283  1  0.782200  0.812790  0.927550  1.0  -0.2711
  O  O284  1  0.398700  0.769000  0.976050  1.0  -0.2611
  O  O285  1  0.064200  0.625830  0.885100  1.0  -0.6181
  O  O286  1  0.880100  0.623810  0.834200  1.0  -0.5235
  O  O287  1  0.910700  0.396420  0.928440  1.0  -0.611
  O  O288  1  0.835200  0.351290  0.815100  1.0  -0.4839
  O  O289  1  0.730100  0.796030  0.488700  1.0  -0.5782
  O  O290  1  0.829500  0.868270  0.465800  1.0  -0.5185
  O  O291  1  0.483600  0.780510  0.526330  1.0  -0.6086
  O  O292  1  0.439400  0.758410  0.390000  1.0  -0.4698
  O  O293  1  0.937600  0.626220  0.669150  1.0  -0.2829
  O  O294  1  0.846600  0.438530  0.714390  1.0  -0.2313
  O  O295  1  0.282200  0.687210  0.427550  1.0  -0.272
  O  O296  1  0.898700  0.731000  0.476050  1.0  -0.2597
  O  O297  1  0.435800  0.125830  0.614900  1.0  -0.6204
  O  O298  1  0.619900  0.123810  0.665800  1.0  -0.5228
  O  O299  1  0.589300  0.896420  0.571560  1.0  -0.6125
  O  O300  1  0.664800  0.851290  0.684900  1.0  -0.4838
  O  O301  1  0.769900  0.296030  0.011300  1.0  -0.5781
  O  O302  1  0.670500  0.368270  0.034200  1.0  -0.5192
  O  O303  1  0.016400  0.280510  0.973670  1.0  -0.6111
  O  O304  1  0.060600  0.258410  0.110000  1.0  -0.474
  O  O305  1  0.562400  0.126220  0.830850  1.0  -0.2833
  O  O306  1  0.653400  0.938530  0.785610  1.0  -0.2309
  O  O307  1  0.217800  0.187210  0.072450  1.0  -0.2734
  O  O308  1  0.601300  0.231000  0.023950  1.0  -0.2589
