# generated using pymatgen
data_Cr2Co3H10(C12N7)2
_symmetry_space_group_name_H-M   'P 1'
_cell_length_a   13.91900000
_cell_length_b   17.89650000
_cell_length_c   16.13610000
_cell_angle_alpha   90.00000000
_cell_angle_beta   98.61900000
_cell_angle_gamma   90.00000000
_symmetry_Int_Tables_number   1
_chemical_formula_structural   Cr2Co3H10(C12N7)2
_chemical_formula_sum   'Cr4 Co6 H20 C48 N28'
_cell_volume   3974.13129078
_cell_formula_units_Z   2
loop_
 _symmetry_equiv_pos_site_id
 _symmetry_equiv_pos_as_xyz
  1  'x, y, z'
loop_
 _atom_site_type_symbol
 _atom_site_label
 _atom_site_symmetry_multiplicity
 _atom_site_fract_x
 _atom_site_fract_y
 _atom_site_fract_z
 _atom_site_occupancy
 _atom_site_charge
  Cr  Cr1  1  0.999740  0.399710  0.198470  1.0  0.7719
  Cr  Cr2  1  0.000260  0.899710  0.301530  1.0  0.7697
  Cr  Cr3  1  0.000260  0.600290  0.801530  1.0  0.7703
  Cr  Cr4  1  0.999740  0.100290  0.698470  1.0  0.7719
  Co  Co5  1  0.998390  0.178270  0.386820  1.0  0.8106
  Co  Co6  1  0.001610  0.678270  0.113180  1.0  0.811
  Co  Co7  1  0.001610  0.821730  0.613180  1.0  0.8104
  Co  Co8  1  0.998390  0.321730  0.886820  1.0  0.8101
  Co  Co9  1  0.000000  0.500000  0.500000  1.0  0.8748
  Co  Co10  1  0.000000  0.000000  0.000000  1.0  0.8748
  H  H11  1  0.814900  0.411800  0.416500  1.0  0.0693
  H  H12  1  0.651500  0.399900  0.412100  1.0  0.1013
  H  H13  1  0.654200  0.586800  0.546700  1.0  0.1002
  H  H14  1  0.819400  0.592200  0.550000  1.0  0.0657
  H  H15  1  0.495400  0.444200  0.444300  1.0  0.0893
  H  H16  1  0.185100  0.911800  0.083500  1.0  0.069
  H  H17  1  0.348500  0.899900  0.087900  1.0  0.1014
  H  H18  1  0.345800  0.086800  0.953300  1.0  0.0998
  H  H19  1  0.180600  0.092200  0.950000  1.0  0.0655
  H  H20  1  0.504600  0.944200  0.055700  1.0  0.0892
  H  H21  1  0.185100  0.588200  0.583500  1.0  0.0691
  H  H22  1  0.348500  0.600100  0.587900  1.0  0.1016
  H  H23  1  0.345800  0.413200  0.453300  1.0  0.1001
  H  H24  1  0.180600  0.407800  0.450000  1.0  0.065
  H  H25  1  0.504600  0.555800  0.555700  1.0  0.0892
  H  H26  1  0.814900  0.088200  0.916500  1.0  0.0696
  H  H27  1  0.651500  0.100100  0.912100  1.0  0.102
  H  H28  1  0.654200  0.913200  0.046700  1.0  0.1004
  H  H29  1  0.819400  0.907800  0.050000  1.0  0.0656
  H  H30  1  0.495400  0.055800  0.944300  1.0  0.089
  C  C31  1  0.994600  0.300500  0.236100  1.0  0.1034
  C  C32  1  0.004600  0.500900  0.166600  1.0  0.2
  C  C33  1  0.994600  0.432300  0.308400  1.0  0.1887
  C  C34  1  0.004500  0.368700  0.087800  1.0  0.1699
  C  C35  1  0.139600  0.397000  0.222200  1.0  0.2118
  C  C36  1  0.860500  0.402400  0.176100  1.0  0.1989
  C  C37  1  0.782600  0.447400  0.444100  1.0  0.1493
  C  C38  1  0.684000  0.439600  0.441000  1.0  -0.1756
  C  C39  1  0.633500  0.491100  0.481100  1.0  0.0875
  C  C40  1  0.685700  0.549600  0.520700  1.0  -0.2303
  C  C41  1  0.785300  0.552900  0.521600  1.0  0.138
  C  C42  1  0.525900  0.481200  0.479200  1.0  -0.1321
  C  C43  1  0.005400  0.800500  0.263900  1.0  0.1033
  C  C44  1  0.995400  0.000900  0.333400  1.0  0.1999
  C  C45  1  0.005400  0.932300  0.191600  1.0  0.1891
  C  C46  1  0.995500  0.868700  0.412200  1.0  0.1685
  C  C47  1  0.860400  0.897000  0.277800  1.0  0.211
  C  C48  1  0.139500  0.902400  0.323900  1.0  0.2
  C  C49  1  0.217400  0.947400  0.055900  1.0  0.1497
  C  C50  1  0.316000  0.939600  0.059000  1.0  -0.1759
  C  C51  1  0.366500  0.991100  0.018900  1.0  0.0877
  C  C52  1  0.314300  0.049600  0.979300  1.0  -0.23
  C  C53  1  0.214700  0.052900  0.978400  1.0  0.139
  C  C54  1  0.474100  0.981200  0.020800  1.0  -0.1309
  C  C55  1  0.005400  0.699500  0.763900  1.0  0.1022
  C  C56  1  0.995400  0.499100  0.833400  1.0  0.2007
  C  C57  1  0.005400  0.567700  0.691600  1.0  0.1899
  C  C58  1  0.995500  0.631300  0.912200  1.0  0.1681
  C  C59  1  0.860400  0.603000  0.777800  1.0  0.2115
  C  C60  1  0.139500  0.597600  0.823900  1.0  0.2002
  C  C61  1  0.217400  0.552600  0.555900  1.0  0.1485
  C  C62  1  0.316000  0.560400  0.559000  1.0  -0.1756
  C  C63  1  0.366500  0.508900  0.518900  1.0  0.088
  C  C64  1  0.314300  0.450400  0.479300  1.0  -0.2285
  C  C65  1  0.214700  0.447100  0.478400  1.0  0.1385
  C  C66  1  0.474100  0.518800  0.520800  1.0  -0.1273
  C  C67  1  0.994600  0.199500  0.736100  1.0  0.1032
  C  C68  1  0.004600  0.999100  0.666667  1.0  0.202
  C  C69  1  0.994600  0.067700  0.808400  1.0  0.1893
  C  C70  1  0.004500  0.131300  0.587800  1.0  0.1695
  C  C71  1  0.139600  0.103000  0.722200  1.0  0.212
  C  C72  1  0.860500  0.097600  0.676100  1.0  0.1985
  C  C73  1  0.782600  0.052600  0.944100  1.0  0.1489
  C  C74  1  0.684000  0.060400  0.941000  1.0  -0.1769
  C  C75  1  0.633500  0.008900  0.981100  1.0  0.0878
  C  C76  1  0.685700  0.950400  0.020700  1.0  -0.2284
  C  C77  1  0.785300  0.947100  0.021600  1.0  0.1387
  C  C78  1  0.525900  0.018800  0.979200  1.0  -0.1286
  N  N79  1  0.991400  0.242400  0.267800  1.0  -0.5423
  N  N80  1  0.007800  0.562600  0.151200  1.0  -0.5198
  N  N81  1  0.992500  0.449300  0.376000  1.0  -0.5202
  N  N82  1  0.007300  0.350800  0.019100  1.0  -0.5131
  N  N83  1  0.221900  0.396100  0.237400  1.0  -0.4296
  N  N84  1  0.777100  0.404500  0.166400  1.0  -0.4472
  N  N85  1  0.835200  0.502600  0.483900  1.0  -0.3899
  N  N86  1  0.008600  0.742400  0.232200  1.0  -0.5407
  N  N87  1  0.992200  0.062600  0.348800  1.0  -0.5208
  N  N88  1  0.007500  0.949300  0.124000  1.0  -0.521
  N  N89  1  0.992700  0.850800  0.480900  1.0  -0.5114
  N  N90  1  0.778100  0.896100  0.262600  1.0  -0.429
  N  N91  1  0.222900  0.904500  0.333600  1.0  -0.4447
  N  N92  1  0.164800  0.002600  0.016100  1.0  -0.3888
  N  N93  1  0.008600  0.757600  0.732200  1.0  -0.5432
  N  N94  1  0.992200  0.437400  0.848800  1.0  -0.5187
  N  N95  1  0.007500  0.550700  0.624000  1.0  -0.5214
  N  N96  1  0.992700  0.649200  0.980900  1.0  -0.5128
  N  N97  1  0.778100  0.603900  0.762600  1.0  -0.4286
  N  N98  1  0.222900  0.595500  0.833600  1.0  -0.4448
  N  N99  1  0.164800  0.497400  0.516100  1.0  -0.389
  N  N100  1  0.991400  0.257600  0.767800  1.0  -0.5448
  N  N101  1  0.007800  0.937400  0.651200  1.0  -0.5184
  N  N102  1  0.992500  0.050700  0.876000  1.0  -0.5116
  N  N103  1  0.007300  0.149200  0.519100  1.0  -0.5132
  N  N104  1  0.221900  0.103900  0.737400  1.0  -0.4291
  N  N105  1  0.777100  0.095500  0.666400  1.0  -0.4473
  N  N106  1  0.835200  0.997400  0.983900  1.0  -0.3899
