# generated using pymatgen
data_SmH3(C5O4)2
_symmetry_space_group_name_H-M   'P 1'
_cell_length_a   10.76130000
_cell_length_b   7.19440000
_cell_length_c   17.21620000
_cell_angle_alpha   90.00000000
_cell_angle_beta   97.10700000
_cell_angle_gamma   90.00000000
_symmetry_Int_Tables_number   1
_chemical_formula_structural   SmH3(C5O4)2
_chemical_formula_sum   'Sm4 H12 C40 O32'
_cell_volume   1322.65621007
_cell_formula_units_Z   4
loop_
 _symmetry_equiv_pos_site_id
 _symmetry_equiv_pos_as_xyz
  1  'x, y, z'
loop_
 _atom_site_type_symbol
 _atom_site_label
 _atom_site_symmetry_multiplicity
 _atom_site_fract_x
 _atom_site_fract_y
 _atom_site_fract_z
 _atom_site_occupancy
 _atom_site_charge
  Sm  Sm1  1  0.326350  0.519980  0.752830  1.0  2.3174
  Sm  Sm2  1  0.173650  0.019980  0.747170  1.0  2.3183
  Sm  Sm3  1  0.673650  0.480020  0.247170  1.0  2.3179
  Sm  Sm4  1  0.826350  0.980020  0.252830  1.0  2.317
  H  H5  1  0.007000  0.826000  0.478000  1.0  0.1227
  H  H6  1  0.178000  0.648000  0.952000  1.0  0.1257
  H  H7  1  0.814000  0.946000  0.936000  1.0  0.1161
  H  H8  1  0.493000  0.326000  0.022000  1.0  0.1221
  H  H9  1  0.322000  0.148000  0.548000  1.0  0.1255
  H  H10  1  0.686000  0.446000  0.564000  1.0  0.1161
  H  H11  1  0.993000  0.174000  0.522000  1.0  0.1228
  H  H12  1  0.822000  0.352000  0.048000  1.0  0.126
  H  H13  1  0.186000  0.054000  0.064000  1.0  0.1177
  H  H14  1  0.507000  0.674000  0.978000  1.0  0.1231
  H  H15  1  0.678000  0.852000  0.452000  1.0  0.1261
  H  H16  1  0.314000  0.554000  0.436000  1.0  0.1168
  C  C17  1  0.083800  0.328600  0.648840  1.0  0.7022
  C  C18  1  0.041500  0.426400  0.573570  1.0  -0.0298
  C  C19  1  0.048100  0.618200  0.561470  1.0  -0.1104
  C  C20  1  0.006500  0.689700  0.487900  1.0  -0.0826
  C  C21  1  0.094500  0.752100  0.624870  1.0  0.7247
  C  C22  1  0.108400  0.353400  0.866400  1.0  0.7368
  C  C23  1  0.046800  0.429800  0.933800  1.0  -0.0898
  C  C24  1  0.098800  0.589000  0.971020  1.0  -0.0617
  C  C25  1  0.946800  0.341700  0.962500  1.0  -0.0638
  C  C26  1  0.878100  0.181800  0.920170  1.0  0.6826
  C  C27  1  0.416200  0.828600  0.851160  1.0  0.7024
  C  C28  1  0.458500  0.926400  0.926430  1.0  -0.0309
  C  C29  1  0.451900  0.118200  0.938530  1.0  -0.1109
  C  C30  1  0.493500  0.189700  0.012100  1.0  -0.0833
  C  C31  1  0.405500  0.252100  0.875130  1.0  0.7254
  C  C32  1  0.391600  0.853400  0.633600  1.0  0.7381
  C  C33  1  0.453200  0.929800  0.566200  1.0  -0.0902
  C  C34  1  0.401200  0.089000  0.528980  1.0  -0.0642
  C  C35  1  0.553200  0.841700  0.537500  1.0  -0.0622
  C  C36  1  0.621900  0.681800  0.579830  1.0  0.6808
  C  C37  1  0.916200  0.671400  0.351160  1.0  0.702
  C  C38  1  0.958500  0.573600  0.426430  1.0  -0.0305
  C  C39  1  0.951900  0.381800  0.438530  1.0  -0.1116
  C  C40  1  0.993500  0.310300  0.512100  1.0  -0.083
  C  C41  1  0.905500  0.247900  0.375130  1.0  0.7256
  C  C42  1  0.891600  0.646600  0.133600  1.0  0.738
  C  C43  1  0.953200  0.570200  0.066200  1.0  -0.0883
  C  C44  1  0.901200  0.411000  0.028980  1.0  -0.0638
  C  C45  1  0.053200  0.658300  0.037500  1.0  -0.0633
  C  C46  1  0.121900  0.818200  0.079830  1.0  0.678
  C  C47  1  0.583800  0.171400  0.148840  1.0  0.7021
  C  C48  1  0.541500  0.073600  0.073570  1.0  -0.0296
  C  C49  1  0.548100  0.881800  0.061470  1.0  -0.1109
  C  C50  1  0.506500  0.810300  0.987900  1.0  -0.0826
  C  C51  1  0.594500  0.747900  0.124870  1.0  0.7253
  C  C52  1  0.608400  0.146600  0.366400  1.0  0.737
  C  C53  1  0.546800  0.070200  0.433800  1.0  -0.0878
  C  C54  1  0.598800  0.911000  0.471020  1.0  -0.0618
  C  C55  1  0.446800  0.158300  0.462500  1.0  -0.0644
  C  C56  1  0.378100  0.318200  0.420170  1.0  0.6795
  O  O57  1  0.005620  0.250100  0.685060  1.0  -0.5815
  O  O58  1  0.201810  0.308300  0.669280  1.0  -0.7679
  O  O59  1  0.143200  0.689700  0.691780  1.0  -0.8146
  O  O60  1  0.083000  0.921500  0.612980  1.0  -0.6152
  O  O61  1  0.155000  0.468000  0.824060  1.0  -0.6877
  O  O62  1  0.112230  0.178900  0.858680  1.0  -0.6396
  O  O63  1  0.848300  0.185000  0.848930  1.0  -0.4907
  O  O64  1  0.851000  0.047900  0.965270  1.0  -0.4907
  O  O65  1  0.494380  0.750100  0.814940  1.0  -0.5829
  O  O66  1  0.298190  0.808300  0.830720  1.0  -0.7685
  O  O67  1  0.356800  0.189700  0.808220  1.0  -0.8146
  O  O68  1  0.417000  0.421500  0.887020  1.0  -0.6145
  O  O69  1  0.345000  0.968000  0.675940  1.0  -0.6874
  O  O70  1  0.387770  0.678900  0.641320  1.0  -0.6388
  O  O71  1  0.651700  0.685000  0.651070  1.0  -0.4923
  O  O72  1  0.649000  0.547900  0.534730  1.0  -0.4901
  O  O73  1  0.994380  0.749900  0.314940  1.0  -0.5827
  O  O74  1  0.798190  0.691700  0.330720  1.0  -0.768
  O  O75  1  0.856800  0.310300  0.308220  1.0  -0.8147
  O  O76  1  0.917000  0.078500  0.387020  1.0  -0.6152
  O  O77  1  0.845000  0.532000  0.175940  1.0  -0.6872
  O  O78  1  0.887770  0.821100  0.141320  1.0  -0.6388
  O  O79  1  0.151700  0.815000  0.151070  1.0  -0.4915
  O  O80  1  0.149000  0.952100  0.034730  1.0  -0.49
  O  O81  1  0.505620  0.249900  0.185060  1.0  -0.5825
  O  O82  1  0.701810  0.191700  0.169280  1.0  -0.7676
  O  O83  1  0.643200  0.810300  0.191780  1.0  -0.8151
  O  O84  1  0.583000  0.578500  0.112980  1.0  -0.6144
  O  O85  1  0.655000  0.032000  0.324060  1.0  -0.6884
  O  O86  1  0.612230  0.321100  0.358680  1.0  -0.6386
  O  O87  1  0.348300  0.315000  0.348930  1.0  -0.4913
  O  O88  1  0.351000  0.452100  0.465270  1.0  -0.4915
