# generated using pymatgen
data_ZnH24C34(NO3)2
_symmetry_space_group_name_H-M   'P 1'
_cell_length_a   11.19670000
_cell_length_b   11.19670000
_cell_length_c   44.08280000
_cell_angle_alpha   90.00000000
_cell_angle_beta   90.00000000
_cell_angle_gamma   120.00000000
_symmetry_Int_Tables_number   1
_chemical_formula_structural   ZnH24C34(NO3)2
_chemical_formula_sum   'Zn6 H144 C204 N12 O36'
_cell_volume   4786.07927146
_cell_formula_units_Z   6
loop_
 _symmetry_equiv_pos_site_id
 _symmetry_equiv_pos_as_xyz
  1  'x, y, z'
loop_
 _atom_site_type_symbol
 _atom_site_label
 _atom_site_symmetry_multiplicity
 _atom_site_fract_x
 _atom_site_fract_y
 _atom_site_fract_z
 _atom_site_occupancy
 _atom_site_charge
  Zn  Zn1  1  0.481550  0.518450  0.583330  1.0  0.7797
  Zn  Zn2  1  0.481550  0.963100  0.250000  1.0  0.7802
  Zn  Zn3  1  0.036900  0.518450  0.916670  1.0  0.7795
  Zn  Zn4  1  0.518450  0.481550  0.083330  1.0  0.7796
  Zn  Zn5  1  0.518450  0.036900  0.750000  1.0  0.7805
  Zn  Zn6  1  0.963100  0.481550  0.416670  1.0  0.7798
  H  H7  1  0.653000  0.795000  0.766600  1.0  0.3189
  H  H8  1  0.874600  0.465900  0.722200  1.0  0.1021
  H  H9  1  0.568900  0.649100  0.671600  1.0  0.1098
  H  H10  1  0.579000  0.755700  0.716600  1.0  0.1214
  H  H11  1  0.490800  0.729000  0.626700  1.0  0.0909
  H  H12  1  0.757800  0.012700  0.550300  1.0  0.1397
  H  H13  1  0.659100  0.776600  0.547000  1.0  0.0903
  H  H14  1  0.759400  0.391600  0.635000  1.0  0.1023
  H  H15  1  0.592300  0.962300  0.633000  1.0  0.128
  H  H16  1  0.868200  0.362000  0.677300  1.0  0.1098
  H  H17  1  0.777500  0.197300  0.614800  1.0  0.1174
  H  H18  1  0.652500  0.179200  0.595600  1.0  0.1207
  H  H19  1  0.205000  0.858000  0.433270  1.0  0.3219
  H  H20  1  0.534100  0.408700  0.388870  1.0  0.1023
  H  H21  1  0.350900  0.919800  0.338270  1.0  0.1094
  H  H22  1  0.244300  0.823300  0.383270  1.0  0.1222
  H  H23  1  0.271000  0.761800  0.293370  1.0  0.0908
  H  H24  1  0.987300  0.745100  0.216970  1.0  0.1391
  H  H25  1  0.223400  0.882500  0.213670  1.0  0.0878
  H  H26  1  0.608400  0.367800  0.301670  1.0  0.1016
  H  H27  1  0.037700  0.630000  0.299670  1.0  0.1284
  H  H28  1  0.638000  0.506200  0.343970  1.0  0.1109
  H  H29  1  0.802700  0.580200  0.281470  1.0  0.1163
  H  H30  1  0.820800  0.473300  0.262270  1.0  0.1188
  H  H31  1  0.142000  0.347000  0.099930  1.0  0.3193
  H  H32  1  0.591300  0.125400  0.055530  1.0  0.1019
  H  H33  1  0.080200  0.431100  0.004930  1.0  0.1096
  H  H34  1  0.176700  0.421000  0.049930  1.0  0.123
  H  H35  1  0.238200  0.509200  0.960030  1.0  0.0912
  H  H36  1  0.254900  0.242200  0.883630  1.0  0.1379
  H  H37  1  0.117500  0.340900  0.880330  1.0  0.0901
  H  H38  1  0.632200  0.240600  0.968330  1.0  0.1021
  H  H39  1  0.370000  0.407700  0.966330  1.0  0.1286
  H  H40  1  0.493800  0.131800  0.010630  1.0  0.1105
  H  H41  1  0.419800  0.222500  0.948130  1.0  0.118
  H  H42  1  0.526700  0.347500  0.928930  1.0  0.1176
  H  H43  1  0.205000  0.347000  0.400070  1.0  0.3187
  H  H44  1  0.534100  0.125400  0.444470  1.0  0.1017
  H  H45  1  0.350900  0.431100  0.495070  1.0  0.1096
  H  H46  1  0.244300  0.421000  0.450070  1.0  0.1227
  H  H47  1  0.271000  0.509200  0.539970  1.0  0.0904
  H  H48  1  0.987300  0.242200  0.616370  1.0  0.1375
  H  H49  1  0.223400  0.340900  0.619670  1.0  0.0892
  H  H50  1  0.608400  0.240600  0.531670  1.0  0.1025
  H  H51  1  0.037700  0.407700  0.533670  1.0  0.1283
  H  H52  1  0.638000  0.131800  0.489370  1.0  0.1104
  H  H53  1  0.802700  0.222500  0.551870  1.0  0.1159
  H  H54  1  0.820800  0.347500  0.571070  1.0  0.1185
  H  H55  1  0.142000  0.795000  0.733400  1.0  0.3181
  H  H56  1  0.591300  0.465900  0.777800  1.0  0.1016
  H  H57  1  0.080200  0.649100  0.828400  1.0  0.1092
  H  H58  1  0.176700  0.755700  0.783400  1.0  0.1213
  H  H59  1  0.238200  0.729000  0.873300  1.0  0.0911
  H  H60  1  0.254900  0.012700  0.949700  1.0  0.1391
  H  H61  1  0.117500  0.776600  0.953000  1.0  0.0894
  H  H62  1  0.632200  0.391600  0.865000  1.0  0.1023
  H  H63  1  0.370000  0.962300  0.867000  1.0  0.1295
  H  H64  1  0.493800  0.362000  0.822700  1.0  0.1103
  H  H65  1  0.419800  0.197300  0.885200  1.0  0.1154
  H  H66  1  0.526700  0.179200  0.904400  1.0  0.121
  H  H67  1  0.653000  0.858000  0.066730  1.0  0.3187
  H  H68  1  0.874600  0.408700  0.111130  1.0  0.102
  H  H69  1  0.568900  0.919800  0.161730  1.0  0.1093
  H  H70  1  0.579000  0.823300  0.116730  1.0  0.1223
  H  H71  1  0.490800  0.761800  0.206630  1.0  0.091
  H  H72  1  0.757800  0.745100  0.283030  1.0  0.1392
  H  H73  1  0.659100  0.882500  0.286330  1.0  0.0874
  H  H74  1  0.759400  0.367800  0.198330  1.0  0.1019
  H  H75  1  0.592300  0.630000  0.200330  1.0  0.1283
  H  H76  1  0.868200  0.506200  0.156030  1.0  0.1103
  H  H77  1  0.777500  0.580200  0.218530  1.0  0.1151
  H  H78  1  0.652500  0.473300  0.237730  1.0  0.1191
  H  H79  1  0.347000  0.205000  0.266600  1.0  0.3212
  H  H80  1  0.125400  0.534100  0.222200  1.0  0.1016
  H  H81  1  0.431100  0.350900  0.171600  1.0  0.1096
  H  H82  1  0.421000  0.244300  0.216600  1.0  0.1213
  H  H83  1  0.509200  0.271000  0.126700  1.0  0.0911
  H  H84  1  0.242200  0.987300  0.050300  1.0  0.1389
  H  H85  1  0.340900  0.223400  0.047000  1.0  0.0896
  H  H86  1  0.240600  0.608400  0.135000  1.0  0.1022
  H  H87  1  0.407700  0.037700  0.133000  1.0  0.1296
  H  H88  1  0.131800  0.638000  0.177300  1.0  0.1104
  H  H89  1  0.222500  0.802700  0.114800  1.0  0.1171
  H  H90  1  0.347500  0.820800  0.095600  1.0  0.1208
  H  H91  1  0.795000  0.142000  0.933270  1.0  0.3186
  H  H92  1  0.465900  0.591300  0.888870  1.0  0.102
  H  H93  1  0.649100  0.080200  0.838270  1.0  0.11
  H  H94  1  0.755700  0.176700  0.883270  1.0  0.1226
  H  H95  1  0.729000  0.238200  0.793370  1.0  0.091
  H  H96  1  0.012700  0.254900  0.716970  1.0  0.1391
  H  H97  1  0.776600  0.117500  0.713670  1.0  0.0878
  H  H98  1  0.391600  0.632200  0.801670  1.0  0.1019
  H  H99  1  0.962300  0.370000  0.799670  1.0  0.1275
  H  H100  1  0.362000  0.493800  0.843970  1.0  0.1111
  H  H101  1  0.197300  0.419800  0.781470  1.0  0.1166
  H  H102  1  0.179200  0.526700  0.762270  1.0  0.119
  H  H103  1  0.858000  0.653000  0.599930  1.0  0.3194
  H  H104  1  0.408700  0.874600  0.555530  1.0  0.1024
  H  H105  1  0.919800  0.568900  0.504930  1.0  0.1098
  H  H106  1  0.823300  0.579000  0.549930  1.0  0.1228
  H  H107  1  0.761800  0.490800  0.460030  1.0  0.091
  H  H108  1  0.745100  0.757800  0.383630  1.0  0.1377
  H  H109  1  0.882500  0.659100  0.380330  1.0  0.0894
  H  H110  1  0.367800  0.759400  0.468330  1.0  0.1023
  H  H111  1  0.630000  0.592300  0.466330  1.0  0.1283
  H  H112  1  0.506200  0.868200  0.510630  1.0  0.1103
  H  H113  1  0.580200  0.777500  0.448130  1.0  0.1171
  H  H114  1  0.473300  0.652500  0.428930  1.0  0.1183
  H  H115  1  0.795000  0.653000  0.900070  1.0  0.3192
  H  H116  1  0.465900  0.874600  0.944470  1.0  0.1021
  H  H117  1  0.649100  0.568900  0.995070  1.0  0.1093
  H  H118  1  0.755700  0.579000  0.950070  1.0  0.1225
  H  H119  1  0.729000  0.490800  0.039970  1.0  0.0912
  H  H120  1  0.012700  0.757800  0.116370  1.0  0.138
  H  H121  1  0.776600  0.659100  0.119670  1.0  0.0892
  H  H122  1  0.391600  0.759400  0.031670  1.0  0.1022
  H  H123  1  0.962300  0.592300  0.033670  1.0  0.1288
  H  H124  1  0.362000  0.868200  0.989370  1.0  0.1105
  H  H125  1  0.197300  0.777500  0.051870  1.0  0.116
  H  H126  1  0.179200  0.652500  0.071070  1.0  0.118
  H  H127  1  0.858000  0.205000  0.233400  1.0  0.3192
  H  H128  1  0.408700  0.534100  0.277800  1.0  0.1015
  H  H129  1  0.919800  0.350900  0.328400  1.0  0.1095
  H  H130  1  0.823300  0.244300  0.283400  1.0  0.121
  H  H131  1  0.761800  0.271000  0.373300  1.0  0.0909
  H  H132  1  0.745100  0.987300  0.449700  1.0  0.1397
  H  H133  1  0.882500  0.223400  0.453000  1.0  0.0893
  H  H134  1  0.367800  0.608400  0.365000  1.0  0.1024
  H  H135  1  0.630000  0.037700  0.367000  1.0  0.1288
  H  H136  1  0.506200  0.638000  0.322700  1.0  0.1097
  H  H137  1  0.580200  0.802700  0.385200  1.0  0.1155
  H  H138  1  0.473300  0.820800  0.404400  1.0  0.1205
  H  H139  1  0.347000  0.142000  0.566730  1.0  0.3196
  H  H140  1  0.125400  0.591300  0.611130  1.0  0.1018
  H  H141  1  0.431100  0.080200  0.661730  1.0  0.1098
  H  H142  1  0.421000  0.176700  0.616730  1.0  0.122
  H  H143  1  0.509200  0.238200  0.706630  1.0  0.0902
  H  H144  1  0.242200  0.254900  0.783030  1.0  0.1398
  H  H145  1  0.340900  0.117500  0.786330  1.0  0.0875
  H  H146  1  0.240600  0.632200  0.698330  1.0  0.1019
  H  H147  1  0.407700  0.370000  0.700330  1.0  0.1279
  H  H148  1  0.131800  0.493800  0.656030  1.0  0.1109
  H  H149  1  0.222500  0.419800  0.718530  1.0  0.1149
  H  H150  1  0.347500  0.526700  0.737730  1.0  0.119
  C  C151  1  0.760900  0.554300  0.709260  1.0  0.0219
  C  C152  1  0.699500  0.695500  0.739570  1.0  0.2068
  C  C153  1  0.827900  0.475600  0.705840  1.0  -0.0829
  C  C154  1  0.686000  0.499400  0.656240  1.0  -0.0907
  C  C155  1  0.685400  0.564100  0.684150  1.0  -0.0081
  C  C156  1  0.768200  0.622900  0.737020  1.0  -0.0673
  C  C157  1  0.618200  0.641500  0.687760  1.0  -0.0336
  C  C158  1  0.624200  0.705500  0.714630  1.0  -0.1921
  C  C159  1  0.545700  0.786700  0.611220  1.0  0.1973
  C  C160  1  0.612200  0.507200  0.628550  1.0  0.6516
  C  C161  1  0.683400  0.015800  0.591820  1.0  0.1039
  C  C162  1  0.703900  0.957200  0.566140  1.0  -0.1988
  C  C163  1  0.643400  0.814500  0.564280  1.0  0.1714
  C  C164  1  0.756500  0.429400  0.653620  1.0  -0.1013
  C  C165  1  0.604800  0.926900  0.614980  1.0  -0.1886
  C  C166  1  0.824900  0.414200  0.678980  1.0  -0.0997
  C  C167  1  0.733000  0.168200  0.595200  1.0  -0.2244
  C  C168  1  0.445700  0.206600  0.375930  1.0  0.0211
  C  C169  1  0.304500  0.004000  0.406240  1.0  0.2036
  C  C170  1  0.524400  0.352300  0.372510  1.0  -0.0849
  C  C171  1  0.500600  0.186600  0.322910  1.0  -0.089
  C  C172  1  0.435900  0.121300  0.350820  1.0  -0.0083
  C  C173  1  0.377100  0.145300  0.403690  1.0  -0.0668
  C  C174  1  0.358500  0.976700  0.354430  1.0  -0.0298
  C  C175  1  0.294500  0.918700  0.381300  1.0  -0.1936
  C  C176  1  0.213300  0.759000  0.277890  1.0  0.1949
  C  C177  1  0.492800  0.105000  0.295220  1.0  0.6525
  C  C178  1  0.984200  0.667600  0.258490  1.0  0.1017
  C  C179  1  0.042800  0.746700  0.232810  1.0  -0.2016
  C  C180  1  0.185500  0.828900  0.230950  1.0  0.1693
  C  C181  1  0.570600  0.327100  0.320290  1.0  -0.103
  C  C182  1  0.073100  0.677900  0.281650  1.0  -0.1926
  C  C183  1  0.585800  0.410700  0.345650  1.0  -0.0925
  C  C184  1  0.831800  0.564800  0.261870  1.0  -0.2218
  C  C185  1  0.793400  0.239100  0.042590  1.0  0.0218
  C  C186  1  0.996000  0.300500  0.072900  1.0  0.2057
  C  C187  1  0.647700  0.172100  0.039170  1.0  -0.0815
  C  C188  1  0.813400  0.314000  0.989570  1.0  -0.0883
  C  C189  1  0.878700  0.314600  0.017480  1.0  -0.0087
  C  C190  1  0.854700  0.231800  0.070350  1.0  -0.0656
  C  C191  1  0.023300  0.381800  0.021090  1.0  -0.035
  C  C192  1  0.081300  0.375800  0.047960  1.0  -0.1941
  C  C193  1  0.241000  0.454300  0.944550  1.0  0.1944
  C  C194  1  0.895000  0.387800  0.961880  1.0  0.652
  C  C195  1  0.332400  0.316600  0.925150  1.0  0.1032
  C  C196  1  0.253300  0.296100  0.899470  1.0  -0.2006
  C  C197  1  0.171100  0.356600  0.897610  1.0  0.1703
  C  C198  1  0.672900  0.243500  0.986950  1.0  -0.1023
  C  C199  1  0.322100  0.395200  0.948310  1.0  -0.1939
  C  C200  1  0.589300  0.175100  0.012310  1.0  -0.1
  C  C201  1  0.435200  0.267000  0.928530  1.0  -0.2261
  C  C202  1  0.445700  0.239100  0.457410  1.0  0.0209
  C  C203  1  0.304500  0.300500  0.427100  1.0  0.2061
  C  C204  1  0.524400  0.172100  0.460830  1.0  -0.0808
  C  C205  1  0.500600  0.314000  0.510430  1.0  -0.0893
  C  C206  1  0.435900  0.314600  0.482520  1.0  -0.0086
  C  C207  1  0.377100  0.231800  0.429650  1.0  -0.0675
  C  C208  1  0.358500  0.381800  0.478910  1.0  -0.0327
  C  C209  1  0.294500  0.375800  0.452040  1.0  -0.193
  C  C210  1  0.213300  0.454300  0.555450  1.0  0.1928
  C  C211  1  0.492800  0.387800  0.538120  1.0  0.652
  C  C212  1  0.984200  0.316600  0.574850  1.0  0.1032
  C  C213  1  0.042800  0.296100  0.600530  1.0  -0.2004
  C  C214  1  0.185500  0.356600  0.602390  1.0  0.1708
  C  C215  1  0.570600  0.243500  0.513050  1.0  -0.102
  C  C216  1  0.073100  0.395200  0.551690  1.0  -0.193
  C  C217  1  0.585800  0.175100  0.487690  1.0  -0.0985
  C  C218  1  0.831800  0.267000  0.571470  1.0  -0.2253
  C  C219  1  0.793400  0.554300  0.790740  1.0  0.0227
  C  C220  1  0.996000  0.695500  0.760430  1.0  0.2074
  C  C221  1  0.647700  0.475600  0.794160  1.0  -0.0808
  C  C222  1  0.813400  0.499400  0.843760  1.0  -0.0912
  C  C223  1  0.878700  0.564100  0.815850  1.0  -0.008
  C  C224  1  0.854700  0.622900  0.762980  1.0  -0.0672
  C  C225  1  0.023300  0.641500  0.812240  1.0  -0.0345
  C  C226  1  0.081300  0.705500  0.785370  1.0  -0.1936
  C  C227  1  0.241000  0.786700  0.888780  1.0  0.1959
  C  C228  1  0.895000  0.507200  0.871450  1.0  0.6521
  C  C229  1  0.332400  0.015800  0.908180  1.0  0.1034
  C  C230  1  0.253300  0.957200  0.933860  1.0  -0.2006
  C  C231  1  0.171100  0.814500  0.935720  1.0  0.1728
  C  C232  1  0.672900  0.429400  0.846380  1.0  -0.1022
  C  C233  1  0.322100  0.926900  0.885020  1.0  -0.1867
  C  C234  1  0.589300  0.414200  0.821020  1.0  -0.0998
  C  C235  1  0.435200  0.168200  0.904800  1.0  -0.2257
  C  C236  1  0.760900  0.206600  0.124070  1.0  0.0214
  C  C237  1  0.699500  0.004000  0.093760  1.0  0.2028
  C  C238  1  0.827900  0.352300  0.127490  1.0  -0.083
  C  C239  1  0.686000  0.186600  0.177090  1.0  -0.0881
  C  C240  1  0.685400  0.121300  0.149180  1.0  -0.0068
  C  C241  1  0.768200  0.145300  0.096310  1.0  -0.0648
  C  C242  1  0.618200  0.976700  0.145570  1.0  -0.0282
  C  C243  1  0.624200  0.918700  0.118700  1.0  -0.193
  C  C244  1  0.545700  0.759000  0.222110  1.0  0.1954
  C  C245  1  0.612200  0.105000  0.204780  1.0  0.6537
  C  C246  1  0.683400  0.667600  0.241510  1.0  0.102
  C  C247  1  0.703900  0.746700  0.267190  1.0  -0.201
  C  C248  1  0.643400  0.828900  0.269050  1.0  0.1689
  C  C249  1  0.756500  0.327100  0.179710  1.0  -0.1042
  C  C250  1  0.604800  0.677900  0.218350  1.0  -0.1918
  C  C251  1  0.824900  0.410700  0.154350  1.0  -0.0919
  C  C252  1  0.733000  0.564800  0.238130  1.0  -0.2206
  C  C253  1  0.239100  0.445700  0.209260  1.0  0.0219
  C  C254  1  0.300500  0.304500  0.239570  1.0  0.207
  C  C255  1  0.172100  0.524400  0.205840  1.0  -0.0819
  C  C256  1  0.314000  0.500600  0.156240  1.0  -0.0914
  C  C257  1  0.314600  0.435900  0.184150  1.0  -0.0092
  C  C258  1  0.231800  0.377100  0.237020  1.0  -0.0685
  C  C259  1  0.381800  0.358500  0.187760  1.0  -0.0355
  C  C260  1  0.375800  0.294500  0.214630  1.0  -0.1935
  C  C261  1  0.454300  0.213300  0.111220  1.0  0.1966
  C  C262  1  0.387800  0.492800  0.128550  1.0  0.6518
  C  C263  1  0.316600  0.984200  0.091820  1.0  0.1035
  C  C264  1  0.296100  0.042800  0.066140  1.0  -0.2012
  C  C265  1  0.356600  0.185500  0.064280  1.0  0.172
  C  C266  1  0.243500  0.570600  0.153620  1.0  -0.1028
  C  C267  1  0.395200  0.073100  0.114980  1.0  -0.1876
  C  C268  1  0.175100  0.585800  0.178980  1.0  -0.0998
  C  C269  1  0.267000  0.831800  0.095200  1.0  -0.2246
  C  C270  1  0.554300  0.793400  0.875930  1.0  0.0216
  C  C271  1  0.695500  0.996000  0.906240  1.0  0.2037
  C  C272  1  0.475600  0.647700  0.872510  1.0  -0.0838
  C  C273  1  0.499400  0.813400  0.822910  1.0  -0.0874
  C  C274  1  0.564100  0.878700  0.850820  1.0  -0.0077
  C  C275  1  0.622900  0.854700  0.903690  1.0  -0.065
  C  C276  1  0.641500  0.023300  0.854430  1.0  -0.0292
  C  C277  1  0.705500  0.081300  0.881300  1.0  -0.1942
  C  C278  1  0.786700  0.241000  0.777890  1.0  0.1956
  C  C279  1  0.507200  0.895000  0.795220  1.0  0.6529
  C  C280  1  0.015800  0.332400  0.758490  1.0  0.1024
  C  C281  1  0.957200  0.253300  0.732810  1.0  -0.2029
  C  C282  1  0.814500  0.171100  0.730950  1.0  0.1678
  C  C283  1  0.429400  0.672900  0.820290  1.0  -0.1044
  C  C284  1  0.926900  0.322100  0.781650  1.0  -0.1931
  C  C285  1  0.414200  0.589300  0.845650  1.0  -0.0927
  C  C286  1  0.168200  0.435200  0.761870  1.0  -0.2224
  C  C287  1  0.206600  0.760900  0.542590  1.0  0.0214
  C  C288  1  0.004000  0.699500  0.572900  1.0  0.206
  C  C289  1  0.352300  0.827900  0.539170  1.0  -0.0822
  C  C290  1  0.186600  0.686000  0.489570  1.0  -0.0897
  C  C291  1  0.121300  0.685400  0.517480  1.0  -0.0085
  C  C292  1  0.145300  0.768200  0.570350  1.0  -0.0664
  C  C293  1  0.976700  0.618200  0.521090  1.0  -0.0326
  C  C294  1  0.918700  0.624200  0.547960  1.0  -0.193
  C  C295  1  0.759000  0.545700  0.444550  1.0  0.1936
  C  C296  1  0.105000  0.612200  0.461880  1.0  0.6517
  C  C297  1  0.667600  0.683400  0.425150  1.0  0.1023
  C  C298  1  0.746700  0.703900  0.399470  1.0  -0.2009
  C  C299  1  0.828900  0.643400  0.397610  1.0  0.1699
  C  C300  1  0.327100  0.756500  0.486950  1.0  -0.1026
  C  C301  1  0.677900  0.604800  0.448310  1.0  -0.1938
  C  C302  1  0.410700  0.824900  0.512310  1.0  -0.0989
  C  C303  1  0.564800  0.733000  0.428530  1.0  -0.2257
  C  C304  1  0.554300  0.760900  0.957410  1.0  0.0215
  C  C305  1  0.695500  0.699500  0.927100  1.0  0.2051
  C  C306  1  0.475600  0.827900  0.960830  1.0  -0.0808
  C  C307  1  0.499400  0.686000  0.010430  1.0  -0.0884
  C  C308  1  0.564100  0.685400  0.982520  1.0  -0.0076
  C  C309  1  0.622900  0.768200  0.929650  1.0  -0.0659
  C  C310  1  0.641500  0.618200  0.978910  1.0  -0.0329
  C  C311  1  0.705500  0.624200  0.952040  1.0  -0.1954
  C  C312  1  0.786700  0.545700  0.055450  1.0  0.1935
  C  C313  1  0.507200  0.612200  0.038120  1.0  0.6527
  C  C314  1  0.015800  0.683400  0.074850  1.0  0.1016
  C  C315  1  0.957200  0.703900  0.100530  1.0  -0.2002
  C  C316  1  0.814500  0.643400  0.102390  1.0  0.1702
  C  C317  1  0.429400  0.756500  0.013050  1.0  -0.1021
  C  C318  1  0.926900  0.604800  0.051690  1.0  -0.1927
  C  C319  1  0.414200  0.824900  0.987690  1.0  -0.0993
  C  C320  1  0.168200  0.733000  0.071470  1.0  -0.2256
  C  C321  1  0.206600  0.445700  0.290740  1.0  0.0214
  C  C322  1  0.004000  0.304500  0.260430  1.0  0.2066
  C  C323  1  0.352300  0.524400  0.294160  1.0  -0.082
  C  C324  1  0.186600  0.500600  0.343760  1.0  -0.091
  C  C325  1  0.121300  0.435900  0.315850  1.0  -0.0079
  C  C326  1  0.145300  0.377100  0.262980  1.0  -0.0695
  C  C327  1  0.976700  0.358500  0.312240  1.0  -0.0335
  C  C328  1  0.918700  0.294500  0.285370  1.0  -0.1928
  C  C329  1  0.759000  0.213300  0.388780  1.0  0.1961
  C  C330  1  0.105000  0.492800  0.371450  1.0  0.6522
  C  C331  1  0.667600  0.984200  0.408180  1.0  0.1036
  C  C332  1  0.746700  0.042800  0.433860  1.0  -0.1989
  C  C333  1  0.828900  0.185500  0.435720  1.0  0.1714
  C  C334  1  0.327100  0.570600  0.346380  1.0  -0.1011
  C  C335  1  0.677900  0.073100  0.385020  1.0  -0.1869
  C  C336  1  0.410700  0.585800  0.321020  1.0  -0.0987
  C  C337  1  0.564800  0.831800  0.404800  1.0  -0.2241
  C  C338  1  0.239100  0.793400  0.624070  1.0  0.0211
  C  C339  1  0.300500  0.996000  0.593760  1.0  0.2041
  C  C340  1  0.172100  0.647700  0.627490  1.0  -0.0832
  C  C341  1  0.314000  0.813400  0.677090  1.0  -0.0878
  C  C342  1  0.314600  0.878700  0.649180  1.0  -0.008
  C  C343  1  0.231800  0.854700  0.596310  1.0  -0.0681
  C  C344  1  0.381800  0.023300  0.645570  1.0  -0.0299
  C  C345  1  0.375800  0.081300  0.618700  1.0  -0.1955
  C  C346  1  0.454300  0.241000  0.722110  1.0  0.194
  C  C347  1  0.387800  0.895000  0.704780  1.0  0.6527
  C  C348  1  0.316600  0.332400  0.741510  1.0  0.102
  C  C349  1  0.296100  0.253300  0.767190  1.0  -0.2006
  C  C350  1  0.356600  0.171100  0.769050  1.0  0.1692
  C  C351  1  0.243500  0.672900  0.679710  1.0  -0.1022
  C  C352  1  0.395200  0.322100  0.718350  1.0  -0.1919
  C  C353  1  0.175100  0.589300  0.654350  1.0  -0.092
  C  C354  1  0.267000  0.435200  0.738130  1.0  -0.2237
  N  N355  1  0.563800  0.729600  0.586120  1.0  -0.3151
  N  N356  1  0.270400  0.834200  0.252790  1.0  -0.3152
  N  N357  1  0.165800  0.436200  0.919450  1.0  -0.3182
  N  N358  1  0.270400  0.436200  0.580550  1.0  -0.3149
  N  N359  1  0.165800  0.729600  0.913880  1.0  -0.3159
  N  N360  1  0.563800  0.834200  0.247210  1.0  -0.3146
  N  N361  1  0.436200  0.270400  0.086120  1.0  -0.3157
  N  N362  1  0.729600  0.165800  0.752790  1.0  -0.3156
  N  N363  1  0.834200  0.563800  0.419450  1.0  -0.316
  N  N364  1  0.729600  0.563800  0.080550  1.0  -0.3185
  N  N365  1  0.834200  0.270400  0.413880  1.0  -0.3151
  N  N366  1  0.436200  0.165800  0.747210  1.0  -0.3147
  O  O367  1  0.675440  0.538900  0.603440  1.0  -0.6062
  O  O368  1  0.488310  0.479330  0.630130  1.0  -0.5691
  O  O369  1  0.706700  0.759800  0.766090  1.0  -0.509
  O  O370  1  0.461100  0.136540  0.270110  1.0  -0.6049
  O  O371  1  0.520670  0.008980  0.296800  1.0  -0.5674
  O  O372  1  0.240200  0.946900  0.432760  1.0  -0.5108
  O  O373  1  0.863460  0.324560  0.936770  1.0  -0.605
  O  O374  1  0.991020  0.511690  0.963460  1.0  -0.5681
  O  O375  1  0.053100  0.293300  0.099420  1.0  -0.5071
  O  O376  1  0.461100  0.324560  0.563230  1.0  -0.6059
  O  O377  1  0.520670  0.511690  0.536540  1.0  -0.5669
  O  O378  1  0.240200  0.293300  0.400580  1.0  -0.5073
  O  O379  1  0.863460  0.538900  0.896560  1.0  -0.6061
  O  O380  1  0.991020  0.479330  0.869870  1.0  -0.5672
  O  O381  1  0.053100  0.759800  0.733910  1.0  -0.5075
  O  O382  1  0.675440  0.136540  0.229890  1.0  -0.6052
  O  O383  1  0.488310  0.008980  0.203200  1.0  -0.5685
  O  O384  1  0.706700  0.946900  0.067240  1.0  -0.5083
  O  O385  1  0.324560  0.461100  0.103440  1.0  -0.6052
  O  O386  1  0.511690  0.520670  0.130130  1.0  -0.5673
  O  O387  1  0.293300  0.240200  0.266090  1.0  -0.5103
  O  O388  1  0.538900  0.863460  0.770110  1.0  -0.6058
  O  O389  1  0.479330  0.991020  0.796800  1.0  -0.5682
  O  O390  1  0.759800  0.053100  0.932760  1.0  -0.5079
  O  O391  1  0.136540  0.675440  0.436770  1.0  -0.6065
  O  O392  1  0.008980  0.488310  0.463460  1.0  -0.5672
  O  O393  1  0.946900  0.706700  0.599420  1.0  -0.5074
  O  O394  1  0.538900  0.675440  0.063230  1.0  -0.6065
  O  O395  1  0.479330  0.488310  0.036540  1.0  -0.5675
  O  O396  1  0.759800  0.706700  0.900580  1.0  -0.5067
  O  O397  1  0.136540  0.461100  0.396560  1.0  -0.6062
  O  O398  1  0.008980  0.520670  0.369870  1.0  -0.5689
  O  O399  1  0.946900  0.240200  0.233910  1.0  -0.5083
  O  O400  1  0.324560  0.863460  0.729890  1.0  -0.6064
  O  O401  1  0.511690  0.991020  0.703200  1.0  -0.5673
  O  O402  1  0.293300  0.053100  0.567240  1.0  -0.5071
