# generated using pymatgen
data_Co3H42C46(NO)16
_symmetry_space_group_name_H-M   'P 1'
_cell_length_a   31.28100000
_cell_length_b   10.56760000
_cell_length_c   19.87500000
_cell_angle_alpha   90.00000000
_cell_angle_beta   94.44400000
_cell_angle_gamma   90.00000000
_symmetry_Int_Tables_number   1
_chemical_formula_structural   Co3H42C46(NO)16
_chemical_formula_sum   'Co12 H168 C184 N64 O64'
_cell_volume   6550.22890391
_cell_formula_units_Z   4
loop_
 _symmetry_equiv_pos_site_id
 _symmetry_equiv_pos_as_xyz
  1  'x, y, z'
loop_
 _atom_site_type_symbol
 _atom_site_label
 _atom_site_symmetry_multiplicity
 _atom_site_fract_x
 _atom_site_fract_y
 _atom_site_fract_z
 _atom_site_occupancy
 _atom_site_charge
  Co  Co1  1  0.328130  0.841070  0.257000  1.0  1.07
  Co  Co2  1  0.828130  0.341070  0.257000  1.0  1.07
  Co  Co3  1  0.671870  0.841070  0.243000  1.0  1.0714
  Co  Co4  1  0.171870  0.341070  0.243000  1.0  1.0714
  Co  Co5  1  0.671870  0.158930  0.743000  1.0  1.0702
  Co  Co6  1  0.171870  0.658930  0.743000  1.0  1.0702
  Co  Co7  1  0.328130  0.158930  0.757000  1.0  1.0697
  Co  Co8  1  0.828130  0.658930  0.757000  1.0  1.0697
  Co  Co9  1  0.000000  0.000000  0.000000  1.0  0.6586
  Co  Co10  1  0.500000  0.500000  0.000000  1.0  0.6586
  Co  Co11  1  0.000000  0.000000  0.500000  1.0  0.6586
  Co  Co12  1  0.500000  0.500000  0.500000  1.0  0.6586
  H  H13  1  0.401300  0.860000  0.320200  1.0  0.4504
  H  H14  1  0.169300  0.052300  0.129100  1.0  0.1202
  H  H15  1  0.282800  0.704300  0.329800  1.0  0.4145
  H  H16  1  0.046200  0.231500  0.073100  1.0  0.305
  H  H17  1  0.928500  0.241600  0.007800  1.0  0.1104
  H  H18  1  0.085500  0.763800  0.121200  1.0  0.1234
  H  H19  1  0.206500  0.711600  0.198300  1.0  0.1206
  H  H20  1  0.024100  0.441900  0.095000  1.0  0.1483
  H  H21  1  0.387000  0.583300  0.214300  1.0  0.1157
  H  H22  1  0.266600  0.636500  0.193900  1.0  0.2811
  H  H23  1  0.953600  0.571000  0.069600  1.0  0.1484
  H  H24  1  0.926300  0.519400  0.006200  1.0  0.1546
  H  H25  1  0.344200  0.296700  0.123600  1.0  0.1602
  H  H26  1  0.364800  0.288000  0.197800  1.0  0.1404
  H  H27  1  0.275500  0.429200  0.152700  1.0  0.1501
  H  H28  1  0.397600  0.474200  0.049900  1.0  0.1039
  H  H29  1  0.446500  0.254300  0.193500  1.0  0.1418
  H  H30  1  0.500000  0.324600  0.126200  1.0  0.2525
  H  H31  1  0.810500  0.532700  0.138900  1.0  0.3337
  H  H32  1  0.851500  0.600400  0.051700  1.0  0.1322
  H  H33  1  0.917200  0.358800  0.170100  1.0  0.1126
  H  H34  1  0.901300  0.360000  0.320200  1.0  0.4504
  H  H35  1  0.669300  0.552300  0.129100  1.0  0.1202
  H  H36  1  0.782800  0.204300  0.329800  1.0  0.4145
  H  H37  1  0.546200  0.731500  0.073100  1.0  0.305
  H  H38  1  0.428500  0.741600  0.007800  1.0  0.1104
  H  H39  1  0.585500  0.263800  0.121200  1.0  0.1234
  H  H40  1  0.706500  0.211600  0.198300  1.0  0.1206
  H  H41  1  0.524100  0.941900  0.095000  1.0  0.1483
  H  H42  1  0.887000  0.083300  0.214300  1.0  0.1157
  H  H43  1  0.766600  0.136500  0.193900  1.0  0.2811
  H  H44  1  0.453600  0.071000  0.069600  1.0  0.1484
  H  H45  1  0.426300  0.019400  0.006200  1.0  0.1546
  H  H46  1  0.844200  0.796700  0.123600  1.0  0.1634
  H  H47  1  0.864800  0.788000  0.197800  1.0  0.1404
  H  H48  1  0.775500  0.929200  0.152700  1.0  0.1501
  H  H49  1  0.897600  0.974200  0.049900  1.0  0.1039
  H  H50  1  0.946500  0.754300  0.193500  1.0  0.1418
  H  H51  1  0.000000  0.824600  0.126200  1.0  0.2527
  H  H52  1  0.310500  0.032700  0.138900  1.0  0.3337
  H  H53  1  0.351500  0.100400  0.051700  1.0  0.1322
  H  H54  1  0.417200  0.858800  0.170100  1.0  0.1126
  H  H55  1  0.598700  0.860000  0.179800  1.0  0.4504
  H  H56  1  0.830700  0.052300  0.370900  1.0  0.1206
  H  H57  1  0.717200  0.704300  0.170200  1.0  0.4148
  H  H58  1  0.953800  0.231500  0.426900  1.0  0.3043
  H  H59  1  0.071500  0.241600  0.492200  1.0  0.1106
  H  H60  1  0.914500  0.763800  0.378800  1.0  0.1233
  H  H61  1  0.793500  0.711600  0.301700  1.0  0.1204
  H  H62  1  0.975900  0.441900  0.405000  1.0  0.1485
  H  H63  1  0.613000  0.583300  0.285700  1.0  0.1161
  H  H64  1  0.733400  0.636500  0.306100  1.0  0.283
  H  H65  1  0.046400  0.571000  0.430400  1.0  0.1487
  H  H66  1  0.073700  0.519400  0.493800  1.0  0.1541
  H  H67  1  0.655800  0.296700  0.376400  1.0  0.1593
  H  H68  1  0.635200  0.288000  0.302200  1.0  0.1398
  H  H69  1  0.724500  0.429200  0.347300  1.0  0.1501
  H  H70  1  0.602400  0.474200  0.450100  1.0  0.1035
  H  H71  1  0.553500  0.254300  0.306500  1.0  0.1424
  H  H72  1  0.500000  0.324600  0.373800  1.0  0.2534
  H  H73  1  0.189500  0.532700  0.361100  1.0  0.3335
  H  H74  1  0.148500  0.600400  0.448300  1.0  0.1315
  H  H75  1  0.082800  0.358800  0.329900  1.0  0.1122
  H  H76  1  0.098700  0.360000  0.179800  1.0  0.4504
  H  H77  1  0.330700  0.552300  0.370900  1.0  0.1206
  H  H78  1  0.217200  0.204300  0.170200  1.0  0.4148
  H  H79  1  0.453800  0.731500  0.426900  1.0  0.3043
  H  H80  1  0.571500  0.741600  0.492200  1.0  0.1106
  H  H81  1  0.414500  0.263800  0.378800  1.0  0.1233
  H  H82  1  0.293500  0.211600  0.301700  1.0  0.1204
  H  H83  1  0.475900  0.941900  0.405000  1.0  0.1485
  H  H84  1  0.113000  0.083300  0.285700  1.0  0.1161
  H  H85  1  0.233400  0.136500  0.306100  1.0  0.283
  H  H86  1  0.546400  0.071000  0.430400  1.0  0.1487
  H  H87  1  0.573700  0.019400  0.493800  1.0  0.1541
  H  H88  1  0.155800  0.796700  0.376400  1.0  0.1621
  H  H89  1  0.135200  0.788000  0.302200  1.0  0.1398
  H  H90  1  0.224500  0.929200  0.347300  1.0  0.1501
  H  H91  1  0.102400  0.974200  0.450100  1.0  0.1035
  H  H92  1  0.053500  0.754300  0.306500  1.0  0.1424
  H  H93  1  0.000000  0.824600  0.373800  1.0  0.2535
  H  H94  1  0.689500  0.032700  0.361100  1.0  0.3335
  H  H95  1  0.648500  0.100400  0.448300  1.0  0.1315
  H  H96  1  0.582800  0.858800  0.329900  1.0  0.1122
  H  H97  1  0.598700  0.140000  0.679800  1.0  0.4498
  H  H98  1  0.830700  0.947700  0.870900  1.0  0.1206
  H  H99  1  0.717200  0.295700  0.670200  1.0  0.4136
  H  H100  1  0.953800  0.768500  0.926900  1.0  0.3043
  H  H101  1  0.071500  0.758400  0.992200  1.0  0.1105
  H  H102  1  0.914500  0.236200  0.878800  1.0  0.1233
  H  H103  1  0.793500  0.288400  0.801700  1.0  0.1202
  H  H104  1  0.975900  0.558100  0.905000  1.0  0.148
  H  H105  1  0.613000  0.416700  0.785700  1.0  0.1161
  H  H106  1  0.733400  0.363500  0.806100  1.0  0.283
  H  H107  1  0.046400  0.429000  0.930400  1.0  0.1485
  H  H108  1  0.073700  0.480600  0.993800  1.0  0.1538
  H  H109  1  0.655800  0.703300  0.876400  1.0  0.1594
  H  H110  1  0.635200  0.712000  0.802200  1.0  0.1397
  H  H111  1  0.724500  0.570800  0.847300  1.0  0.1497
  H  H112  1  0.602400  0.525800  0.950100  1.0  0.1036
  H  H113  1  0.553500  0.745700  0.806500  1.0  0.1427
  H  H114  1  0.500000  0.675400  0.873800  1.0  0.2535
  H  H115  1  0.189500  0.467300  0.861100  1.0  0.3338
  H  H116  1  0.148500  0.399600  0.948300  1.0  0.1315
  H  H117  1  0.082800  0.641200  0.829900  1.0  0.1124
  H  H118  1  0.098700  0.640000  0.679800  1.0  0.4498
  H  H119  1  0.330700  0.447700  0.870900  1.0  0.1206
  H  H120  1  0.217200  0.795700  0.670200  1.0  0.4136
  H  H121  1  0.453800  0.268500  0.926900  1.0  0.3043
  H  H122  1  0.571500  0.258400  0.992200  1.0  0.1105
  H  H123  1  0.414500  0.736200  0.878800  1.0  0.1233
  H  H124  1  0.293500  0.788400  0.801700  1.0  0.1202
  H  H125  1  0.475900  0.058100  0.905000  1.0  0.148
  H  H126  1  0.113000  0.916700  0.785700  1.0  0.1161
  H  H127  1  0.233400  0.863500  0.806100  1.0  0.283
  H  H128  1  0.546400  0.929000  0.930400  1.0  0.1485
  H  H129  1  0.573700  0.980600  0.993800  1.0  0.1538
  H  H130  1  0.155800  0.203300  0.876400  1.0  0.1626
  H  H131  1  0.135200  0.212000  0.802200  1.0  0.1397
  H  H132  1  0.224500  0.070800  0.847300  1.0  0.1497
  H  H133  1  0.102400  0.025800  0.950100  1.0  0.1036
  H  H134  1  0.053500  0.245700  0.806500  1.0  0.1427
  H  H135  1  0.000000  0.175400  0.873800  1.0  0.2537
  H  H136  1  0.689500  0.967300  0.861100  1.0  0.3338
  H  H137  1  0.648500  0.899600  0.948300  1.0  0.1315
  H  H138  1  0.582800  0.141200  0.829900  1.0  0.1124
  H  H139  1  0.401300  0.140000  0.820200  1.0  0.4503
  H  H140  1  0.169300  0.947700  0.629100  1.0  0.1203
  H  H141  1  0.282800  0.295700  0.829800  1.0  0.4133
  H  H142  1  0.046200  0.768500  0.573100  1.0  0.3044
  H  H143  1  0.928500  0.758400  0.507800  1.0  0.1103
  H  H144  1  0.085500  0.236200  0.621200  1.0  0.1234
  H  H145  1  0.206500  0.288400  0.698300  1.0  0.1204
  H  H146  1  0.024100  0.558100  0.595000  1.0  0.1485
  H  H147  1  0.387000  0.416700  0.714300  1.0  0.1157
  H  H148  1  0.266600  0.363500  0.693900  1.0  0.2809
  H  H149  1  0.953600  0.429000  0.569600  1.0  0.149
  H  H150  1  0.926300  0.480600  0.506200  1.0  0.1546
  H  H151  1  0.344200  0.703300  0.623600  1.0  0.1602
  H  H152  1  0.364800  0.712000  0.697800  1.0  0.1402
  H  H153  1  0.275500  0.570800  0.652700  1.0  0.1504
  H  H154  1  0.397600  0.525800  0.549900  1.0  0.1038
  H  H155  1  0.446500  0.745700  0.693500  1.0  0.1417
  H  H156  1  0.500000  0.675400  0.626200  1.0  0.2523
  H  H157  1  0.810500  0.467300  0.638900  1.0  0.334
  H  H158  1  0.851500  0.399600  0.551700  1.0  0.132
  H  H159  1  0.917200  0.641200  0.670100  1.0  0.1126
  H  H160  1  0.901300  0.640000  0.820200  1.0  0.4503
  H  H161  1  0.669300  0.447700  0.629100  1.0  0.1203
  H  H162  1  0.782800  0.795700  0.829800  1.0  0.4133
  H  H163  1  0.546200  0.268500  0.573100  1.0  0.3044
  H  H164  1  0.428500  0.258400  0.507800  1.0  0.1103
  H  H165  1  0.585500  0.736200  0.621200  1.0  0.1234
  H  H166  1  0.706500  0.788400  0.698300  1.0  0.1204
  H  H167  1  0.524100  0.058100  0.595000  1.0  0.1485
  H  H168  1  0.887000  0.916700  0.714300  1.0  0.1157
  H  H169  1  0.766600  0.863500  0.693900  1.0  0.2809
  H  H170  1  0.453600  0.929000  0.569600  1.0  0.149
  H  H171  1  0.426300  0.980600  0.506200  1.0  0.1546
  H  H172  1  0.844200  0.203300  0.623600  1.0  0.1636
  H  H173  1  0.864800  0.212000  0.697800  1.0  0.1402
  H  H174  1  0.775500  0.070800  0.652700  1.0  0.1504
  H  H175  1  0.897600  0.025800  0.549900  1.0  0.1038
  H  H176  1  0.946500  0.245700  0.693500  1.0  0.1417
  H  H177  1  0.000000  0.175400  0.626200  1.0  0.2525
  H  H178  1  0.310500  0.967300  0.638900  1.0  0.334
  H  H179  1  0.351500  0.899600  0.551700  1.0  0.132
  H  H180  1  0.417200  0.141200  0.670100  1.0  0.1126
  C  C181  1  0.122060  0.922500  0.122620  1.0  -0.1248
  C  C182  1  0.163170  0.967900  0.137570  1.0  -0.0105
  C  C183  1  0.195430  0.889000  0.165150  1.0  -0.1333
  C  C184  1  0.240830  0.935600  0.180160  1.0  0.7035
  C  C185  1  0.144960  0.713700  0.160400  1.0  -0.1599
  C  C186  1  0.087150  0.010300  0.093150  1.0  0.6723
  C  C187  1  0.955400  0.265200  0.026870  1.0  0.0861
  C  C188  1  0.965100  0.385000  0.051610  1.0  0.0003
  C  C189  1  0.112920  0.794800  0.132770  1.0  -0.002
  C  C190  1  0.185460  0.763800  0.177680  1.0  -0.0329
  C  C191  1  0.007490  0.377200  0.074830  1.0  -0.1177
  C  C192  1  0.339920  0.461300  0.175010  1.0  0.0425
  C  C193  1  0.357740  0.571400  0.204000  1.0  0.0738
  C  C194  1  0.936630  0.499700  0.052200  1.0  -0.2621
  C  C195  1  0.361990  0.341300  0.158000  1.0  -0.3067
  C  C196  1  0.296920  0.484400  0.169600  1.0  -0.1245
  C  C197  1  0.405630  0.360900  0.133100  1.0  0.0971
  C  C198  1  0.417080  0.429400  0.078400  1.0  0.1097
  C  C199  1  0.442900  0.308800  0.156700  1.0  -0.0169
  C  C200  1  0.898880  0.484300  0.093600  1.0  -0.0184
  C  C201  1  0.859930  0.543500  0.085900  1.0  -0.0631
  C  C202  1  0.895450  0.410900  0.151400  1.0  0.0904
  C  C203  1  0.137450  0.577500  0.172600  1.0  0.6856
  C  C204  1  0.622060  0.422500  0.122620  1.0  -0.1248
  C  C205  1  0.663170  0.467900  0.137570  1.0  -0.0105
  C  C206  1  0.695430  0.389000  0.165150  1.0  -0.1333
  C  C207  1  0.740830  0.435600  0.180160  1.0  0.7025
  C  C208  1  0.644960  0.213700  0.160400  1.0  -0.1599
  C  C209  1  0.587150  0.510300  0.093150  1.0  0.6723
  C  C210  1  0.455400  0.765200  0.026870  1.0  0.0861
  C  C211  1  0.465100  0.885000  0.051610  1.0  0.0003
  C  C212  1  0.612920  0.294800  0.132770  1.0  -0.002
  C  C213  1  0.685460  0.263800  0.177680  1.0  -0.0329
  C  C214  1  0.507490  0.877200  0.074830  1.0  -0.1177
  C  C215  1  0.839920  0.961300  0.175010  1.0  0.0425
  C  C216  1  0.857740  0.071400  0.204000  1.0  0.0738
  C  C217  1  0.436630  0.999700  0.052200  1.0  -0.2621
  C  C218  1  0.861990  0.841300  0.158000  1.0  -0.3067
  C  C219  1  0.796920  0.984400  0.169600  1.0  -0.1245
  C  C220  1  0.905630  0.860900  0.133100  1.0  0.0971
  C  C221  1  0.917080  0.929400  0.078400  1.0  0.1097
  C  C222  1  0.942900  0.808800  0.156700  1.0  -0.0169
  C  C223  1  0.398880  0.984300  0.093600  1.0  -0.0184
  C  C224  1  0.359930  0.043500  0.085900  1.0  -0.0631
  C  C225  1  0.395450  0.910900  0.151400  1.0  0.0904
  C  C226  1  0.637450  0.077500  0.172600  1.0  0.6856
  C  C227  1  0.877940  0.922500  0.377380  1.0  -0.1237
  C  C228  1  0.836830  0.967900  0.362430  1.0  -0.0106
  C  C229  1  0.804570  0.889000  0.334850  1.0  -0.1357
  C  C230  1  0.759170  0.935600  0.319840  1.0  0.7011
  C  C231  1  0.855040  0.713700  0.339600  1.0  -0.1587
  C  C232  1  0.912850  0.010300  0.406850  1.0  0.6726
  C  C233  1  0.044600  0.265200  0.473130  1.0  0.0864
  C  C234  1  0.034900  0.385000  0.448390  1.0  -0.0016
  C  C235  1  0.887080  0.794800  0.367230  1.0  -0.0019
  C  C236  1  0.814540  0.763800  0.322320  1.0  -0.0339
  C  C237  1  0.992510  0.377200  0.425170  1.0  -0.1183
  C  C238  1  0.660080  0.461300  0.324990  1.0  0.0408
  C  C239  1  0.642260  0.571400  0.296000  1.0  0.0733
  C  C240  1  0.063370  0.499700  0.447800  1.0  -0.2637
  C  C241  1  0.638010  0.341300  0.342000  1.0  -0.306
  C  C242  1  0.703080  0.484400  0.330400  1.0  -0.1241
  C  C243  1  0.594370  0.360900  0.366900  1.0  0.0969
  C  C244  1  0.582920  0.429400  0.421600  1.0  0.1098
  C  C245  1  0.557100  0.308800  0.343300  1.0  -0.0182
  C  C246  1  0.101120  0.484300  0.406400  1.0  -0.0184
  C  C247  1  0.140070  0.543500  0.414100  1.0  -0.0606
  C  C248  1  0.104550  0.410900  0.348600  1.0  0.0896
  C  C249  1  0.862550  0.577500  0.327400  1.0  0.6849
  C  C250  1  0.377940  0.422500  0.377380  1.0  -0.1237
  C  C251  1  0.336830  0.467900  0.362430  1.0  -0.0106
  C  C252  1  0.304570  0.389000  0.334850  1.0  -0.1357
  C  C253  1  0.259170  0.435600  0.319840  1.0  0.7002
  C  C254  1  0.355040  0.213700  0.339600  1.0  -0.1587
  C  C255  1  0.412850  0.510300  0.406850  1.0  0.6726
  C  C256  1  0.544600  0.765200  0.473130  1.0  0.0864
  C  C257  1  0.534900  0.885000  0.448390  1.0  -0.0016
  C  C258  1  0.387080  0.294800  0.367230  1.0  -0.0019
  C  C259  1  0.314540  0.263800  0.322320  1.0  -0.0339
  C  C260  1  0.492510  0.877200  0.425170  1.0  -0.1183
  C  C261  1  0.160080  0.961300  0.324990  1.0  0.0408
  C  C262  1  0.142260  0.071400  0.296000  1.0  0.0733
  C  C263  1  0.563370  0.999700  0.447800  1.0  -0.2637
  C  C264  1  0.138010  0.841300  0.342000  1.0  -0.306
  C  C265  1  0.203080  0.984400  0.330400  1.0  -0.1241
  C  C266  1  0.094370  0.860900  0.366900  1.0  0.0969
  C  C267  1  0.082920  0.929400  0.421600  1.0  0.1098
  C  C268  1  0.057100  0.808800  0.343300  1.0  -0.0182
  C  C269  1  0.601120  0.984300  0.406400  1.0  -0.0184
  C  C270  1  0.640070  0.043500  0.414100  1.0  -0.0606
  C  C271  1  0.604550  0.910900  0.348600  1.0  0.0896
  C  C272  1  0.362550  0.077500  0.327400  1.0  0.6849
  C  C273  1  0.877940  0.077500  0.877380  1.0  -0.1233
  C  C274  1  0.836830  0.032100  0.862430  1.0  -0.0097
  C  C275  1  0.804570  0.111000  0.834850  1.0  -0.1346
  C  C276  1  0.759170  0.064400  0.819840  1.0  0.7011
  C  C277  1  0.855040  0.286300  0.839600  1.0  -0.1587
  C  C278  1  0.912850  0.989700  0.906850  1.0  0.672
  C  C279  1  0.044600  0.734800  0.973130  1.0  0.0864
  C  C280  1  0.034900  0.615000  0.948390  1.0  -0.0016
  C  C281  1  0.887080  0.205200  0.867230  1.0  -0.002
  C  C282  1  0.814540  0.236200  0.822320  1.0  -0.0339
  C  C283  1  0.992510  0.622800  0.925170  1.0  -0.1191
  C  C284  1  0.660080  0.538700  0.824990  1.0  0.0404
  C  C285  1  0.642260  0.428600  0.796000  1.0  0.0749
  C  C286  1  0.063370  0.500300  0.947800  1.0  -0.2647
  C  C287  1  0.638010  0.658700  0.842000  1.0  -0.3051
  C  C288  1  0.703080  0.515600  0.830400  1.0  -0.1237
  C  C289  1  0.594370  0.639100  0.866900  1.0  0.0972
  C  C290  1  0.582920  0.570600  0.921600  1.0  0.1094
  C  C291  1  0.557100  0.691200  0.843300  1.0  -0.0176
  C  C292  1  0.101120  0.515700  0.906400  1.0  -0.0187
  C  C293  1  0.140070  0.456500  0.914100  1.0  -0.0608
  C  C294  1  0.104550  0.589100  0.848600  1.0  0.0897
  C  C295  1  0.862550  0.422500  0.827400  1.0  0.6853
  C  C296  1  0.377940  0.577500  0.877380  1.0  -0.1233
  C  C297  1  0.336830  0.532100  0.862430  1.0  -0.0097
  C  C298  1  0.304570  0.611000  0.834850  1.0  -0.1346
  C  C299  1  0.259170  0.564400  0.819840  1.0  0.7002
  C  C300  1  0.355040  0.786300  0.839600  1.0  -0.1587
  C  C301  1  0.412850  0.489700  0.906850  1.0  0.672
  C  C302  1  0.544600  0.234800  0.973130  1.0  0.0864
  C  C303  1  0.534900  0.115000  0.948390  1.0  -0.0016
  C  C304  1  0.387080  0.705200  0.867230  1.0  -0.002
  C  C305  1  0.314540  0.736200  0.822320  1.0  -0.0339
  C  C306  1  0.492510  0.122800  0.925170  1.0  -0.1191
  C  C307  1  0.160080  0.038700  0.824990  1.0  0.0404
  C  C308  1  0.142260  0.928600  0.796000  1.0  0.0749
  C  C309  1  0.563370  0.000300  0.947800  1.0  -0.2647
  C  C310  1  0.138010  0.158700  0.842000  1.0  -0.3051
  C  C311  1  0.203080  0.015600  0.830400  1.0  -0.1237
  C  C312  1  0.094370  0.139100  0.866900  1.0  0.0972
  C  C313  1  0.082920  0.070600  0.921600  1.0  0.1094
  C  C314  1  0.057100  0.191200  0.843300  1.0  -0.0176
  C  C315  1  0.601120  0.015700  0.906400  1.0  -0.0187
  C  C316  1  0.640070  0.956500  0.914100  1.0  -0.0608
  C  C317  1  0.604550  0.089100  0.848600  1.0  0.0897
  C  C318  1  0.362550  0.922500  0.827400  1.0  0.6853
  C  C319  1  0.122060  0.077500  0.622620  1.0  -0.1251
  C  C320  1  0.163170  0.032100  0.637570  1.0  -0.0094
  C  C321  1  0.195430  0.111000  0.665150  1.0  -0.1337
  C  C322  1  0.240830  0.064400  0.680160  1.0  0.7036
  C  C323  1  0.144960  0.286300  0.660400  1.0  -0.157
  C  C324  1  0.087150  0.989700  0.593150  1.0  0.6725
  C  C325  1  0.955400  0.734800  0.526870  1.0  0.086
  C  C326  1  0.965100  0.615000  0.551610  1.0  0.0003
  C  C327  1  0.112920  0.205200  0.632770  1.0  -0.0024
  C  C328  1  0.185460  0.236200  0.677680  1.0  -0.0332
  C  C329  1  0.007490  0.622800  0.574830  1.0  -0.1184
  C  C330  1  0.339920  0.538700  0.675010  1.0  0.0431
  C  C331  1  0.357740  0.428600  0.704000  1.0  0.0745
  C  C332  1  0.936630  0.500300  0.552200  1.0  -0.2625
  C  C333  1  0.361990  0.658700  0.658000  1.0  -0.3053
  C  C334  1  0.296920  0.515600  0.669600  1.0  -0.1238
  C  C335  1  0.405630  0.639100  0.633100  1.0  0.0975
  C  C336  1  0.417080  0.570600  0.578400  1.0  0.1081
  C  C337  1  0.442900  0.691200  0.656700  1.0  -0.0165
  C  C338  1  0.898880  0.515700  0.593600  1.0  -0.0189
  C  C339  1  0.859930  0.456500  0.585900  1.0  -0.0634
  C  C340  1  0.895450  0.589100  0.651400  1.0  0.0894
  C  C341  1  0.137450  0.422500  0.672600  1.0  0.685
  C  C342  1  0.622060  0.577500  0.622620  1.0  -0.1251
  C  C343  1  0.663170  0.532100  0.637570  1.0  -0.0094
  C  C344  1  0.695430  0.611000  0.665150  1.0  -0.1337
  C  C345  1  0.740830  0.564400  0.680160  1.0  0.7025
  C  C346  1  0.644960  0.786300  0.660400  1.0  -0.157
  C  C347  1  0.587150  0.489700  0.593150  1.0  0.6725
  C  C348  1  0.455400  0.234800  0.526870  1.0  0.086
  C  C349  1  0.465100  0.115000  0.551610  1.0  0.0003
  C  C350  1  0.612920  0.705200  0.632770  1.0  -0.0024
  C  C351  1  0.685460  0.736200  0.677680  1.0  -0.0332
  C  C352  1  0.507490  0.122800  0.574830  1.0  -0.1184
  C  C353  1  0.839920  0.038700  0.675010  1.0  0.0431
  C  C354  1  0.857740  0.928600  0.704000  1.0  0.0745
  C  C355  1  0.436630  0.000300  0.552200  1.0  -0.2625
  C  C356  1  0.861990  0.158700  0.658000  1.0  -0.3053
  C  C357  1  0.796920  0.015600  0.669600  1.0  -0.1238
  C  C358  1  0.905630  0.139100  0.633100  1.0  0.0975
  C  C359  1  0.917080  0.070600  0.578400  1.0  0.1081
  C  C360  1  0.942900  0.191200  0.656700  1.0  -0.0165
  C  C361  1  0.398880  0.015700  0.593600  1.0  -0.0189
  C  C362  1  0.359930  0.956500  0.585900  1.0  -0.0634
  C  C363  1  0.395450  0.089100  0.651400  1.0  0.0894
  C  C364  1  0.637450  0.922500  0.672600  1.0  0.685
  N  N365  1  0.328320  0.656600  0.215170  1.0  -0.3012
  N  N366  1  0.988960  0.187800  0.033460  1.0  -0.2823
  N  N367  1  0.020600  0.258600  0.062970  1.0  -0.096
  N  N368  1  0.291230  0.600900  0.193060  1.0  -0.1092
  N  N369  1  0.458810  0.425100  0.070590  1.0  -0.3174
  N  N370  1  0.473630  0.347200  0.119600  1.0  -0.1192
  N  N371  1  0.857460  0.424300  0.176750  1.0  -0.3591
  N  N372  1  0.836190  0.506900  0.134620  1.0  -0.0982
  N  N373  1  0.828320  0.156600  0.215170  1.0  -0.3012
  N  N374  1  0.488960  0.687800  0.033460  1.0  -0.2823
  N  N375  1  0.520600  0.758600  0.062970  1.0  -0.096
  N  N376  1  0.791230  0.100900  0.193060  1.0  -0.1092
  N  N377  1  0.958810  0.925100  0.070590  1.0  -0.3174
  N  N378  1  0.973630  0.847200  0.119600  1.0  -0.1192
  N  N379  1  0.357460  0.924300  0.176750  1.0  -0.3591
  N  N380  1  0.336190  0.006900  0.134620  1.0  -0.0982
  N  N381  1  0.671680  0.656600  0.284830  1.0  -0.301
  N  N382  1  0.011040  0.187800  0.466540  1.0  -0.2806
  N  N383  1  0.979400  0.258600  0.437030  1.0  -0.0947
  N  N384  1  0.708770  0.600900  0.306940  1.0  -0.1074
  N  N385  1  0.541190  0.425100  0.429410  1.0  -0.3166
  N  N386  1  0.526370  0.347200  0.380400  1.0  -0.12
  N  N387  1  0.142540  0.424300  0.323250  1.0  -0.3582
  N  N388  1  0.163810  0.506900  0.365380  1.0  -0.0962
  N  N389  1  0.171680  0.156600  0.284830  1.0  -0.301
  N  N390  1  0.511040  0.687800  0.466540  1.0  -0.2806
  N  N391  1  0.479400  0.758600  0.437030  1.0  -0.0947
  N  N392  1  0.208770  0.100900  0.306940  1.0  -0.1074
  N  N393  1  0.041190  0.925100  0.429410  1.0  -0.3166
  N  N394  1  0.026370  0.847200  0.380400  1.0  -0.12
  N  N395  1  0.642540  0.924300  0.323250  1.0  -0.3582
  N  N396  1  0.663810  0.006900  0.365380  1.0  -0.0962
  N  N397  1  0.671680  0.343400  0.784830  1.0  -0.3006
  N  N398  1  0.011040  0.812200  0.966540  1.0  -0.2816
  N  N399  1  0.979400  0.741400  0.937030  1.0  -0.0947
  N  N400  1  0.708770  0.399100  0.806940  1.0  -0.1074
  N  N401  1  0.541190  0.574900  0.929410  1.0  -0.3171
  N  N402  1  0.526370  0.652800  0.880400  1.0  -0.1206
  N  N403  1  0.142540  0.575700  0.823250  1.0  -0.3583
  N  N404  1  0.163810  0.493100  0.865380  1.0  -0.0965
  N  N405  1  0.171680  0.843400  0.784830  1.0  -0.3006
  N  N406  1  0.511040  0.312200  0.966540  1.0  -0.2816
  N  N407  1  0.479400  0.241400  0.937030  1.0  -0.0947
  N  N408  1  0.208770  0.899100  0.806940  1.0  -0.1074
  N  N409  1  0.041190  0.074900  0.929410  1.0  -0.3171
  N  N410  1  0.026370  0.152800  0.880400  1.0  -0.1206
  N  N411  1  0.642540  0.075700  0.823250  1.0  -0.3583
  N  N412  1  0.663810  0.993100  0.865380  1.0  -0.0965
  N  N413  1  0.328320  0.343400  0.715170  1.0  -0.2997
  N  N414  1  0.988960  0.812200  0.533460  1.0  -0.2829
  N  N415  1  0.020600  0.741400  0.562970  1.0  -0.0953
  N  N416  1  0.291230  0.399100  0.693060  1.0  -0.1093
  N  N417  1  0.458810  0.574900  0.570590  1.0  -0.3165
  N  N418  1  0.473630  0.652800  0.619600  1.0  -0.119
  N  N419  1  0.857460  0.575700  0.676750  1.0  -0.3596
  N  N420  1  0.836190  0.493100  0.634620  1.0  -0.0977
  N  N421  1  0.828320  0.843400  0.715170  1.0  -0.2997
  N  N422  1  0.488960  0.312200  0.533460  1.0  -0.2829
  N  N423  1  0.520600  0.241400  0.562970  1.0  -0.0953
  N  N424  1  0.791230  0.899100  0.693060  1.0  -0.1093
  N  N425  1  0.958810  0.074900  0.570590  1.0  -0.3165
  N  N426  1  0.973630  0.152800  0.619600  1.0  -0.119
  N  N427  1  0.357460  0.075700  0.676750  1.0  -0.3596
  N  N428  1  0.336190  0.993100  0.634620  1.0  -0.0977
  O  O429  1  0.266690  0.857000  0.207960  1.0  -0.5879
  O  O430  1  0.390240  0.796000  0.303210  1.0  -0.7168
  O  O431  1  0.051650  0.961100  0.073440  1.0  -0.5808
  O  O432  1  0.095790  0.125700  0.090580  1.0  -0.5637
  O  O433  1  0.250400  0.046200  0.164970  1.0  -0.5782
  O  O434  1  0.294240  0.772000  0.340250  1.0  -0.7326
  O  O435  1  0.169390  0.511730  0.192520  1.0  -0.5683
  O  O436  1  0.099850  0.533500  0.160180  1.0  -0.5969
  O  O437  1  0.766690  0.357000  0.207960  1.0  -0.5885
  O  O438  1  0.890240  0.296000  0.303210  1.0  -0.7168
  O  O439  1  0.551650  0.461100  0.073440  1.0  -0.5808
  O  O440  1  0.595790  0.625700  0.090580  1.0  -0.5637
  O  O441  1  0.750400  0.546200  0.164970  1.0  -0.5782
  O  O442  1  0.794240  0.272000  0.340250  1.0  -0.7326
  O  O443  1  0.669390  0.011730  0.192520  1.0  -0.5683
  O  O444  1  0.599850  0.033500  0.160180  1.0  -0.5969
  O  O445  1  0.733310  0.857000  0.292040  1.0  -0.5893
  O  O446  1  0.609760  0.796000  0.196790  1.0  -0.7159
  O  O447  1  0.948350  0.961100  0.426560  1.0  -0.5812
  O  O448  1  0.904210  0.125700  0.409420  1.0  -0.5635
  O  O449  1  0.749600  0.046200  0.335030  1.0  -0.5781
  O  O450  1  0.705760  0.772000  0.159750  1.0  -0.7325
  O  O451  1  0.830610  0.511730  0.307480  1.0  -0.5667
  O  O452  1  0.900150  0.533500  0.339820  1.0  -0.5969
  O  O453  1  0.233310  0.357000  0.292040  1.0  -0.5897
  O  O454  1  0.109760  0.296000  0.196790  1.0  -0.7159
  O  O455  1  0.448350  0.461100  0.426560  1.0  -0.5812
  O  O456  1  0.404210  0.625700  0.409420  1.0  -0.5635
  O  O457  1  0.249600  0.546200  0.335030  1.0  -0.5781
  O  O458  1  0.205760  0.272000  0.159750  1.0  -0.7325
  O  O459  1  0.330610  0.011730  0.307480  1.0  -0.5667
  O  O460  1  0.400150  0.033500  0.339820  1.0  -0.5969
  O  O461  1  0.733310  0.143000  0.792040  1.0  -0.5892
  O  O462  1  0.609760  0.204000  0.696790  1.0  -0.7181
  O  O463  1  0.948350  0.038900  0.926560  1.0  -0.5812
  O  O464  1  0.904210  0.874300  0.909420  1.0  -0.5636
  O  O465  1  0.749600  0.953800  0.835030  1.0  -0.5787
  O  O466  1  0.705760  0.228000  0.659750  1.0  -0.7348
  O  O467  1  0.830610  0.488270  0.807480  1.0  -0.567
  O  O468  1  0.900150  0.466500  0.839820  1.0  -0.5986
  O  O469  1  0.233310  0.643000  0.792040  1.0  -0.5896
  O  O470  1  0.109760  0.704000  0.696790  1.0  -0.7181
  O  O471  1  0.448350  0.538900  0.926560  1.0  -0.5812
  O  O472  1  0.404210  0.374300  0.909420  1.0  -0.5636
  O  O473  1  0.249600  0.453800  0.835030  1.0  -0.5787
  O  O474  1  0.205760  0.728000  0.659750  1.0  -0.7348
  O  O475  1  0.330610  0.988270  0.807480  1.0  -0.567
  O  O476  1  0.400150  0.966500  0.839820  1.0  -0.5986
  O  O477  1  0.266690  0.143000  0.707960  1.0  -0.5881
  O  O478  1  0.390240  0.204000  0.803210  1.0  -0.7167
  O  O479  1  0.051650  0.038900  0.573440  1.0  -0.5811
  O  O480  1  0.095790  0.874300  0.590580  1.0  -0.5643
  O  O481  1  0.250400  0.953800  0.664970  1.0  -0.5785
  O  O482  1  0.294240  0.228000  0.840250  1.0  -0.7331
  O  O483  1  0.169390  0.488270  0.692520  1.0  -0.5682
  O  O484  1  0.099850  0.466500  0.660180  1.0  -0.596
  O  O485  1  0.766690  0.643000  0.707960  1.0  -0.5887
  O  O486  1  0.890240  0.704000  0.803210  1.0  -0.7167
  O  O487  1  0.551650  0.538900  0.573440  1.0  -0.5811
  O  O488  1  0.595790  0.374300  0.590580  1.0  -0.5643
  O  O489  1  0.750400  0.453800  0.664970  1.0  -0.5785
  O  O490  1  0.794240  0.728000  0.840250  1.0  -0.7331
  O  O491  1  0.669390  0.988270  0.692520  1.0  -0.5682
  O  O492  1  0.599850  0.966500  0.660180  1.0  -0.596
