# generated using pymatgen
data_CdH2(C3O2)2
_symmetry_space_group_name_H-M   'P 1'
_cell_length_a   10.24090000
_cell_length_b   19.61020000
_cell_length_c   37.78700000
_cell_angle_alpha   89.02500000
_cell_angle_beta   89.26300000
_cell_angle_gamma   76.47100000
_symmetry_Int_Tables_number   1
_chemical_formula_structural   CdH2(C3O2)2
_chemical_formula_sum   'Cd24 H48 C144 O96'
_cell_volume   7376.66792447
_cell_formula_units_Z   24
loop_
 _symmetry_equiv_pos_site_id
 _symmetry_equiv_pos_as_xyz
  1  'x, y, z'
loop_
 _atom_site_type_symbol
 _atom_site_label
 _atom_site_symmetry_multiplicity
 _atom_site_fract_x
 _atom_site_fract_y
 _atom_site_fract_z
 _atom_site_occupancy
 _atom_site_charge
  Cd  Cd1  1  0.858260  0.689390  0.609240  1.0  1.1421
  Cd  Cd2  1  0.185600  0.695370  0.611330  1.0  0.9817
  Cd  Cd3  1  0.357130  0.169100  0.896540  1.0  1.0835
  Cd  Cd4  1  0.689710  0.177870  0.892860  1.0  0.9821
  Cd  Cd5  1  0.201800  0.769850  0.841170  1.0  1.1015
  Cd  Cd6  1  0.510580  0.633240  0.819210  1.0  1.0925
  Cd  Cd7  1  0.783020  0.590300  0.889560  1.0  1.0672
  Cd  Cd8  1  0.000940  0.710240  0.911180  1.0  1.0673
  Cd  Cd9  1  0.556030  0.161540  0.589780  1.0  1.1121
  Cd  Cd10  1  0.721340  0.291920  0.627960  1.0  1.102
  Cd  Cd11  1  0.012940  0.230970  0.684830  1.0  1.1091
  Cd  Cd12  1  0.329630  0.101110  0.655670  1.0  1.1075
  Cd  Cd13  1  0.141740  0.310610  0.390760  1.0  1.1421
  Cd  Cd14  1  0.814400  0.304630  0.388670  1.0  0.9854
  Cd  Cd15  1  0.642870  0.830900  0.103460  1.0  1.0852
  Cd  Cd16  1  0.310290  0.822130  0.107140  1.0  0.9782
  Cd  Cd17  1  0.798200  0.230150  0.158830  1.0  1.1027
  Cd  Cd18  1  0.489420  0.366760  0.180790  1.0  1.0939
  Cd  Cd19  1  0.216980  0.409700  0.110440  1.0  1.0686
  Cd  Cd20  1  0.999060  0.289760  0.088820  1.0  1.0651
  Cd  Cd21  1  0.443970  0.838460  0.410220  1.0  1.1117
  Cd  Cd22  1  0.278660  0.708080  0.372040  1.0  1.102
  Cd  Cd23  1  0.987060  0.769030  0.315170  1.0  1.1076
  Cd  Cd24  1  0.670370  0.898890  0.344330  1.0  1.1094
  H  H25  1  0.194400  0.657100  0.719100  1.0  0.1281
  H  H26  1  0.040700  0.639300  0.817400  1.0  0.1238
  H  H27  1  0.804300  0.651600  0.731700  1.0  0.124
  H  H28  1  0.103500  0.930300  0.634200  1.0  0.1149
  H  H29  1  0.800800  0.097900  0.653000  1.0  0.1236
  H  H30  1  0.720700  0.911300  0.633000  1.0  0.1282
  H  H31  1  0.719700  0.197200  0.774700  1.0  0.1245
  H  H32  1  0.497300  0.219300  0.685700  1.0  0.129
  H  H33  1  0.327400  0.195800  0.780700  1.0  0.1176
  H  H34  1  0.806000  0.958800  0.875500  1.0  0.1282
  H  H35  1  0.733800  0.774100  0.843100  1.0  0.1274
  H  H36  1  0.424700  0.936300  0.868600  1.0  0.1221
  H  H37  1  0.653000  0.793900  0.994100  1.0  0.1253
  H  H38  1  0.256800  0.798700  0.987800  1.0  0.1255
  H  H39  1  0.504400  0.727600  0.905000  1.0  0.1191
  H  H40  1  0.311800  0.586000  0.885500  1.0  0.1291
  H  H41  1  0.568700  0.394600  0.891800  1.0  0.1354
  H  H42  1  0.164400  0.408400  0.894000  1.0  0.141
  H  H43  1  0.172500  0.751900  0.501700  1.0  0.126
  H  H44  1  0.772800  0.765200  0.491900  1.0  0.1157
  H  H45  1  0.979700  0.830500  0.411600  1.0  0.1171
  H  H46  1  0.952400  0.469900  0.606400  1.0  0.1302
  H  H47  1  0.352700  0.455100  0.599000  1.0  0.1175
  H  H48  1  0.216500  0.281500  0.617300  1.0  0.1222
  H  H49  1  0.805600  0.342900  0.280900  1.0  0.1279
  H  H50  1  0.959300  0.360700  0.182600  1.0  0.1237
  H  H51  1  0.195700  0.348400  0.268300  1.0  0.1239
  H  H52  1  0.896500  0.069700  0.365800  1.0  0.1147
  H  H53  1  0.199200  0.902100  0.347000  1.0  0.1237
  H  H54  1  0.279300  0.088700  0.367000  1.0  0.1284
  H  H55  1  0.280300  0.802800  0.225300  1.0  0.1247
  H  H56  1  0.502700  0.780700  0.314300  1.0  0.129
  H  H57  1  0.672600  0.804200  0.219300  1.0  0.1174
  H  H58  1  0.194000  0.041200  0.124500  1.0  0.1284
  H  H59  1  0.266200  0.225900  0.156900  1.0  0.1265
  H  H60  1  0.575300  0.063700  0.131400  1.0  0.122
  H  H61  1  0.347000  0.206100  0.005900  1.0  0.1253
  H  H62  1  0.743200  0.201300  0.012200  1.0  0.1254
  H  H63  1  0.495600  0.272400  0.095000  1.0  0.1195
  H  H64  1  0.688200  0.414000  0.114500  1.0  0.1292
  H  H65  1  0.431300  0.605400  0.108200  1.0  0.1357
  H  H66  1  0.835600  0.591600  0.106000  1.0  0.1411
  H  H67  1  0.827500  0.248100  0.498300  1.0  0.1262
  H  H68  1  0.227200  0.234800  0.508100  1.0  0.1158
  H  H69  1  0.020300  0.169500  0.588400  1.0  0.1156
  H  H70  1  0.047600  0.530100  0.393600  1.0  0.1298
  H  H71  1  0.647300  0.544900  0.401000  1.0  0.1171
  H  H72  1  0.783500  0.718500  0.382700  1.0  0.1225
  C  C73  1  0.995200  0.657700  0.719200  1.0  -0.1442
  C  C74  1  0.120200  0.654600  0.734000  1.0  0.0365
  C  C75  1  0.137000  0.648000  0.770300  1.0  -0.122
  C  C76  1  0.029500  0.642500  0.792500  1.0  0.0123
  C  C77  1  0.906300  0.641900  0.777800  1.0  -0.1424
  C  C78  1  0.889600  0.650500  0.741500  1.0  0.0319
  C  C79  1  0.978300  0.666667  0.680000  1.0  0.7624
  C  C80  1  0.273200  0.646800  0.785500  1.0  0.7142
  C  C81  1  0.791500  0.632500  0.800700  1.0  0.7506
  C  C82  1  0.921300  0.906900  0.632000  1.0  -0.1267
  C  C83  1  0.010100  0.950100  0.637100  1.0  0.023
  C  C84  1  0.970600  0.019000  0.645700  1.0  -0.1567
  C  C85  1  0.832000  0.049500  0.648100  1.0  0.0068
  C  C86  1  0.743300  0.008700  0.643100  1.0  -0.0906
  C  C87  1  0.785300  0.938500  0.635700  1.0  0.0414
  C  C88  1  0.968100  0.830500  0.623900  1.0  0.7417
  C  C89  1  0.071800  0.062800  0.653500  1.0  0.7348
  C  C90  1  0.593300  0.038800  0.645300  1.0  0.7235
  C  C91  1  0.524100  0.194800  0.784400  1.0  -0.1389
  C  C92  1  0.635600  0.200700  0.763600  1.0  0.0467
  C  C93  1  0.626100  0.211600  0.727500  1.0  -0.1254
  C  C94  1  0.504100  0.214400  0.710700  1.0  0.0029
  C  C95  1  0.392200  0.209800  0.731400  1.0  -0.1305
  C  C96  1  0.404300  0.199600  0.767200  1.0  0.0225
  C  C97  1  0.534600  0.182700  0.823600  1.0  0.7488
  C  C98  1  0.745000  0.220600  0.706400  1.0  0.6729
  C  C99  1  0.260000  0.213700  0.713800  1.0  0.6814
  C  C100  1  0.605100  0.958300  0.874700  1.0  -0.1316
  C  C101  1  0.744600  0.930600  0.870700  1.0  0.043
  C  C102  1  0.790600  0.863600  0.859900  1.0  -0.0837
  C  C103  1  0.700800  0.820800  0.850800  1.0  -0.0293
  C  C104  1  0.565100  0.849600  0.853700  1.0  -0.124
  C  C105  1  0.518700  0.917700  0.866100  1.0  0.0119
  C  C106  1  0.558900  0.033600  0.886900  1.0  0.7374
  C  C107  1  0.940400  0.832400  0.855600  1.0  0.7188
  C  C108  1  0.466500  0.805400  0.844500  1.0  0.7287
  C  C109  1  0.598600  0.759800  0.946400  1.0  -0.1132
  C  C110  1  0.578800  0.785900  0.981400  1.0  0.0136
  C  C111  1  0.451900  0.799800  0.997300  1.0  -0.1408
  C  C112  1  0.344300  0.789000  0.977500  1.0  0.0392
  C  C113  1  0.363300  0.763800  0.942600  1.0  -0.1107
  C  C114  1  0.490600  0.747400  0.927900  1.0  0.0041
  C  C115  1  0.738000  0.743600  0.930900  1.0  0.7427
  C  C116  1  0.434400  0.818800  0.034900  1.0  0.7482
  C  C117  1  0.242800  0.750200  0.924000  1.0  0.7374
  C  C118  1  0.218100  0.504400  0.888400  1.0  -0.1358
  C  C119  1  0.326500  0.536300  0.886600  1.0  -0.0305
  C  C120  1  0.455800  0.494300  0.886300  1.0  -0.1235
  C  C121  1  0.479600  0.422500  0.890100  1.0  -0.0091
  C  C122  1  0.367600  0.390800  0.891400  1.0  -0.1083
  C  C123  1  0.238200  0.429900  0.891700  1.0  -0.0253
  C  C124  1  0.074700  0.549200  0.888500  1.0  0.7249
  C  C125  1  0.573100  0.529400  0.884700  1.0  0.6913
  C  C126  1  0.396100  0.311900  0.895000  1.0  0.758
  C  C127  1  0.096100  0.791100  0.454500  1.0  -0.0968
  C  C128  1  0.092400  0.764100  0.488300  1.0  0.0364
  C  C129  1  0.971100  0.754400  0.503200  1.0  -0.1629
  C  C130  1  0.854700  0.773100  0.482600  1.0  0.0167
  C  C131  1  0.855500  0.802300  0.449700  1.0  -0.1398
  C  C132  1  0.977700  0.811100  0.434800  1.0  -0.0038
  C  C133  1  0.224700  0.802600  0.439400  1.0  0.73
  C  C134  1  0.968800  0.726500  0.540400  1.0  0.7365
  C  C135  1  0.728600  0.825700  0.429100  1.0  0.7421
  C  C136  1  0.066800  0.371000  0.611600  1.0  -0.1239
  C  C137  1  0.042300  0.442800  0.606800  1.0  0.034
  C  C138  1  0.147700  0.475800  0.602700  1.0  -0.1546
  C  C139  1  0.279500  0.433600  0.602700  1.0  0.036
  C  C140  1  0.305000  0.363100  0.607800  1.0  -0.1236
  C  C141  1  0.199200  0.330700  0.612900  1.0  0.0128
  C  C142  1  0.951600  0.338200  0.616200  1.0  0.6947
  C  C143  1  0.121400  0.554400  0.600000  1.0  0.7935
  C  C144  1  0.447000  0.321000  0.609700  1.0  0.74
  C  C145  1  0.004800  0.342300  0.280800  1.0  -0.1461
  C  C146  1  0.879800  0.345400  0.266000  1.0  0.0359
  C  C147  1  0.863000  0.352000  0.229700  1.0  -0.1209
  C  C148  1  0.970500  0.357500  0.207500  1.0  0.0127
  C  C149  1  0.093700  0.358100  0.222200  1.0  -0.1417
  C  C150  1  0.110400  0.349500  0.258500  1.0  0.0331
  C  C151  1  0.021700  0.333400  0.320000  1.0  0.7642
  C  C152  1  0.726800  0.353200  0.214500  1.0  0.7154
  C  C153  1  0.208500  0.367500  0.199300  1.0  0.7507
  C  C154  1  0.078700  0.093100  0.368000  1.0  -0.1265
  C  C155  1  0.989900  0.049900  0.362900  1.0  0.0231
  C  C156  1  0.029400  0.981000  0.354300  1.0  -0.1557
  C  C157  1  0.168000  0.950500  0.351900  1.0  0.0076
  C  C158  1  0.256700  0.991300  0.356900  1.0  -0.0889
  C  C159  1  0.214700  0.061500  0.364300  1.0  0.0413
  C  C160  1  0.031900  0.169500  0.376100  1.0  0.7413
  C  C161  1  0.928200  0.937200  0.346500  1.0  0.7366
  C  C162  1  0.406700  0.961200  0.354700  1.0  0.7222
  C  C163  1  0.475900  0.805200  0.215600  1.0  -0.137
  C  C164  1  0.364400  0.799300  0.236400  1.0  0.0458
  C  C165  1  0.373900  0.788400  0.272500  1.0  -0.1267
  C  C166  1  0.495900  0.785600  0.289300  1.0  0.0033
  C  C167  1  0.607800  0.790200  0.268600  1.0  -0.1321
  C  C168  1  0.595700  0.800400  0.232800  1.0  0.0231
  C  C169  1  0.465400  0.817300  0.176400  1.0  0.7468
  C  C170  1  0.255000  0.779400  0.293600  1.0  0.6723
  C  C171  1  0.740000  0.786300  0.286200  1.0  0.6813
  C  C172  1  0.394900  0.041700  0.125300  1.0  -0.1318
  C  C173  1  0.255400  0.069400  0.129300  1.0  0.0434
  C  C174  1  0.209400  0.136400  0.140100  1.0  -0.0826
  C  C175  1  0.299200  0.179200  0.149200  1.0  -0.029
  C  C176  1  0.434900  0.150400  0.146300  1.0  -0.1245
  C  C177  1  0.481300  0.082300  0.133900  1.0  0.0116
  C  C178  1  0.441100  0.966400  0.113100  1.0  0.7375
  C  C179  1  0.059600  0.167600  0.144400  1.0  0.7149
  C  C180  1  0.533500  0.194600  0.155500  1.0  0.7292
  C  C181  1  0.401400  0.240200  0.053600  1.0  -0.1115
  C  C182  1  0.421200  0.214100  0.018600  1.0  0.0123
  C  C183  1  0.548100  0.200200  0.002700  1.0  -0.1422
  C  C184  1  0.655700  0.211000  0.022500  1.0  0.0404
  C  C185  1  0.636700  0.236200  0.057400  1.0  -0.1124
  C  C186  1  0.509400  0.252600  0.072100  1.0  0.0021
  C  C187  1  0.262000  0.256400  0.069100  1.0  0.7435
  C  C188  1  0.565600  0.181200  0.965100  1.0  0.7471
  C  C189  1  0.757200  0.249800  0.076000  1.0  0.7385
  C  C190  1  0.781900  0.495600  0.111600  1.0  -0.135
  C  C191  1  0.673500  0.463700  0.113400  1.0  -0.0295
  C  C192  1  0.544200  0.505700  0.113700  1.0  -0.1232
  C  C193  1  0.520400  0.577500  0.109900  1.0  -0.0105
  C  C194  1  0.632400  0.609200  0.108600  1.0  -0.1089
  C  C195  1  0.761800  0.570100  0.108300  1.0  -0.025
  C  C196  1  0.925300  0.450800  0.111500  1.0  0.7246
  C  C197  1  0.426900  0.470600  0.115300  1.0  0.6906
  C  C198  1  0.603900  0.688100  0.105000  1.0  0.7582
  C  C199  1  0.903900  0.208900  0.545500  1.0  -0.0963
  C  C200  1  0.907600  0.235900  0.511700  1.0  0.0358
  C  C201  1  0.028900  0.245600  0.496800  1.0  -0.1627
  C  C202  1  0.145300  0.226900  0.517400  1.0  0.0193
  C  C203  1  0.144500  0.197700  0.550300  1.0  -0.1384
  C  C204  1  0.022300  0.188900  0.565200  1.0  -0.0067
  C  C205  1  0.775300  0.197400  0.560600  1.0  0.7303
  C  C206  1  0.031200  0.273500  0.459600  1.0  0.737
  C  C207  1  0.271400  0.174300  0.570900  1.0  0.741
  C  C208  1  0.933200  0.629000  0.388400  1.0  -0.1251
  C  C209  1  0.957700  0.557200  0.393200  1.0  0.0334
  C  C210  1  0.852300  0.524200  0.397300  1.0  -0.1544
  C  C211  1  0.720500  0.566400  0.397300  1.0  0.0355
  C  C212  1  0.695000  0.636900  0.392200  1.0  -0.1236
  C  C213  1  0.800800  0.669300  0.387100  1.0  0.0133
  C  C214  1  0.048400  0.661800  0.383800  1.0  0.6959
  C  C215  1  0.878600  0.445600  0.400000  1.0  0.7918
  C  C216  1  0.553000  0.679000  0.390300  1.0  0.739
  O  O217  1  0.860900  0.668700  0.667300  1.0  -0.5998
  O  O218  1  0.077400  0.670600  0.661500  1.0  -0.7249
  O  O219  1  0.374900  0.634700  0.766400  1.0  -0.6067
  O  O220  1  0.278200  0.660600  0.818800  1.0  -0.6454
  O  O221  1  0.810200  0.620500  0.832800  1.0  -0.7075
  O  O222  1  0.682500  0.636800  0.785100  1.0  -0.6022
  O  O223  1  0.880500  0.797500  0.619500  1.0  -0.6552
  O  O224  1  0.092900  0.808700  0.620300  1.0  -0.5901
  O  O225  1  0.193300  0.031400  0.648200  1.0  -0.6368
  O  O226  1  0.032400  0.121900  0.664400  1.0  -0.7186
  O  O227  1  0.551600  0.105000  0.642700  1.0  -0.6501
  O  O228  1  0.515300  0.999600  0.649900  1.0  -0.6522
  O  O229  1  0.430700  0.179200  0.839800  1.0  -0.6968
  O  O230  1  0.652800  0.179300  0.836200  1.0  -0.5824
  O  O231  1  0.850500  0.223900  0.724000  1.0  -0.5778
  O  O232  1  0.741400  0.220800  0.673200  1.0  -0.6624
  O  O233  1  0.252900  0.206600  0.680500  1.0  -0.6631
  O  O234  1  0.154200  0.226000  0.733000  1.0  -0.614
  O  O235  1  0.434400  0.055900  0.890100  1.0  -0.6082
  O  O236  1  0.644600  0.066900  0.893300  1.0  -0.7216
  O  O237  1  0.018800  0.872500  0.852900  1.0  -0.6157
  O  O238  1  0.983500  0.765200  0.856400  1.0  -0.6671
  O  O239  1  0.510100  0.744800  0.834900  1.0  -0.6884
  O  O240  1  0.343800  0.837000  0.847900  1.0  -0.6126
  O  O241  1  0.769400  0.701900  0.905800  1.0  -0.6521
  O  O242  1  0.820600  0.773800  0.944300  1.0  -0.609
  O  O243  1  0.536500  0.830600  0.049800  1.0  -0.7403
  O  O244  1  0.318000  0.822900  0.049000  1.0  -0.5954
  O  O245  1  0.129900  0.772600  0.937400  1.0  -0.5701
  O  O246  1  0.263600  0.718700  0.895100  1.0  -0.6122
  O  O247  1  0.984400  0.517100  0.894300  1.0  -0.5744
  O  O248  1  0.058800  0.612700  0.882500  1.0  -0.6404
  O  O249  1  0.554200  0.593200  0.875600  1.0  -0.6533
  O  O250  1  0.686500  0.490900  0.892500  1.0  -0.6354
  O  O251  1  0.518600  0.277800  0.895000  1.0  -0.6903
  O  O252  1  0.296000  0.284900  0.897300  1.0  -0.5814
  O  O253  1  0.234300  0.808500  0.406200  1.0  -0.6453
  O  O254  1  0.317700  0.806600  0.459800  1.0  -0.6057
  O  O255  1  0.074700  0.714300  0.557200  1.0  -0.7413
  O  O256  1  0.855400  0.718000  0.552000  1.0  -0.6252
  O  O257  1  0.624700  0.813200  0.443600  1.0  -0.6091
  O  O258  1  0.731100  0.853500  0.399300  1.0  -0.7425
  O  O259  1  0.964700  0.277200  0.630700  1.0  -0.6945
  O  O260  1  0.837300  0.371300  0.606400  1.0  -0.61
  O  O261  1  0.002000  0.585900  0.599100  1.0  -0.6758
  O  O262  1  0.221700  0.580400  0.600800  1.0  -0.5878
  O  O263  1  0.539700  0.349300  0.599500  1.0  -0.5793
  O  O264  1  0.468200  0.260600  0.621800  1.0  -0.6496
  O  O265  1  0.139100  0.331300  0.332700  1.0  -0.604
  O  O266  1  0.922600  0.329400  0.338500  1.0  -0.7256
  O  O267  1  0.625100  0.365300  0.233600  1.0  -0.6051
  O  O268  1  0.721800  0.339400  0.181200  1.0  -0.6464
  O  O269  1  0.189800  0.379500  0.167200  1.0  -0.7076
  O  O270  1  0.317500  0.363200  0.214900  1.0  -0.6038
  O  O271  1  0.119500  0.202500  0.380500  1.0  -0.6543
  O  O272  1  0.907100  0.191300  0.379700  1.0  -0.5916
  O  O273  1  0.806700  0.968600  0.351800  1.0  -0.6361
  O  O274  1  0.967600  0.878100  0.335600  1.0  -0.7203
  O  O275  1  0.448400  0.895000  0.357300  1.0  -0.6492
  O  O276  1  0.484700  0.000400  0.350100  1.0  -0.6522
  O  O277  1  0.569300  0.820800  0.160200  1.0  -0.6978
  O  O278  1  0.347200  0.820700  0.163800  1.0  -0.5813
  O  O279  1  0.149500  0.776100  0.276000  1.0  -0.5771
  O  O280  1  0.258600  0.779200  0.326800  1.0  -0.6656
  O  O281  1  0.747100  0.793400  0.319500  1.0  -0.6616
  O  O282  1  0.845800  0.774000  0.267000  1.0  -0.6149
  O  O283  1  0.565600  0.944100  0.109900  1.0  -0.6064
  O  O284  1  0.355400  0.933100  0.106700  1.0  -0.7219
  O  O285  1  0.981200  0.127500  0.147100  1.0  -0.6141
  O  O286  1  0.016500  0.234800  0.143600  1.0  -0.6682
  O  O287  1  0.489900  0.255200  0.165100  1.0  -0.6889
  O  O288  1  0.656200  0.163000  0.152100  1.0  -0.6115
  O  O289  1  0.230600  0.298100  0.094200  1.0  -0.6537
  O  O290  1  0.179400  0.226200  0.055700  1.0  -0.6065
  O  O291  1  0.463500  0.169400  0.950200  1.0  -0.7397
  O  O292  1  0.682000  0.177100  0.951000  1.0  -0.596
  O  O293  1  0.870100  0.227400  0.062600  1.0  -0.5704
  O  O294  1  0.736400  0.281300  0.104900  1.0  -0.6113
  O  O295  1  0.015600  0.482900  0.105700  1.0  -0.5737
  O  O296  1  0.941200  0.387300  0.117500  1.0  -0.6388
  O  O297  1  0.445800  0.406800  0.124400  1.0  -0.6541
  O  O298  1  0.313500  0.509100  0.107500  1.0  -0.6348
  O  O299  1  0.481400  0.722200  0.105000  1.0  -0.6893
  O  O300  1  0.704000  0.715100  0.102700  1.0  -0.5775
  O  O301  1  0.765700  0.191500  0.593800  1.0  -0.6448
  O  O302  1  0.682300  0.193400  0.540200  1.0  -0.6054
  O  O303  1  0.925300  0.285700  0.442800  1.0  -0.7415
  O  O304  1  0.144600  0.282000  0.448000  1.0  -0.625
  O  O305  1  0.375300  0.186800  0.556400  1.0  -0.6111
  O  O306  1  0.268900  0.146500  0.600700  1.0  -0.7427
  O  O307  1  0.035300  0.722800  0.369300  1.0  -0.6933
  O  O308  1  0.162700  0.628700  0.393600  1.0  -0.6096
  O  O309  1  0.998000  0.414100  0.400900  1.0  -0.6756
  O  O310  1  0.778300  0.419600  0.399200  1.0  -0.5905
  O  O311  1  0.460300  0.650700  0.400500  1.0  -0.5806
  O  O312  1  0.531800  0.739400  0.378200  1.0  -0.6498
