# generated using pymatgen
data_CdH2(C3O2)2
_symmetry_space_group_name_H-M   'P 1'
_cell_length_a   7.68190000
_cell_length_b   8.87150000
_cell_length_c   10.32050000
_cell_angle_alpha   105.85200000
_cell_angle_beta   93.05500000
_cell_angle_gamma   105.70500000
_symmetry_Int_Tables_number   1
_chemical_formula_structural   CdH2(C3O2)2
_chemical_formula_sum   'Cd3 H6 C18 O12'
_cell_volume   645.15878449
_cell_formula_units_Z   3
loop_
 _symmetry_equiv_pos_site_id
 _symmetry_equiv_pos_as_xyz
  1  'x, y, z'
loop_
 _atom_site_type_symbol
 _atom_site_label
 _atom_site_symmetry_multiplicity
 _atom_site_fract_x
 _atom_site_fract_y
 _atom_site_fract_z
 _atom_site_occupancy
 _atom_site_charge
  Cd  Cd1  1  0.840920  0.615980  0.667920  1.0  1.1526
  Cd  Cd2  1  0.159080  0.384020  0.332080  1.0  1.1519
  Cd  Cd3  1  0.500000  0.000000  0.500000  1.0  1.0731
  H  H4  1  0.125200  0.424700  0.864500  1.0  0.1093
  H  H5  1  0.530500  0.776900  0.138800  1.0  0.1069
  H  H6  1  0.634900  0.890100  0.967200  1.0  0.1206
  H  H7  1  0.874800  0.575300  0.135500  1.0  0.1092
  H  H8  1  0.469500  0.223100  0.861200  1.0  0.1068
  H  H9  1  0.365100  0.109900  0.032800  1.0  0.1212
  C  C10  1  0.444200  0.722300  0.812400  1.0  -0.0581
  C  C11  1  0.290600  0.585600  0.782700  1.0  -0.1148
  C  C12  1  0.229900  0.517900  0.885000  1.0  -0.0054
  C  C13  1  0.321700  0.586000  0.017000  1.0  -0.1286
  C  C14  1  0.470900  0.727000  0.047900  1.0  -0.0373
  C  C15  1  0.532600  0.794600  0.946000  1.0  -0.0944
  C  C16  1  0.515400  0.800000  0.704900  1.0  0.7404
  C  C17  1  0.194100  0.502100  0.640200  1.0  0.6822
  C  C18  1  0.262200  0.505300  0.123700  1.0  0.667
  C  C19  1  0.555800  0.277700  0.187600  1.0  -0.0581
  C  C20  1  0.709400  0.414400  0.217300  1.0  -0.117
  C  C21  1  0.770100  0.482100  0.115000  1.0  -0.0044
  C  C22  1  0.678300  0.414000  0.983000  1.0  -0.1265
  C  C23  1  0.529100  0.273000  0.952100  1.0  -0.0382
  C  C24  1  0.467400  0.205400  0.054000  1.0  -0.0939
  C  C25  1  0.484600  0.200000  0.295100  1.0  0.7433
  C  C26  1  0.805900  0.497900  0.359800  1.0  0.6814
  C  C27  1  0.737800  0.494700  0.876300  1.0  0.6669
  O  O28  1  0.667200  0.794100  0.670560  1.0  -0.6465
  O  O29  1  0.416800  0.872600  0.659470  1.0  -0.596
  O  O30  1  0.292600  0.496200  0.546440  1.0  -0.5644
  O  O31  1  0.023100  0.440000  0.623020  1.0  -0.6572
  O  O32  1  0.130700  0.376200  0.095330  1.0  -0.5944
  O  O33  1  0.346200  0.569500  0.244160  1.0  -0.6219
  O  O34  1  0.332800  0.205900  0.329440  1.0  -0.6447
  O  O35  1  0.583200  0.127400  0.340530  1.0  -0.5969
  O  O36  1  0.707400  0.503800  0.453560  1.0  -0.5655
  O  O37  1  0.976900  0.560000  0.376980  1.0  -0.6568
  O  O38  1  0.869300  0.623800  0.904670  1.0  -0.5942
  O  O39  1  0.653800  0.430500  0.755840  1.0  -0.6174
