# generated using pymatgen
data_ZnH8C12(IN2)2
_symmetry_space_group_name_H-M   'P 1'
_cell_length_a   35.26540000
_cell_length_b   15.11240000
_cell_length_c   30.91400000
_cell_angle_alpha   90.00000000
_cell_angle_beta   102.12800000
_cell_angle_gamma   90.00000000
_symmetry_Int_Tables_number   1
_chemical_formula_structural   ZnH8C12(IN2)2
_chemical_formula_sum   'Zn24 H192 C288 I48 N96'
_cell_volume   16107.73553575
_cell_formula_units_Z   24
loop_
 _symmetry_equiv_pos_site_id
 _symmetry_equiv_pos_as_xyz
  1  'x, y, z'
loop_
 _atom_site_type_symbol
 _atom_site_label
 _atom_site_symmetry_multiplicity
 _atom_site_fract_x
 _atom_site_fract_y
 _atom_site_fract_z
 _atom_site_occupancy
 _atom_site_charge
  Zn  Zn1  1  0.579670  0.620160  0.595110  1.0  0.843
  Zn  Zn2  1  0.677410  0.141210  0.280010  1.0  0.8413
  Zn  Zn3  1  0.875240  0.589390  0.936490  1.0  0.8413
  Zn  Zn4  1  0.079670  0.120160  0.595110  1.0  0.843
  Zn  Zn5  1  0.177410  0.641210  0.280010  1.0  0.8413
  Zn  Zn6  1  0.375240  0.089390  0.936490  1.0  0.8413
  Zn  Zn7  1  0.579670  0.379840  0.095110  1.0  0.8424
  Zn  Zn8  1  0.677410  0.858790  0.780010  1.0  0.8407
  Zn  Zn9  1  0.875240  0.410610  0.436490  1.0  0.8415
  Zn  Zn10  1  0.079670  0.879840  0.095110  1.0  0.8424
  Zn  Zn11  1  0.177410  0.358790  0.780010  1.0  0.8407
  Zn  Zn12  1  0.375240  0.910610  0.436490  1.0  0.8415
  Zn  Zn13  1  0.420330  0.620160  0.904890  1.0  0.8435
  Zn  Zn14  1  0.322590  0.141210  0.219990  1.0  0.8418
  Zn  Zn15  1  0.124760  0.589390  0.563510  1.0  0.8421
  Zn  Zn16  1  0.920330  0.120160  0.904890  1.0  0.8435
  Zn  Zn17  1  0.822590  0.641210  0.219990  1.0  0.8418
  Zn  Zn18  1  0.624760  0.089390  0.563510  1.0  0.8421
  Zn  Zn19  1  0.420330  0.379840  0.404890  1.0  0.8433
  Zn  Zn20  1  0.322590  0.858790  0.719990  1.0  0.8405
  Zn  Zn21  1  0.124760  0.410610  0.063510  1.0  0.8412
  Zn  Zn22  1  0.920330  0.879840  0.404890  1.0  0.8433
  Zn  Zn23  1  0.822590  0.358790  0.719990  1.0  0.8405
  Zn  Zn24  1  0.624760  0.910610  0.063510  1.0  0.8412
  H  H25  1  0.814200  0.631200  0.853800  1.0  0.0698
  H  H26  1  0.678500  0.236700  0.366400  1.0  0.0904
  H  H27  1  0.692400  0.572400  0.720500  1.0  0.1052
  H  H28  1  0.794600  0.335300  0.871100  1.0  0.12
  H  H29  1  0.508400  0.353500  0.523100  1.0  0.1193
  H  H30  1  0.429400  0.026200  0.502500  1.0  0.0754
  H  H31  1  0.750400  0.142300  0.822600  1.0  0.1171
  H  H32  1  0.518100  0.478000  0.567100  1.0  0.0855
  H  H33  1  0.600100  0.086100  0.294600  1.0  0.0867
  H  H34  1  0.764700  0.562300  0.805400  1.0  0.1046
  H  H35  1  0.558000  0.110500  0.340600  1.0  0.1199
  H  H36  1  0.639200  0.023600  0.739700  1.0  0.0954
  H  H37  1  0.654300  0.645700  0.662600  1.0  0.0733
  H  H38  1  0.842200  0.411500  0.918100  1.0  0.0828
  H  H39  1  0.648300  0.173600  0.738500  1.0  0.1117
  H  H40  1  0.600600  0.422000  0.474500  1.0  0.1165
  H  H41  1  0.608100  0.545200  0.519500  1.0  0.0882
  H  H42  1  0.637900  0.269300  0.413600  1.0  0.1183
  H  H43  1  0.419000  0.992100  0.375600  1.0  0.0842
  H  H44  1  0.480200  0.121700  0.505300  1.0  0.1212
  H  H45  1  0.628800  0.355100  0.685700  1.0  0.1218
  H  H46  1  0.592200  0.435700  0.629100  1.0  0.0806
  H  H47  1  0.738900  0.991800  0.821300  1.0  0.0733
  H  H48  1  0.469800  0.086500  0.374500  1.0  0.1214
  H  H49  1  0.314200  0.131200  0.853800  1.0  0.0698
  H  H50  1  0.178500  0.736700  0.366400  1.0  0.0904
  H  H51  1  0.192400  0.072400  0.720500  1.0  0.1052
  H  H52  1  0.294600  0.835300  0.871100  1.0  0.12
  H  H53  1  0.008400  0.853500  0.523100  1.0  0.1193
  H  H54  1  0.929400  0.526200  0.502500  1.0  0.0754
  H  H55  1  0.250400  0.642300  0.822600  1.0  0.1171
  H  H56  1  0.018100  0.978000  0.567100  1.0  0.0855
  H  H57  1  0.100100  0.586100  0.294600  1.0  0.0867
  H  H58  1  0.264700  0.062300  0.805400  1.0  0.1046
  H  H59  1  0.058000  0.610500  0.340600  1.0  0.1199
  H  H60  1  0.139200  0.523600  0.739700  1.0  0.0954
  H  H61  1  0.154300  0.145700  0.662600  1.0  0.0733
  H  H62  1  0.342200  0.911500  0.918100  1.0  0.0828
  H  H63  1  0.148300  0.673600  0.738500  1.0  0.1117
  H  H64  1  0.100600  0.922000  0.474500  1.0  0.1165
  H  H65  1  0.108100  0.045200  0.519500  1.0  0.0882
  H  H66  1  0.137900  0.769300  0.413600  1.0  0.1183
  H  H67  1  0.919000  0.492100  0.375600  1.0  0.0842
  H  H68  1  0.980200  0.621700  0.505300  1.0  0.1212
  H  H69  1  0.128800  0.855100  0.685700  1.0  0.1218
  H  H70  1  0.092200  0.935700  0.629100  1.0  0.0806
  H  H71  1  0.238900  0.491800  0.821300  1.0  0.0733
  H  H72  1  0.969800  0.586500  0.374500  1.0  0.1214
  H  H73  1  0.814200  0.368800  0.353800  1.0  0.0715
  H  H74  1  0.678500  0.763300  0.866400  1.0  0.0902
  H  H75  1  0.692400  0.427600  0.220500  1.0  0.1052
  H  H76  1  0.794600  0.664700  0.371100  1.0  0.1202
  H  H77  1  0.508400  0.646500  0.023100  1.0  0.1196
  H  H78  1  0.429400  0.973800  0.002500  1.0  0.0757
  H  H79  1  0.750400  0.857700  0.322600  1.0  0.1175
  H  H80  1  0.518100  0.522000  0.067100  1.0  0.0855
  H  H81  1  0.600100  0.913900  0.794600  1.0  0.0868
  H  H82  1  0.764700  0.437700  0.305400  1.0  0.1045
  H  H83  1  0.558000  0.889500  0.840600  1.0  0.1199
  H  H84  1  0.639200  0.976400  0.239700  1.0  0.0954
  H  H85  1  0.654300  0.354300  0.162600  1.0  0.0742
  H  H86  1  0.842200  0.588500  0.418100  1.0  0.0828
  H  H87  1  0.648300  0.826400  0.238500  1.0  0.1113
  H  H88  1  0.600600  0.578000  0.974500  1.0  0.1165
  H  H89  1  0.608100  0.454800  0.019500  1.0  0.087
  H  H90  1  0.637900  0.730700  0.913600  1.0  0.1182
  H  H91  1  0.419000  0.007900  0.875600  1.0  0.084
  H  H92  1  0.480200  0.878300  0.005300  1.0  0.1214
  H  H93  1  0.628800  0.644900  0.185700  1.0  0.1217
  H  H94  1  0.592200  0.564300  0.129100  1.0  0.0805
  H  H95  1  0.738900  0.008200  0.321300  1.0  0.0729
  H  H96  1  0.469800  0.913500  0.874500  1.0  0.1213
  H  H97  1  0.314200  0.868800  0.353800  1.0  0.0715
  H  H98  1  0.178500  0.263300  0.866400  1.0  0.0902
  H  H99  1  0.192400  0.927600  0.220500  1.0  0.1052
  H  H100  1  0.294600  0.164700  0.371100  1.0  0.1202
  H  H101  1  0.008400  0.146500  0.023100  1.0  0.1196
  H  H102  1  0.929400  0.473800  0.002500  1.0  0.0757
  H  H103  1  0.250400  0.357700  0.322600  1.0  0.1175
  H  H104  1  0.018100  0.022000  0.067100  1.0  0.0855
  H  H105  1  0.100100  0.413900  0.794600  1.0  0.0868
  H  H106  1  0.264700  0.937700  0.305400  1.0  0.1045
  H  H107  1  0.058000  0.389500  0.840600  1.0  0.1199
  H  H108  1  0.139200  0.476400  0.239700  1.0  0.0954
  H  H109  1  0.154300  0.854300  0.162600  1.0  0.0742
  H  H110  1  0.342200  0.088500  0.418100  1.0  0.0828
  H  H111  1  0.148300  0.326400  0.238500  1.0  0.1113
  H  H112  1  0.100600  0.078000  0.974500  1.0  0.1165
  H  H113  1  0.108100  0.954800  0.019500  1.0  0.087
  H  H114  1  0.137900  0.230700  0.913600  1.0  0.1182
  H  H115  1  0.919000  0.507900  0.875600  1.0  0.084
  H  H116  1  0.980200  0.378300  0.005300  1.0  0.1214
  H  H117  1  0.128800  0.144900  0.185700  1.0  0.1217
  H  H118  1  0.092200  0.064300  0.129100  1.0  0.0805
  H  H119  1  0.238900  0.508200  0.321300  1.0  0.0729
  H  H120  1  0.969800  0.413500  0.874500  1.0  0.1213
  H  H121  1  0.185800  0.631200  0.646200  1.0  0.0694
  H  H122  1  0.321500  0.236700  0.133600  1.0  0.0903
  H  H123  1  0.307600  0.572400  0.779500  1.0  0.1058
  H  H124  1  0.205400  0.335300  0.628900  1.0  0.1201
  H  H125  1  0.491600  0.353500  0.976900  1.0  0.119
  H  H126  1  0.570600  0.026200  0.997500  1.0  0.0755
  H  H127  1  0.249600  0.142300  0.677400  1.0  0.1172
  H  H128  1  0.481900  0.478000  0.932900  1.0  0.0849
  H  H129  1  0.399900  0.086100  0.205400  1.0  0.0872
  H  H130  1  0.235300  0.562300  0.694600  1.0  0.1032
  H  H131  1  0.442000  0.110500  0.159400  1.0  0.1194
  H  H132  1  0.360800  0.023600  0.760300  1.0  0.0953
  H  H133  1  0.345700  0.645700  0.837400  1.0  0.0735
  H  H134  1  0.157800  0.411500  0.581900  1.0  0.0818
  H  H135  1  0.351700  0.173600  0.761500  1.0  0.1115
  H  H136  1  0.399400  0.422000  0.025500  1.0  0.1165
  H  H137  1  0.391900  0.545200  0.980500  1.0  0.0876
  H  H138  1  0.362100  0.269300  0.086400  1.0  0.1185
  H  H139  1  0.581000  0.992100  0.124400  1.0  0.0849
  H  H140  1  0.519800  0.121700  0.994700  1.0  0.1204
  H  H141  1  0.371200  0.355100  0.814300  1.0  0.1219
  H  H142  1  0.407800  0.435700  0.870900  1.0  0.0805
  H  H143  1  0.261100  0.991800  0.678700  1.0  0.073
  H  H144  1  0.530200  0.086500  0.125500  1.0  0.122
  H  H145  1  0.685800  0.131200  0.646200  1.0  0.0694
  H  H146  1  0.821500  0.736700  0.133600  1.0  0.0903
  H  H147  1  0.807600  0.072400  0.779500  1.0  0.1058
  H  H148  1  0.705400  0.835300  0.628900  1.0  0.1201
  H  H149  1  0.991600  0.853500  0.976900  1.0  0.119
  H  H150  1  0.070600  0.526200  0.997500  1.0  0.0755
  H  H151  1  0.749600  0.642300  0.677400  1.0  0.1172
  H  H152  1  0.981900  0.978000  0.932900  1.0  0.0849
  H  H153  1  0.899900  0.586100  0.205400  1.0  0.0872
  H  H154  1  0.735300  0.062300  0.694600  1.0  0.1032
  H  H155  1  0.942000  0.610500  0.159400  1.0  0.1194
  H  H156  1  0.860800  0.523600  0.760300  1.0  0.0953
  H  H157  1  0.845700  0.145700  0.837400  1.0  0.0735
  H  H158  1  0.657800  0.911500  0.581900  1.0  0.0818
  H  H159  1  0.851700  0.673600  0.761500  1.0  0.1115
  H  H160  1  0.899400  0.922000  0.025500  1.0  0.1165
  H  H161  1  0.891900  0.045200  0.980500  1.0  0.0876
  H  H162  1  0.862100  0.769300  0.086400  1.0  0.1185
  H  H163  1  0.081000  0.492100  0.124400  1.0  0.0849
  H  H164  1  0.019800  0.621700  0.994700  1.0  0.1204
  H  H165  1  0.871200  0.855100  0.814300  1.0  0.1219
  H  H166  1  0.907800  0.935700  0.870900  1.0  0.0805
  H  H167  1  0.761100  0.491800  0.678700  1.0  0.073
  H  H168  1  0.030200  0.586500  0.125500  1.0  0.122
  H  H169  1  0.185800  0.368800  0.146200  1.0  0.0707
  H  H170  1  0.321500  0.763300  0.633600  1.0  0.0908
  H  H171  1  0.307600  0.427600  0.279500  1.0  0.1055
  H  H172  1  0.205400  0.664700  0.128900  1.0  0.1198
  H  H173  1  0.491600  0.646500  0.476900  1.0  0.1191
  H  H174  1  0.570600  0.973800  0.497500  1.0  0.0755
  H  H175  1  0.249600  0.857700  0.177400  1.0  0.1173
  H  H176  1  0.481900  0.522000  0.432900  1.0  0.0851
  H  H177  1  0.399900  0.913900  0.705400  1.0  0.0872
  H  H178  1  0.235300  0.437700  0.194600  1.0  0.1038
  H  H179  1  0.442000  0.889500  0.659400  1.0  0.1194
  H  H180  1  0.360800  0.976400  0.260300  1.0  0.0949
  H  H181  1  0.345700  0.354300  0.337400  1.0  0.0744
  H  H182  1  0.157800  0.588500  0.081900  1.0  0.0823
  H  H183  1  0.351700  0.826400  0.261500  1.0  0.1117
  H  H184  1  0.399400  0.578000  0.525500  1.0  0.1164
  H  H185  1  0.391900  0.454800  0.480500  1.0  0.0889
  H  H186  1  0.362100  0.730700  0.586400  1.0  0.118
  H  H187  1  0.581000  0.007900  0.624400  1.0  0.0844
  H  H188  1  0.519800  0.878300  0.494700  1.0  0.1206
  H  H189  1  0.371200  0.644900  0.314300  1.0  0.1215
  H  H190  1  0.407800  0.564300  0.370900  1.0  0.0808
  H  H191  1  0.261100  0.008200  0.178700  1.0  0.0728
  H  H192  1  0.530200  0.913500  0.625500  1.0  0.1221
  H  H193  1  0.685800  0.868800  0.146200  1.0  0.0707
  H  H194  1  0.821500  0.263300  0.633600  1.0  0.0908
  H  H195  1  0.807600  0.927600  0.279500  1.0  0.1055
  H  H196  1  0.705400  0.164700  0.128900  1.0  0.1198
  H  H197  1  0.991600  0.146500  0.476900  1.0  0.1191
  H  H198  1  0.070600  0.473800  0.497500  1.0  0.0755
  H  H199  1  0.749600  0.357700  0.177400  1.0  0.1173
  H  H200  1  0.981900  0.022000  0.432900  1.0  0.0851
  H  H201  1  0.899900  0.413900  0.705400  1.0  0.0872
  H  H202  1  0.735300  0.937700  0.194600  1.0  0.1038
  H  H203  1  0.942000  0.389500  0.659400  1.0  0.1194
  H  H204  1  0.860800  0.476400  0.260300  1.0  0.0949
  H  H205  1  0.845700  0.854300  0.337400  1.0  0.0744
  H  H206  1  0.657800  0.088500  0.081900  1.0  0.0823
  H  H207  1  0.851700  0.326400  0.261500  1.0  0.1117
  H  H208  1  0.899400  0.078000  0.525500  1.0  0.1164
  H  H209  1  0.891900  0.954800  0.480500  1.0  0.0889
  H  H210  1  0.862100  0.230700  0.586400  1.0  0.118
  H  H211  1  0.081000  0.507900  0.624400  1.0  0.0844
  H  H212  1  0.019800  0.378300  0.494700  1.0  0.1206
  H  H213  1  0.871200  0.144900  0.314300  1.0  0.1215
  H  H214  1  0.907800  0.064300  0.370900  1.0  0.0808
  H  H215  1  0.761100  0.508200  0.178700  1.0  0.0728
  H  H216  1  0.030200  0.413500  0.625500  1.0  0.1221
  C  C217  1  0.665920  0.453600  0.708900  1.0  -0.067
  C  C218  1  0.515270  0.172300  0.440420  1.0  0.3828
  C  C219  1  0.809800  0.571300  0.857500  1.0  0.1572
  C  C220  1  0.690060  0.402500  0.745200  1.0  0.3837
  C  C221  1  0.549420  0.292900  0.466360  1.0  0.3789
  C  C222  1  0.593220  0.194100  0.382000  1.0  -0.1094
  C  C223  1  0.773530  0.440300  0.833300  1.0  -0.075
  C  C224  1  0.566400  0.212000  0.412070  1.0  0.3882
  C  C225  1  0.653800  0.212000  0.361000  1.0  0.141
  C  C226  1  0.554430  0.373400  0.494670  1.0  -0.0709
  C  C227  1  0.672400  0.542600  0.701900  1.0  -0.121
  C  C228  1  0.482330  0.112200  0.440500  1.0  -0.0495
  C  C229  1  0.797600  0.395700  0.867200  1.0  -0.1314
  C  C230  1  0.707030  0.272600  0.778700  1.0  0.2962
  C  C231  1  0.529070  0.391200  0.522300  1.0  -0.1422
  C  C232  1  0.437900  0.038400  0.476600  1.0  0.1358
  C  C233  1  0.727700  0.119500  0.805200  1.0  -0.1315
  C  C234  1  0.535140  0.466100  0.548700  1.0  0.1371
  C  C235  1  0.607700  0.123000  0.319000  1.0  0.1511
  C  C236  1  0.741550  0.394400  0.802200  1.0  0.3869
  C  C237  1  0.700700  0.175200  0.779800  1.0  -0.106
  C  C238  1  0.780200  0.530300  0.828300  1.0  -0.1421
  C  C239  1  0.582200  0.137700  0.346100  1.0  -0.1271
  C  C240  1  0.661900  0.047700  0.756300  1.0  0.1436
  C  C241  1  0.649100  0.586600  0.667400  1.0  0.1518
  C  C242  1  0.826300  0.441800  0.895000  1.0  0.1648
  C  C243  1  0.667300  0.137800  0.755500  1.0  -0.0868
  C  C244  1  0.583700  0.431700  0.493400  1.0  -0.0906
  C  C245  1  0.588100  0.505600  0.520600  1.0  0.1315
  C  C246  1  0.629700  0.231600  0.389600  1.0  -0.128
  C  C247  1  0.431800  0.018300  0.401900  1.0  0.1508
  C  C248  1  0.468700  0.095100  0.478700  1.0  -0.1568
  C  C249  1  0.634900  0.414000  0.681600  1.0  -0.1513
  C  C250  1  0.612900  0.463300  0.647900  1.0  0.1624
  C  C251  1  0.720500  0.028800  0.804300  1.0  0.1518
  C  C252  1  0.462500  0.074200  0.401000  1.0  -0.1391
  C  C253  1  0.165920  0.953600  0.708900  1.0  -0.067
  C  C254  1  0.015270  0.672300  0.440420  1.0  0.3828
  C  C255  1  0.309800  0.071300  0.857500  1.0  0.1572
  C  C256  1  0.190060  0.902500  0.745200  1.0  0.3837
  C  C257  1  0.049420  0.792900  0.466360  1.0  0.3789
  C  C258  1  0.093220  0.694100  0.382000  1.0  -0.1094
  C  C259  1  0.273530  0.940300  0.833300  1.0  -0.075
  C  C260  1  0.066400  0.712000  0.412070  1.0  0.3882
  C  C261  1  0.153800  0.712000  0.361000  1.0  0.141
  C  C262  1  0.054430  0.873400  0.494670  1.0  -0.0709
  C  C263  1  0.172400  0.042600  0.701900  1.0  -0.121
  C  C264  1  0.982330  0.612200  0.440500  1.0  -0.0495
  C  C265  1  0.297600  0.895700  0.867200  1.0  -0.1314
  C  C266  1  0.207030  0.772600  0.778700  1.0  0.2962
  C  C267  1  0.029070  0.891200  0.522300  1.0  -0.1422
  C  C268  1  0.937900  0.538400  0.476600  1.0  0.1358
  C  C269  1  0.227700  0.619500  0.805200  1.0  -0.1315
  C  C270  1  0.035140  0.966100  0.548700  1.0  0.1371
  C  C271  1  0.107700  0.623000  0.319000  1.0  0.1511
  C  C272  1  0.241550  0.894400  0.802200  1.0  0.3869
  C  C273  1  0.200700  0.675200  0.779800  1.0  -0.106
  C  C274  1  0.280200  0.030300  0.828300  1.0  -0.1421
  C  C275  1  0.082200  0.637700  0.346100  1.0  -0.1271
  C  C276  1  0.161900  0.547700  0.756300  1.0  0.1436
  C  C277  1  0.149100  0.086600  0.667400  1.0  0.1518
  C  C278  1  0.326300  0.941800  0.895000  1.0  0.1648
  C  C279  1  0.167300  0.637800  0.755500  1.0  -0.0868
  C  C280  1  0.083700  0.931700  0.493400  1.0  -0.0906
  C  C281  1  0.088100  0.005600  0.520600  1.0  0.1315
  C  C282  1  0.129700  0.731600  0.389600  1.0  -0.128
  C  C283  1  0.931800  0.518300  0.401900  1.0  0.1508
  C  C284  1  0.968700  0.595100  0.478700  1.0  -0.1568
  C  C285  1  0.134900  0.914000  0.681600  1.0  -0.1513
  C  C286  1  0.112900  0.963300  0.647900  1.0  0.1624
  C  C287  1  0.220500  0.528800  0.804300  1.0  0.1518
  C  C288  1  0.962500  0.574200  0.401000  1.0  -0.1391
  C  C289  1  0.665920  0.546400  0.208900  1.0  -0.0673
  C  C290  1  0.515270  0.827700  0.940420  1.0  0.3829
  C  C291  1  0.809800  0.428700  0.357500  1.0  0.1567
  C  C292  1  0.690060  0.597500  0.245200  1.0  0.3839
  C  C293  1  0.549420  0.707100  0.966360  1.0  0.3788
  C  C294  1  0.593220  0.805900  0.882000  1.0  -0.1094
  C  C295  1  0.773530  0.559700  0.333333  1.0  -0.0803
  C  C296  1  0.566400  0.788000  0.912070  1.0  0.3882
  C  C297  1  0.653800  0.788000  0.861000  1.0  0.141
  C  C298  1  0.554430  0.626600  0.994670  1.0  -0.0719
  C  C299  1  0.672400  0.457400  0.201900  1.0  -0.1204
  C  C300  1  0.482330  0.887800  0.940500  1.0  -0.0493
  C  C301  1  0.797600  0.604300  0.367200  1.0  -0.1337
  C  C302  1  0.707030  0.727400  0.278700  1.0  0.2967
  C  C303  1  0.529070  0.608800  0.022300  1.0  -0.1444
  C  C304  1  0.437900  0.961600  0.976600  1.0  0.1351
  C  C305  1  0.727700  0.880500  0.305200  1.0  -0.132
  C  C306  1  0.535140  0.533900  0.048700  1.0  0.1374
  C  C307  1  0.607700  0.877000  0.819000  1.0  0.1513
  C  C308  1  0.741550  0.605600  0.302200  1.0  0.3805
  C  C309  1  0.700700  0.824800  0.279800  1.0  -0.1077
  C  C310  1  0.780200  0.469700  0.328300  1.0  -0.1487
  C  C311  1  0.582200  0.862300  0.846100  1.0  -0.1274
  C  C312  1  0.661900  0.952300  0.256300  1.0  0.144
  C  C313  1  0.649100  0.413400  0.167400  1.0  0.1515
  C  C314  1  0.826300  0.558200  0.395000  1.0  0.1641
  C  C315  1  0.667300  0.862200  0.255500  1.0  -0.0852
  C  C316  1  0.583700  0.568300  0.993400  1.0  -0.0906
  C  C317  1  0.588100  0.494400  0.020600  1.0  0.1302
  C  C318  1  0.629700  0.768400  0.889600  1.0  -0.1275
  C  C319  1  0.431800  0.981700  0.901900  1.0  0.151
  C  C320  1  0.468700  0.904900  0.978700  1.0  -0.1558
  C  C321  1  0.634900  0.586000  0.181600  1.0  -0.1548
  C  C322  1  0.612900  0.536700  0.147900  1.0  0.162
  C  C323  1  0.720500  0.971200  0.304300  1.0  0.1514
  C  C324  1  0.462500  0.925800  0.901000  1.0  -0.1382
  C  C325  1  0.165920  0.046400  0.208900  1.0  -0.0673
  C  C326  1  0.015270  0.327700  0.940420  1.0  0.3829
  C  C327  1  0.309800  0.928700  0.357500  1.0  0.1567
  C  C328  1  0.190060  0.097500  0.245200  1.0  0.3839
  C  C329  1  0.049420  0.207100  0.966360  1.0  0.3788
  C  C330  1  0.093220  0.305900  0.882000  1.0  -0.1094
  C  C331  1  0.273530  0.059700  0.333333  1.0  -0.0803
  C  C332  1  0.066400  0.288000  0.912070  1.0  0.3882
  C  C333  1  0.153800  0.288000  0.861000  1.0  0.141
  C  C334  1  0.054430  0.126600  0.994670  1.0  -0.0719
  C  C335  1  0.172400  0.957400  0.201900  1.0  -0.1204
  C  C336  1  0.982330  0.387800  0.940500  1.0  -0.0493
  C  C337  1  0.297600  0.104300  0.367200  1.0  -0.1337
  C  C338  1  0.207030  0.227400  0.278700  1.0  0.2967
  C  C339  1  0.029070  0.108800  0.022300  1.0  -0.1444
  C  C340  1  0.937900  0.461600  0.976600  1.0  0.1351
  C  C341  1  0.227700  0.380500  0.305200  1.0  -0.132
  C  C342  1  0.035140  0.033900  0.048700  1.0  0.1374
  C  C343  1  0.107700  0.377000  0.819000  1.0  0.1513
  C  C344  1  0.241550  0.105600  0.302200  1.0  0.3805
  C  C345  1  0.200700  0.324800  0.279800  1.0  -0.1077
  C  C346  1  0.280200  0.969700  0.328300  1.0  -0.1487
  C  C347  1  0.082200  0.362300  0.846100  1.0  -0.1274
  C  C348  1  0.161900  0.452300  0.256300  1.0  0.144
  C  C349  1  0.149100  0.913400  0.167400  1.0  0.1515
  C  C350  1  0.326300  0.058200  0.395000  1.0  0.1641
  C  C351  1  0.167300  0.362200  0.255500  1.0  -0.0852
  C  C352  1  0.083700  0.068300  0.993400  1.0  -0.0906
  C  C353  1  0.088100  0.994400  0.020600  1.0  0.1302
  C  C354  1  0.129700  0.268400  0.889600  1.0  -0.1275
  C  C355  1  0.931800  0.481700  0.901900  1.0  0.151
  C  C356  1  0.968700  0.404900  0.978700  1.0  -0.1558
  C  C357  1  0.134900  0.086000  0.181600  1.0  -0.1548
  C  C358  1  0.112900  0.036700  0.147900  1.0  0.162
  C  C359  1  0.220500  0.471200  0.304300  1.0  0.1514
  C  C360  1  0.962500  0.425800  0.901000  1.0  -0.1382
  C  C361  1  0.334080  0.453600  0.791100  1.0  -0.0667
  C  C362  1  0.484730  0.172300  0.059580  1.0  0.3826
  C  C363  1  0.190200  0.571300  0.642500  1.0  0.1572
  C  C364  1  0.309940  0.402500  0.754800  1.0  0.3817
  C  C365  1  0.450580  0.292900  0.033640  1.0  0.3796
  C  C366  1  0.406780  0.194100  0.118000  1.0  -0.109
  C  C367  1  0.226470  0.440300  0.666667  1.0  -0.0796
  C  C368  1  0.433600  0.212000  0.087930  1.0  0.389
  C  C369  1  0.346200  0.212000  0.139000  1.0  0.139
  C  C370  1  0.445570  0.373400  0.005330  1.0  -0.0721
  C  C371  1  0.327600  0.542600  0.798100  1.0  -0.1212
  C  C372  1  0.517670  0.112200  0.059500  1.0  -0.0495
  C  C373  1  0.202400  0.395700  0.632800  1.0  -0.1305
  C  C374  1  0.292970  0.272600  0.721300  1.0  0.2969
  C  C375  1  0.470930  0.391200  0.977700  1.0  -0.1439
  C  C376  1  0.562100  0.038400  0.023400  1.0  0.1366
  C  C377  1  0.272300  0.119500  0.694800  1.0  -0.1313
  C  C378  1  0.464860  0.466100  0.951300  1.0  0.1382
  C  C379  1  0.392300  0.123000  0.181000  1.0  0.1513
  C  C380  1  0.258450  0.394400  0.697800  1.0  0.3788
  C  C381  1  0.299300  0.175200  0.720200  1.0  -0.1056
  C  C382  1  0.219800  0.530300  0.671700  1.0  -0.1494
  C  C383  1  0.417800  0.137700  0.153900  1.0  -0.128
  C  C384  1  0.338100  0.047700  0.743700  1.0  0.1461
  C  C385  1  0.350900  0.586600  0.832600  1.0  0.1506
  C  C386  1  0.173700  0.441800  0.605000  1.0  0.1649
  C  C387  1  0.332700  0.137800  0.744500  1.0  -0.0847
  C  C388  1  0.416300  0.431700  0.006600  1.0  -0.0892
  C  C389  1  0.411900  0.505600  0.979400  1.0  0.13
  C  C390  1  0.370300  0.231600  0.110400  1.0  -0.1285
  C  C391  1  0.568200  0.018300  0.098100  1.0  0.1515
  C  C392  1  0.531300  0.095100  0.021300  1.0  -0.1571
  C  C393  1  0.365100  0.414000  0.818400  1.0  -0.1516
  C  C394  1  0.387100  0.463300  0.852100  1.0  0.1631
  C  C395  1  0.279500  0.028800  0.695700  1.0  0.1513
  C  C396  1  0.537500  0.074200  0.099000  1.0  -0.1433
  C  C397  1  0.834080  0.953600  0.791100  1.0  -0.0667
  C  C398  1  0.984730  0.672300  0.059580  1.0  0.3826
  C  C399  1  0.690200  0.071300  0.642500  1.0  0.1572
  C  C400  1  0.809940  0.902500  0.754800  1.0  0.3817
  C  C401  1  0.950580  0.792900  0.033640  1.0  0.3796
  C  C402  1  0.906780  0.694100  0.118000  1.0  -0.109
  C  C403  1  0.726470  0.940300  0.666667  1.0  -0.0796
  C  C404  1  0.933600  0.712000  0.087930  1.0  0.389
  C  C405  1  0.846200  0.712000  0.139000  1.0  0.139
  C  C406  1  0.945570  0.873400  0.005330  1.0  -0.0721
  C  C407  1  0.827600  0.042600  0.798100  1.0  -0.1212
  C  C408  1  0.017670  0.612200  0.059500  1.0  -0.0495
  C  C409  1  0.702400  0.895700  0.632800  1.0  -0.1305
  C  C410  1  0.792970  0.772600  0.721300  1.0  0.2969
  C  C411  1  0.970930  0.891200  0.977700  1.0  -0.1439
  C  C412  1  0.062100  0.538400  0.023400  1.0  0.1366
  C  C413  1  0.772300  0.619500  0.694800  1.0  -0.1313
  C  C414  1  0.964860  0.966100  0.951300  1.0  0.1382
  C  C415  1  0.892300  0.623000  0.181000  1.0  0.1513
  C  C416  1  0.758450  0.894400  0.697800  1.0  0.3788
  C  C417  1  0.799300  0.675200  0.720200  1.0  -0.1056
  C  C418  1  0.719800  0.030300  0.671700  1.0  -0.1494
  C  C419  1  0.917800  0.637700  0.153900  1.0  -0.128
  C  C420  1  0.838100  0.547700  0.743700  1.0  0.1461
  C  C421  1  0.850900  0.086600  0.832600  1.0  0.1506
  C  C422  1  0.673700  0.941800  0.605000  1.0  0.1649
  C  C423  1  0.832700  0.637800  0.744500  1.0  -0.0847
  C  C424  1  0.916300  0.931700  0.006600  1.0  -0.0892
  C  C425  1  0.911900  0.005600  0.979400  1.0  0.13
  C  C426  1  0.870300  0.731600  0.110400  1.0  -0.1285
  C  C427  1  0.068200  0.518300  0.098100  1.0  0.1515
  C  C428  1  0.031300  0.595100  0.021300  1.0  -0.1571
  C  C429  1  0.865100  0.914000  0.818400  1.0  -0.1516
  C  C430  1  0.887100  0.963300  0.852100  1.0  0.1631
  C  C431  1  0.779500  0.528800  0.695700  1.0  0.1513
  C  C432  1  0.037500  0.574200  0.099000  1.0  -0.1433
  C  C433  1  0.334080  0.546400  0.291100  1.0  -0.0668
  C  C434  1  0.484730  0.827700  0.559580  1.0  0.3827
  C  C435  1  0.190200  0.428700  0.142500  1.0  0.1542
  C  C436  1  0.309940  0.597500  0.254800  1.0  0.3819
  C  C437  1  0.450580  0.707100  0.533640  1.0  0.3793
  C  C438  1  0.406780  0.805900  0.618000  1.0  -0.1089
  C  C439  1  0.226470  0.559700  0.166700  1.0  -0.0756
  C  C440  1  0.433600  0.788000  0.587930  1.0  0.3889
  C  C441  1  0.346200  0.788000  0.639000  1.0  0.1399
  C  C442  1  0.445570  0.626600  0.505330  1.0  -0.0721
  C  C443  1  0.327600  0.457400  0.298100  1.0  -0.1216
  C  C444  1  0.517670  0.887800  0.559500  1.0  -0.0492
  C  C445  1  0.202400  0.604300  0.132800  1.0  -0.1334
  C  C446  1  0.292970  0.727400  0.221300  1.0  0.2974
  C  C447  1  0.470930  0.608800  0.477700  1.0  -0.1446
  C  C448  1  0.562100  0.961600  0.523400  1.0  0.1361
  C  C449  1  0.272300  0.880500  0.194800  1.0  -0.1309
  C  C450  1  0.464860  0.533900  0.451300  1.0  0.1379
  C  C451  1  0.392300  0.877000  0.681000  1.0  0.1507
  C  C452  1  0.258450  0.605600  0.197800  1.0  0.3853
  C  C453  1  0.299300  0.824800  0.220200  1.0  -0.1077
  C  C454  1  0.219800  0.469700  0.171700  1.0  -0.1417
  C  C455  1  0.417800  0.862300  0.653900  1.0  -0.1282
  C  C456  1  0.338100  0.952300  0.243700  1.0  0.1461
  C  C457  1  0.350900  0.413400  0.332600  1.0  0.1502
  C  C458  1  0.173700  0.558200  0.105000  1.0  0.1648
  C  C459  1  0.332700  0.862200  0.244500  1.0  -0.0846
  C  C460  1  0.416300  0.568300  0.506600  1.0  -0.0887
  C  C461  1  0.411900  0.494400  0.479400  1.0  0.1318
  C  C462  1  0.370300  0.768400  0.610400  1.0  -0.1279
  C  C463  1  0.568200  0.981700  0.598100  1.0  0.1504
  C  C464  1  0.531300  0.904900  0.521300  1.0  -0.1561
  C  C465  1  0.365100  0.586000  0.318400  1.0  -0.1562
  C  C466  1  0.387100  0.536700  0.352100  1.0  0.1624
  C  C467  1  0.279500  0.971200  0.195700  1.0  0.1519
  C  C468  1  0.537500  0.925800  0.599000  1.0  -0.1427
  C  C469  1  0.834080  0.046400  0.291100  1.0  -0.0668
  C  C470  1  0.984730  0.327700  0.559580  1.0  0.3827
  C  C471  1  0.690200  0.928700  0.142500  1.0  0.1542
  C  C472  1  0.809940  0.097500  0.254800  1.0  0.3819
  C  C473  1  0.950580  0.207100  0.533640  1.0  0.3793
  C  C474  1  0.906780  0.305900  0.618000  1.0  -0.1089
  C  C475  1  0.726470  0.059700  0.166700  1.0  -0.0756
  C  C476  1  0.933600  0.288000  0.587930  1.0  0.3889
  C  C477  1  0.846200  0.288000  0.639000  1.0  0.1399
  C  C478  1  0.945570  0.126600  0.505330  1.0  -0.0721
  C  C479  1  0.827600  0.957400  0.298100  1.0  -0.1216
  C  C480  1  0.017670  0.387800  0.559500  1.0  -0.0492
  C  C481  1  0.702400  0.104300  0.132800  1.0  -0.1334
  C  C482  1  0.792970  0.227400  0.221300  1.0  0.2974
  C  C483  1  0.970930  0.108800  0.477700  1.0  -0.1446
  C  C484  1  0.062100  0.461600  0.523400  1.0  0.1361
  C  C485  1  0.772300  0.380500  0.194800  1.0  -0.1309
  C  C486  1  0.964860  0.033900  0.451300  1.0  0.1379
  C  C487  1  0.892300  0.377000  0.681000  1.0  0.1507
  C  C488  1  0.758450  0.105600  0.197800  1.0  0.3853
  C  C489  1  0.799300  0.324800  0.220200  1.0  -0.1077
  C  C490  1  0.719800  0.969700  0.171700  1.0  -0.1417
  C  C491  1  0.917800  0.362300  0.653900  1.0  -0.1282
  C  C492  1  0.838100  0.452300  0.243700  1.0  0.1461
  C  C493  1  0.850900  0.913400  0.332600  1.0  0.1502
  C  C494  1  0.673700  0.058200  0.105000  1.0  0.1648
  C  C495  1  0.832700  0.362200  0.244500  1.0  -0.0846
  C  C496  1  0.916300  0.068300  0.506600  1.0  -0.0887
  C  C497  1  0.911900  0.994400  0.479400  1.0  0.1318
  C  C498  1  0.870300  0.268400  0.610400  1.0  -0.1279
  C  C499  1  0.068200  0.481700  0.598100  1.0  0.1504
  C  C500  1  0.031300  0.404900  0.521300  1.0  -0.1561
  C  C501  1  0.865100  0.086000  0.318400  1.0  -0.1562
  C  C502  1  0.887100  0.036700  0.352100  1.0  0.1624
  C  C503  1  0.779500  0.471200  0.195700  1.0  0.1519
  C  C504  1  0.037500  0.425800  0.599000  1.0  -0.1427
  I  I505  1  0.739880  0.226340  0.308320  1.0  -0.4119
  I  I506  1  0.525790  0.648000  0.636680  1.0  -0.3677
  I  I507  1  0.633490  0.174960  0.204990  1.0  -0.4758
  I  I508  1  0.615450  0.737780  0.561520  1.0  -0.4386
  I  I509  1  0.896970  0.728780  0.902580  1.0  -0.4437
  I  I510  1  0.854880  0.585850  0.010480  1.0  -0.3234
  I  I511  1  0.239880  0.726340  0.308320  1.0  -0.4119
  I  I512  1  0.025790  0.148000  0.636680  1.0  -0.3677
  I  I513  1  0.133490  0.674960  0.204990  1.0  -0.4758
  I  I514  1  0.115450  0.237780  0.561520  1.0  -0.4386
  I  I515  1  0.396970  0.228780  0.902580  1.0  -0.4437
  I  I516  1  0.354880  0.085850  0.010480  1.0  -0.3234
  I  I517  1  0.739880  0.773660  0.808320  1.0  -0.4127
  I  I518  1  0.525790  0.352000  0.136680  1.0  -0.3677
  I  I519  1  0.633490  0.825040  0.704990  1.0  -0.4761
  I  I520  1  0.615450  0.262220  0.061520  1.0  -0.4387
  I  I521  1  0.896970  0.271220  0.402580  1.0  -0.4438
  I  I522  1  0.854880  0.414150  0.510480  1.0  -0.3233
  I  I523  1  0.239880  0.273660  0.808320  1.0  -0.4127
  I  I524  1  0.025790  0.852000  0.136680  1.0  -0.3677
  I  I525  1  0.133490  0.325040  0.704990  1.0  -0.4761
  I  I526  1  0.115450  0.762220  0.061520  1.0  -0.4387
  I  I527  1  0.396970  0.771220  0.402580  1.0  -0.4438
  I  I528  1  0.354880  0.914150  0.510480  1.0  -0.3233
  I  I529  1  0.260120  0.226340  0.191680  1.0  -0.4112
  I  I530  1  0.474210  0.648000  0.863320  1.0  -0.3659
  I  I531  1  0.366510  0.174960  0.295010  1.0  -0.4754
  I  I532  1  0.384550  0.737780  0.938480  1.0  -0.439
  I  I533  1  0.103030  0.728780  0.597420  1.0  -0.4436
  I  I534  1  0.145120  0.585850  0.489520  1.0  -0.3236
  I  I535  1  0.760120  0.726340  0.191680  1.0  -0.4112
  I  I536  1  0.974210  0.148000  0.863320  1.0  -0.3659
  I  I537  1  0.866510  0.674960  0.295010  1.0  -0.4754
  I  I538  1  0.884550  0.237780  0.938480  1.0  -0.439
  I  I539  1  0.603030  0.228780  0.597420  1.0  -0.4436
  I  I540  1  0.645120  0.085850  0.489520  1.0  -0.3236
  I  I541  1  0.260120  0.773660  0.691680  1.0  -0.4119
  I  I542  1  0.474210  0.352000  0.363320  1.0  -0.3659
  I  I543  1  0.366510  0.825040  0.795010  1.0  -0.4759
  I  I544  1  0.384550  0.262220  0.438480  1.0  -0.439
  I  I545  1  0.103030  0.271220  0.097420  1.0  -0.4437
  I  I546  1  0.145120  0.414150  0.989520  1.0  -0.3233
  I  I547  1  0.760120  0.273660  0.691680  1.0  -0.4119
  I  I548  1  0.974210  0.852000  0.363320  1.0  -0.3659
  I  I549  1  0.866510  0.325040  0.795010  1.0  -0.4759
  I  I550  1  0.884550  0.762220  0.438480  1.0  -0.439
  I  I551  1  0.603030  0.771220  0.097420  1.0  -0.4437
  I  I552  1  0.645120  0.914150  0.989520  1.0  -0.3233
  N  N553  1  0.688620  0.993000  0.780400  1.0  -0.2901
  N  N554  1  0.832370  0.528400  0.890650  1.0  -0.3196
  N  N555  1  0.643140  0.159200  0.326000  1.0  -0.3358
  N  N556  1  0.682220  0.317600  0.748300  1.0  -0.3378
  N  N557  1  0.419780  0.000200  0.439400  1.0  -0.3024
  N  N558  1  0.619680  0.548300  0.640720  1.0  -0.315
  N  N559  1  0.536930  0.155500  0.410650  1.0  -0.3919
  N  N560  1  0.719420  0.444800  0.771430  1.0  -0.4975
  N  N561  1  0.573710  0.283200  0.438470  1.0  -0.4235
  N  N562  1  0.520770  0.237600  0.469970  1.0  -0.4195
  N  N563  1  0.564380  0.521700  0.548700  1.0  -0.3041
  N  N564  1  0.737090  0.307200  0.807000  1.0  -0.4667
  N  N565  1  0.188620  0.493000  0.780400  1.0  -0.2901
  N  N566  1  0.332370  0.028400  0.890650  1.0  -0.3196
  N  N567  1  0.143140  0.659200  0.326000  1.0  -0.3358
  N  N568  1  0.182220  0.817600  0.748300  1.0  -0.3378
  N  N569  1  0.919780  0.500200  0.439400  1.0  -0.3024
  N  N570  1  0.119680  0.048300  0.640720  1.0  -0.315
  N  N571  1  0.036930  0.655500  0.410650  1.0  -0.3919
  N  N572  1  0.219420  0.944800  0.771430  1.0  -0.4975
  N  N573  1  0.073710  0.783200  0.438470  1.0  -0.4235
  N  N574  1  0.020770  0.737600  0.469970  1.0  -0.4195
  N  N575  1  0.064380  0.021700  0.548700  1.0  -0.3041
  N  N576  1  0.237090  0.807200  0.807000  1.0  -0.4667
  N  N577  1  0.688620  0.007000  0.280400  1.0  -0.2898
  N  N578  1  0.832370  0.471600  0.390650  1.0  -0.3192
  N  N579  1  0.643140  0.840800  0.826000  1.0  -0.3354
  N  N580  1  0.682220  0.682400  0.248300  1.0  -0.3378
  N  N581  1  0.419780  0.999800  0.939400  1.0  -0.301
  N  N582  1  0.619680  0.451700  0.140720  1.0  -0.3156
  N  N583  1  0.536930  0.844500  0.910650  1.0  -0.3925
  N  N584  1  0.719420  0.555200  0.271430  1.0  -0.497
  N  N585  1  0.573710  0.716800  0.938470  1.0  -0.4235
  N  N586  1  0.520770  0.762400  0.969970  1.0  -0.4194
  N  N587  1  0.564380  0.478300  0.048700  1.0  -0.3038
  N  N588  1  0.737090  0.692800  0.307000  1.0  -0.4671
  N  N589  1  0.188620  0.507000  0.280400  1.0  -0.2898
  N  N590  1  0.332370  0.971600  0.390650  1.0  -0.3192
  N  N591  1  0.143140  0.340800  0.826000  1.0  -0.3354
  N  N592  1  0.182220  0.182400  0.248300  1.0  -0.3378
  N  N593  1  0.919780  0.499800  0.939400  1.0  -0.301
  N  N594  1  0.119680  0.951700  0.140720  1.0  -0.3156
  N  N595  1  0.036930  0.344500  0.910650  1.0  -0.3925
  N  N596  1  0.219420  0.055200  0.271430  1.0  -0.497
  N  N597  1  0.073710  0.216800  0.938470  1.0  -0.4235
  N  N598  1  0.020770  0.262400  0.969970  1.0  -0.4194
  N  N599  1  0.064380  0.978300  0.048700  1.0  -0.3038
  N  N600  1  0.237090  0.192800  0.307000  1.0  -0.4671
  N  N601  1  0.311380  0.993000  0.719600  1.0  -0.2882
  N  N602  1  0.167630  0.528400  0.609350  1.0  -0.3194
  N  N603  1  0.356860  0.159200  0.174000  1.0  -0.3349
  N  N604  1  0.317780  0.317600  0.751700  1.0  -0.3388
  N  N605  1  0.580220  0.000200  0.060600  1.0  -0.3012
  N  N606  1  0.380320  0.548300  0.859280  1.0  -0.3158
  N  N607  1  0.463070  0.155500  0.089350  1.0  -0.3902
  N  N608  1  0.280580  0.444800  0.728570  1.0  -0.4975
  N  N609  1  0.426290  0.283200  0.061530  1.0  -0.424
  N  N610  1  0.479230  0.237600  0.030030  1.0  -0.416
  N  N611  1  0.435620  0.521700  0.951300  1.0  -0.3026
  N  N612  1  0.262910  0.307200  0.693000  1.0  -0.468
  N  N613  1  0.811380  0.493000  0.719600  1.0  -0.2882
  N  N614  1  0.667630  0.028400  0.609350  1.0  -0.3194
  N  N615  1  0.856860  0.659200  0.174000  1.0  -0.3349
  N  N616  1  0.817780  0.817600  0.751700  1.0  -0.3388
  N  N617  1  0.080220  0.500200  0.060600  1.0  -0.3012
  N  N618  1  0.880320  0.048300  0.859280  1.0  -0.3158
  N  N619  1  0.963070  0.655500  0.089350  1.0  -0.3902
  N  N620  1  0.780580  0.944800  0.728570  1.0  -0.4975
  N  N621  1  0.926290  0.783200  0.061530  1.0  -0.424
  N  N622  1  0.979230  0.737600  0.030030  1.0  -0.416
  N  N623  1  0.935620  0.021700  0.951300  1.0  -0.3026
  N  N624  1  0.762910  0.807200  0.693000  1.0  -0.468
  N  N625  1  0.311380  0.007000  0.219600  1.0  -0.2907
  N  N626  1  0.167630  0.471600  0.109350  1.0  -0.3194
  N  N627  1  0.356860  0.840800  0.674000  1.0  -0.335
  N  N628  1  0.317780  0.682400  0.251700  1.0  -0.3385
  N  N629  1  0.580220  0.999800  0.560600  1.0  -0.3024
  N  N630  1  0.380320  0.451700  0.359280  1.0  -0.3152
  N  N631  1  0.463070  0.844500  0.589350  1.0  -0.3914
  N  N632  1  0.280580  0.555200  0.228570  1.0  -0.4971
  N  N633  1  0.426290  0.716800  0.561530  1.0  -0.4245
  N  N634  1  0.479230  0.762400  0.530030  1.0  -0.4162
  N  N635  1  0.435620  0.478300  0.451300  1.0  -0.3037
  N  N636  1  0.262910  0.692800  0.193000  1.0  -0.467
  N  N637  1  0.811380  0.507000  0.219600  1.0  -0.2907
  N  N638  1  0.667630  0.971600  0.109350  1.0  -0.3194
  N  N639  1  0.856860  0.340800  0.674000  1.0  -0.335
  N  N640  1  0.817780  0.182400  0.251700  1.0  -0.3385
  N  N641  1  0.080220  0.499800  0.560600  1.0  -0.3024
  N  N642  1  0.880320  0.951700  0.359280  1.0  -0.3152
  N  N643  1  0.963070  0.344500  0.589350  1.0  -0.3914
  N  N644  1  0.780580  0.055200  0.228570  1.0  -0.4971
  N  N645  1  0.926290  0.216800  0.561530  1.0  -0.4245
  N  N646  1  0.979230  0.262400  0.530030  1.0  -0.4162
  N  N647  1  0.935620  0.978300  0.451300  1.0  -0.3037
  N  N648  1  0.762910  0.192800  0.193000  1.0  -0.467
