# generated using pymatgen
data_ZnH8C12(IN2)2
_symmetry_space_group_name_H-M   'P 1'
_cell_length_a   35.15020000
_cell_length_b   14.61390000
_cell_length_c   31.06550000
_cell_angle_alpha   90.00000000
_cell_angle_beta   101.30000000
_cell_angle_gamma   90.00000000
_symmetry_Int_Tables_number   1
_chemical_formula_structural   ZnH8C12(IN2)2
_chemical_formula_sum   'Zn24 H192 C288 I48 N96'
_cell_volume   15648.42600383
_cell_formula_units_Z   24
loop_
 _symmetry_equiv_pos_site_id
 _symmetry_equiv_pos_as_xyz
  1  'x, y, z'
loop_
 _atom_site_type_symbol
 _atom_site_label
 _atom_site_symmetry_multiplicity
 _atom_site_fract_x
 _atom_site_fract_y
 _atom_site_fract_z
 _atom_site_occupancy
 _atom_site_charge
  Zn  Zn1  1  0.417430  0.869360  0.402570  1.0  0.8503
  Zn  Zn2  1  0.330340  0.652130  0.229060  1.0  0.8858
  Zn  Zn3  1  0.626180  0.601040  0.564370  1.0  0.8634
  Zn  Zn4  1  0.917430  0.369360  0.402570  1.0  0.8503
  Zn  Zn5  1  0.830340  0.152130  0.229060  1.0  0.8858
  Zn  Zn6  1  0.126180  0.101040  0.564370  1.0  0.8634
  Zn  Zn7  1  0.417430  0.130640  0.902570  1.0  0.8498
  Zn  Zn8  1  0.330340  0.347870  0.729060  1.0  0.8882
  Zn  Zn9  1  0.626180  0.398960  0.064370  1.0  0.8645
  Zn  Zn10  1  0.917430  0.630640  0.902570  1.0  0.8498
  Zn  Zn11  1  0.830340  0.847870  0.729060  1.0  0.8882
  Zn  Zn12  1  0.126180  0.898960  0.064370  1.0  0.8645
  Zn  Zn13  1  0.582570  0.869360  0.097430  1.0  0.8507
  Zn  Zn14  1  0.669660  0.652130  0.270940  1.0  0.8838
  Zn  Zn15  1  0.373820  0.601040  0.935630  1.0  0.8629
  Zn  Zn16  1  0.082570  0.369360  0.097430  1.0  0.8507
  Zn  Zn17  1  0.169660  0.152130  0.270940  1.0  0.8838
  Zn  Zn18  1  0.873820  0.101040  0.935630  1.0  0.8629
  Zn  Zn19  1  0.582570  0.130640  0.597430  1.0  0.8498
  Zn  Zn20  1  0.669660  0.347870  0.770940  1.0  0.8863
  Zn  Zn21  1  0.373820  0.398960  0.435630  1.0  0.8646
  Zn  Zn22  1  0.082570  0.630640  0.597430  1.0  0.8498
  Zn  Zn23  1  0.169660  0.847870  0.770940  1.0  0.8863
  Zn  Zn24  1  0.873820  0.898960  0.435630  1.0  0.8646
  H  H25  1  0.366400  0.477800  0.260500  1.0  0.0819
  H  H26  1  0.339300  0.845100  0.338200  1.0  0.0828
  H  H27  1  0.481900  0.011000  0.434300  1.0  0.0922
  H  H28  1  0.575400  0.474600  0.497400  1.0  0.0809
  H  H29  1  0.300900  0.923900  0.281400  1.0  0.1125
  H  H30  1  0.389000  0.098700  0.510900  1.0  0.1234
  H  H31  1  0.326600  0.246800  0.643100  1.0  0.0887
  H  H32  1  0.356300  0.321900  0.257700  1.0  0.1235
  H  H33  1  0.573200  0.533100  0.618900  1.0  0.0834
  H  H34  1  0.523600  0.377100  0.493500  1.0  0.1213
  H  H35  1  0.269400  0.519800  0.177700  1.0  0.0737
  H  H36  1  0.380800  0.971100  0.466000  1.0  0.0958
  H  H37  1  0.225000  0.947300  0.202300  1.0  0.1109
  H  H38  1  0.412700  0.047900  0.359100  1.0  0.0897
  H  H39  1  0.167900  0.076300  0.072300  1.0  0.0835
  H  H40  1  0.216200  0.156200  0.117400  1.0  0.1232
  H  H41  1  0.492600  0.138700  0.477600  1.0  0.1252
  H  H42  1  0.363500  0.221600  0.590500  1.0  0.1244
  H  H43  1  0.375500  0.133800  0.305000  1.0  0.1248
  H  H44  1  0.175700  0.875300  0.155800  1.0  0.0841
  H  H45  1  0.443500  0.389300  0.657700  1.0  0.1131
  H  H46  1  0.405800  0.404100  0.710100  1.0  0.0984
  H  H47  1  0.257200  0.366100  0.171300  1.0  0.1182
  H  H48  1  0.520900  0.438800  0.617800  1.0  0.1169
  H  H49  1  0.866400  0.977800  0.260500  1.0  0.0819
  H  H50  1  0.839300  0.345100  0.338200  1.0  0.0828
  H  H51  1  0.981900  0.511000  0.434300  1.0  0.0923
  H  H52  1  0.075400  0.974600  0.497400  1.0  0.0809
  H  H53  1  0.800900  0.423900  0.281400  1.0  0.1125
  H  H54  1  0.889000  0.598700  0.510900  1.0  0.1234
  H  H55  1  0.826600  0.746800  0.643100  1.0  0.0887
  H  H56  1  0.856300  0.821900  0.257700  1.0  0.1235
  H  H57  1  0.073200  0.033100  0.618900  1.0  0.0834
  H  H58  1  0.023600  0.877100  0.493500  1.0  0.1213
  H  H59  1  0.769400  0.019800  0.177700  1.0  0.0737
  H  H60  1  0.880800  0.471100  0.466000  1.0  0.0958
  H  H61  1  0.725000  0.447300  0.202300  1.0  0.1109
  H  H62  1  0.912700  0.547900  0.359100  1.0  0.0897
  H  H63  1  0.667900  0.576300  0.072300  1.0  0.0835
  H  H64  1  0.716200  0.656200  0.117400  1.0  0.1232
  H  H65  1  0.992600  0.638700  0.477600  1.0  0.1252
  H  H66  1  0.863500  0.721600  0.590500  1.0  0.1244
  H  H67  1  0.875500  0.633800  0.305000  1.0  0.1248
  H  H68  1  0.675700  0.375300  0.155800  1.0  0.0841
  H  H69  1  0.943500  0.889300  0.657700  1.0  0.1131
  H  H70  1  0.905800  0.904100  0.710100  1.0  0.0984
  H  H71  1  0.757200  0.866100  0.171300  1.0  0.1182
  H  H72  1  0.020900  0.938800  0.617800  1.0  0.1169
  H  H73  1  0.366400  0.522200  0.760500  1.0  0.0821
  H  H74  1  0.339300  0.154900  0.838200  1.0  0.0821
  H  H75  1  0.481900  0.989000  0.934300  1.0  0.0921
  H  H76  1  0.575400  0.525400  0.997400  1.0  0.0812
  H  H77  1  0.300900  0.076100  0.781400  1.0  0.1128
  H  H78  1  0.389000  0.901300  0.010900  1.0  0.1234
  H  H79  1  0.326600  0.753200  0.143100  1.0  0.0883
  H  H80  1  0.356300  0.678100  0.757700  1.0  0.1235
  H  H81  1  0.573200  0.466900  0.118900  1.0  0.0836
  H  H82  1  0.523600  0.622900  0.993500  1.0  0.1212
  H  H83  1  0.269400  0.480200  0.677700  1.0  0.0735
  H  H84  1  0.380800  0.028900  0.966000  1.0  0.0955
  H  H85  1  0.225000  0.052700  0.702300  1.0  0.1106
  H  H86  1  0.412700  0.952100  0.859100  1.0  0.0895
  H  H87  1  0.167900  0.923700  0.572300  1.0  0.0836
  H  H88  1  0.216200  0.843800  0.617400  1.0  0.123
  H  H89  1  0.492600  0.861300  0.977600  1.0  0.125
  H  H90  1  0.363500  0.778400  0.090500  1.0  0.1249
  H  H91  1  0.375500  0.866200  0.805000  1.0  0.1247
  H  H92  1  0.175700  0.124700  0.655800  1.0  0.0843
  H  H93  1  0.443500  0.610700  0.157700  1.0  0.1131
  H  H94  1  0.405800  0.595900  0.210100  1.0  0.0982
  H  H95  1  0.257200  0.633900  0.671300  1.0  0.1183
  H  H96  1  0.520900  0.561200  0.117800  1.0  0.1171
  H  H97  1  0.866400  0.022200  0.760500  1.0  0.0821
  H  H98  1  0.839300  0.654900  0.838200  1.0  0.0821
  H  H99  1  0.981900  0.489000  0.934300  1.0  0.0924
  H  H100  1  0.075400  0.025400  0.997400  1.0  0.0812
  H  H101  1  0.800900  0.576100  0.781400  1.0  0.1128
  H  H102  1  0.889000  0.401300  0.010900  1.0  0.1234
  H  H103  1  0.826600  0.253200  0.143100  1.0  0.0883
  H  H104  1  0.856300  0.178100  0.757700  1.0  0.1235
  H  H105  1  0.073200  0.966900  0.118900  1.0  0.0836
  H  H106  1  0.023600  0.122900  0.993500  1.0  0.1212
  H  H107  1  0.769400  0.980200  0.677700  1.0  0.0735
  H  H108  1  0.880800  0.528900  0.966000  1.0  0.0955
  H  H109  1  0.725000  0.552700  0.702300  1.0  0.1106
  H  H110  1  0.912700  0.452100  0.859100  1.0  0.0895
  H  H111  1  0.667900  0.423700  0.572300  1.0  0.0836
  H  H112  1  0.716200  0.343800  0.617400  1.0  0.123
  H  H113  1  0.992600  0.361300  0.977600  1.0  0.125
  H  H114  1  0.863500  0.278400  0.090500  1.0  0.1249
  H  H115  1  0.875500  0.366200  0.805000  1.0  0.1247
  H  H116  1  0.675700  0.624700  0.655800  1.0  0.0843
  H  H117  1  0.943500  0.110700  0.157700  1.0  0.1131
  H  H118  1  0.905800  0.095900  0.210100  1.0  0.0982
  H  H119  1  0.757200  0.133900  0.671300  1.0  0.1183
  H  H120  1  0.020900  0.061200  0.117800  1.0  0.1171
  H  H121  1  0.633600  0.477800  0.239500  1.0  0.082
  H  H122  1  0.660700  0.845100  0.161800  1.0  0.0824
  H  H123  1  0.518100  0.011000  0.065700  1.0  0.0928
  H  H124  1  0.424600  0.474600  0.002600  1.0  0.0805
  H  H125  1  0.699100  0.923900  0.218600  1.0  0.1128
  H  H126  1  0.611000  0.098700  0.989100  1.0  0.1231
  H  H127  1  0.673400  0.246800  0.856900  1.0  0.0888
  H  H128  1  0.643700  0.321900  0.242300  1.0  0.1234
  H  H129  1  0.426800  0.533100  0.881100  1.0  0.0831
  H  H130  1  0.476400  0.377100  0.006500  1.0  0.1216
  H  H131  1  0.730600  0.519800  0.322300  1.0  0.0744
  H  H132  1  0.619200  0.971100  0.034000  1.0  0.095
  H  H133  1  0.775000  0.947300  0.297700  1.0  0.111
  H  H134  1  0.587300  0.047900  0.140900  1.0  0.0894
  H  H135  1  0.832100  0.076300  0.427700  1.0  0.0844
  H  H136  1  0.783800  0.156200  0.382600  1.0  0.1238
  H  H137  1  0.507400  0.138700  0.022400  1.0  0.125
  H  H138  1  0.636500  0.221600  0.909500  1.0  0.1239
  H  H139  1  0.624500  0.133800  0.195000  1.0  0.1244
  H  H140  1  0.824300  0.875300  0.344200  1.0  0.084
  H  H141  1  0.556500  0.389300  0.842300  1.0  0.1131
  H  H142  1  0.594200  0.404100  0.789900  1.0  0.0979
  H  H143  1  0.742800  0.366100  0.328700  1.0  0.1187
  H  H144  1  0.479100  0.438800  0.882200  1.0  0.1166
  H  H145  1  0.133600  0.977800  0.239500  1.0  0.082
  H  H146  1  0.160700  0.345100  0.161800  1.0  0.0824
  H  H147  1  0.018100  0.511000  0.065700  1.0  0.0929
  H  H148  1  0.924600  0.974600  0.002600  1.0  0.0805
  H  H149  1  0.199100  0.423900  0.218600  1.0  0.1128
  H  H150  1  0.111000  0.598700  0.989100  1.0  0.1231
  H  H151  1  0.173400  0.746800  0.856900  1.0  0.0888
  H  H152  1  0.143700  0.821900  0.242300  1.0  0.1234
  H  H153  1  0.926800  0.033100  0.881100  1.0  0.0831
  H  H154  1  0.976400  0.877100  0.006500  1.0  0.1216
  H  H155  1  0.230600  0.019800  0.322300  1.0  0.0744
  H  H156  1  0.119200  0.471100  0.034000  1.0  0.095
  H  H157  1  0.275000  0.447300  0.297700  1.0  0.111
  H  H158  1  0.087300  0.547900  0.140900  1.0  0.0894
  H  H159  1  0.332100  0.576300  0.427700  1.0  0.0844
  H  H160  1  0.283800  0.656200  0.382600  1.0  0.1238
  H  H161  1  0.007400  0.638700  0.022400  1.0  0.1252
  H  H162  1  0.136500  0.721600  0.909500  1.0  0.1239
  H  H163  1  0.124500  0.633800  0.195000  1.0  0.1244
  H  H164  1  0.324300  0.375300  0.344200  1.0  0.084
  H  H165  1  0.056500  0.889300  0.842300  1.0  0.1131
  H  H166  1  0.094200  0.904100  0.789900  1.0  0.0979
  H  H167  1  0.242800  0.866100  0.328700  1.0  0.1187
  H  H168  1  0.979100  0.938800  0.882200  1.0  0.1166
  H  H169  1  0.633600  0.522200  0.739500  1.0  0.0819
  H  H170  1  0.660700  0.154900  0.661800  1.0  0.0817
  H  H171  1  0.518100  0.989000  0.565700  1.0  0.0928
  H  H172  1  0.424600  0.525400  0.502600  1.0  0.0807
  H  H173  1  0.699100  0.076100  0.718600  1.0  0.1123
  H  H174  1  0.611000  0.901300  0.489100  1.0  0.1231
  H  H175  1  0.673400  0.753200  0.356900  1.0  0.0891
  H  H176  1  0.643700  0.678100  0.742300  1.0  0.1238
  H  H177  1  0.426800  0.466900  0.381100  1.0  0.083
  H  H178  1  0.476400  0.622900  0.506500  1.0  0.1213
  H  H179  1  0.730600  0.480200  0.822300  1.0  0.0749
  H  H180  1  0.619200  0.028900  0.534000  1.0  0.0956
  H  H181  1  0.775000  0.052700  0.797700  1.0  0.111
  H  H182  1  0.587300  0.952100  0.640900  1.0  0.0896
  H  H183  1  0.832100  0.923700  0.927700  1.0  0.0848
  H  H184  1  0.783800  0.843800  0.882600  1.0  0.1236
  H  H185  1  0.507400  0.861300  0.522400  1.0  0.1249
  H  H186  1  0.636500  0.778400  0.409500  1.0  0.1242
  H  H187  1  0.624500  0.866200  0.695000  1.0  0.1243
  H  H188  1  0.824300  0.124700  0.844200  1.0  0.0841
  H  H189  1  0.556500  0.610700  0.342300  1.0  0.113
  H  H190  1  0.594200  0.595900  0.289900  1.0  0.0977
  H  H191  1  0.742800  0.633900  0.828700  1.0  0.1184
  H  H192  1  0.479100  0.561200  0.382200  1.0  0.1165
  H  H193  1  0.133600  0.022200  0.739500  1.0  0.0819
  H  H194  1  0.160700  0.654900  0.661800  1.0  0.0817
  H  H195  1  0.018100  0.489000  0.565700  1.0  0.0929
  H  H196  1  0.924600  0.025400  0.502600  1.0  0.0807
  H  H197  1  0.199100  0.576100  0.718600  1.0  0.1123
  H  H198  1  0.111000  0.401300  0.489100  1.0  0.1231
  H  H199  1  0.173400  0.253200  0.356900  1.0  0.0891
  H  H200  1  0.143700  0.178100  0.742300  1.0  0.1238
  H  H201  1  0.926800  0.966900  0.381100  1.0  0.083
  H  H202  1  0.976400  0.122900  0.506500  1.0  0.1213
  H  H203  1  0.230600  0.980200  0.822300  1.0  0.0749
  H  H204  1  0.119200  0.528900  0.534000  1.0  0.0956
  H  H205  1  0.275000  0.552700  0.797700  1.0  0.111
  H  H206  1  0.087300  0.452100  0.640900  1.0  0.0896
  H  H207  1  0.332100  0.423700  0.927700  1.0  0.0848
  H  H208  1  0.283800  0.343800  0.882600  1.0  0.1236
  H  H209  1  0.007400  0.361300  0.522400  1.0  0.1251
  H  H210  1  0.136500  0.278400  0.409500  1.0  0.1242
  H  H211  1  0.124500  0.366200  0.695000  1.0  0.1243
  H  H212  1  0.324300  0.624700  0.844200  1.0  0.0841
  H  H213  1  0.056500  0.110700  0.342300  1.0  0.113
  H  H214  1  0.094200  0.095900  0.289900  1.0  0.0977
  H  H215  1  0.242800  0.133900  0.828700  1.0  0.1184
  H  H216  1  0.979100  0.061200  0.382200  1.0  0.1165
  C  C217  1  0.344000  0.454800  0.242800  1.0  0.1434
  C  C218  1  0.481700  0.338500  0.554100  1.0  0.3636
  C  C219  1  0.259600  0.104000  0.194700  1.0  0.3707
  C  C220  1  0.346600  0.903500  0.331100  1.0  0.1518
  C  C221  1  0.226600  0.058500  0.164900  1.0  -0.1049
  C  C222  1  0.333700  0.038100  0.287100  1.0  -0.1174
  C  C223  1  0.463000  0.029000  0.449800  1.0  0.1468
  C  C224  1  0.309800  0.093300  0.251600  1.0  0.3771
  C  C225  1  0.564300  0.467400  0.522000  1.0  0.14
  C  C226  1  0.296900  0.226700  0.216000  1.0  0.246
  C  C227  1  0.304900  0.326300  0.214900  1.0  -0.1043
  C  C228  1  0.323300  0.950700  0.297200  1.0  -0.1051
  C  C229  1  0.515400  0.400300  0.554700  1.0  0.0022
  C  C230  1  0.408200  0.081700  0.495700  1.0  -0.0913
  C  C231  1  0.350700  0.275000  0.646100  1.0  0.1421
  C  C232  1  0.338200  0.360900  0.241300  1.0  -0.1456
  C  C233  1  0.562900  0.501900  0.593200  1.0  0.1306
  C  C234  1  0.447900  0.212900  0.528700  1.0  0.3939
  C  C235  1  0.532800  0.409500  0.519200  1.0  -0.1555
  C  C236  1  0.431800  0.292900  0.584800  1.0  0.3951
  C  C237  1  0.287000  0.479400  0.193900  1.0  0.158
  C  C238  1  0.403400  0.005400  0.468500  1.0  0.149
  C  C239  1  0.213800  0.974800  0.175900  1.0  -0.1284
  C  C240  1  0.389700  0.023400  0.343500  1.0  0.1568
  C  C241  1  0.442200  0.132100  0.499600  1.0  -0.0933
  C  C242  1  0.179800  0.050200  0.098800  1.0  0.1567
  C  C243  1  0.208800  0.098600  0.125500  1.0  -0.1507
  C  C244  1  0.407700  0.304600  0.618100  1.0  -0.0831
  C  C245  1  0.469800  0.105500  0.475900  1.0  -0.1565
  C  C246  1  0.372400  0.260300  0.614100  1.0  -0.1397
  C  C247  1  0.367700  0.075100  0.310900  1.0  -0.0978
  C  C248  1  0.184400  0.931600  0.147700  1.0  0.1545
  C  C249  1  0.419800  0.358900  0.654200  1.0  -0.0956
  C  C250  1  0.397000  0.368300  0.685400  1.0  0.1414
  C  C251  1  0.279300  0.387300  0.190200  1.0  -0.1317
  C  C252  1  0.531300  0.445800  0.592700  1.0  -0.1626
  C  C253  1  0.844000  0.954800  0.242800  1.0  0.1434
  C  C254  1  0.981700  0.838500  0.554100  1.0  0.3636
  C  C255  1  0.759600  0.604000  0.194700  1.0  0.3707
  C  C256  1  0.846600  0.403500  0.331100  1.0  0.1518
  C  C257  1  0.726600  0.558500  0.164900  1.0  -0.1049
  C  C258  1  0.833700  0.538100  0.287100  1.0  -0.1174
  C  C259  1  0.963000  0.529000  0.449800  1.0  0.1468
  C  C260  1  0.809800  0.593300  0.251600  1.0  0.3771
  C  C261  1  0.064300  0.967400  0.522000  1.0  0.14
  C  C262  1  0.796900  0.726700  0.216000  1.0  0.246
  C  C263  1  0.804900  0.826300  0.214900  1.0  -0.1043
  C  C264  1  0.823300  0.450700  0.297200  1.0  -0.1051
  C  C265  1  0.015400  0.900300  0.554700  1.0  0.0022
  C  C266  1  0.908200  0.581700  0.495700  1.0  -0.0913
  C  C267  1  0.850700  0.775000  0.646100  1.0  0.1421
  C  C268  1  0.838200  0.860900  0.241300  1.0  -0.1456
  C  C269  1  0.062900  0.001900  0.593200  1.0  0.1306
  C  C270  1  0.947900  0.712900  0.528700  1.0  0.3939
  C  C271  1  0.032800  0.909500  0.519200  1.0  -0.1555
  C  C272  1  0.931800  0.792900  0.584800  1.0  0.3951
  C  C273  1  0.787000  0.979400  0.193900  1.0  0.158
  C  C274  1  0.903400  0.505400  0.468500  1.0  0.149
  C  C275  1  0.713800  0.474800  0.175900  1.0  -0.1284
  C  C276  1  0.889700  0.523400  0.343500  1.0  0.1568
  C  C277  1  0.942200  0.632100  0.499600  1.0  -0.0933
  C  C278  1  0.679800  0.550200  0.098800  1.0  0.1567
  C  C279  1  0.708800  0.598600  0.125500  1.0  -0.1507
  C  C280  1  0.907700  0.804600  0.618100  1.0  -0.0831
  C  C281  1  0.969800  0.605500  0.475900  1.0  -0.1565
  C  C282  1  0.872400  0.760300  0.614100  1.0  -0.1397
  C  C283  1  0.867700  0.575100  0.310900  1.0  -0.0978
  C  C284  1  0.684400  0.431600  0.147700  1.0  0.1545
  C  C285  1  0.919800  0.858900  0.654200  1.0  -0.0956
  C  C286  1  0.897000  0.868300  0.685400  1.0  0.1414
  C  C287  1  0.779300  0.887300  0.190200  1.0  -0.1317
  C  C288  1  0.031300  0.945800  0.592700  1.0  -0.1626
  C  C289  1  0.344000  0.545200  0.742800  1.0  0.1435
  C  C290  1  0.481700  0.661500  0.054100  1.0  0.3632
  C  C291  1  0.259600  0.896000  0.694700  1.0  0.3707
  C  C292  1  0.346600  0.096500  0.831100  1.0  0.1521
  C  C293  1  0.226600  0.941500  0.664900  1.0  -0.1038
  C  C294  1  0.333700  0.961900  0.787100  1.0  -0.118
  C  C295  1  0.463000  0.971000  0.949800  1.0  0.1468
  C  C296  1  0.309800  0.906700  0.751600  1.0  0.3775
  C  C297  1  0.564300  0.532600  0.022000  1.0  0.1388
  C  C298  1  0.296900  0.773300  0.716000  1.0  0.2461
  C  C299  1  0.304900  0.673700  0.714900  1.0  -0.103
  C  C300  1  0.323300  0.049300  0.797200  1.0  -0.1045
  C  C301  1  0.515400  0.599700  0.054700  1.0  0.0019
  C  C302  1  0.408200  0.918300  0.995700  1.0  -0.0912
  C  C303  1  0.350700  0.725000  0.146100  1.0  0.1406
  C  C304  1  0.338200  0.639100  0.741300  1.0  -0.1462
  C  C305  1  0.562900  0.498100  0.093200  1.0  0.1316
  C  C306  1  0.447900  0.787100  0.028700  1.0  0.3936
  C  C307  1  0.532800  0.590500  0.019200  1.0  -0.1565
  C  C308  1  0.431800  0.707100  0.084800  1.0  0.3953
  C  C309  1  0.287000  0.520600  0.693900  1.0  0.1567
  C  C310  1  0.403400  0.994600  0.968500  1.0  0.148
  C  C311  1  0.213800  0.025200  0.675900  1.0  -0.1292
  C  C312  1  0.389700  0.976600  0.843500  1.0  0.1575
  C  C313  1  0.442200  0.867900  0.999600  1.0  -0.0939
  C  C314  1  0.179800  0.949800  0.598800  1.0  0.157
  C  C315  1  0.208800  0.901400  0.625500  1.0  -0.1498
  C  C316  1  0.407700  0.695400  0.118100  1.0  -0.083
  C  C317  1  0.469800  0.894500  0.975900  1.0  -0.1563
  C  C318  1  0.372400  0.739700  0.114100  1.0  -0.1417
  C  C319  1  0.367700  0.924900  0.810900  1.0  -0.0959
  C  C320  1  0.184400  0.068400  0.647700  1.0  0.1548
  C  C321  1  0.419800  0.641100  0.154200  1.0  -0.0953
  C  C322  1  0.397000  0.631700  0.185400  1.0  0.1411
  C  C323  1  0.279300  0.612700  0.690200  1.0  -0.1324
  C  C324  1  0.531300  0.554200  0.092700  1.0  -0.1621
  C  C325  1  0.844000  0.045200  0.742800  1.0  0.1435
  C  C326  1  0.981700  0.161500  0.054100  1.0  0.3632
  C  C327  1  0.759600  0.396000  0.694700  1.0  0.3707
  C  C328  1  0.846600  0.596500  0.831100  1.0  0.1521
  C  C329  1  0.726600  0.441500  0.664900  1.0  -0.1038
  C  C330  1  0.833700  0.461900  0.787100  1.0  -0.118
  C  C331  1  0.963000  0.471000  0.949800  1.0  0.1468
  C  C332  1  0.809800  0.406700  0.751600  1.0  0.3775
  C  C333  1  0.064300  0.032600  0.022000  1.0  0.1388
  C  C334  1  0.796900  0.273300  0.716000  1.0  0.2461
  C  C335  1  0.804900  0.173700  0.714900  1.0  -0.103
  C  C336  1  0.823300  0.549300  0.797200  1.0  -0.1045
  C  C337  1  0.015400  0.099700  0.054700  1.0  0.0019
  C  C338  1  0.908200  0.418300  0.995700  1.0  -0.0912
  C  C339  1  0.850700  0.225000  0.146100  1.0  0.1406
  C  C340  1  0.838200  0.139100  0.741300  1.0  -0.1462
  C  C341  1  0.062900  0.998100  0.093200  1.0  0.1316
  C  C342  1  0.947900  0.287100  0.028700  1.0  0.3936
  C  C343  1  0.032800  0.090500  0.019200  1.0  -0.1565
  C  C344  1  0.931800  0.207100  0.084800  1.0  0.3953
  C  C345  1  0.787000  0.020600  0.693900  1.0  0.1567
  C  C346  1  0.903400  0.494600  0.968500  1.0  0.148
  C  C347  1  0.713800  0.525200  0.675900  1.0  -0.1292
  C  C348  1  0.889700  0.476600  0.843500  1.0  0.1575
  C  C349  1  0.942200  0.367900  0.999600  1.0  -0.0939
  C  C350  1  0.679800  0.449800  0.598800  1.0  0.157
  C  C351  1  0.708800  0.401400  0.625500  1.0  -0.1498
  C  C352  1  0.907700  0.195400  0.118100  1.0  -0.083
  C  C353  1  0.969800  0.394500  0.975900  1.0  -0.1563
  C  C354  1  0.872400  0.239700  0.114100  1.0  -0.1417
  C  C355  1  0.867700  0.424900  0.810900  1.0  -0.0959
  C  C356  1  0.684400  0.568400  0.647700  1.0  0.1548
  C  C357  1  0.919800  0.141100  0.154200  1.0  -0.0953
  C  C358  1  0.897000  0.131700  0.185400  1.0  0.1411
  C  C359  1  0.779300  0.112700  0.690200  1.0  -0.1324
  C  C360  1  0.031300  0.054200  0.092700  1.0  -0.1621
  C  C361  1  0.656000  0.454800  0.257200  1.0  0.1421
  C  C362  1  0.518300  0.338500  0.945900  1.0  0.3633
  C  C363  1  0.740400  0.104000  0.305300  1.0  0.3715
  C  C364  1  0.653400  0.903500  0.168900  1.0  0.151
  C  C365  1  0.773400  0.058500  0.335100  1.0  -0.1036
  C  C366  1  0.666300  0.038100  0.212900  1.0  -0.1169
  C  C367  1  0.537000  0.029000  0.050200  1.0  0.1471
  C  C368  1  0.690200  0.093300  0.248400  1.0  0.3764
  C  C369  1  0.435700  0.467400  0.978000  1.0  0.1404
  C  C370  1  0.703100  0.226700  0.284000  1.0  0.2457
  C  C371  1  0.695100  0.326300  0.285100  1.0  -0.1047
  C  C372  1  0.676700  0.950700  0.202800  1.0  -0.1049
  C  C373  1  0.484600  0.400300  0.945300  1.0  0.0018
  C  C374  1  0.591800  0.081700  0.004300  1.0  -0.0884
  C  C375  1  0.649300  0.275000  0.853900  1.0  0.144
  C  C376  1  0.661800  0.360900  0.258700  1.0  -0.1459
  C  C377  1  0.437100  0.501900  0.906800  1.0  0.1318
  C  C378  1  0.552100  0.212900  0.971300  1.0  0.3941
  C  C379  1  0.467200  0.409500  0.980800  1.0  -0.1527
  C  C380  1  0.568200  0.292900  0.915200  1.0  0.395
  C  C381  1  0.713000  0.479400  0.306100  1.0  0.1563
  C  C382  1  0.596600  0.005400  0.031500  1.0  0.1471
  C  C383  1  0.786200  0.974800  0.324100  1.0  -0.1293
  C  C384  1  0.610300  0.023400  0.156500  1.0  0.1573
  C  C385  1  0.557800  0.132100  0.000400  1.0  -0.0924
  C  C386  1  0.820200  0.050200  0.401200  1.0  0.1585
  C  C387  1  0.791200  0.098600  0.374500  1.0  -0.1512
  C  C388  1  0.592300  0.304600  0.881900  1.0  -0.084
  C  C389  1  0.530200  0.105500  0.024100  1.0  -0.1568
  C  C390  1  0.627600  0.260300  0.885900  1.0  -0.1397
  C  C391  1  0.632300  0.075100  0.189100  1.0  -0.0966
  C  C392  1  0.815600  0.931600  0.352300  1.0  0.1544
  C  C393  1  0.580200  0.358900  0.845800  1.0  -0.0961
  C  C394  1  0.603000  0.368300  0.814600  1.0  0.1419
  C  C395  1  0.720700  0.387300  0.309800  1.0  -0.1331
  C  C396  1  0.468700  0.445800  0.907300  1.0  -0.1629
  C  C397  1  0.156000  0.954800  0.257200  1.0  0.1421
  C  C398  1  0.018300  0.838500  0.945900  1.0  0.3633
  C  C399  1  0.240400  0.604000  0.305300  1.0  0.3715
  C  C400  1  0.153400  0.403500  0.168900  1.0  0.151
  C  C401  1  0.273400  0.558500  0.335100  1.0  -0.1036
  C  C402  1  0.166300  0.538100  0.212900  1.0  -0.1169
  C  C403  1  0.037000  0.529000  0.050200  1.0  0.1471
  C  C404  1  0.190200  0.593300  0.248400  1.0  0.3764
  C  C405  1  0.935700  0.967400  0.978000  1.0  0.1404
  C  C406  1  0.203100  0.726700  0.284000  1.0  0.2457
  C  C407  1  0.195100  0.826300  0.285100  1.0  -0.1047
  C  C408  1  0.176700  0.450700  0.202800  1.0  -0.1049
  C  C409  1  0.984600  0.900300  0.945300  1.0  0.0018
  C  C410  1  0.091800  0.581700  0.004300  1.0  -0.0884
  C  C411  1  0.149300  0.775000  0.853900  1.0  0.144
  C  C412  1  0.161800  0.860900  0.258700  1.0  -0.1459
  C  C413  1  0.937100  0.001900  0.906800  1.0  0.1318
  C  C414  1  0.052100  0.712900  0.971300  1.0  0.3941
  C  C415  1  0.967200  0.909500  0.980800  1.0  -0.1527
  C  C416  1  0.068200  0.792900  0.915200  1.0  0.395
  C  C417  1  0.213000  0.979400  0.306100  1.0  0.1563
  C  C418  1  0.096600  0.505400  0.031500  1.0  0.1471
  C  C419  1  0.286200  0.474800  0.324100  1.0  -0.1293
  C  C420  1  0.110300  0.523400  0.156500  1.0  0.1573
  C  C421  1  0.057800  0.632100  0.000400  1.0  -0.0924
  C  C422  1  0.320200  0.550200  0.401200  1.0  0.1585
  C  C423  1  0.291200  0.598600  0.374500  1.0  -0.1512
  C  C424  1  0.092300  0.804600  0.881900  1.0  -0.084
  C  C425  1  0.030200  0.605500  0.024100  1.0  -0.1568
  C  C426  1  0.127600  0.760300  0.885900  1.0  -0.1397
  C  C427  1  0.132300  0.575100  0.189100  1.0  -0.0966
  C  C428  1  0.315600  0.431600  0.352300  1.0  0.1544
  C  C429  1  0.080200  0.858900  0.845800  1.0  -0.0961
  C  C430  1  0.103000  0.868300  0.814600  1.0  0.1419
  C  C431  1  0.220700  0.887300  0.309800  1.0  -0.1331
  C  C432  1  0.968700  0.945800  0.907300  1.0  -0.1629
  C  C433  1  0.656000  0.545200  0.757200  1.0  0.1423
  C  C434  1  0.518300  0.661500  0.445900  1.0  0.3628
  C  C435  1  0.740400  0.896000  0.805300  1.0  0.3713
  C  C436  1  0.653400  0.096500  0.668900  1.0  0.1521
  C  C437  1  0.773400  0.941500  0.835100  1.0  -0.1032
  C  C438  1  0.666300  0.961900  0.712900  1.0  -0.1168
  C  C439  1  0.537000  0.971000  0.550200  1.0  0.1466
  C  C440  1  0.690200  0.906700  0.748400  1.0  0.3767
  C  C441  1  0.435700  0.532600  0.478000  1.0  0.14
  C  C442  1  0.703100  0.773300  0.784000  1.0  0.2461
  C  C443  1  0.695100  0.673700  0.785100  1.0  -0.1042
  C  C444  1  0.676700  0.049300  0.702800  1.0  -0.1045
  C  C445  1  0.484600  0.599700  0.445300  1.0  0.0011
  C  C446  1  0.591800  0.918300  0.504300  1.0  -0.0879
  C  C447  1  0.649300  0.725000  0.353900  1.0  0.1431
  C  C448  1  0.661800  0.639100  0.758700  1.0  -0.1472
  C  C449  1  0.437100  0.498100  0.406800  1.0  0.1313
  C  C450  1  0.552100  0.787100  0.471300  1.0  0.3936
  C  C451  1  0.467200  0.590500  0.480800  1.0  -0.1552
  C  C452  1  0.568200  0.707100  0.415200  1.0  0.3951
  C  C453  1  0.713000  0.520600  0.806100  1.0  0.1563
  C  C454  1  0.596600  0.994600  0.531500  1.0  0.1475
  C  C455  1  0.786200  0.025200  0.824100  1.0  -0.1291
  C  C456  1  0.610300  0.976600  0.656500  1.0  0.1578
  C  C457  1  0.557800  0.867900  0.500400  1.0  -0.0929
  C  C458  1  0.820200  0.949800  0.901200  1.0  0.1594
  C  C459  1  0.791200  0.901400  0.874500  1.0  -0.1499
  C  C460  1  0.592300  0.695400  0.381900  1.0  -0.0839
  C  C461  1  0.530200  0.894500  0.524100  1.0  -0.1558
  C  C462  1  0.627600  0.739700  0.385900  1.0  -0.1421
  C  C463  1  0.632300  0.924900  0.689100  1.0  -0.0954
  C  C464  1  0.815600  0.068400  0.852300  1.0  0.1555
  C  C465  1  0.580200  0.641100  0.345800  1.0  -0.0955
  C  C466  1  0.603000  0.631700  0.314600  1.0  0.1412
  C  C467  1  0.720700  0.612700  0.809800  1.0  -0.1332
  C  C468  1  0.468700  0.554200  0.407300  1.0  -0.1627
  C  C469  1  0.156000  0.045200  0.757200  1.0  0.1423
  C  C470  1  0.018300  0.161500  0.445900  1.0  0.3628
  C  C471  1  0.240400  0.396000  0.805300  1.0  0.3713
  C  C472  1  0.153400  0.596500  0.668900  1.0  0.1521
  C  C473  1  0.273400  0.441500  0.835100  1.0  -0.1032
  C  C474  1  0.166300  0.461900  0.712900  1.0  -0.1168
  C  C475  1  0.037000  0.471000  0.550200  1.0  0.1466
  C  C476  1  0.190200  0.406700  0.748400  1.0  0.3767
  C  C477  1  0.935700  0.032600  0.478000  1.0  0.14
  C  C478  1  0.203100  0.273300  0.784000  1.0  0.2461
  C  C479  1  0.195100  0.173700  0.785100  1.0  -0.1042
  C  C480  1  0.176700  0.549300  0.702800  1.0  -0.1045
  C  C481  1  0.984600  0.099700  0.445300  1.0  0.0011
  C  C482  1  0.091800  0.418300  0.504300  1.0  -0.0879
  C  C483  1  0.149300  0.225000  0.353900  1.0  0.1431
  C  C484  1  0.161800  0.139100  0.758700  1.0  -0.1472
  C  C485  1  0.937100  0.998100  0.406800  1.0  0.1313
  C  C486  1  0.052100  0.287100  0.471300  1.0  0.3936
  C  C487  1  0.967200  0.090500  0.480800  1.0  -0.1552
  C  C488  1  0.068200  0.207100  0.415200  1.0  0.3951
  C  C489  1  0.213000  0.020600  0.806100  1.0  0.1563
  C  C490  1  0.096600  0.494600  0.531500  1.0  0.1475
  C  C491  1  0.286200  0.525200  0.824100  1.0  -0.1291
  C  C492  1  0.110300  0.476600  0.656500  1.0  0.1578
  C  C493  1  0.057800  0.367900  0.500400  1.0  -0.0929
  C  C494  1  0.320200  0.449800  0.901200  1.0  0.1594
  C  C495  1  0.291200  0.401400  0.874500  1.0  -0.1499
  C  C496  1  0.092300  0.195400  0.381900  1.0  -0.0839
  C  C497  1  0.030200  0.394500  0.524100  1.0  -0.1558
  C  C498  1  0.127600  0.239700  0.385900  1.0  -0.1421
  C  C499  1  0.132300  0.424900  0.689100  1.0  -0.0954
  C  C500  1  0.315600  0.568400  0.852300  1.0  0.1555
  C  C501  1  0.080200  0.141100  0.345800  1.0  -0.0955
  C  C502  1  0.103000  0.131700  0.314600  1.0  0.1412
  C  C503  1  0.220700  0.112700  0.809800  1.0  -0.1332
  C  C504  1  0.968700  0.054200  0.407300  1.0  -0.1627
  I  I505  1  0.268730  0.746220  0.209220  1.0  -0.4765
  I  I506  1  0.380240  0.757450  0.440710  1.0  -0.4561
  I  I507  1  0.375460  0.663820  0.303990  1.0  -0.4356
  I  I508  1  0.475860  0.836080  0.368470  1.0  -0.3564
  I  I509  1  0.649830  0.602160  0.492650  1.0  -0.3405
  I  I510  1  0.607990  0.741700  0.603940  1.0  -0.4433
  I  I511  1  0.768730  0.246220  0.209220  1.0  -0.4765
  I  I512  1  0.880240  0.257450  0.440710  1.0  -0.4561
  I  I513  1  0.875460  0.163820  0.303990  1.0  -0.4356
  I  I514  1  0.975860  0.336080  0.368470  1.0  -0.3564
  I  I515  1  0.149830  0.102160  0.492650  1.0  -0.3405
  I  I516  1  0.107990  0.241700  0.603940  1.0  -0.4433
  I  I517  1  0.268730  0.253780  0.709220  1.0  -0.477
  I  I518  1  0.380240  0.242550  0.940710  1.0  -0.4563
  I  I519  1  0.375460  0.336180  0.803990  1.0  -0.4355
  I  I520  1  0.475860  0.163920  0.868470  1.0  -0.3563
  I  I521  1  0.649830  0.397840  0.992650  1.0  -0.3399
  I  I522  1  0.607990  0.258300  0.103940  1.0  -0.4437
  I  I523  1  0.768730  0.753780  0.709220  1.0  -0.477
  I  I524  1  0.880240  0.742550  0.940710  1.0  -0.4563
  I  I525  1  0.875460  0.836180  0.803990  1.0  -0.4355
  I  I526  1  0.975860  0.663920  0.868470  1.0  -0.3563
  I  I527  1  0.149830  0.897840  0.992650  1.0  -0.3399
  I  I528  1  0.107990  0.758300  0.103940  1.0  -0.4437
  I  I529  1  0.731270  0.746220  0.290780  1.0  -0.4781
  I  I530  1  0.619760  0.757450  0.059290  1.0  -0.457
  I  I531  1  0.624540  0.663820  0.196010  1.0  -0.4347
  I  I532  1  0.524140  0.836080  0.131530  1.0  -0.3551
  I  I533  1  0.350170  0.602160  0.007350  1.0  -0.3412
  I  I534  1  0.392010  0.741700  0.896060  1.0  -0.4424
  I  I535  1  0.231270  0.246220  0.290780  1.0  -0.4781
  I  I536  1  0.119760  0.257450  0.059290  1.0  -0.457
  I  I537  1  0.124540  0.163820  0.196010  1.0  -0.4347
  I  I538  1  0.024140  0.336080  0.131530  1.0  -0.3551
  I  I539  1  0.850170  0.102160  0.007350  1.0  -0.3412
  I  I540  1  0.892010  0.241700  0.896060  1.0  -0.4424
  I  I541  1  0.731270  0.253780  0.790780  1.0  -0.4783
  I  I542  1  0.619760  0.242550  0.559290  1.0  -0.4569
  I  I543  1  0.624540  0.336180  0.696010  1.0  -0.4345
  I  I544  1  0.524140  0.163920  0.631530  1.0  -0.3553
  I  I545  1  0.350170  0.397840  0.507350  1.0  -0.3411
  I  I546  1  0.392010  0.258300  0.396060  1.0  -0.443
  I  I547  1  0.231270  0.753780  0.790780  1.0  -0.4783
  I  I548  1  0.119760  0.742550  0.559290  1.0  -0.4569
  I  I549  1  0.124540  0.836180  0.696010  1.0  -0.4345
  I  I550  1  0.024140  0.663920  0.631530  1.0  -0.3553
  I  I551  1  0.850170  0.897840  0.507350  1.0  -0.3411
  I  I552  1  0.892010  0.758300  0.396060  1.0  -0.443
  N  N553  1  0.362680  0.327500  0.680900  1.0  -0.3012
  N  N554  1  0.318600  0.513700  0.219900  1.0  -0.3177
  N  N555  1  0.279300  0.051900  0.226600  1.0  -0.4309
  N  N556  1  0.430440  0.979100  0.445600  1.0  -0.3102
  N  N557  1  0.379340  0.939600  0.353800  1.0  -0.3055
  N  N558  1  0.266750  0.191900  0.187400  1.0  -0.3791
  N  N559  1  0.579290  0.513300  0.558200  1.0  -0.301
  N  N560  1  0.320220  0.179100  0.247300  1.0  -0.4276
  N  N561  1  0.167730  0.967700  0.109000  1.0  -0.3157
  N  N562  1  0.460250  0.354000  0.584500  1.0  -0.4325
  N  N563  1  0.424790  0.221100  0.558100  1.0  -0.4904
  N  N564  1  0.476340  0.271400  0.524500  1.0  -0.4142
  N  N565  1  0.862680  0.827500  0.680900  1.0  -0.3012
  N  N566  1  0.818600  0.013700  0.219900  1.0  -0.3177
  N  N567  1  0.779300  0.551900  0.226600  1.0  -0.4309
  N  N568  1  0.930440  0.479100  0.445600  1.0  -0.3102
  N  N569  1  0.879340  0.439600  0.353800  1.0  -0.3055
  N  N570  1  0.766750  0.691900  0.187400  1.0  -0.3791
  N  N571  1  0.079290  0.013300  0.558200  1.0  -0.301
  N  N572  1  0.820220  0.679100  0.247300  1.0  -0.4276
  N  N573  1  0.667730  0.467700  0.109000  1.0  -0.3157
  N  N574  1  0.960250  0.854000  0.584500  1.0  -0.4325
  N  N575  1  0.924790  0.721100  0.558100  1.0  -0.4904
  N  N576  1  0.976340  0.771400  0.524500  1.0  -0.4142
  N  N577  1  0.362680  0.672500  0.180900  1.0  -0.3009
  N  N578  1  0.318600  0.486300  0.719900  1.0  -0.3132
  N  N579  1  0.279300  0.948100  0.726600  1.0  -0.43
  N  N580  1  0.430440  0.020900  0.945600  1.0  -0.3095
  N  N581  1  0.379340  0.060400  0.853800  1.0  -0.3083
  N  N582  1  0.266750  0.808100  0.687400  1.0  -0.3801
  N  N583  1  0.579290  0.486700  0.058200  1.0  -0.3011
  N  N584  1  0.320220  0.820900  0.747300  1.0  -0.4276
  N  N585  1  0.167730  0.032300  0.609000  1.0  -0.3154
  N  N586  1  0.460250  0.646000  0.084500  1.0  -0.4321
  N  N587  1  0.424790  0.778900  0.058100  1.0  -0.4895
  N  N588  1  0.476340  0.728600  0.024500  1.0  -0.4145
  N  N589  1  0.862680  0.172500  0.180900  1.0  -0.3009
  N  N590  1  0.818600  0.986300  0.719900  1.0  -0.3132
  N  N591  1  0.779300  0.448100  0.726600  1.0  -0.43
  N  N592  1  0.930440  0.520900  0.945600  1.0  -0.3095
  N  N593  1  0.879340  0.560400  0.853800  1.0  -0.3083
  N  N594  1  0.766750  0.308100  0.687400  1.0  -0.3801
  N  N595  1  0.079290  0.986700  0.058200  1.0  -0.3011
  N  N596  1  0.820220  0.320900  0.747300  1.0  -0.4276
  N  N597  1  0.667730  0.532300  0.609000  1.0  -0.3154
  N  N598  1  0.960250  0.146000  0.084500  1.0  -0.4321
  N  N599  1  0.924790  0.278900  0.058100  1.0  -0.4895
  N  N600  1  0.976340  0.228600  0.024500  1.0  -0.4145
  N  N601  1  0.637320  0.327500  0.819100  1.0  -0.3013
  N  N602  1  0.681400  0.513700  0.280100  1.0  -0.3162
  N  N603  1  0.720700  0.051900  0.273400  1.0  -0.4303
  N  N604  1  0.569560  0.979100  0.054400  1.0  -0.3093
  N  N605  1  0.620660  0.939600  0.146200  1.0  -0.3077
  N  N606  1  0.733250  0.191900  0.312600  1.0  -0.3759
  N  N607  1  0.420710  0.513300  0.941800  1.0  -0.3018
  N  N608  1  0.679780  0.179100  0.252700  1.0  -0.4252
  N  N609  1  0.832270  0.967700  0.391000  1.0  -0.3136
  N  N610  1  0.539750  0.354000  0.915500  1.0  -0.4331
  N  N611  1  0.575210  0.221100  0.941900  1.0  -0.4891
  N  N612  1  0.523660  0.271400  0.975500  1.0  -0.4141
  N  N613  1  0.137320  0.827500  0.819100  1.0  -0.3013
  N  N614  1  0.181400  0.013700  0.280100  1.0  -0.3162
  N  N615  1  0.220700  0.551900  0.273400  1.0  -0.4303
  N  N616  1  0.069560  0.479100  0.054400  1.0  -0.3093
  N  N617  1  0.120660  0.439600  0.146200  1.0  -0.3077
  N  N618  1  0.233250  0.691900  0.312600  1.0  -0.3759
  N  N619  1  0.920710  0.013300  0.941800  1.0  -0.3018
  N  N620  1  0.179780  0.679100  0.252700  1.0  -0.4252
  N  N621  1  0.332270  0.467700  0.391000  1.0  -0.3136
  N  N622  1  0.039750  0.854000  0.915500  1.0  -0.4331
  N  N623  1  0.075210  0.721100  0.941900  1.0  -0.4891
  N  N624  1  0.023660  0.771400  0.975500  1.0  -0.4141
  N  N625  1  0.637320  0.672500  0.319100  1.0  -0.3015
  N  N626  1  0.681400  0.486300  0.780100  1.0  -0.315
  N  N627  1  0.720700  0.948100  0.773400  1.0  -0.4299
  N  N628  1  0.569560  0.020900  0.554400  1.0  -0.3096
  N  N629  1  0.620660  0.060400  0.646200  1.0  -0.3078
  N  N630  1  0.733250  0.808100  0.812600  1.0  -0.3764
  N  N631  1  0.420710  0.486700  0.441800  1.0  -0.3034
  N  N632  1  0.679780  0.820900  0.752700  1.0  -0.4255
  N  N633  1  0.832270  0.032300  0.891000  1.0  -0.3155
  N  N634  1  0.539750  0.646000  0.415500  1.0  -0.433
  N  N635  1  0.575210  0.778900  0.441900  1.0  -0.4886
  N  N636  1  0.523660  0.728600  0.475500  1.0  -0.4143
  N  N637  1  0.137320  0.172500  0.319100  1.0  -0.3015
  N  N638  1  0.181400  0.986300  0.780100  1.0  -0.315
  N  N639  1  0.220700  0.448100  0.773400  1.0  -0.4299
  N  N640  1  0.069560  0.520900  0.554400  1.0  -0.3096
  N  N641  1  0.120660  0.560400  0.646200  1.0  -0.3078
  N  N642  1  0.233250  0.308100  0.812600  1.0  -0.3764
  N  N643  1  0.920710  0.986700  0.441800  1.0  -0.3034
  N  N644  1  0.179780  0.320900  0.752700  1.0  -0.4255
  N  N645  1  0.332270  0.532300  0.891000  1.0  -0.3155
  N  N646  1  0.039750  0.146000  0.415500  1.0  -0.433
  N  N647  1  0.075210  0.278900  0.441900  1.0  -0.4886
  N  N648  1  0.023660  0.228600  0.475500  1.0  -0.4143
