# generated using pymatgen
data_ZnH8C12(IN2)2
_symmetry_space_group_name_H-M   'P 1'
_cell_length_a   35.25470000
_cell_length_b   14.76280000
_cell_length_c   31.04050000
_cell_angle_alpha   90.00000000
_cell_angle_beta   101.84100000
_cell_angle_gamma   90.00000000
_symmetry_Int_Tables_number   1
_chemical_formula_structural   ZnH8C12(IN2)2
_chemical_formula_sum   'Zn24 H192 C288 I48 N96'
_cell_volume   15811.50783758
_cell_formula_units_Z   24
loop_
 _symmetry_equiv_pos_site_id
 _symmetry_equiv_pos_as_xyz
  1  'x, y, z'
loop_
 _atom_site_type_symbol
 _atom_site_label
 _atom_site_symmetry_multiplicity
 _atom_site_fract_x
 _atom_site_fract_y
 _atom_site_fract_z
 _atom_site_occupancy
 _atom_site_charge
  Zn  Zn1  1  0.580580  0.875410  0.595570  1.0  0.9146
  Zn  Zn2  1  0.873750  0.096530  0.436720  1.0  0.8841
  Zn  Zn3  1  0.672330  0.350970  0.273000  1.0  0.8654
  Zn  Zn4  1  0.080580  0.375410  0.595570  1.0  0.9146
  Zn  Zn5  1  0.373750  0.596530  0.436720  1.0  0.8841
  Zn  Zn6  1  0.172330  0.850970  0.273000  1.0  0.8654
  Zn  Zn7  1  0.580580  0.124590  0.095570  1.0  0.9126
  Zn  Zn8  1  0.873750  0.903470  0.936720  1.0  0.8835
  Zn  Zn9  1  0.672330  0.649030  0.773000  1.0  0.8631
  Zn  Zn10  1  0.080580  0.624590  0.095570  1.0  0.9126
  Zn  Zn11  1  0.373750  0.403470  0.936720  1.0  0.8835
  Zn  Zn12  1  0.172330  0.149030  0.773000  1.0  0.8631
  Zn  Zn13  1  0.419420  0.875410  0.904430  1.0  0.915
  Zn  Zn14  1  0.126250  0.096530  0.063280  1.0  0.8839
  Zn  Zn15  1  0.327670  0.350970  0.227000  1.0  0.8649
  Zn  Zn16  1  0.919420  0.375410  0.904430  1.0  0.915
  Zn  Zn17  1  0.626250  0.596530  0.063280  1.0  0.8839
  Zn  Zn18  1  0.827670  0.850970  0.227000  1.0  0.8649
  Zn  Zn19  1  0.419420  0.124590  0.404430  1.0  0.913
  Zn  Zn20  1  0.126250  0.903470  0.563280  1.0  0.8825
  Zn  Zn21  1  0.327670  0.649030  0.727000  1.0  0.8634
  Zn  Zn22  1  0.919420  0.624590  0.404430  1.0  0.913
  Zn  Zn23  1  0.626250  0.403470  0.563280  1.0  0.8825
  Zn  Zn24  1  0.827670  0.149030  0.727000  1.0  0.8634
  H  H25  1  0.587900  0.946800  0.138100  1.0  0.0803
  H  H26  1  0.698600  0.073700  0.215600  1.0  0.1115
  H  H27  1  0.673900  0.250900  0.359300  1.0  0.0885
  H  H28  1  0.625200  0.862900  0.192900  1.0  0.1228
  H  H29  1  0.659100  0.149500  0.158700  1.0  0.0753
  H  H30  1  0.637100  0.523400  0.235100  1.0  0.0808
  H  H31  1  0.732800  0.484100  0.322200  1.0  0.0776
  H  H32  1  0.427700  0.474000  0.502300  1.0  0.0773
  H  H33  1  0.605300  0.084000  0.479300  1.0  0.1069
  H  H34  1  0.771600  0.057500  0.301300  1.0  0.0961
  H  H35  1  0.557600  0.395400  0.339900  1.0  0.1119
  H  H36  1  0.784900  0.841700  0.380000  1.0  0.1139
  H  H37  1  0.820700  0.127300  0.347900  1.0  0.0799
  H  H38  1  0.509200  0.147800  0.522500  1.0  0.116
  H  H39  1  0.834500  0.918000  0.426300  1.0  0.0813
  H  H40  1  0.646500  0.675600  0.237400  1.0  0.1167
  H  H41  1  0.518700  0.021500  0.566000  1.0  0.0978
  H  H42  1  0.636100  0.224900  0.408200  1.0  0.1106
  H  H43  1  0.744200  0.636400  0.327800  1.0  0.11
  H  H44  1  0.597400  0.414400  0.292200  1.0  0.082
  H  H45  1  0.613300  0.961200  0.524600  1.0  0.079
  H  H46  1  0.478300  0.378500  0.504500  1.0  0.1149
  H  H47  1  0.424400  0.531300  0.379900  1.0  0.0737
  H  H48  1  0.475200  0.434300  0.377900  1.0  0.1155
  H  H49  1  0.087900  0.446800  0.138100  1.0  0.0803
  H  H50  1  0.198600  0.573700  0.215600  1.0  0.1115
  H  H51  1  0.173900  0.750900  0.359300  1.0  0.0885
  H  H52  1  0.125200  0.362900  0.192900  1.0  0.1228
  H  H53  1  0.159100  0.649500  0.158700  1.0  0.0753
  H  H54  1  0.137100  0.023400  0.235100  1.0  0.0808
  H  H55  1  0.232800  0.984100  0.322200  1.0  0.0776
  H  H56  1  0.927700  0.974000  0.502300  1.0  0.0773
  H  H57  1  0.105300  0.584000  0.479300  1.0  0.1069
  H  H58  1  0.271600  0.557500  0.301300  1.0  0.0961
  H  H59  1  0.057600  0.895400  0.339900  1.0  0.1119
  H  H60  1  0.284900  0.341700  0.380000  1.0  0.1139
  H  H61  1  0.320700  0.627300  0.347900  1.0  0.0799
  H  H62  1  0.009200  0.647800  0.522500  1.0  0.116
  H  H63  1  0.334500  0.418000  0.426300  1.0  0.0813
  H  H64  1  0.146500  0.175600  0.237400  1.0  0.1167
  H  H65  1  0.018700  0.521500  0.566000  1.0  0.0978
  H  H66  1  0.136100  0.724900  0.408200  1.0  0.1106
  H  H67  1  0.244200  0.136400  0.327800  1.0  0.11
  H  H68  1  0.097400  0.914400  0.292200  1.0  0.082
  H  H69  1  0.113300  0.461200  0.524600  1.0  0.079
  H  H70  1  0.978300  0.878500  0.504500  1.0  0.1149
  H  H71  1  0.924400  0.031300  0.379900  1.0  0.0731
  H  H72  1  0.975200  0.934300  0.377900  1.0  0.1155
  H  H73  1  0.587900  0.053200  0.638100  1.0  0.0802
  H  H74  1  0.698600  0.926300  0.715600  1.0  0.112
  H  H75  1  0.673900  0.749100  0.859300  1.0  0.0887
  H  H76  1  0.625200  0.137100  0.692900  1.0  0.1224
  H  H77  1  0.659100  0.850500  0.658700  1.0  0.0757
  H  H78  1  0.637100  0.476600  0.735100  1.0  0.0806
  H  H79  1  0.732800  0.515900  0.822200  1.0  0.0776
  H  H80  1  0.427700  0.526000  0.002300  1.0  0.0774
  H  H81  1  0.605300  0.916000  0.979300  1.0  0.1068
  H  H82  1  0.771600  0.942500  0.801300  1.0  0.0962
  H  H83  1  0.557600  0.604600  0.839900  1.0  0.1119
  H  H84  1  0.784900  0.158300  0.880000  1.0  0.1143
  H  H85  1  0.820700  0.872700  0.847900  1.0  0.0807
  H  H86  1  0.509200  0.852200  0.022500  1.0  0.116
  H  H87  1  0.834500  0.082000  0.926300  1.0  0.0813
  H  H88  1  0.646500  0.324400  0.737400  1.0  0.116
  H  H89  1  0.518700  0.978500  0.066000  1.0  0.0976
  H  H90  1  0.636100  0.775100  0.908200  1.0  0.1108
  H  H91  1  0.744200  0.363600  0.827800  1.0  0.1103
  H  H92  1  0.597400  0.585600  0.792200  1.0  0.0818
  H  H93  1  0.613300  0.038800  0.024600  1.0  0.0799
  H  H94  1  0.478300  0.621500  0.004500  1.0  0.1144
  H  H95  1  0.424400  0.468700  0.879900  1.0  0.0737
  H  H96  1  0.475200  0.565700  0.877900  1.0  0.1157
  H  H97  1  0.087900  0.553200  0.638100  1.0  0.0802
  H  H98  1  0.198600  0.426300  0.715600  1.0  0.112
  H  H99  1  0.173900  0.249100  0.859300  1.0  0.0887
  H  H100  1  0.125200  0.637100  0.692900  1.0  0.1224
  H  H101  1  0.159100  0.350500  0.658700  1.0  0.0757
  H  H102  1  0.137100  0.976600  0.735100  1.0  0.0806
  H  H103  1  0.232800  0.015900  0.822200  1.0  0.0776
  H  H104  1  0.927700  0.026000  0.002300  1.0  0.0774
  H  H105  1  0.105300  0.416000  0.979300  1.0  0.1068
  H  H106  1  0.271600  0.442500  0.801300  1.0  0.0962
  H  H107  1  0.057600  0.104600  0.839900  1.0  0.1119
  H  H108  1  0.284900  0.658300  0.880000  1.0  0.1143
  H  H109  1  0.320700  0.372700  0.847900  1.0  0.0807
  H  H110  1  0.009200  0.352200  0.022500  1.0  0.116
  H  H111  1  0.334500  0.582000  0.926300  1.0  0.0813
  H  H112  1  0.146500  0.824400  0.737400  1.0  0.116
  H  H113  1  0.018700  0.478500  0.066000  1.0  0.0976
  H  H114  1  0.136100  0.275100  0.908200  1.0  0.1108
  H  H115  1  0.244200  0.863600  0.827800  1.0  0.1103
  H  H116  1  0.097400  0.085600  0.792200  1.0  0.0818
  H  H117  1  0.113300  0.538800  0.024600  1.0  0.0799
  H  H118  1  0.978300  0.121500  0.004500  1.0  0.1144
  H  H119  1  0.924400  0.968700  0.879900  1.0  0.0731
  H  H120  1  0.975200  0.065700  0.877900  1.0  0.1157
  H  H121  1  0.412100  0.946800  0.361900  1.0  0.0798
  H  H122  1  0.301400  0.073700  0.284400  1.0  0.1137
  H  H123  1  0.326100  0.250900  0.140700  1.0  0.0882
  H  H124  1  0.374800  0.862900  0.307100  1.0  0.1225
  H  H125  1  0.340900  0.149500  0.341300  1.0  0.0753
  H  H126  1  0.362900  0.523400  0.264900  1.0  0.0808
  H  H127  1  0.267200  0.484100  0.177800  1.0  0.0763
  H  H128  1  0.572300  0.474000  0.997700  1.0  0.0774
  H  H129  1  0.394700  0.084000  0.020700  1.0  0.1066
  H  H130  1  0.228400  0.057500  0.198700  1.0  0.095
  H  H131  1  0.442400  0.395400  0.160100  1.0  0.1112
  H  H132  1  0.215100  0.841700  0.120000  1.0  0.1137
  H  H133  1  0.179300  0.127300  0.152100  1.0  0.0803
  H  H134  1  0.490800  0.147800  0.977500  1.0  0.1157
  H  H135  1  0.165500  0.918000  0.073700  1.0  0.0812
  H  H136  1  0.353500  0.675600  0.262600  1.0  0.1167
  H  H137  1  0.481300  0.021500  0.934000  1.0  0.0971
  H  H138  1  0.363900  0.224900  0.091800  1.0  0.1111
  H  H139  1  0.255800  0.636400  0.172200  1.0  0.1101
  H  H140  1  0.402600  0.414400  0.207800  1.0  0.0824
  H  H141  1  0.386700  0.961200  0.975400  1.0  0.0798
  H  H142  1  0.521700  0.378500  0.995500  1.0  0.114
  H  H143  1  0.575600  0.531300  0.120100  1.0  0.074
  H  H144  1  0.524800  0.434300  0.122100  1.0  0.1156
  H  H145  1  0.912100  0.446800  0.361900  1.0  0.0798
  H  H146  1  0.801400  0.573700  0.284400  1.0  0.1137
  H  H147  1  0.826100  0.750900  0.140700  1.0  0.0882
  H  H148  1  0.874800  0.362900  0.307100  1.0  0.1225
  H  H149  1  0.840900  0.649500  0.341300  1.0  0.0753
  H  H150  1  0.862900  0.023400  0.264900  1.0  0.0808
  H  H151  1  0.767200  0.984100  0.177800  1.0  0.0763
  H  H152  1  0.072300  0.974000  0.997700  1.0  0.0774
  H  H153  1  0.894700  0.584000  0.020700  1.0  0.1066
  H  H154  1  0.728400  0.557500  0.198700  1.0  0.095
  H  H155  1  0.942400  0.895400  0.160100  1.0  0.1112
  H  H156  1  0.715100  0.341700  0.120000  1.0  0.1137
  H  H157  1  0.679300  0.627300  0.152100  1.0  0.0803
  H  H158  1  0.990800  0.647800  0.977500  1.0  0.1157
  H  H159  1  0.665500  0.418000  0.073700  1.0  0.0812
  H  H160  1  0.853500  0.175600  0.262600  1.0  0.1167
  H  H161  1  0.981300  0.521500  0.934000  1.0  0.0971
  H  H162  1  0.863900  0.724900  0.091800  1.0  0.1111
  H  H163  1  0.755800  0.136400  0.172200  1.0  0.1101
  H  H164  1  0.902600  0.914400  0.207800  1.0  0.0824
  H  H165  1  0.886700  0.461200  0.975400  1.0  0.0798
  H  H166  1  0.021700  0.878500  0.995500  1.0  0.114
  H  H167  1  0.075600  0.031300  0.120100  1.0  0.0734
  H  H168  1  0.024800  0.934300  0.122100  1.0  0.1156
  H  H169  1  0.412100  0.053200  0.861900  1.0  0.0801
  H  H170  1  0.301400  0.926300  0.784400  1.0  0.1135
  H  H171  1  0.326100  0.749100  0.640700  1.0  0.0875
  H  H172  1  0.374800  0.137100  0.807100  1.0  0.1223
  H  H173  1  0.340900  0.850500  0.841300  1.0  0.076
  H  H174  1  0.362900  0.476600  0.764900  1.0  0.0804
  H  H175  1  0.267200  0.515900  0.677800  1.0  0.0772
  H  H176  1  0.572300  0.526000  0.497700  1.0  0.0777
  H  H177  1  0.394700  0.916000  0.520700  1.0  0.1065
  H  H178  1  0.228400  0.942500  0.698700  1.0  0.0954
  H  H179  1  0.442400  0.604600  0.660100  1.0  0.1112
  H  H180  1  0.215100  0.158300  0.620000  1.0  0.1138
  H  H181  1  0.179300  0.872700  0.652100  1.0  0.0805
  H  H182  1  0.490800  0.852200  0.477500  1.0  0.1155
  H  H183  1  0.165500  0.082000  0.573700  1.0  0.0812
  H  H184  1  0.353500  0.324400  0.762600  1.0  0.1169
  H  H185  1  0.481300  0.978500  0.434000  1.0  0.0969
  H  H186  1  0.363900  0.775100  0.591800  1.0  0.1116
  H  H187  1  0.255800  0.363600  0.672200  1.0  0.11
  H  H188  1  0.402600  0.585600  0.707800  1.0  0.0821
  H  H189  1  0.386700  0.038800  0.475400  1.0  0.0788
  H  H190  1  0.521700  0.621500  0.495500  1.0  0.1138
  H  H191  1  0.575600  0.468700  0.620100  1.0  0.0742
  H  H192  1  0.524800  0.565700  0.622100  1.0  0.1158
  H  H193  1  0.912100  0.553200  0.861900  1.0  0.0801
  H  H194  1  0.801400  0.426300  0.784400  1.0  0.1135
  H  H195  1  0.826100  0.249100  0.640700  1.0  0.0875
  H  H196  1  0.874800  0.637100  0.807100  1.0  0.1223
  H  H197  1  0.840900  0.350500  0.841300  1.0  0.076
  H  H198  1  0.862900  0.976600  0.764900  1.0  0.0804
  H  H199  1  0.767200  0.015900  0.677800  1.0  0.0772
  H  H200  1  0.072300  0.026000  0.497700  1.0  0.0777
  H  H201  1  0.894700  0.416000  0.520700  1.0  0.1065
  H  H202  1  0.728400  0.442500  0.698700  1.0  0.0954
  H  H203  1  0.942400  0.104600  0.660100  1.0  0.1112
  H  H204  1  0.715100  0.658300  0.620000  1.0  0.1138
  H  H205  1  0.679300  0.372700  0.652100  1.0  0.0805
  H  H206  1  0.990800  0.352200  0.477500  1.0  0.1155
  H  H207  1  0.665500  0.582000  0.573700  1.0  0.0812
  H  H208  1  0.853500  0.824400  0.762600  1.0  0.1169
  H  H209  1  0.981300  0.478500  0.434000  1.0  0.0969
  H  H210  1  0.863900  0.275100  0.591800  1.0  0.1116
  H  H211  1  0.755800  0.863600  0.672200  1.0  0.11
  H  H212  1  0.902600  0.085600  0.707800  1.0  0.0821
  H  H213  1  0.886700  0.538800  0.475400  1.0  0.0788
  H  H214  1  0.021700  0.121500  0.495500  1.0  0.1138
  H  H215  1  0.075600  0.968700  0.620100  1.0  0.0737
  H  H216  1  0.024800  0.065700  0.622100  1.0  0.1158
  C  C217  1  0.556700  0.132200  0.496000  1.0  -0.0591
  C  C218  1  0.610600  0.972300  0.153900  1.0  0.1777
  C  C219  1  0.773300  0.941300  0.334600  1.0  -0.0902
  C  C220  1  0.666000  0.958300  0.210400  1.0  -0.0932
  C  C221  1  0.690700  0.905900  0.246500  1.0  0.3691
  C  C222  1  0.551300  0.212100  0.466500  1.0  0.3721
  C  C223  1  0.741200  0.896100  0.303900  1.0  0.3674
  C  C224  1  0.517200  0.336400  0.441900  1.0  0.3831
  C  C225  1  0.676200  0.046400  0.200000  1.0  -0.1383
  C  C226  1  0.704400  0.773500  0.281400  1.0  0.289
  C  C227  1  0.649900  0.279600  0.355300  1.0  0.143
  C  C228  1  0.632700  0.921100  0.186900  1.0  -0.1168
  C  C229  1  0.652100  0.091500  0.165900  1.0  0.1427
  C  C230  1  0.658900  0.546800  0.253900  1.0  0.1412
  C  C231  1  0.591700  0.308000  0.380600  1.0  -0.0911
  C  C232  1  0.566900  0.293000  0.412100  1.0  0.4195
  C  C233  1  0.715200  0.523500  0.305300  1.0  0.1574
  C  C234  1  0.437400  0.466100  0.476900  1.0  0.1473
  C  C235  1  0.696700  0.674800  0.282800  1.0  -0.0872
  C  C236  1  0.587600  0.073100  0.497100  1.0  -0.1111
  C  C237  1  0.483900  0.398200  0.442100  1.0  -0.0195
  C  C238  1  0.784300  0.027400  0.326500  1.0  -0.081
  C  C239  1  0.581100  0.364800  0.344500  1.0  -0.132
  C  C240  1  0.791900  0.899700  0.372900  1.0  -0.1416
  C  C241  1  0.813400  0.069300  0.354600  1.0  0.1454
  C  C242  1  0.530600  0.110900  0.522500  1.0  -0.1446
  C  C243  1  0.821600  0.946300  0.400700  1.0  0.1513
  C  C244  1  0.664400  0.637900  0.255100  1.0  -0.129
  C  C245  1  0.536500  0.035200  0.548600  1.0  0.1436
  C  C246  1  0.627600  0.264400  0.384900  1.0  -0.1344
  C  C247  1  0.722300  0.614600  0.308500  1.0  -0.1094
  C  C248  1  0.605200  0.375700  0.316000  1.0  0.1485
  C  C249  1  0.592200  0.999100  0.524200  1.0  0.127
  C  C250  1  0.468100  0.409500  0.478700  1.0  -0.187
  C  C251  1  0.435300  0.499500  0.405300  1.0  0.1314
  C  C252  1  0.466300  0.442500  0.403900  1.0  -0.1785
  C  C253  1  0.056700  0.632200  0.496000  1.0  -0.0591
  C  C254  1  0.110600  0.472300  0.153900  1.0  0.1777
  C  C255  1  0.273300  0.441300  0.334600  1.0  -0.0902
  C  C256  1  0.166000  0.458300  0.210400  1.0  -0.0932
  C  C257  1  0.190700  0.405900  0.246500  1.0  0.3691
  C  C258  1  0.051300  0.712100  0.466500  1.0  0.3721
  C  C259  1  0.241200  0.396100  0.303900  1.0  0.3674
  C  C260  1  0.017200  0.836400  0.441900  1.0  0.3831
  C  C261  1  0.176200  0.546400  0.200000  1.0  -0.1383
  C  C262  1  0.204400  0.273500  0.281400  1.0  0.289
  C  C263  1  0.149900  0.779600  0.355300  1.0  0.143
  C  C264  1  0.132700  0.421100  0.186900  1.0  -0.1168
  C  C265  1  0.152100  0.591500  0.165900  1.0  0.1427
  C  C266  1  0.158900  0.046800  0.253900  1.0  0.1412
  C  C267  1  0.091700  0.808000  0.380600  1.0  -0.0911
  C  C268  1  0.066900  0.793000  0.412100  1.0  0.4195
  C  C269  1  0.215200  0.023500  0.305300  1.0  0.1574
  C  C270  1  0.937400  0.966100  0.476900  1.0  0.1473
  C  C271  1  0.196700  0.174800  0.282800  1.0  -0.0872
  C  C272  1  0.087600  0.573100  0.497100  1.0  -0.1111
  C  C273  1  0.983900  0.898200  0.442100  1.0  -0.0195
  C  C274  1  0.284300  0.527400  0.326500  1.0  -0.081
  C  C275  1  0.081100  0.864800  0.344500  1.0  -0.132
  C  C276  1  0.291900  0.399700  0.372900  1.0  -0.1416
  C  C277  1  0.313400  0.569300  0.354600  1.0  0.1454
  C  C278  1  0.030600  0.610900  0.522500  1.0  -0.1446
  C  C279  1  0.321600  0.446300  0.400700  1.0  0.1513
  C  C280  1  0.164400  0.137900  0.255100  1.0  -0.129
  C  C281  1  0.036500  0.535200  0.548600  1.0  0.1436
  C  C282  1  0.127600  0.764400  0.384900  1.0  -0.1344
  C  C283  1  0.222300  0.114600  0.308500  1.0  -0.1094
  C  C284  1  0.105200  0.875700  0.316000  1.0  0.1485
  C  C285  1  0.092200  0.499100  0.524200  1.0  0.127
  C  C286  1  0.968100  0.909500  0.478700  1.0  -0.187
  C  C287  1  0.935300  0.999500  0.405300  1.0  0.1314
  C  C288  1  0.966300  0.942500  0.403900  1.0  -0.1785
  C  C289  1  0.556700  0.867800  0.996000  1.0  -0.0589
  C  C290  1  0.610600  0.027700  0.653900  1.0  0.1776
  C  C291  1  0.773300  0.058700  0.834600  1.0  -0.0905
  C  C292  1  0.666000  0.041700  0.710400  1.0  -0.0932
  C  C293  1  0.690700  0.094100  0.746500  1.0  0.3688
  C  C294  1  0.551300  0.787900  0.966500  1.0  0.3718
  C  C295  1  0.741200  0.103900  0.803900  1.0  0.3674
  C  C296  1  0.517200  0.663600  0.941900  1.0  0.383
  C  C297  1  0.676200  0.953600  0.700000  1.0  -0.1377
  C  C298  1  0.704400  0.226500  0.781400  1.0  0.2892
  C  C299  1  0.649900  0.720400  0.855300  1.0  0.1429
  C  C300  1  0.632700  0.078900  0.686900  1.0  -0.1163
  C  C301  1  0.652100  0.908500  0.665900  1.0  0.1417
  C  C302  1  0.658900  0.453200  0.753900  1.0  0.1412
  C  C303  1  0.591700  0.692000  0.880600  1.0  -0.091
  C  C304  1  0.566900  0.707000  0.912100  1.0  0.4198
  C  C305  1  0.715200  0.476500  0.805300  1.0  0.1569
  C  C306  1  0.437400  0.533900  0.976900  1.0  0.1473
  C  C307  1  0.696700  0.325200  0.782800  1.0  -0.0886
  C  C308  1  0.587600  0.926900  0.997100  1.0  -0.1103
  C  C309  1  0.483900  0.601800  0.942100  1.0  -0.0198
  C  C310  1  0.784300  0.972600  0.826500  1.0  -0.0805
  C  C311  1  0.581100  0.635200  0.844500  1.0  -0.1319
  C  C312  1  0.791900  0.100300  0.872900  1.0  -0.1448
  C  C313  1  0.813400  0.930700  0.854600  1.0  0.1441
  C  C314  1  0.530600  0.889100  0.022500  1.0  -0.1429
  C  C315  1  0.821600  0.053700  0.900700  1.0  0.1506
  C  C316  1  0.664400  0.362100  0.755100  1.0  -0.1276
  C  C317  1  0.536500  0.964800  0.048600  1.0  0.143
  C  C318  1  0.627600  0.735600  0.884900  1.0  -0.1353
  C  C319  1  0.722300  0.385400  0.808500  1.0  -0.1097
  C  C320  1  0.605200  0.624300  0.816000  1.0  0.1488
  C  C321  1  0.592200  0.000900  0.024200  1.0  0.1284
  C  C322  1  0.468100  0.590500  0.978700  1.0  -0.1881
  C  C323  1  0.435300  0.500500  0.905300  1.0  0.1307
  C  C324  1  0.466300  0.557500  0.903900  1.0  -0.1782
  C  C325  1  0.056700  0.367800  0.996000  1.0  -0.0589
  C  C326  1  0.110600  0.527700  0.653900  1.0  0.1776
  C  C327  1  0.273300  0.558700  0.834600  1.0  -0.0905
  C  C328  1  0.166000  0.541700  0.710400  1.0  -0.0932
  C  C329  1  0.190700  0.594100  0.746500  1.0  0.3688
  C  C330  1  0.051300  0.287900  0.966500  1.0  0.3718
  C  C331  1  0.241200  0.603900  0.803900  1.0  0.3674
  C  C332  1  0.017200  0.163600  0.941900  1.0  0.383
  C  C333  1  0.176200  0.453600  0.700000  1.0  -0.1377
  C  C334  1  0.204400  0.726500  0.781400  1.0  0.2892
  C  C335  1  0.149900  0.220400  0.855300  1.0  0.1429
  C  C336  1  0.132700  0.578900  0.686900  1.0  -0.1163
  C  C337  1  0.152100  0.408500  0.665900  1.0  0.1417
  C  C338  1  0.158900  0.953200  0.753900  1.0  0.1412
  C  C339  1  0.091700  0.192000  0.880600  1.0  -0.091
  C  C340  1  0.066900  0.207000  0.912100  1.0  0.4198
  C  C341  1  0.215200  0.976500  0.805300  1.0  0.1569
  C  C342  1  0.937400  0.033900  0.976900  1.0  0.1473
  C  C343  1  0.196700  0.825200  0.782800  1.0  -0.0886
  C  C344  1  0.087600  0.426900  0.997100  1.0  -0.1103
  C  C345  1  0.983900  0.101800  0.942100  1.0  -0.0198
  C  C346  1  0.284300  0.472600  0.826500  1.0  -0.0805
  C  C347  1  0.081100  0.135200  0.844500  1.0  -0.1319
  C  C348  1  0.291900  0.600300  0.872900  1.0  -0.1448
  C  C349  1  0.313400  0.430700  0.854600  1.0  0.1441
  C  C350  1  0.030600  0.389100  0.022500  1.0  -0.1429
  C  C351  1  0.321600  0.553700  0.900700  1.0  0.1506
  C  C352  1  0.164400  0.862100  0.755100  1.0  -0.1276
  C  C353  1  0.036500  0.464800  0.048600  1.0  0.143
  C  C354  1  0.127600  0.235600  0.884900  1.0  -0.1353
  C  C355  1  0.222300  0.885400  0.808500  1.0  -0.1097
  C  C356  1  0.105200  0.124300  0.816000  1.0  0.1488
  C  C357  1  0.092200  0.500900  0.024200  1.0  0.1284
  C  C358  1  0.968100  0.090500  0.978700  1.0  -0.1881
  C  C359  1  0.935300  0.000500  0.905300  1.0  0.1307
  C  C360  1  0.966300  0.057500  0.903900  1.0  -0.1782
  C  C361  1  0.443300  0.132200  0.004000  1.0  -0.0586
  C  C362  1  0.389400  0.972300  0.346100  1.0  0.1782
  C  C363  1  0.226700  0.941300  0.165400  1.0  -0.0889
  C  C364  1  0.334000  0.958300  0.289600  1.0  -0.0926
  C  C365  1  0.309300  0.905900  0.253500  1.0  0.369
  C  C366  1  0.448700  0.212100  0.033500  1.0  0.3717
  C  C367  1  0.258800  0.896100  0.196100  1.0  0.3668
  C  C368  1  0.482800  0.336400  0.058100  1.0  0.3836
  C  C369  1  0.323800  0.046400  0.300000  1.0  -0.1395
  C  C370  1  0.295600  0.773500  0.218600  1.0  0.2888
  C  C371  1  0.350100  0.279600  0.144700  1.0  0.1443
  C  C372  1  0.367300  0.921100  0.313100  1.0  -0.1174
  C  C373  1  0.347900  0.091500  0.334100  1.0  0.1424
  C  C374  1  0.341100  0.546800  0.246100  1.0  0.1423
  C  C375  1  0.408300  0.308000  0.119400  1.0  -0.0904
  C  C376  1  0.433100  0.293000  0.087900  1.0  0.4192
  C  C377  1  0.284800  0.523500  0.194700  1.0  0.1568
  C  C378  1  0.562600  0.466100  0.023100  1.0  0.1486
  C  C379  1  0.303300  0.674800  0.217200  1.0  -0.0862
  C  C380  1  0.412400  0.073100  0.002900  1.0  -0.1107
  C  C381  1  0.516100  0.398200  0.057900  1.0  -0.0185
  C  C382  1  0.215700  0.027400  0.173500  1.0  -0.081
  C  C383  1  0.418900  0.364800  0.155500  1.0  -0.132
  C  C384  1  0.208100  0.899700  0.127100  1.0  -0.1425
  C  C385  1  0.186600  0.069300  0.145400  1.0  0.144
  C  C386  1  0.469400  0.110900  0.977500  1.0  -0.1439
  C  C387  1  0.178400  0.946300  0.099300  1.0  0.1497
  C  C388  1  0.335600  0.637900  0.244900  1.0  -0.1264
  C  C389  1  0.463500  0.035200  0.951400  1.0  0.144
  C  C390  1  0.372400  0.264400  0.115100  1.0  -0.1331
  C  C391  1  0.277700  0.614600  0.191500  1.0  -0.1081
  C  C392  1  0.394800  0.375700  0.184000  1.0  0.149
  C  C393  1  0.407800  0.999100  0.975800  1.0  0.1287
  C  C394  1  0.531900  0.409500  0.021300  1.0  -0.1887
  C  C395  1  0.564700  0.499500  0.094700  1.0  0.131
  C  C396  1  0.533700  0.442500  0.096100  1.0  -0.1794
  C  C397  1  0.943300  0.632200  0.004000  1.0  -0.0586
  C  C398  1  0.889400  0.472300  0.346100  1.0  0.1782
  C  C399  1  0.726700  0.441300  0.165400  1.0  -0.0889
  C  C400  1  0.834000  0.458300  0.289600  1.0  -0.0926
  C  C401  1  0.809300  0.405900  0.253500  1.0  0.369
  C  C402  1  0.948700  0.712100  0.033500  1.0  0.3717
  C  C403  1  0.758800  0.396100  0.196100  1.0  0.3668
  C  C404  1  0.982800  0.836400  0.058100  1.0  0.3836
  C  C405  1  0.823800  0.546400  0.300000  1.0  -0.1395
  C  C406  1  0.795600  0.273500  0.218600  1.0  0.2888
  C  C407  1  0.850100  0.779600  0.144700  1.0  0.1443
  C  C408  1  0.867300  0.421100  0.313100  1.0  -0.1174
  C  C409  1  0.847900  0.591500  0.334100  1.0  0.1424
  C  C410  1  0.841100  0.046800  0.246100  1.0  0.1423
  C  C411  1  0.908300  0.808000  0.119400  1.0  -0.0904
  C  C412  1  0.933100  0.793000  0.087900  1.0  0.4192
  C  C413  1  0.784800  0.023500  0.194700  1.0  0.1568
  C  C414  1  0.062600  0.966100  0.023100  1.0  0.1486
  C  C415  1  0.803300  0.174800  0.217200  1.0  -0.0862
  C  C416  1  0.912400  0.573100  0.002900  1.0  -0.1107
  C  C417  1  0.016100  0.898200  0.057900  1.0  -0.0185
  C  C418  1  0.715700  0.527400  0.173500  1.0  -0.081
  C  C419  1  0.918900  0.864800  0.155500  1.0  -0.132
  C  C420  1  0.708100  0.399700  0.127100  1.0  -0.1425
  C  C421  1  0.686600  0.569300  0.145400  1.0  0.144
  C  C422  1  0.969400  0.610900  0.977500  1.0  -0.1439
  C  C423  1  0.678400  0.446300  0.099300  1.0  0.1497
  C  C424  1  0.835600  0.137900  0.244900  1.0  -0.1264
  C  C425  1  0.963500  0.535200  0.951400  1.0  0.144
  C  C426  1  0.872400  0.764400  0.115100  1.0  -0.1331
  C  C427  1  0.777700  0.114600  0.191500  1.0  -0.1081
  C  C428  1  0.894800  0.875700  0.184000  1.0  0.149
  C  C429  1  0.907800  0.499100  0.975800  1.0  0.1287
  C  C430  1  0.031900  0.909500  0.021300  1.0  -0.1887
  C  C431  1  0.064700  0.999500  0.094700  1.0  0.131
  C  C432  1  0.033700  0.942500  0.096100  1.0  -0.1794
  C  C433  1  0.443300  0.867800  0.504000  1.0  -0.0584
  C  C434  1  0.389400  0.027700  0.846100  1.0  0.1779
  C  C435  1  0.226700  0.058700  0.665400  1.0  -0.0891
  C  C436  1  0.334000  0.041700  0.789600  1.0  -0.0925
  C  C437  1  0.309300  0.094100  0.753500  1.0  0.3687
  C  C438  1  0.448700  0.787900  0.533500  1.0  0.3715
  C  C439  1  0.258800  0.103900  0.696100  1.0  0.3669
  C  C440  1  0.482800  0.663600  0.558100  1.0  0.3835
  C  C441  1  0.323800  0.953600  0.800000  1.0  -0.1392
  C  C442  1  0.295600  0.226500  0.718600  1.0  0.289
  C  C443  1  0.350100  0.720400  0.644700  1.0  0.1441
  C  C444  1  0.367300  0.078900  0.813100  1.0  -0.118
  C  C445  1  0.347900  0.908500  0.834100  1.0  0.1421
  C  C446  1  0.341100  0.453200  0.746100  1.0  0.142
  C  C447  1  0.408300  0.692000  0.619400  1.0  -0.0904
  C  C448  1  0.433100  0.707000  0.587900  1.0  0.4195
  C  C449  1  0.284800  0.476500  0.694700  1.0  0.1578
  C  C450  1  0.562600  0.533900  0.523100  1.0  0.1483
  C  C451  1  0.303300  0.325200  0.717200  1.0  -0.0881
  C  C452  1  0.412400  0.926900  0.502900  1.0  -0.111
  C  C453  1  0.516100  0.601800  0.557900  1.0  -0.0188
  C  C454  1  0.215700  0.972600  0.673500  1.0  -0.0796
  C  C455  1  0.418900  0.635200  0.655500  1.0  -0.1321
  C  C456  1  0.208100  0.100300  0.627100  1.0  -0.145
  C  C457  1  0.186600  0.930700  0.645400  1.0  0.1436
  C  C458  1  0.469400  0.889100  0.477500  1.0  -0.1437
  C  C459  1  0.178400  0.053700  0.599300  1.0  0.1496
  C  C460  1  0.335600  0.362100  0.744900  1.0  -0.1263
  C  C461  1  0.463500  0.964800  0.451400  1.0  0.144
  C  C462  1  0.372400  0.735600  0.615100  1.0  -0.1344
  C  C463  1  0.277700  0.385400  0.691500  1.0  -0.1078
  C  C464  1  0.394800  0.624300  0.684000  1.0  0.1494
  C  C465  1  0.407800  0.000900  0.475800  1.0  0.1283
  C  C466  1  0.531900  0.590500  0.521300  1.0  -0.1901
  C  C467  1  0.564700  0.500500  0.594700  1.0  0.1321
  C  C468  1  0.533700  0.557500  0.596100  1.0  -0.1786
  C  C469  1  0.943300  0.367800  0.504000  1.0  -0.0584
  C  C470  1  0.889400  0.527700  0.846100  1.0  0.1779
  C  C471  1  0.726700  0.558700  0.665400  1.0  -0.0891
  C  C472  1  0.834000  0.541700  0.789600  1.0  -0.0925
  C  C473  1  0.809300  0.594100  0.753500  1.0  0.3687
  C  C474  1  0.948700  0.287900  0.533500  1.0  0.3715
  C  C475  1  0.758800  0.603900  0.696100  1.0  0.3669
  C  C476  1  0.982800  0.163600  0.558100  1.0  0.3835
  C  C477  1  0.823800  0.453600  0.800000  1.0  -0.1392
  C  C478  1  0.795600  0.726500  0.718600  1.0  0.289
  C  C479  1  0.850100  0.220400  0.644700  1.0  0.1441
  C  C480  1  0.867300  0.578900  0.813100  1.0  -0.118
  C  C481  1  0.847900  0.408500  0.834100  1.0  0.1421
  C  C482  1  0.841100  0.953200  0.746100  1.0  0.142
  C  C483  1  0.908300  0.192000  0.619400  1.0  -0.0904
  C  C484  1  0.933100  0.207000  0.587900  1.0  0.4195
  C  C485  1  0.784800  0.976500  0.694700  1.0  0.1578
  C  C486  1  0.062600  0.033900  0.523100  1.0  0.1483
  C  C487  1  0.803300  0.825200  0.717200  1.0  -0.0881
  C  C488  1  0.912400  0.426900  0.502900  1.0  -0.111
  C  C489  1  0.016100  0.101800  0.557900  1.0  -0.0188
  C  C490  1  0.715700  0.472600  0.673500  1.0  -0.0796
  C  C491  1  0.918900  0.135200  0.655500  1.0  -0.1321
  C  C492  1  0.708100  0.600300  0.627100  1.0  -0.145
  C  C493  1  0.686600  0.430700  0.645400  1.0  0.1436
  C  C494  1  0.969400  0.389100  0.477500  1.0  -0.1437
  C  C495  1  0.678400  0.553700  0.599300  1.0  0.1496
  C  C496  1  0.835600  0.862100  0.744900  1.0  -0.1263
  C  C497  1  0.963500  0.464800  0.451400  1.0  0.144
  C  C498  1  0.872400  0.235600  0.615100  1.0  -0.1344
  C  C499  1  0.777700  0.885400  0.691500  1.0  -0.1078
  C  C500  1  0.894800  0.124300  0.684000  1.0  0.1494
  C  C501  1  0.907800  0.500900  0.475800  1.0  0.1283
  C  C502  1  0.031900  0.090500  0.521300  1.0  -0.1901
  C  C503  1  0.064700  0.000500  0.594700  1.0  0.1321
  C  C504  1  0.033700  0.057500  0.596100  1.0  -0.1786
  I  I505  1  0.523560  0.850470  0.632710  1.0  -0.365
  I  I506  1  0.734160  0.260220  0.296700  1.0  -0.426
  I  I507  1  0.616280  0.757810  0.560480  1.0  -0.4448
  I  I508  1  0.628720  0.330500  0.197430  1.0  -0.4641
  I  I509  1  0.889800  0.241630  0.400660  1.0  -0.4353
  I  I510  1  0.852670  0.091150  0.510250  1.0  -0.325
  I  I511  1  0.023560  0.350470  0.632710  1.0  -0.365
  I  I512  1  0.234160  0.760220  0.296700  1.0  -0.426
  I  I513  1  0.116280  0.257810  0.560480  1.0  -0.4448
  I  I514  1  0.128720  0.830500  0.197430  1.0  -0.4641
  I  I515  1  0.389800  0.741630  0.400660  1.0  -0.4319
  I  I516  1  0.352670  0.591150  0.510250  1.0  -0.325
  I  I517  1  0.523560  0.149530  0.132710  1.0  -0.3652
  I  I518  1  0.734160  0.739780  0.796700  1.0  -0.4257
  I  I519  1  0.616280  0.242190  0.060480  1.0  -0.4448
  I  I520  1  0.628720  0.669500  0.697430  1.0  -0.4638
  I  I521  1  0.889800  0.758370  0.900660  1.0  -0.4355
  I  I522  1  0.852670  0.908850  0.010250  1.0  -0.3249
  I  I523  1  0.023560  0.649530  0.132710  1.0  -0.3652
  I  I524  1  0.234160  0.239780  0.796700  1.0  -0.4257
  I  I525  1  0.116280  0.742190  0.060480  1.0  -0.4448
  I  I526  1  0.128720  0.169500  0.697430  1.0  -0.4638
  I  I527  1  0.389800  0.258370  0.900660  1.0  -0.4321
  I  I528  1  0.352670  0.408850  0.010250  1.0  -0.3249
  I  I529  1  0.476440  0.850470  0.867290  1.0  -0.3641
  I  I530  1  0.265840  0.260220  0.203300  1.0  -0.4257
  I  I531  1  0.383720  0.757810  0.939520  1.0  -0.4464
  I  I532  1  0.371280  0.330500  0.302570  1.0  -0.4642
  I  I533  1  0.110200  0.241630  0.099340  1.0  -0.4332
  I  I534  1  0.147330  0.091150  0.989750  1.0  -0.326
  I  I535  1  0.976440  0.350470  0.867290  1.0  -0.3641
  I  I536  1  0.765840  0.760220  0.203300  1.0  -0.4257
  I  I537  1  0.883720  0.257810  0.939520  1.0  -0.4464
  I  I538  1  0.871280  0.830500  0.302570  1.0  -0.4642
  I  I539  1  0.610200  0.741630  0.099340  1.0  -0.4312
  I  I540  1  0.647330  0.591150  0.989750  1.0  -0.326
  I  I541  1  0.476440  0.149530  0.367290  1.0  -0.3644
  I  I542  1  0.265840  0.739780  0.703300  1.0  -0.4255
  I  I543  1  0.383720  0.242190  0.439520  1.0  -0.4463
  I  I544  1  0.371280  0.669500  0.802570  1.0  -0.4636
  I  I545  1  0.110200  0.758370  0.599340  1.0  -0.4335
  I  I546  1  0.147330  0.908850  0.489750  1.0  -0.3256
  I  I547  1  0.976440  0.649530  0.367290  1.0  -0.3644
  I  I548  1  0.765840  0.239780  0.703300  1.0  -0.4255
  I  I549  1  0.883720  0.742190  0.439520  1.0  -0.4463
  I  I550  1  0.871280  0.169500  0.802570  1.0  -0.4636
  I  I551  1  0.610200  0.258370  0.599340  1.0  -0.4314
  I  I552  1  0.647330  0.408850  0.489750  1.0  -0.3256
  N  N553  1  0.683800  0.488900  0.278700  1.0  -0.3269
  N  N554  1  0.832100  0.030000  0.392000  1.0  -0.3191
  N  N555  1  0.720700  0.946800  0.271600  1.0  -0.4485
  N  N556  1  0.680700  0.819600  0.250500  1.0  -0.4454
  N  N557  1  0.619500  0.055800  0.143000  1.0  -0.3207
  N  N558  1  0.639500  0.334200  0.320100  1.0  -0.348
  N  N559  1  0.567400  0.979700  0.550100  1.0  -0.3085
  N  N560  1  0.522300  0.270500  0.471500  1.0  -0.4084
  N  N561  1  0.734200  0.808400  0.310400  1.0  -0.365
  N  N562  1  0.420400  0.511100  0.440600  1.0  -0.3015
  N  N563  1  0.538100  0.352500  0.411900  1.0  -0.4314
  N  N564  1  0.574200  0.220600  0.438500  1.0  -0.4055
  N  N565  1  0.183800  0.988900  0.278700  1.0  -0.3269
  N  N566  1  0.332100  0.530000  0.392000  1.0  -0.3191
  N  N567  1  0.220700  0.446800  0.271600  1.0  -0.4485
  N  N568  1  0.180700  0.319600  0.250500  1.0  -0.4454
  N  N569  1  0.119500  0.555800  0.143000  1.0  -0.3207
  N  N570  1  0.139500  0.834200  0.320100  1.0  -0.348
  N  N571  1  0.067400  0.479700  0.550100  1.0  -0.3085
  N  N572  1  0.022300  0.770500  0.471500  1.0  -0.4084
  N  N573  1  0.234200  0.308400  0.310400  1.0  -0.365
  N  N574  1  0.920400  0.011100  0.440600  1.0  -0.3015
  N  N575  1  0.038100  0.852500  0.411900  1.0  -0.4314
  N  N576  1  0.074200  0.720600  0.438500  1.0  -0.4055
  N  N577  1  0.683800  0.511100  0.778700  1.0  -0.3273
  N  N578  1  0.832100  0.970000  0.892000  1.0  -0.3183
  N  N579  1  0.720700  0.053200  0.771600  1.0  -0.449
  N  N580  1  0.680700  0.180400  0.750500  1.0  -0.4451
  N  N581  1  0.619500  0.944200  0.643000  1.0  -0.3224
  N  N582  1  0.639500  0.665800  0.820100  1.0  -0.3482
  N  N583  1  0.567400  0.020300  0.050100  1.0  -0.3107
  N  N584  1  0.522300  0.729500  0.971500  1.0  -0.4085
  N  N585  1  0.734200  0.191600  0.810400  1.0  -0.3656
  N  N586  1  0.420400  0.488900  0.940600  1.0  -0.3019
  N  N587  1  0.538100  0.647500  0.911900  1.0  -0.4308
  N  N588  1  0.574200  0.779400  0.938500  1.0  -0.4058
  N  N589  1  0.183800  0.011100  0.778700  1.0  -0.3273
  N  N590  1  0.332100  0.470000  0.892000  1.0  -0.3183
  N  N591  1  0.220700  0.553200  0.771600  1.0  -0.449
  N  N592  1  0.180700  0.680400  0.750500  1.0  -0.4451
  N  N593  1  0.119500  0.444200  0.643000  1.0  -0.3224
  N  N594  1  0.139500  0.165800  0.820100  1.0  -0.3482
  N  N595  1  0.067400  0.520300  0.050100  1.0  -0.3107
  N  N596  1  0.022300  0.229500  0.971500  1.0  -0.4085
  N  N597  1  0.234200  0.691600  0.810400  1.0  -0.3656
  N  N598  1  0.920400  0.988900  0.940600  1.0  -0.3019
  N  N599  1  0.038100  0.147500  0.911900  1.0  -0.4308
  N  N600  1  0.074200  0.279400  0.938500  1.0  -0.4058
  N  N601  1  0.316200  0.488900  0.221300  1.0  -0.3258
  N  N602  1  0.167900  0.030000  0.108000  1.0  -0.3208
  N  N603  1  0.279300  0.946800  0.228400  1.0  -0.4486
  N  N604  1  0.319300  0.819600  0.249500  1.0  -0.4475
  N  N605  1  0.380500  0.055800  0.357000  1.0  -0.3248
  N  N606  1  0.360500  0.334200  0.179900  1.0  -0.3498
  N  N607  1  0.432600  0.979700  0.949900  1.0  -0.3094
  N  N608  1  0.477700  0.270500  0.028500  1.0  -0.4073
  N  N609  1  0.265800  0.808400  0.189600  1.0  -0.371
  N  N610  1  0.579600  0.511100  0.059400  1.0  -0.2999
  N  N611  1  0.461900  0.352500  0.088100  1.0  -0.4317
  N  N612  1  0.425800  0.220600  0.061500  1.0  -0.4062
  N  N613  1  0.816200  0.988900  0.221300  1.0  -0.3258
  N  N614  1  0.667900  0.530000  0.108000  1.0  -0.3208
  N  N615  1  0.779300  0.446800  0.228400  1.0  -0.4486
  N  N616  1  0.819300  0.319600  0.249500  1.0  -0.4475
  N  N617  1  0.880500  0.555800  0.357000  1.0  -0.3248
  N  N618  1  0.860500  0.834200  0.179900  1.0  -0.3498
  N  N619  1  0.932600  0.479700  0.949900  1.0  -0.3094
  N  N620  1  0.977700  0.770500  0.028500  1.0  -0.4073
  N  N621  1  0.765800  0.308400  0.189600  1.0  -0.371
  N  N622  1  0.079600  0.011100  0.059400  1.0  -0.2999
  N  N623  1  0.961900  0.852500  0.088100  1.0  -0.4317
  N  N624  1  0.925800  0.720600  0.061500  1.0  -0.4062
  N  N625  1  0.316200  0.511100  0.721300  1.0  -0.3286
  N  N626  1  0.167900  0.970000  0.608000  1.0  -0.3213
  N  N627  1  0.279300  0.053200  0.728400  1.0  -0.4491
  N  N628  1  0.319300  0.180400  0.749500  1.0  -0.4473
  N  N629  1  0.380500  0.944200  0.857000  1.0  -0.3231
  N  N630  1  0.360500  0.665800  0.679900  1.0  -0.3496
  N  N631  1  0.432600  0.020300  0.449900  1.0  -0.3101
  N  N632  1  0.477700  0.729500  0.528500  1.0  -0.4074
  N  N633  1  0.265800  0.191600  0.689600  1.0  -0.37
  N  N634  1  0.579600  0.488900  0.559400  1.0  -0.2984
  N  N635  1  0.461900  0.647500  0.588100  1.0  -0.4303
  N  N636  1  0.425800  0.779400  0.561500  1.0  -0.4064
  N  N637  1  0.816200  0.011100  0.721300  1.0  -0.3286
  N  N638  1  0.667900  0.470000  0.608000  1.0  -0.3213
  N  N639  1  0.779300  0.553200  0.728400  1.0  -0.4491
  N  N640  1  0.819300  0.680400  0.749500  1.0  -0.4473
  N  N641  1  0.880500  0.444200  0.857000  1.0  -0.3231
  N  N642  1  0.860500  0.165800  0.679900  1.0  -0.3496
  N  N643  1  0.932600  0.520300  0.449900  1.0  -0.3101
  N  N644  1  0.977700  0.229500  0.528500  1.0  -0.4074
  N  N645  1  0.765800  0.691600  0.689600  1.0  -0.37
  N  N646  1  0.079600  0.988900  0.559400  1.0  -0.2984
  N  N647  1  0.961900  0.147500  0.588100  1.0  -0.4303
  N  N648  1  0.925800  0.279400  0.561500  1.0  -0.4064
