# generated using pymatgen
data_ZnH8C12(IN2)2
_symmetry_space_group_name_H-M   'P 1'
_cell_length_a   35.28390000
_cell_length_b   15.15920000
_cell_length_c   30.69040000
_cell_angle_alpha   90.00000000
_cell_angle_beta   102.22200000
_cell_angle_gamma   90.00000000
_symmetry_Int_Tables_number   1
_chemical_formula_structural   ZnH8C12(IN2)2
_chemical_formula_sum   'Zn24 H192 C288 I48 N96'
_cell_volume   16043.48540363
_cell_formula_units_Z   24
loop_
 _symmetry_equiv_pos_site_id
 _symmetry_equiv_pos_as_xyz
  1  'x, y, z'
loop_
 _atom_site_type_symbol
 _atom_site_label
 _atom_site_symmetry_multiplicity
 _atom_site_fract_x
 _atom_site_fract_y
 _atom_site_fract_z
 _atom_site_occupancy
 _atom_site_charge
  Zn  Zn1  1  0.077910  0.380280  0.096080  1.0  0.8404
  Zn  Zn2  1  0.679820  0.640560  0.283140  1.0  0.8491
  Zn  Zn3  1  0.375680  0.410140  0.436970  1.0  0.869
  Zn  Zn4  1  0.577910  0.880280  0.096080  1.0  0.8404
  Zn  Zn5  1  0.179820  0.140560  0.283140  1.0  0.8491
  Zn  Zn6  1  0.875680  0.910140  0.436970  1.0  0.869
  Zn  Zn7  1  0.077910  0.619720  0.596080  1.0  0.8402
  Zn  Zn8  1  0.679820  0.359440  0.783140  1.0  0.8487
  Zn  Zn9  1  0.375680  0.589860  0.936970  1.0  0.8676
  Zn  Zn10  1  0.577910  0.119720  0.596080  1.0  0.8402
  Zn  Zn11  1  0.179820  0.859440  0.783140  1.0  0.8487
  Zn  Zn12  1  0.875680  0.089860  0.936970  1.0  0.8676
  Zn  Zn13  1  0.922090  0.380280  0.403920  1.0  0.8412
  Zn  Zn14  1  0.320180  0.640560  0.216860  1.0  0.8495
  Zn  Zn15  1  0.624320  0.410140  0.063030  1.0  0.8687
  Zn  Zn16  1  0.422090  0.880280  0.403920  1.0  0.8412
  Zn  Zn17  1  0.820180  0.140560  0.216860  1.0  0.8495
  Zn  Zn18  1  0.124320  0.910140  0.063030  1.0  0.8687
  Zn  Zn19  1  0.922090  0.619720  0.903920  1.0  0.8406
  Zn  Zn20  1  0.320180  0.359440  0.716860  1.0  0.8485
  Zn  Zn21  1  0.624320  0.589860  0.563030  1.0  0.8685
  Zn  Zn22  1  0.422090  0.119720  0.903920  1.0  0.8406
  Zn  Zn23  1  0.820180  0.859440  0.716860  1.0  0.8485
  Zn  Zn24  1  0.124320  0.089860  0.563030  1.0  0.8685
  H  H25  1  0.240000  0.005700  0.323600  1.0  0.0729
  H  H26  1  0.251400  0.857600  0.322800  1.0  0.1124
  H  H27  1  0.141500  0.978300  0.240900  1.0  0.0785
  H  H28  1  0.517000  0.976600  0.568300  1.0  0.0904
  H  H29  1  0.192700  0.429800  0.220500  1.0  0.1111
  H  H30  1  0.313500  0.369300  0.354000  1.0  0.0759
  H  H31  1  0.506900  0.853800  0.523500  1.0  0.1166
  H  H32  1  0.296100  0.665200  0.370700  1.0  0.1195
  H  H33  1  0.153100  0.355800  0.164000  1.0  0.0782
  H  H34  1  0.679700  0.736300  0.369600  1.0  0.0894
  H  H35  1  0.429900  0.526300  0.503600  1.0  0.0791
  H  H36  1  0.638100  0.769100  0.415900  1.0  0.1152
  H  H37  1  0.091000  0.565000  0.129500  1.0  0.0797
  H  H38  1  0.606000  0.045800  0.519900  1.0  0.0781
  H  H39  1  0.558500  0.611500  0.340200  1.0  0.118
  H  H40  1  0.343800  0.587000  0.418200  1.0  0.0789
  H  H41  1  0.602000  0.586000  0.295500  1.0  0.085
  H  H42  1  0.599700  0.922300  0.475300  1.0  0.113
  H  H43  1  0.149900  0.828700  0.237200  1.0  0.1214
  H  H44  1  0.264100  0.438500  0.305600  1.0  0.1109
  H  H45  1  0.129400  0.645900  0.184000  1.0  0.1177
  H  H46  1  0.480600  0.622500  0.505900  1.0  0.1266
  H  H47  1  0.419700  0.491900  0.375400  1.0  0.0866
  H  H48  1  0.471400  0.582500  0.374900  1.0  0.122
  H  H49  1  0.740000  0.505700  0.323600  1.0  0.0729
  H  H50  1  0.751400  0.357600  0.322800  1.0  0.1124
  H  H51  1  0.641500  0.478300  0.240900  1.0  0.0785
  H  H52  1  0.017000  0.476600  0.568300  1.0  0.0904
  H  H53  1  0.692700  0.929800  0.220500  1.0  0.1111
  H  H54  1  0.813500  0.869300  0.354000  1.0  0.0759
  H  H55  1  0.006900  0.353800  0.523500  1.0  0.1166
  H  H56  1  0.796100  0.165200  0.370700  1.0  0.1195
  H  H57  1  0.653100  0.855800  0.164000  1.0  0.0782
  H  H58  1  0.179700  0.236300  0.369600  1.0  0.0894
  H  H59  1  0.929900  0.026300  0.503600  1.0  0.0791
  H  H60  1  0.138100  0.269100  0.415900  1.0  0.1152
  H  H61  1  0.591000  0.065000  0.129500  1.0  0.0797
  H  H62  1  0.106000  0.545800  0.519900  1.0  0.0781
  H  H63  1  0.058500  0.111500  0.340200  1.0  0.118
  H  H64  1  0.843800  0.087000  0.418200  1.0  0.0789
  H  H65  1  0.102000  0.086000  0.295500  1.0  0.085
  H  H66  1  0.099700  0.422300  0.475300  1.0  0.113
  H  H67  1  0.649900  0.328700  0.237200  1.0  0.1214
  H  H68  1  0.764100  0.938500  0.305600  1.0  0.1109
  H  H69  1  0.629400  0.145900  0.184000  1.0  0.1177
  H  H70  1  0.980600  0.122500  0.505900  1.0  0.1266
  H  H71  1  0.919700  0.991900  0.375400  1.0  0.0866
  H  H72  1  0.971400  0.082500  0.374900  1.0  0.122
  H  H73  1  0.240000  0.994300  0.823600  1.0  0.0732
  H  H74  1  0.251400  0.142400  0.822800  1.0  0.1123
  H  H75  1  0.141500  0.021700  0.740900  1.0  0.0786
  H  H76  1  0.517000  0.023400  0.068300  1.0  0.0903
  H  H77  1  0.192700  0.570200  0.720500  1.0  0.1108
  H  H78  1  0.313500  0.630700  0.854000  1.0  0.0748
  H  H79  1  0.506900  0.146200  0.023500  1.0  0.1166
  H  H80  1  0.296100  0.334800  0.870700  1.0  0.1189
  H  H81  1  0.153100  0.644200  0.664000  1.0  0.077
  H  H82  1  0.679700  0.263700  0.869600  1.0  0.0895
  H  H83  1  0.429900  0.473700  0.003600  1.0  0.0795
  H  H84  1  0.638100  0.230900  0.915900  1.0  0.115
  H  H85  1  0.091000  0.435000  0.629500  1.0  0.0797
  H  H86  1  0.606000  0.954200  0.019900  1.0  0.078
  H  H87  1  0.558500  0.388500  0.840200  1.0  0.1181
  H  H88  1  0.343800  0.413000  0.918200  1.0  0.0789
  H  H89  1  0.602000  0.414000  0.795500  1.0  0.0855
  H  H90  1  0.599700  0.077700  0.975300  1.0  0.113
  H  H91  1  0.149900  0.171300  0.737200  1.0  0.1216
  H  H92  1  0.264100  0.561500  0.805600  1.0  0.111
  H  H93  1  0.129400  0.354100  0.684000  1.0  0.1183
  H  H94  1  0.480600  0.377500  0.005900  1.0  0.1269
  H  H95  1  0.419700  0.508100  0.875400  1.0  0.0865
  H  H96  1  0.471400  0.417500  0.874900  1.0  0.122
  H  H97  1  0.740000  0.494300  0.823600  1.0  0.0732
  H  H98  1  0.751400  0.642400  0.822800  1.0  0.1123
  H  H99  1  0.641500  0.521700  0.740900  1.0  0.0786
  H  H100  1  0.017000  0.523400  0.068300  1.0  0.0903
  H  H101  1  0.692700  0.070200  0.720500  1.0  0.1108
  H  H102  1  0.813500  0.130700  0.854000  1.0  0.0748
  H  H103  1  0.006900  0.646200  0.023500  1.0  0.1166
  H  H104  1  0.796100  0.834800  0.870700  1.0  0.1189
  H  H105  1  0.653100  0.144200  0.664000  1.0  0.077
  H  H106  1  0.179700  0.763700  0.869600  1.0  0.0895
  H  H107  1  0.929900  0.973700  0.003600  1.0  0.0795
  H  H108  1  0.138100  0.730900  0.915900  1.0  0.115
  H  H109  1  0.591000  0.935000  0.629500  1.0  0.0797
  H  H110  1  0.106000  0.454200  0.019900  1.0  0.078
  H  H111  1  0.058500  0.888500  0.840200  1.0  0.1181
  H  H112  1  0.843800  0.913000  0.918200  1.0  0.0789
  H  H113  1  0.102000  0.914000  0.795500  1.0  0.0855
  H  H114  1  0.099700  0.577700  0.975300  1.0  0.113
  H  H115  1  0.649900  0.671300  0.737200  1.0  0.1216
  H  H116  1  0.764100  0.061500  0.805600  1.0  0.111
  H  H117  1  0.629400  0.854100  0.684000  1.0  0.1183
  H  H118  1  0.980600  0.877500  0.005900  1.0  0.1269
  H  H119  1  0.919700  0.008100  0.875400  1.0  0.0865
  H  H120  1  0.971400  0.917500  0.874900  1.0  0.122
  H  H121  1  0.760000  0.005700  0.176400  1.0  0.0724
  H  H122  1  0.748600  0.857600  0.177200  1.0  0.112
  H  H123  1  0.858500  0.978300  0.259100  1.0  0.0781
  H  H124  1  0.483000  0.976600  0.931700  1.0  0.0898
  H  H125  1  0.807300  0.429800  0.279500  1.0  0.1112
  H  H126  1  0.686500  0.369300  0.146000  1.0  0.0754
  H  H127  1  0.493100  0.853800  0.976500  1.0  0.1163
  H  H128  1  0.703900  0.665200  0.129300  1.0  0.1189
  H  H129  1  0.846900  0.355800  0.336000  1.0  0.0781
  H  H130  1  0.320300  0.736300  0.130400  1.0  0.0888
  H  H131  1  0.570100  0.526300  0.996400  1.0  0.0787
  H  H132  1  0.361900  0.769100  0.084100  1.0  0.1152
  H  H133  1  0.909000  0.565000  0.370500  1.0  0.0796
  H  H134  1  0.394000  0.045800  0.980100  1.0  0.0785
  H  H135  1  0.441500  0.611500  0.159800  1.0  0.1178
  H  H136  1  0.656200  0.587000  0.081800  1.0  0.0787
  H  H137  1  0.398000  0.586000  0.204500  1.0  0.0853
  H  H138  1  0.400300  0.922300  0.024700  1.0  0.1127
  H  H139  1  0.850100  0.828700  0.262800  1.0  0.1216
  H  H140  1  0.735900  0.438500  0.194400  1.0  0.1102
  H  H141  1  0.870600  0.645900  0.316000  1.0  0.1174
  H  H142  1  0.519400  0.622500  0.994100  1.0  0.126
  H  H143  1  0.580300  0.491900  0.124600  1.0  0.087
  H  H144  1  0.528600  0.582500  0.125100  1.0  0.1225
  H  H145  1  0.260000  0.505700  0.176400  1.0  0.0724
  H  H146  1  0.248600  0.357600  0.177200  1.0  0.112
  H  H147  1  0.358500  0.478300  0.259100  1.0  0.0781
  H  H148  1  0.983000  0.476600  0.931700  1.0  0.0898
  H  H149  1  0.307300  0.929800  0.279500  1.0  0.1112
  H  H150  1  0.186500  0.869300  0.146000  1.0  0.0754
  H  H151  1  0.993100  0.353800  0.976500  1.0  0.1163
  H  H152  1  0.203900  0.165200  0.129300  1.0  0.1189
  H  H153  1  0.346900  0.855800  0.336000  1.0  0.0781
  H  H154  1  0.820300  0.236300  0.130400  1.0  0.0888
  H  H155  1  0.070100  0.026300  0.996400  1.0  0.0787
  H  H156  1  0.861900  0.269100  0.084100  1.0  0.1152
  H  H157  1  0.409000  0.065000  0.370500  1.0  0.0796
  H  H158  1  0.894000  0.545800  0.980100  1.0  0.0785
  H  H159  1  0.941500  0.111500  0.159800  1.0  0.1178
  H  H160  1  0.156200  0.087000  0.081800  1.0  0.0787
  H  H161  1  0.898000  0.086000  0.204500  1.0  0.0853
  H  H162  1  0.900300  0.422300  0.024700  1.0  0.1127
  H  H163  1  0.350100  0.328700  0.262800  1.0  0.1216
  H  H164  1  0.235900  0.938500  0.194400  1.0  0.1102
  H  H165  1  0.370600  0.145900  0.316000  1.0  0.1174
  H  H166  1  0.019400  0.122500  0.994100  1.0  0.126
  H  H167  1  0.080300  0.991900  0.124600  1.0  0.087
  H  H168  1  0.028600  0.082500  0.125100  1.0  0.1225
  H  H169  1  0.760000  0.994300  0.676400  1.0  0.0726
  H  H170  1  0.748600  0.142400  0.677200  1.0  0.112
  H  H171  1  0.858500  0.021700  0.759100  1.0  0.0782
  H  H172  1  0.483000  0.023400  0.431700  1.0  0.0899
  H  H173  1  0.807300  0.570200  0.779500  1.0  0.1113
  H  H174  1  0.686500  0.630700  0.646000  1.0  0.0748
  H  H175  1  0.493100  0.146200  0.476500  1.0  0.1164
  H  H176  1  0.703900  0.334800  0.629300  1.0  0.1187
  H  H177  1  0.846900  0.644200  0.836000  1.0  0.0766
  H  H178  1  0.320300  0.263700  0.630400  1.0  0.0901
  H  H179  1  0.570100  0.473700  0.496400  1.0  0.0787
  H  H180  1  0.361900  0.230900  0.584100  1.0  0.1149
  H  H181  1  0.909000  0.435000  0.870500  1.0  0.0791
  H  H182  1  0.394000  0.954200  0.480100  1.0  0.0784
  H  H183  1  0.441500  0.388500  0.659800  1.0  0.1178
  H  H184  1  0.656200  0.413000  0.581800  1.0  0.0785
  H  H185  1  0.398000  0.414000  0.704500  1.0  0.0853
  H  H186  1  0.400300  0.077700  0.524700  1.0  0.1126
  H  H187  1  0.850100  0.171300  0.762800  1.0  0.1215
  H  H188  1  0.735900  0.561500  0.694400  1.0  0.1098
  H  H189  1  0.870600  0.354100  0.816000  1.0  0.1181
  H  H190  1  0.519400  0.377500  0.494100  1.0  0.126
  H  H191  1  0.580300  0.508100  0.624600  1.0  0.0866
  H  H192  1  0.528600  0.417500  0.625100  1.0  0.1228
  H  H193  1  0.260000  0.494300  0.676400  1.0  0.0726
  H  H194  1  0.248600  0.642400  0.677200  1.0  0.112
  H  H195  1  0.358500  0.521700  0.759100  1.0  0.0782
  H  H196  1  0.983000  0.523400  0.431700  1.0  0.0899
  H  H197  1  0.307300  0.070200  0.779500  1.0  0.1113
  H  H198  1  0.186500  0.130700  0.646000  1.0  0.0748
  H  H199  1  0.993100  0.646200  0.476500  1.0  0.1164
  H  H200  1  0.203900  0.834800  0.629300  1.0  0.1187
  H  H201  1  0.346900  0.144200  0.836000  1.0  0.0766
  H  H202  1  0.820300  0.763700  0.630400  1.0  0.0901
  H  H203  1  0.070100  0.973700  0.496400  1.0  0.0787
  H  H204  1  0.861900  0.730900  0.584100  1.0  0.1149
  H  H205  1  0.409000  0.935000  0.870500  1.0  0.0791
  H  H206  1  0.894000  0.454200  0.480100  1.0  0.0784
  H  H207  1  0.941500  0.888500  0.659800  1.0  0.1178
  H  H208  1  0.156200  0.913000  0.581800  1.0  0.0785
  H  H209  1  0.898000  0.914000  0.704500  1.0  0.0853
  H  H210  1  0.900300  0.577700  0.524700  1.0  0.1126
  H  H211  1  0.350100  0.671300  0.762800  1.0  0.1215
  H  H212  1  0.235900  0.061500  0.694400  1.0  0.1098
  H  H213  1  0.370600  0.854100  0.816000  1.0  0.1181
  H  H214  1  0.019400  0.877500  0.494100  1.0  0.126
  H  H215  1  0.080300  0.008100  0.624600  1.0  0.0866
  H  H216  1  0.028600  0.917500  0.625100  1.0  0.1228
  C  C217  1  0.190110  0.598000  0.245700  1.0  0.396
  C  C218  1  0.165160  0.547000  0.209500  1.0  -0.09
  C  C219  1  0.242080  0.605800  0.302500  1.0  0.3952
  C  C220  1  0.273990  0.560100  0.333500  1.0  -0.1016
  C  C221  1  0.548890  0.792900  0.466800  1.0  0.3723
  C  C222  1  0.221600  0.969600  0.306000  1.0  0.1577
  C  C223  1  0.207840  0.727600  0.279000  1.0  0.3581
  C  C224  1  0.566630  0.711300  0.413200  1.0  0.3919
  C  C225  1  0.228600  0.880500  0.305800  1.0  -0.1168
  C  C226  1  0.482310  0.611600  0.440800  1.0  -0.0612
  C  C227  1  0.553180  0.872700  0.495100  1.0  -0.0715
  C  C228  1  0.164000  0.953300  0.257600  1.0  0.1421
  C  C229  1  0.515250  0.671500  0.441100  1.0  0.3851
  C  C230  1  0.533750  0.965400  0.549400  1.0  0.1429
  C  C231  1  0.172000  0.458900  0.202400  1.0  -0.152
  C  C232  1  0.593670  0.694000  0.383500  1.0  -0.1238
  C  C233  1  0.309600  0.429300  0.357500  1.0  0.1496
  C  C234  1  0.527700  0.891100  0.522800  1.0  -0.1428
  C  C235  1  0.298600  0.604700  0.367000  1.0  -0.1548
  C  C236  1  0.148000  0.414900  0.168400  1.0  0.1562
  C  C237  1  0.201400  0.825000  0.280500  1.0  -0.0886
  C  C238  1  0.655100  0.711400  0.363800  1.0  0.1471
  C  C239  1  0.438400  0.538000  0.477500  1.0  0.1383
  C  C240  1  0.630300  0.731300  0.391800  1.0  -0.1118
  C  C241  1  0.111800  0.537300  0.148100  1.0  0.1698
  C  C242  1  0.586300  0.005900  0.521200  1.0  0.1395
  C  C243  1  0.582900  0.637800  0.346600  1.0  -0.1266
  C  C244  1  0.327500  0.557100  0.395100  1.0  0.1716
  C  C245  1  0.609300  0.622500  0.320300  1.0  0.1397
  C  C246  1  0.582500  0.931800  0.494000  1.0  -0.1421
  C  C247  1  0.168700  0.863100  0.255400  1.0  -0.1449
  C  C248  1  0.279900  0.470200  0.328300  1.0  -0.1395
  C  C249  1  0.134600  0.586300  0.181000  1.0  -0.1568
  C  C250  1  0.469100  0.595200  0.479300  1.0  -0.1566
  C  C251  1  0.432700  0.517200  0.402000  1.0  0.1441
  C  C252  1  0.463400  0.572000  0.401400  1.0  -0.148
  C  C253  1  0.690110  0.098000  0.245700  1.0  0.396
  C  C254  1  0.665160  0.047000  0.209500  1.0  -0.09
  C  C255  1  0.742080  0.105800  0.302500  1.0  0.3952
  C  C256  1  0.773990  0.060100  0.333500  1.0  -0.1016
  C  C257  1  0.048890  0.292900  0.466800  1.0  0.3723
  C  C258  1  0.721600  0.469600  0.306000  1.0  0.1577
  C  C259  1  0.707840  0.227600  0.279000  1.0  0.3581
  C  C260  1  0.066630  0.211300  0.413200  1.0  0.3919
  C  C261  1  0.728600  0.380500  0.305800  1.0  -0.1168
  C  C262  1  0.982310  0.111600  0.440800  1.0  -0.0612
  C  C263  1  0.053180  0.372700  0.495100  1.0  -0.0715
  C  C264  1  0.664000  0.453300  0.257600  1.0  0.1421
  C  C265  1  0.015250  0.171500  0.441100  1.0  0.3851
  C  C266  1  0.033750  0.465400  0.549400  1.0  0.1429
  C  C267  1  0.672000  0.958900  0.202400  1.0  -0.152
  C  C268  1  0.093670  0.194000  0.383500  1.0  -0.1238
  C  C269  1  0.809600  0.929300  0.357500  1.0  0.1496
  C  C270  1  0.027700  0.391100  0.522800  1.0  -0.1428
  C  C271  1  0.798600  0.104700  0.367000  1.0  -0.1548
  C  C272  1  0.648000  0.914900  0.168400  1.0  0.1562
  C  C273  1  0.701400  0.325000  0.280500  1.0  -0.0886
  C  C274  1  0.155100  0.211400  0.363800  1.0  0.1471
  C  C275  1  0.938400  0.038000  0.477500  1.0  0.1383
  C  C276  1  0.130300  0.231300  0.391800  1.0  -0.1118
  C  C277  1  0.611800  0.037300  0.148100  1.0  0.1698
  C  C278  1  0.086300  0.505900  0.521200  1.0  0.1395
  C  C279  1  0.082900  0.137800  0.346600  1.0  -0.1266
  C  C280  1  0.827500  0.057100  0.395100  1.0  0.1716
  C  C281  1  0.109300  0.122500  0.320300  1.0  0.1397
  C  C282  1  0.082500  0.431800  0.494000  1.0  -0.1421
  C  C283  1  0.668700  0.363100  0.255400  1.0  -0.1449
  C  C284  1  0.779900  0.970200  0.328300  1.0  -0.1395
  C  C285  1  0.634600  0.086300  0.181000  1.0  -0.1568
  C  C286  1  0.969100  0.095200  0.479300  1.0  -0.1566
  C  C287  1  0.932700  0.017200  0.402000  1.0  0.1441
  C  C288  1  0.963400  0.072000  0.401400  1.0  -0.148
  C  C289  1  0.190110  0.402000  0.745700  1.0  0.3963
  C  C290  1  0.165160  0.453000  0.709500  1.0  -0.0895
  C  C291  1  0.242080  0.394200  0.802500  1.0  0.395
  C  C292  1  0.273990  0.439900  0.833500  1.0  -0.1011
  C  C293  1  0.548890  0.207100  0.966800  1.0  0.3721
  C  C294  1  0.221600  0.030400  0.806000  1.0  0.1587
  C  C295  1  0.207840  0.272400  0.779000  1.0  0.3577
  C  C296  1  0.566630  0.288700  0.913200  1.0  0.3918
  C  C297  1  0.228600  0.119500  0.805800  1.0  -0.1161
  C  C298  1  0.482310  0.388400  0.940800  1.0  -0.0603
  C  C299  1  0.553180  0.127300  0.995100  1.0  -0.0704
  C  C300  1  0.164000  0.046700  0.757600  1.0  0.142
  C  C301  1  0.515250  0.328500  0.941100  1.0  0.3855
  C  C302  1  0.533750  0.034600  0.049400  1.0  0.1431
  C  C303  1  0.172000  0.541100  0.702400  1.0  -0.1526
  C  C304  1  0.593670  0.306000  0.883500  1.0  -0.1237
  C  C305  1  0.309600  0.570700  0.857500  1.0  0.1503
  C  C306  1  0.527700  0.108900  0.022800  1.0  -0.1449
  C  C307  1  0.298600  0.395300  0.867000  1.0  -0.1527
  C  C308  1  0.148000  0.585100  0.668400  1.0  0.1577
  C  C309  1  0.201400  0.175000  0.780500  1.0  -0.0872
  C  C310  1  0.655100  0.288600  0.863800  1.0  0.1472
  C  C311  1  0.438400  0.462000  0.977500  1.0  0.1379
  C  C312  1  0.630300  0.268700  0.891800  1.0  -0.1109
  C  C313  1  0.111800  0.462700  0.648100  1.0  0.1702
  C  C314  1  0.586300  0.994100  0.021200  1.0  0.1388
  C  C315  1  0.582900  0.362200  0.846600  1.0  -0.1268
  C  C316  1  0.327500  0.442900  0.895100  1.0  0.1719
  C  C317  1  0.609300  0.377500  0.820300  1.0  0.1401
  C  C318  1  0.582500  0.068200  0.994000  1.0  -0.1425
  C  C319  1  0.168700  0.136900  0.755400  1.0  -0.1463
  C  C320  1  0.279900  0.529800  0.828300  1.0  -0.1395
  C  C321  1  0.134600  0.413700  0.681000  1.0  -0.155
  C  C322  1  0.469100  0.404800  0.979300  1.0  -0.156
  C  C323  1  0.432700  0.482800  0.902000  1.0  0.1438
  C  C324  1  0.463400  0.428000  0.901400  1.0  -0.1477
  C  C325  1  0.690110  0.902000  0.745700  1.0  0.3963
  C  C326  1  0.665160  0.953000  0.709500  1.0  -0.0895
  C  C327  1  0.742080  0.894200  0.802500  1.0  0.395
  C  C328  1  0.773990  0.939900  0.833500  1.0  -0.1011
  C  C329  1  0.048890  0.707100  0.966800  1.0  0.3721
  C  C330  1  0.721600  0.530400  0.806000  1.0  0.1587
  C  C331  1  0.707840  0.772400  0.779000  1.0  0.3577
  C  C332  1  0.066630  0.788700  0.913200  1.0  0.3918
  C  C333  1  0.728600  0.619500  0.805800  1.0  -0.1161
  C  C334  1  0.982310  0.888400  0.940800  1.0  -0.0603
  C  C335  1  0.053180  0.627300  0.995100  1.0  -0.0704
  C  C336  1  0.664000  0.546700  0.757600  1.0  0.142
  C  C337  1  0.015250  0.828500  0.941100  1.0  0.3855
  C  C338  1  0.033750  0.534600  0.049400  1.0  0.1431
  C  C339  1  0.672000  0.041100  0.702400  1.0  -0.1526
  C  C340  1  0.093670  0.806000  0.883500  1.0  -0.1237
  C  C341  1  0.809600  0.070700  0.857500  1.0  0.1503
  C  C342  1  0.027700  0.608900  0.022800  1.0  -0.1449
  C  C343  1  0.798600  0.895300  0.867000  1.0  -0.1527
  C  C344  1  0.648000  0.085100  0.668400  1.0  0.1577
  C  C345  1  0.701400  0.675000  0.780500  1.0  -0.0872
  C  C346  1  0.155100  0.788600  0.863800  1.0  0.1472
  C  C347  1  0.938400  0.962000  0.977500  1.0  0.1379
  C  C348  1  0.130300  0.768700  0.891800  1.0  -0.1109
  C  C349  1  0.611800  0.962700  0.648100  1.0  0.1702
  C  C350  1  0.086300  0.494100  0.021200  1.0  0.1388
  C  C351  1  0.082900  0.862200  0.846600  1.0  -0.1268
  C  C352  1  0.827500  0.942900  0.895100  1.0  0.1719
  C  C353  1  0.109300  0.877500  0.820300  1.0  0.1401
  C  C354  1  0.082500  0.568200  0.994000  1.0  -0.1425
  C  C355  1  0.668700  0.636900  0.755400  1.0  -0.1463
  C  C356  1  0.779900  0.029800  0.828300  1.0  -0.1395
  C  C357  1  0.634600  0.913700  0.681000  1.0  -0.155
  C  C358  1  0.969100  0.904800  0.979300  1.0  -0.156
  C  C359  1  0.932700  0.982800  0.902000  1.0  0.1438
  C  C360  1  0.963400  0.928000  0.901400  1.0  -0.1477
  C  C361  1  0.809890  0.598000  0.254300  1.0  0.3954
  C  C362  1  0.834840  0.547000  0.290500  1.0  -0.0885
  C  C363  1  0.757920  0.605800  0.197500  1.0  0.3934
  C  C364  1  0.726010  0.560100  0.166500  1.0  -0.1022
  C  C365  1  0.451110  0.792900  0.033200  1.0  0.3733
  C  C366  1  0.778400  0.969600  0.194000  1.0  0.1591
  C  C367  1  0.792160  0.727600  0.221000  1.0  0.3587
  C  C368  1  0.433370  0.711300  0.086800  1.0  0.3915
  C  C369  1  0.771400  0.880500  0.194200  1.0  -0.1142
  C  C370  1  0.517690  0.611600  0.059200  1.0  -0.0607
  C  C371  1  0.446820  0.872700  0.004900  1.0  -0.0716
  C  C372  1  0.836000  0.953300  0.242400  1.0  0.1443
  C  C373  1  0.484750  0.671500  0.058900  1.0  0.3855
  C  C374  1  0.466250  0.965400  0.950600  1.0  0.1437
  C  C375  1  0.828000  0.458900  0.297600  1.0  -0.1524
  C  C376  1  0.406330  0.694000  0.116500  1.0  -0.1231
  C  C377  1  0.690400  0.429300  0.142500  1.0  0.1484
  C  C378  1  0.472300  0.891100  0.977200  1.0  -0.1442
  C  C379  1  0.701400  0.604700  0.133000  1.0  -0.1549
  C  C380  1  0.852000  0.414900  0.331600  1.0  0.1553
  C  C381  1  0.798600  0.825000  0.219500  1.0  -0.088
  C  C382  1  0.344900  0.711400  0.136200  1.0  0.1453
  C  C383  1  0.561600  0.538000  0.022500  1.0  0.1371
  C  C384  1  0.369700  0.731300  0.108200  1.0  -0.1118
  C  C385  1  0.888200  0.537300  0.351900  1.0  0.1695
  C  C386  1  0.413700  0.005900  0.978800  1.0  0.1393
  C  C387  1  0.417100  0.637800  0.153400  1.0  -0.1261
  C  C388  1  0.672500  0.557100  0.104900  1.0  0.1715
  C  C389  1  0.390700  0.622500  0.179700  1.0  0.1406
  C  C390  1  0.417500  0.931800  0.006000  1.0  -0.1415
  C  C391  1  0.831300  0.863100  0.244600  1.0  -0.1465
  C  C392  1  0.720100  0.470200  0.171700  1.0  -0.1396
  C  C393  1  0.865400  0.586300  0.319000  1.0  -0.1579
  C  C394  1  0.530900  0.595200  0.020700  1.0  -0.1565
  C  C395  1  0.567300  0.517200  0.098000  1.0  0.1457
  C  C396  1  0.536600  0.572000  0.098600  1.0  -0.1485
  C  C397  1  0.309890  0.098000  0.254300  1.0  0.3954
  C  C398  1  0.334840  0.047000  0.290500  1.0  -0.0885
  C  C399  1  0.257920  0.105800  0.197500  1.0  0.3934
  C  C400  1  0.226010  0.060100  0.166500  1.0  -0.1022
  C  C401  1  0.951110  0.292900  0.033200  1.0  0.3733
  C  C402  1  0.278400  0.469600  0.194000  1.0  0.1591
  C  C403  1  0.292160  0.227600  0.221000  1.0  0.3587
  C  C404  1  0.933370  0.211300  0.086800  1.0  0.3915
  C  C405  1  0.271400  0.380500  0.194200  1.0  -0.1142
  C  C406  1  0.017690  0.111600  0.059200  1.0  -0.0607
  C  C407  1  0.946820  0.372700  0.004900  1.0  -0.0716
  C  C408  1  0.336000  0.453300  0.242400  1.0  0.1443
  C  C409  1  0.984750  0.171500  0.058900  1.0  0.3855
  C  C410  1  0.966250  0.465400  0.950600  1.0  0.1437
  C  C411  1  0.328000  0.958900  0.297600  1.0  -0.1524
  C  C412  1  0.906330  0.194000  0.116500  1.0  -0.1231
  C  C413  1  0.190400  0.929300  0.142500  1.0  0.1484
  C  C414  1  0.972300  0.391100  0.977200  1.0  -0.1442
  C  C415  1  0.201400  0.104700  0.133000  1.0  -0.1549
  C  C416  1  0.352000  0.914900  0.331600  1.0  0.1553
  C  C417  1  0.298600  0.325000  0.219500  1.0  -0.088
  C  C418  1  0.844900  0.211400  0.136200  1.0  0.1453
  C  C419  1  0.061600  0.038000  0.022500  1.0  0.1371
  C  C420  1  0.869700  0.231300  0.108200  1.0  -0.1118
  C  C421  1  0.388200  0.037300  0.351900  1.0  0.1695
  C  C422  1  0.913700  0.505900  0.978800  1.0  0.1393
  C  C423  1  0.917100  0.137800  0.153400  1.0  -0.1261
  C  C424  1  0.172500  0.057100  0.104900  1.0  0.1715
  C  C425  1  0.890700  0.122500  0.179700  1.0  0.1406
  C  C426  1  0.917500  0.431800  0.006000  1.0  -0.1415
  C  C427  1  0.331300  0.363100  0.244600  1.0  -0.1465
  C  C428  1  0.220100  0.970200  0.171700  1.0  -0.1396
  C  C429  1  0.365400  0.086300  0.319000  1.0  -0.1579
  C  C430  1  0.030900  0.095200  0.020700  1.0  -0.1565
  C  C431  1  0.067300  0.017200  0.098000  1.0  0.1457
  C  C432  1  0.036600  0.072000  0.098600  1.0  -0.1485
  C  C433  1  0.809890  0.402000  0.754300  1.0  0.3959
  C  C434  1  0.834840  0.453000  0.790500  1.0  -0.0886
  C  C435  1  0.757920  0.394200  0.697500  1.0  0.3933
  C  C436  1  0.726010  0.439900  0.666500  1.0  -0.1019
  C  C437  1  0.451110  0.207100  0.533200  1.0  0.3731
  C  C438  1  0.778400  0.030400  0.694000  1.0  0.159
  C  C439  1  0.792160  0.272400  0.721000  1.0  0.3585
  C  C440  1  0.433370  0.288700  0.586800  1.0  0.3915
  C  C441  1  0.771400  0.119500  0.694200  1.0  -0.1149
  C  C442  1  0.517690  0.388400  0.559200  1.0  -0.0598
  C  C443  1  0.446820  0.127300  0.504900  1.0  -0.0694
  C  C444  1  0.836000  0.046700  0.742400  1.0  0.1441
  C  C445  1  0.484750  0.328500  0.558900  1.0  0.3859
  C  C446  1  0.466250  0.034600  0.450600  1.0  0.1434
  C  C447  1  0.828000  0.541100  0.797600  1.0  -0.1524
  C  C448  1  0.406330  0.306000  0.616500  1.0  -0.123
  C  C449  1  0.690400  0.570700  0.642500  1.0  0.1497
  C  C450  1  0.472300  0.108900  0.477200  1.0  -0.1451
  C  C451  1  0.701400  0.395300  0.633000  1.0  -0.1529
  C  C452  1  0.852000  0.585100  0.831600  1.0  0.1565
  C  C453  1  0.798600  0.175000  0.719500  1.0  -0.0867
  C  C454  1  0.344900  0.288600  0.636200  1.0  0.1462
  C  C455  1  0.561600  0.462000  0.522500  1.0  0.1371
  C  C456  1  0.369700  0.268700  0.608200  1.0  -0.1108
  C  C457  1  0.888200  0.462700  0.851900  1.0  0.1698
  C  C458  1  0.413700  0.994100  0.478800  1.0  0.1416
  C  C459  1  0.417100  0.362200  0.653400  1.0  -0.126
  C  C460  1  0.672500  0.442900  0.604900  1.0  0.1712
  C  C461  1  0.390700  0.377500  0.679700  1.0  0.1407
  C  C462  1  0.417500  0.068200  0.506000  1.0  -0.1411
  C  C463  1  0.831300  0.136900  0.744600  1.0  -0.1462
  C  C464  1  0.720100  0.529800  0.671700  1.0  -0.1405
  C  C465  1  0.865400  0.413700  0.819000  1.0  -0.1552
  C  C466  1  0.530900  0.404800  0.520700  1.0  -0.1566
  C  C467  1  0.567300  0.482800  0.598000  1.0  0.1446
  C  C468  1  0.536600  0.428000  0.598600  1.0  -0.1486
  C  C469  1  0.309890  0.902000  0.754300  1.0  0.3959
  C  C470  1  0.334840  0.953000  0.790500  1.0  -0.0886
  C  C471  1  0.257920  0.894200  0.697500  1.0  0.3933
  C  C472  1  0.226010  0.939900  0.666500  1.0  -0.1019
  C  C473  1  0.951110  0.707100  0.533200  1.0  0.3731
  C  C474  1  0.278400  0.530400  0.694000  1.0  0.159
  C  C475  1  0.292160  0.772400  0.721000  1.0  0.3585
  C  C476  1  0.933370  0.788700  0.586800  1.0  0.3915
  C  C477  1  0.271400  0.619500  0.694200  1.0  -0.1149
  C  C478  1  0.017690  0.888400  0.559200  1.0  -0.0598
  C  C479  1  0.946820  0.627300  0.504900  1.0  -0.0694
  C  C480  1  0.336000  0.546700  0.742400  1.0  0.1441
  C  C481  1  0.984750  0.828500  0.558900  1.0  0.3859
  C  C482  1  0.966250  0.534600  0.450600  1.0  0.1434
  C  C483  1  0.328000  0.041100  0.797600  1.0  -0.1524
  C  C484  1  0.906330  0.806000  0.616500  1.0  -0.123
  C  C485  1  0.190400  0.070700  0.642500  1.0  0.1497
  C  C486  1  0.972300  0.608900  0.477200  1.0  -0.1451
  C  C487  1  0.201400  0.895300  0.633000  1.0  -0.1529
  C  C488  1  0.352000  0.085100  0.831600  1.0  0.1565
  C  C489  1  0.298600  0.675000  0.719500  1.0  -0.0867
  C  C490  1  0.844900  0.788600  0.636200  1.0  0.1462
  C  C491  1  0.061600  0.962000  0.522500  1.0  0.1371
  C  C492  1  0.869700  0.768700  0.608200  1.0  -0.1108
  C  C493  1  0.388200  0.962700  0.851900  1.0  0.1698
  C  C494  1  0.913700  0.494100  0.478800  1.0  0.1416
  C  C495  1  0.917100  0.862200  0.653400  1.0  -0.126
  C  C496  1  0.172500  0.942900  0.604900  1.0  0.1712
  C  C497  1  0.890700  0.877500  0.679700  1.0  0.1407
  C  C498  1  0.917500  0.568200  0.506000  1.0  -0.1411
  C  C499  1  0.331300  0.636900  0.744600  1.0  -0.1462
  C  C500  1  0.220100  0.029800  0.671700  1.0  -0.1405
  C  C501  1  0.365400  0.913700  0.819000  1.0  -0.1552
  C  C502  1  0.030900  0.904800  0.520700  1.0  -0.1566
  C  C503  1  0.067300  0.982800  0.598000  1.0  0.1446
  C  C504  1  0.036600  0.928000  0.598600  1.0  -0.1486
  I  I505  1  0.024000  0.353500  0.138010  1.0  -0.3649
  I  I506  1  0.742930  0.722340  0.313750  1.0  -0.4043
  I  I507  1  0.636090  0.676920  0.207660  1.0  -0.4578
  I  I508  1  0.113350  0.262320  0.062560  1.0  -0.4393
  I  I509  1  0.396770  0.270720  0.403040  1.0  -0.4473
  I  I510  1  0.354440  0.415610  0.510820  1.0  -0.321
  I  I511  1  0.524000  0.853500  0.138010  1.0  -0.3649
  I  I512  1  0.242930  0.222340  0.313750  1.0  -0.4043
  I  I513  1  0.136090  0.176920  0.207660  1.0  -0.4578
  I  I514  1  0.613350  0.762320  0.062560  1.0  -0.4393
  I  I515  1  0.896770  0.770720  0.403040  1.0  -0.4473
  I  I516  1  0.854440  0.915610  0.510820  1.0  -0.321
  I  I517  1  0.024000  0.646500  0.638010  1.0  -0.3647
  I  I518  1  0.742930  0.277660  0.813750  1.0  -0.4047
  I  I519  1  0.636090  0.323080  0.707660  1.0  -0.4583
  I  I520  1  0.113350  0.737680  0.562560  1.0  -0.439
  I  I521  1  0.396770  0.729280  0.903040  1.0  -0.4475
  I  I522  1  0.354440  0.584390  0.010820  1.0  -0.3213
  I  I523  1  0.524000  0.146500  0.638010  1.0  -0.3647
  I  I524  1  0.242930  0.777660  0.813750  1.0  -0.4047
  I  I525  1  0.136090  0.823080  0.707660  1.0  -0.4583
  I  I526  1  0.613350  0.237680  0.562560  1.0  -0.439
  I  I527  1  0.896770  0.229280  0.903040  1.0  -0.4475
  I  I528  1  0.854440  0.084390  0.010820  1.0  -0.3213
  I  I529  1  0.976000  0.353500  0.361990  1.0  -0.3625
  I  I530  1  0.257070  0.722340  0.186250  1.0  -0.4057
  I  I531  1  0.363910  0.676920  0.292340  1.0  -0.4579
  I  I532  1  0.886650  0.262320  0.437440  1.0  -0.4377
  I  I533  1  0.603230  0.270720  0.096960  1.0  -0.4478
  I  I534  1  0.645560  0.415610  0.989180  1.0  -0.3219
  I  I535  1  0.476000  0.853500  0.361990  1.0  -0.3625
  I  I536  1  0.757070  0.222340  0.186250  1.0  -0.4057
  I  I537  1  0.863910  0.176920  0.292340  1.0  -0.4579
  I  I538  1  0.386650  0.762320  0.437440  1.0  -0.4377
  I  I539  1  0.103230  0.770720  0.096960  1.0  -0.4478
  I  I540  1  0.145560  0.915610  0.989180  1.0  -0.3219
  I  I541  1  0.976000  0.646500  0.861990  1.0  -0.3625
  I  I542  1  0.257070  0.277660  0.686250  1.0  -0.4056
  I  I543  1  0.363910  0.323080  0.792340  1.0  -0.4583
  I  I544  1  0.886650  0.737680  0.937440  1.0  -0.4381
  I  I545  1  0.603230  0.729280  0.596960  1.0  -0.4479
  I  I546  1  0.645560  0.584390  0.489180  1.0  -0.3222
  I  I547  1  0.476000  0.146500  0.861990  1.0  -0.3625
  I  I548  1  0.757070  0.777660  0.686250  1.0  -0.4056
  I  I549  1  0.863910  0.823080  0.792340  1.0  -0.4583
  I  I550  1  0.386650  0.237680  0.937440  1.0  -0.4381
  I  I551  1  0.103230  0.229280  0.596960  1.0  -0.4479
  I  I552  1  0.145560  0.084390  0.489180  1.0  -0.3222
  N  N553  1  0.562920  0.022100  0.548920  1.0  -0.3121
  N  N554  1  0.190170  0.006400  0.282500  1.0  -0.2897
  N  N555  1  0.420520  0.498600  0.440000  1.0  -0.3105
  N  N556  1  0.182220  0.683200  0.248400  1.0  -0.3504
  N  N557  1  0.333220  0.471700  0.390800  1.0  -0.3167
  N  N558  1  0.117880  0.452500  0.141300  1.0  -0.3141
  N  N559  1  0.520280  0.737000  0.470460  1.0  -0.4272
  N  N560  1  0.219360  0.555500  0.271800  1.0  -0.4646
  N  N561  1  0.644980  0.657900  0.328700  1.0  -0.3435
  N  N562  1  0.573490  0.782800  0.439760  1.0  -0.4751
  N  N563  1  0.537450  0.655100  0.411460  1.0  -0.4127
  N  N564  1  0.238020  0.693000  0.307100  1.0  -0.3542
  N  N565  1  0.062920  0.522100  0.548920  1.0  -0.3121
  N  N566  1  0.690170  0.506400  0.282500  1.0  -0.2897
  N  N567  1  0.920520  0.998600  0.440000  1.0  -0.3105
  N  N568  1  0.682220  0.183200  0.248400  1.0  -0.3504
  N  N569  1  0.833220  0.971700  0.390800  1.0  -0.3167
  N  N570  1  0.617880  0.952500  0.141300  1.0  -0.3141
  N  N571  1  0.020280  0.237000  0.470460  1.0  -0.4272
  N  N572  1  0.719360  0.055500  0.271800  1.0  -0.4646
  N  N573  1  0.144980  0.157900  0.328700  1.0  -0.3435
  N  N574  1  0.073490  0.282800  0.439760  1.0  -0.4751
  N  N575  1  0.037450  0.155100  0.411460  1.0  -0.4127
  N  N576  1  0.738020  0.193000  0.307100  1.0  -0.3542
  N  N577  1  0.562920  0.977900  0.048920  1.0  -0.3111
  N  N578  1  0.190170  0.993600  0.782500  1.0  -0.2901
  N  N579  1  0.420520  0.501400  0.940000  1.0  -0.309
  N  N580  1  0.182220  0.316800  0.748400  1.0  -0.3507
  N  N581  1  0.333220  0.528300  0.890800  1.0  -0.318
  N  N582  1  0.117880  0.547500  0.641300  1.0  -0.3143
  N  N583  1  0.520280  0.263000  0.970460  1.0  -0.4277
  N  N584  1  0.219360  0.444500  0.771800  1.0  -0.4649
  N  N585  1  0.644980  0.342100  0.828700  1.0  -0.3431
  N  N586  1  0.573490  0.217200  0.939760  1.0  -0.475
  N  N587  1  0.537450  0.344900  0.911460  1.0  -0.4137
  N  N588  1  0.238020  0.307000  0.807100  1.0  -0.3542
  N  N589  1  0.062920  0.477900  0.048920  1.0  -0.3111
  N  N590  1  0.690170  0.493600  0.782500  1.0  -0.2901
  N  N591  1  0.920520  0.001400  0.940000  1.0  -0.309
  N  N592  1  0.682220  0.816800  0.748400  1.0  -0.3507
  N  N593  1  0.833220  0.028300  0.890800  1.0  -0.318
  N  N594  1  0.617880  0.047500  0.641300  1.0  -0.3143
  N  N595  1  0.020280  0.763000  0.970460  1.0  -0.4277
  N  N596  1  0.719360  0.944500  0.771800  1.0  -0.4649
  N  N597  1  0.144980  0.842100  0.828700  1.0  -0.3431
  N  N598  1  0.073490  0.717200  0.939760  1.0  -0.475
  N  N599  1  0.037450  0.844900  0.911460  1.0  -0.4137
  N  N600  1  0.738020  0.807000  0.807100  1.0  -0.3542
  N  N601  1  0.437080  0.022100  0.951080  1.0  -0.3115
  N  N602  1  0.809830  0.006400  0.217500  1.0  -0.2908
  N  N603  1  0.579480  0.498600  0.060000  1.0  -0.3086
  N  N604  1  0.817780  0.683200  0.251600  1.0  -0.3508
  N  N605  1  0.666780  0.471700  0.109200  1.0  -0.3181
  N  N606  1  0.882120  0.452500  0.358700  1.0  -0.3148
  N  N607  1  0.479720  0.737000  0.029540  1.0  -0.424
  N  N608  1  0.780640  0.555500  0.228200  1.0  -0.466
  N  N609  1  0.355020  0.657900  0.171300  1.0  -0.3435
  N  N610  1  0.426510  0.782800  0.060240  1.0  -0.4754
  N  N611  1  0.462550  0.655100  0.088540  1.0  -0.4105
  N  N612  1  0.761980  0.693000  0.192900  1.0  -0.3547
  N  N613  1  0.937080  0.522100  0.951080  1.0  -0.3115
  N  N614  1  0.309830  0.506400  0.217500  1.0  -0.2908
  N  N615  1  0.079480  0.998600  0.060000  1.0  -0.3086
  N  N616  1  0.317780  0.183200  0.251600  1.0  -0.3508
  N  N617  1  0.166780  0.971700  0.109200  1.0  -0.3181
  N  N618  1  0.382120  0.952500  0.358700  1.0  -0.3148
  N  N619  1  0.979720  0.237000  0.029540  1.0  -0.424
  N  N620  1  0.280640  0.055500  0.228200  1.0  -0.466
  N  N621  1  0.855020  0.157900  0.171300  1.0  -0.3435
  N  N622  1  0.926510  0.282800  0.060240  1.0  -0.4754
  N  N623  1  0.962550  0.155100  0.088540  1.0  -0.4105
  N  N624  1  0.261980  0.193000  0.192900  1.0  -0.3547
  N  N625  1  0.437080  0.977900  0.451080  1.0  -0.3111
  N  N626  1  0.809830  0.993600  0.717500  1.0  -0.2895
  N  N627  1  0.579480  0.501400  0.560000  1.0  -0.3099
  N  N628  1  0.817780  0.316800  0.751600  1.0  -0.3511
  N  N629  1  0.666780  0.528300  0.609200  1.0  -0.3188
  N  N630  1  0.882120  0.547500  0.858700  1.0  -0.3172
  N  N631  1  0.479720  0.263000  0.529540  1.0  -0.4247
  N  N632  1  0.780640  0.444500  0.728200  1.0  -0.466
  N  N633  1  0.355020  0.342100  0.671300  1.0  -0.3435
  N  N634  1  0.426510  0.217200  0.560240  1.0  -0.4756
  N  N635  1  0.462550  0.344900  0.588540  1.0  -0.4123
  N  N636  1  0.761980  0.307000  0.692900  1.0  -0.3552
  N  N637  1  0.937080  0.477900  0.451080  1.0  -0.3111
  N  N638  1  0.309830  0.493600  0.717500  1.0  -0.2895
  N  N639  1  0.079480  0.001400  0.560000  1.0  -0.3099
  N  N640  1  0.317780  0.816800  0.751600  1.0  -0.3511
  N  N641  1  0.166780  0.028300  0.609200  1.0  -0.3188
  N  N642  1  0.382120  0.047500  0.858700  1.0  -0.3172
  N  N643  1  0.979720  0.763000  0.529540  1.0  -0.4247
  N  N644  1  0.280640  0.944500  0.728200  1.0  -0.466
  N  N645  1  0.855020  0.842100  0.671300  1.0  -0.3435
  N  N646  1  0.926510  0.717200  0.560240  1.0  -0.4756
  N  N647  1  0.962550  0.844900  0.588540  1.0  -0.4123
  N  N648  1  0.261980  0.807000  0.692900  1.0  -0.3552
