# generated using pymatgen
data_CoH4C4O5
_symmetry_space_group_name_H-M   'P 1'
_cell_length_a   6.82200000
_cell_length_b   9.97000000
_cell_length_c   10.91020000
_cell_angle_alpha   90.00000000
_cell_angle_beta   90.00000000
_cell_angle_gamma   90.00000000
_symmetry_Int_Tables_number   1
_chemical_formula_structural   CoH4C4O5
_chemical_formula_sum   'Co4 H16 C16 O20'
_cell_volume   742.06096247
_cell_formula_units_Z   4
loop_
 _symmetry_equiv_pos_site_id
 _symmetry_equiv_pos_as_xyz
  1  'x, y, z'
loop_
 _atom_site_type_symbol
 _atom_site_label
 _atom_site_symmetry_multiplicity
 _atom_site_fract_x
 _atom_site_fract_y
 _atom_site_fract_z
 _atom_site_occupancy
 _atom_site_charge
  Co  Co1  1  0.141640  0.703020  0.290040  1.0  0.9864
  Co  Co2  1  0.358360  0.296980  0.790040  1.0  0.9855
  Co  Co3  1  0.858360  0.203020  0.209960  1.0  0.9853
  Co  Co4  1  0.641640  0.796980  0.709960  1.0  0.9859
  H  H5  1  0.626000  0.625000  0.420600  1.0  0.1227
  H  H6  1  0.470000  0.586000  0.509000  1.0  0.1057
  H  H7  1  0.451000  0.397000  0.310200  1.0  0.1124
  H  H8  1  0.336000  0.418000  0.428600  1.0  0.1075
  H  H9  1  0.874000  0.375000  0.920600  1.0  0.1334
  H  H10  1  0.030000  0.414000  0.009000  1.0  0.1055
  H  H11  1  0.049000  0.603000  0.810200  1.0  0.1125
  H  H12  1  0.164000  0.582000  0.928600  1.0  0.1083
  H  H13  1  0.374000  0.125000  0.079400  1.0  0.1304
  H  H14  1  0.530000  0.086000  0.991000  1.0  0.1064
  H  H15  1  0.549000  0.897000  0.189800  1.0  0.1123
  H  H16  1  0.664000  0.918000  0.071400  1.0  0.1068
  H  H17  1  0.126000  0.875000  0.579400  1.0  0.1227
  H  H18  1  0.970000  0.914000  0.491000  1.0  0.1065
  H  H19  1  0.951000  0.103000  0.689800  1.0  0.1124
  H  H20  1  0.836000  0.082000  0.571400  1.0  0.1072
  C  C21  1  0.454400  0.783300  0.448110  1.0  0.6672
  C  C22  1  0.499500  0.634750  0.435120  1.0  -0.0754
  C  C23  1  0.341300  0.443020  0.344640  1.0  -0.053
  C  C24  1  0.150200  0.415570  0.276130  1.0  0.6848
  C  C25  1  0.045600  0.216700  0.948110  1.0  0.6672
  C  C26  1  0.000500  0.365250  0.935120  1.0  -0.0767
  C  C27  1  0.158700  0.556980  0.844640  1.0  -0.0537
  C  C28  1  0.349800  0.584430  0.776130  1.0  0.6872
  C  C29  1  0.545600  0.283300  0.051890  1.0  0.6672
  C  C30  1  0.500500  0.134750  0.064880  1.0  -0.0762
  C  C31  1  0.658700  0.943020  0.155360  1.0  -0.0553
  C  C32  1  0.849800  0.915570  0.223870  1.0  0.6867
  C  C33  1  0.954400  0.716700  0.551890  1.0  0.667
  C  C34  1  0.999500  0.865250  0.564880  1.0  -0.0762
  C  C35  1  0.841300  0.056980  0.655360  1.0  -0.0533
  C  C36  1  0.650200  0.084430  0.723870  1.0  0.6843
  O  O37  1  0.336690  0.836760  0.372590  1.0  -0.5966
  O  O38  1  0.536590  0.847110  0.532430  1.0  -0.6003
  O  O39  1  0.048060  0.510170  0.238430  1.0  -0.5633
  O  O40  1  0.110780  0.291780  0.263940  1.0  -0.6036
  O  O41  1  0.384610  0.582380  0.336610  1.0  -0.2986
  O  O42  1  0.163310  0.163240  0.872590  1.0  -0.5964
  O  O43  1  0.963410  0.152890  0.032430  1.0  -0.6001
  O  O44  1  0.451940  0.489830  0.738430  1.0  -0.5618
  O  O45  1  0.389220  0.708220  0.763940  1.0  -0.603
  O  O46  1  0.115390  0.417620  0.836610  1.0  -0.3007
  O  O47  1  0.663310  0.336760  0.127410  1.0  -0.5971
  O  O48  1  0.463410  0.347110  0.967570  1.0  -0.6002
  O  O49  1  0.951940  0.010170  0.261570  1.0  -0.5612
  O  O50  1  0.889220  0.791780  0.236060  1.0  -0.6048
  O  O51  1  0.615390  0.082380  0.163390  1.0  -0.3001
  O  O52  1  0.836690  0.663240  0.627410  1.0  -0.5972
  O  O53  1  0.036590  0.652890  0.467570  1.0  -0.6002
  O  O54  1  0.548060  0.989830  0.761570  1.0  -0.5617
  O  O55  1  0.610780  0.208220  0.736060  1.0  -0.6025
  O  O56  1  0.884610  0.917620  0.663390  1.0  -0.2986
