# generated using pymatgen
data_GdH7C15O7
_symmetry_space_group_name_H-M   'P 1'
_cell_length_a   5.99530000
_cell_length_b   11.93550000
_cell_length_c   23.36800000
_cell_angle_alpha   90.00000000
_cell_angle_beta   97.07600000
_cell_angle_gamma   90.00000000
_symmetry_Int_Tables_number   1
_chemical_formula_structural   GdH7C15O7
_chemical_formula_sum   'Gd4 H28 C60 O28'
_cell_volume   1659.40605429
_cell_formula_units_Z   4
loop_
 _symmetry_equiv_pos_site_id
 _symmetry_equiv_pos_as_xyz
  1  'x, y, z'
loop_
 _atom_site_type_symbol
 _atom_site_label
 _atom_site_symmetry_multiplicity
 _atom_site_fract_x
 _atom_site_fract_y
 _atom_site_fract_z
 _atom_site_occupancy
 _atom_site_charge
  Gd  Gd1  1  0.614230  0.145720  0.043990  1.0  2.1522
  Gd  Gd2  1  0.885770  0.645720  0.456010  1.0  2.1509
  Gd  Gd3  1  0.385770  0.854280  0.956010  1.0  2.1508
  Gd  Gd4  1  0.114230  0.354280  0.543990  1.0  2.1524
  H  H5  1  0.172600  0.597900  0.108000  1.0  0.1245
  H  H6  1  0.920600  0.524000  0.166800  1.0  0.0919
  H  H7  1  0.612200  0.625500  0.186900  1.0  0.1148
  H  H8  1  0.718800  0.764700  0.258300  1.0  0.1308
  H  H9  1  0.208500  0.851500  0.349400  1.0  0.1298
  H  H10  1  0.013900  0.928900  0.265000  1.0  0.0925
  H  H11  1  0.151000  0.917100  0.178200  1.0  0.1336
  H  H12  1  0.327400  0.097900  0.392000  1.0  0.123
  H  H13  1  0.579400  0.024000  0.333200  1.0  0.0927
  H  H14  1  0.887800  0.125500  0.313100  1.0  0.1135
  H  H15  1  0.781200  0.264700  0.241700  1.0  0.131
  H  H16  1  0.291500  0.351500  0.150600  1.0  0.131
  H  H17  1  0.486100  0.428900  0.235000  1.0  0.093
  H  H18  1  0.349000  0.417100  0.321800  1.0  0.1341
  H  H19  1  0.827400  0.402100  0.892000  1.0  0.1246
  H  H20  1  0.079400  0.476000  0.833200  1.0  0.0949
  H  H21  1  0.387800  0.374500  0.813100  1.0  0.1125
  H  H22  1  0.281200  0.235300  0.741700  1.0  0.1311
  H  H23  1  0.791500  0.148500  0.650600  1.0  0.1308
  H  H24  1  0.986100  0.071100  0.735000  1.0  0.0947
  H  H25  1  0.849000  0.082900  0.821800  1.0  0.1342
  H  H26  1  0.672600  0.902100  0.608000  1.0  0.1245
  H  H27  1  0.420600  0.976000  0.666800  1.0  0.0928
  H  H28  1  0.112200  0.874500  0.686900  1.0  0.1134
  H  H29  1  0.218800  0.735300  0.758300  1.0  0.1308
  H  H30  1  0.708500  0.648500  0.849400  1.0  0.1299
  H  H31  1  0.513900  0.571100  0.765000  1.0  0.093
  H  H32  1  0.651000  0.582900  0.678200  1.0  0.133
  C  C33  1  0.684000  0.764400  0.143900  1.0  0.2302
  C  C34  1  0.824000  0.809700  0.105200  1.0  -0.032
  C  C35  1  0.999000  0.741600  0.090800  1.0  -0.1112
  C  C36  1  0.044000  0.639000  0.115200  1.0  -0.084
  C  C37  1  0.896000  0.596900  0.150900  1.0  -0.0769
  C  C38  1  0.716000  0.658000  0.163900  1.0  -0.1602
  C  C39  1  0.762000  0.921600  0.080500  1.0  0.696
  C  C40  1  0.152000  0.784500  0.048200  1.0  0.7021
  C  C41  1  0.442000  0.837200  0.209500  1.0  0.2393
  C  C42  1  0.574000  0.796300  0.259800  1.0  -0.1338
  C  C43  1  0.481000  0.804800  0.311500  1.0  -0.0569
  C  C44  1  0.272000  0.850000  0.314200  1.0  -0.1707
  C  C45  1  0.155000  0.893600  0.263100  1.0  -0.0782
  C  C46  1  0.235000  0.887600  0.212000  1.0  -0.2201
  C  C47  1  0.615000  0.759100  0.362400  1.0  0.6338
  C  C48  1  0.816000  0.264400  0.356100  1.0  0.2316
  C  C49  1  0.676000  0.309700  0.394800  1.0  -0.0305
  C  C50  1  0.501000  0.241600  0.409200  1.0  -0.1048
  C  C51  1  0.456000  0.139000  0.384800  1.0  -0.0837
  C  C52  1  0.604000  0.096900  0.349100  1.0  -0.0765
  C  C53  1  0.784000  0.158000  0.336100  1.0  -0.1615
  C  C54  1  0.738000  0.421600  0.419500  1.0  0.6952
  C  C55  1  0.348000  0.284500  0.451800  1.0  0.7026
  C  C56  1  0.058000  0.337200  0.290500  1.0  0.2497
  C  C57  1  0.926000  0.296300  0.240200  1.0  -0.1345
  C  C58  1  0.019000  0.304800  0.188500  1.0  -0.0591
  C  C59  1  0.228000  0.350000  0.185800  1.0  -0.1712
  C  C60  1  0.345000  0.393600  0.236900  1.0  -0.0789
  C  C61  1  0.265000  0.387600  0.288000  1.0  -0.2212
  C  C62  1  0.885000  0.259100  0.137600  1.0  0.6366
  C  C63  1  0.316000  0.235600  0.856100  1.0  0.2301
  C  C64  1  0.176000  0.190300  0.894800  1.0  -0.0302
  C  C65  1  0.001000  0.258400  0.909200  1.0  -0.1038
  C  C66  1  0.956000  0.361000  0.884800  1.0  -0.0839
  C  C67  1  0.104000  0.403100  0.849100  1.0  -0.0722
  C  C68  1  0.284000  0.342000  0.836100  1.0  -0.1621
  C  C69  1  0.238000  0.078400  0.919500  1.0  0.6955
  C  C70  1  0.848000  0.215500  0.951800  1.0  0.7021
  C  C71  1  0.558000  0.162800  0.790500  1.0  0.2496
  C  C72  1  0.426000  0.203700  0.740200  1.0  -0.1352
  C  C73  1  0.519000  0.195200  0.688500  1.0  -0.0578
  C  C74  1  0.728000  0.150000  0.685800  1.0  -0.1712
  C  C75  1  0.845000  0.106400  0.736900  1.0  -0.0777
  C  C76  1  0.765000  0.112400  0.788000  1.0  -0.2197
  C  C77  1  0.385000  0.240900  0.637600  1.0  0.6366
  C  C78  1  0.184000  0.735600  0.643900  1.0  0.2243
  C  C79  1  0.324000  0.690300  0.605200  1.0  -0.0327
  C  C80  1  0.499000  0.758400  0.590800  1.0  -0.1122
  C  C81  1  0.544000  0.861000  0.615200  1.0  -0.0833
  C  C82  1  0.396000  0.903100  0.650900  1.0  -0.0732
  C  C83  1  0.216000  0.842000  0.663900  1.0  -0.1619
  C  C84  1  0.262000  0.578400  0.580500  1.0  0.6955
  C  C85  1  0.652000  0.715500  0.548200  1.0  0.7065
  C  C86  1  0.942000  0.662800  0.709500  1.0  0.2392
  C  C87  1  0.074000  0.703700  0.759800  1.0  -0.1345
  C  C88  1  0.981000  0.695200  0.811500  1.0  -0.0565
  C  C89  1  0.772000  0.650000  0.814200  1.0  -0.1703
  C  C90  1  0.655000  0.606400  0.763100  1.0  -0.0806
  C  C91  1  0.735000  0.612400  0.712000  1.0  -0.2236
  C  C92  1  0.115000  0.740900  0.862400  1.0  0.6351
  O  O93  1  0.508000  0.834900  0.154800  1.0  -0.2459
  O  O94  1  0.621000  0.932700  0.035500  1.0  -0.8513
  O  O95  1  0.845000  0.007000  0.106800  1.0  -0.672
  O  O96  1  0.295000  0.720200  0.029300  1.0  -0.6502
  O  O97  1  0.123000  0.883100  0.028000  1.0  -0.6152
  O  O98  1  0.539000  0.744300  0.411900  1.0  -0.637
  O  O99  1  0.827000  0.732800  0.361400  1.0  -0.6798
  O  O100  1  0.992000  0.334900  0.345200  1.0  -0.2457
  O  O101  1  0.879000  0.432700  0.464500  1.0  -0.8506
  O  O102  1  0.655000  0.507000  0.393200  1.0  -0.673
  O  O103  1  0.205000  0.220200  0.470700  1.0  -0.6548
  O  O104  1  0.377000  0.383100  0.472000  1.0  -0.6159
  O  O105  1  0.961000  0.244300  0.088100  1.0  -0.6355
  O  O106  1  0.673000  0.232800  0.138600  1.0  -0.682
  O  O107  1  0.492000  0.165100  0.845200  1.0  -0.2457
  O  O108  1  0.379000  0.067300  0.964500  1.0  -0.8535
  O  O109  1  0.155000  0.993000  0.893200  1.0  -0.6722
  O  O110  1  0.705000  0.279800  0.970700  1.0  -0.6535
  O  O111  1  0.877000  0.116900  0.972000  1.0  -0.6159
  O  O112  1  0.461000  0.255700  0.588100  1.0  -0.6354
  O  O113  1  0.173000  0.267200  0.638600  1.0  -0.6814
  O  O114  1  0.008000  0.665100  0.654800  1.0  -0.2478
  O  O115  1  0.121000  0.567300  0.535500  1.0  -0.8557
  O  O116  1  0.345000  0.493000  0.606800  1.0  -0.6704
  O  O117  1  0.795000  0.779800  0.529300  1.0  -0.6529
  O  O118  1  0.623000  0.616900  0.528000  1.0  -0.616
  O  O119  1  0.039000  0.755700  0.911900  1.0  -0.6368
  O  O120  1  0.327000  0.767200  0.861400  1.0  -0.68
