# generated using pymatgen
data_ZnH4(CN5)2
_symmetry_space_group_name_H-M   'P 1'
_cell_length_a   8.77960000
_cell_length_b   10.02970000
_cell_length_c   10.15610000
_cell_angle_alpha   119.58700000
_cell_angle_beta   115.60700000
_cell_angle_gamma   90.00450000
_symmetry_Int_Tables_number   1
_chemical_formula_structural   ZnH4(CN5)2
_chemical_formula_sum   'Zn2 H8 C4 N20'
_cell_volume   674.82995271
_cell_formula_units_Z   2
loop_
 _symmetry_equiv_pos_site_id
 _symmetry_equiv_pos_as_xyz
  1  'x, y, z'
loop_
 _atom_site_type_symbol
 _atom_site_label
 _atom_site_symmetry_multiplicity
 _atom_site_fract_x
 _atom_site_fract_y
 _atom_site_fract_z
 _atom_site_occupancy
 _atom_site_charge
  Zn  Zn1  1  0.704190  0.887720  0.724580  1.0  0.7773
  Zn  Zn2  1  0.479610  0.163140  0.275420  1.0  0.7769
  H  H3  1  0.603000  0.606600  0.754000  1.0  0.294
  H  H4  1  0.534500  0.427900  0.659200  1.0  0.3434
  H  H5  1  0.124600  0.305900  0.122000  1.0  0.3625
  H  H6  1  0.987500  0.219400  0.943800  1.0  0.3167
  H  H7  1  0.349000  0.852600  0.246000  1.0  0.3045
  H  H8  1  0.375300  0.768700  0.340800  1.0  0.3418
  H  H9  1  0.502600  0.183900  0.878000  1.0  0.3646
  H  H10  1  0.543700  0.275600  0.056200  1.0  0.3175
  C  C11  1  0.573600  0.524900  0.544000  1.0  0.5961
  C  C12  1  0.092200  0.075500  0.996200  1.0  0.6112
  C  C13  1  0.529600  0.980900  0.456000  1.0  0.5968
  C  C14  1  0.596000  0.079300  0.003800  1.0  0.6111
  N  N15  1  0.611200  0.657000  0.547200  1.0  -0.3669
  N  N16  1  0.590700  0.604400  0.387200  1.0  -0.0974
  N  N17  1  0.570100  0.522100  0.672600  1.0  -0.7065
  N  N18  1  0.532500  0.396900  0.389400  1.0  -0.3855
  N  N19  1  0.543800  0.453400  0.294400  1.0  -0.1169
  N  N20  1  0.029200  0.824400  0.893600  1.0  -0.1092
  N  N21  1  0.182800  0.888000  0.025600  1.0  -0.0563
  N  N22  1  0.964200  0.940100  0.868800  1.0  -0.3827
  N  N23  1  0.228400  0.047800  0.095000  1.0  -0.3546
  N  N24  1  0.080400  0.217600  0.017800  1.0  -0.745
  N  N25  1  0.564000  0.109800  0.452800  1.0  -0.3653
  N  N26  1  0.703500  0.217200  0.612800  1.0  -0.1002
  N  N27  1  0.397500  0.849500  0.327400  1.0  -0.7038
  N  N28  1  0.643100  0.007500  0.610600  1.0  -0.3797
  N  N29  1  0.749400  0.159000  0.705600  1.0  -0.1068
  N  N30  1  0.635600  0.930800  0.106400  1.0  -0.1053
  N  N31  1  0.657200  0.862400  0.974400  1.0  -0.0588
  N  N32  1  0.595400  0.071300  0.131200  1.0  -0.3837
  N  N33  1  0.633400  0.952800  0.905000  1.0  -0.3456
  N  N34  1  0.562600  0.199800  0.982200  1.0  -0.7442
