# generated using pymatgen
data_Mn3H16C24N4O9
_symmetry_space_group_name_H-M   'P 1'
_cell_length_a   17.38800000
_cell_length_b   12.41800000
_cell_length_c   19.70910000
_cell_angle_alpha   90.00000000
_cell_angle_beta   90.85400000
_cell_angle_gamma   90.00000000
_symmetry_Int_Tables_number   1
_chemical_formula_structural   Mn3H16C24N4O9
_chemical_formula_sum   'Mn12 H64 C96 N16 O36'
_cell_volume   4255.19861864
_cell_formula_units_Z   4
loop_
 _symmetry_equiv_pos_site_id
 _symmetry_equiv_pos_as_xyz
  1  'x, y, z'
loop_
 _atom_site_type_symbol
 _atom_site_label
 _atom_site_symmetry_multiplicity
 _atom_site_fract_x
 _atom_site_fract_y
 _atom_site_fract_z
 _atom_site_occupancy
 _atom_site_charge
  Mn  Mn1  1  0.668840  0.003700  0.836190  1.0  1.0984
  Mn  Mn2  1  0.657300  0.266400  0.742320  1.0  1.0246
  Mn  Mn3  1  0.661350  0.001300  0.656450  1.0  1.1379
  Mn  Mn4  1  0.168840  0.503700  0.836190  1.0  1.0984
  Mn  Mn5  1  0.157300  0.766400  0.742320  1.0  1.0246
  Mn  Mn6  1  0.161350  0.501300  0.656450  1.0  1.1379
  Mn  Mn7  1  0.331160  0.003700  0.163810  1.0  1.0962
  Mn  Mn8  1  0.342700  0.266400  0.257680  1.0  1.0252
  Mn  Mn9  1  0.338650  0.001300  0.343550  1.0  1.141
  Mn  Mn10  1  0.831160  0.503700  0.163810  1.0  1.0962
  Mn  Mn11  1  0.842700  0.766400  0.257680  1.0  1.0253
  Mn  Mn12  1  0.838650  0.501300  0.343550  1.0  1.141
  H  H13  1  0.821700  0.195700  0.977300  1.0  0.0991
  H  H14  1  0.874300  0.297500  0.067000  1.0  0.0871
  H  H15  1  0.703700  0.503400  0.052900  1.0  0.0687
  H  H16  1  0.655200  0.420000  0.956600  1.0  0.1102
  H  H17  1  0.611200  0.655600  0.641600  1.0  0.1039
  H  H18  1  0.623200  0.470000  0.644800  1.0  0.064
  H  H19  1  0.707900  0.478500  0.830400  1.0  0.0735
  H  H20  1  0.691500  0.666800  0.835100  1.0  0.1074
  H  H21  1  0.914500  0.929100  0.851900  1.0  0.1004
  H  H22  1  0.033200  0.846000  0.848300  1.0  0.0829
  H  H23  1  0.004300  0.780100  0.654500  1.0  0.0752
  H  H24  1  0.883800  0.857100  0.653600  1.0  0.0989
  H  H25  1  0.828100  0.201100  0.533500  1.0  0.1089
  H  H26  1  0.881900  0.304100  0.448100  1.0  0.0713
  H  H27  1  0.700300  0.491500  0.438300  1.0  0.08
  H  H28  1  0.642400  0.398900  0.527500  1.0  0.1137
  H  H29  1  0.321700  0.695700  0.977300  1.0  0.0991
  H  H30  1  0.374300  0.797500  0.067000  1.0  0.0871
  H  H31  1  0.203700  0.003400  0.052900  1.0  0.0687
  H  H32  1  0.155200  0.920000  0.956600  1.0  0.1102
  H  H33  1  0.111200  0.155600  0.641600  1.0  0.1039
  H  H34  1  0.123200  0.970000  0.644800  1.0  0.064
  H  H35  1  0.207900  0.978500  0.830400  1.0  0.0735
  H  H36  1  0.191500  0.166800  0.835100  1.0  0.1074
  H  H37  1  0.414500  0.429100  0.851900  1.0  0.1004
  H  H38  1  0.533200  0.346000  0.848300  1.0  0.0829
  H  H39  1  0.504300  0.280100  0.654500  1.0  0.0752
  H  H40  1  0.383800  0.357100  0.653600  1.0  0.0989
  H  H41  1  0.328100  0.701100  0.533500  1.0  0.1089
  H  H42  1  0.381900  0.804100  0.448100  1.0  0.0713
  H  H43  1  0.200300  0.991500  0.438300  1.0  0.08
  H  H44  1  0.142400  0.898900  0.527500  1.0  0.1137
  H  H45  1  0.178300  0.195700  0.022700  1.0  0.0988
  H  H46  1  0.125700  0.297500  0.933000  1.0  0.087
  H  H47  1  0.296300  0.503400  0.947100  1.0  0.069
  H  H48  1  0.344800  0.420000  0.043400  1.0  0.1109
  H  H49  1  0.388800  0.655600  0.358400  1.0  0.1039
  H  H50  1  0.376800  0.470000  0.355200  1.0  0.0646
  H  H51  1  0.292100  0.478500  0.169600  1.0  0.0738
  H  H52  1  0.308500  0.666800  0.164900  1.0  0.1071
  H  H53  1  0.085500  0.929100  0.148100  1.0  0.1003
  H  H54  1  0.966800  0.846000  0.151700  1.0  0.0831
  H  H55  1  0.995700  0.780100  0.345500  1.0  0.0752
  H  H56  1  0.116200  0.857100  0.346400  1.0  0.0993
  H  H57  1  0.171900  0.201100  0.466500  1.0  0.1084
  H  H58  1  0.118100  0.304100  0.551900  1.0  0.0712
  H  H59  1  0.299700  0.491500  0.561700  1.0  0.0797
  H  H60  1  0.357600  0.398900  0.472500  1.0  0.1143
  H  H61  1  0.678300  0.695700  0.022700  1.0  0.0988
  H  H62  1  0.625700  0.797500  0.933000  1.0  0.087
  H  H63  1  0.796300  0.003400  0.947100  1.0  0.069
  H  H64  1  0.844800  0.920000  0.043400  1.0  0.1109
  H  H65  1  0.888800  0.155600  0.358400  1.0  0.1039
  H  H66  1  0.876800  0.970000  0.355200  1.0  0.0646
  H  H67  1  0.792100  0.978500  0.169600  1.0  0.0738
  H  H68  1  0.808500  0.166800  0.164900  1.0  0.1071
  H  H69  1  0.585500  0.429100  0.148100  1.0  0.1003
  H  H70  1  0.466800  0.346000  0.151700  1.0  0.0831
  H  H71  1  0.495700  0.280100  0.345500  1.0  0.0752
  H  H72  1  0.616200  0.357100  0.346400  1.0  0.0993
  H  H73  1  0.671900  0.701100  0.466500  1.0  0.1084
  H  H74  1  0.618100  0.804100  0.551900  1.0  0.0712
  H  H75  1  0.799700  0.991500  0.561700  1.0  0.0797
  H  H76  1  0.857600  0.898900  0.472500  1.0  0.1143
  C  C77  1  0.698100  0.234700  0.898600  1.0  0.7206
  C  C78  1  0.733600  0.296600  0.957700  1.0  -0.0698
  C  C79  1  0.797600  0.260700  0.990800  1.0  -0.1245
  C  C80  1  0.828000  0.320900  0.045400  1.0  0.1365
  C  C81  1  0.729500  0.441900  0.035800  1.0  0.1538
  C  C82  1  0.698900  0.391300  0.979800  1.0  -0.2023
  C  C83  1  0.637000  0.801000  0.742400  1.0  0.7242
  C  C84  1  0.648400  0.680700  0.738500  1.0  -0.1197
  C  C85  1  0.629700  0.621100  0.681700  1.0  -0.1716
  C  C86  1  0.638300  0.510100  0.683800  1.0  0.1551
  C  C87  1  0.686700  0.514900  0.792100  1.0  0.1579
  C  C88  1  0.677800  0.628000  0.795200  1.0  -0.1236
  C  C89  1  0.807600  0.956900  0.752700  1.0  0.7417
  C  C90  1  0.885300  0.904500  0.752000  1.0  -0.0694
  C  C91  1  0.931800  0.899200  0.810500  1.0  -0.1518
  C  C92  1  0.002800  0.850300  0.807900  1.0  0.1473
  C  C93  1  0.985900  0.811300  0.695200  1.0  0.1484
  C  C94  1  0.913900  0.857600  0.694200  1.0  -0.1667
  C  C95  1  0.693500  0.226200  0.596600  1.0  0.7365
  C  C96  1  0.729800  0.288300  0.539700  1.0  -0.096
  C  C97  1  0.800900  0.261200  0.515400  1.0  -0.1484
  C  C98  1  0.832400  0.323000  0.464100  1.0  0.1507
  C  C99  1  0.726800  0.432900  0.458900  1.0  0.1249
  C  C100  1  0.691300  0.377200  0.511400  1.0  -0.1793
  C  C101  1  0.198100  0.734700  0.898600  1.0  0.7206
  C  C102  1  0.233600  0.796600  0.957700  1.0  -0.0698
  C  C103  1  0.297600  0.760700  0.990800  1.0  -0.1245
  C  C104  1  0.328000  0.820900  0.045400  1.0  0.1365
  C  C105  1  0.229500  0.941900  0.035800  1.0  0.1538
  C  C106  1  0.198900  0.891300  0.979800  1.0  -0.2023
  C  C107  1  0.137000  0.301000  0.742400  1.0  0.7242
  C  C108  1  0.148400  0.180700  0.738500  1.0  -0.1197
  C  C109  1  0.129700  0.121100  0.681700  1.0  -0.1716
  C  C110  1  0.138300  0.010100  0.683800  1.0  0.1551
  C  C111  1  0.186700  0.014900  0.792100  1.0  0.1579
  C  C112  1  0.177800  0.128000  0.795200  1.0  -0.1236
  C  C113  1  0.307600  0.456900  0.752700  1.0  0.7417
  C  C114  1  0.385300  0.404500  0.752000  1.0  -0.0694
  C  C115  1  0.431800  0.399200  0.810500  1.0  -0.1518
  C  C116  1  0.502800  0.350300  0.807900  1.0  0.1473
  C  C117  1  0.485900  0.311300  0.695200  1.0  0.1484
  C  C118  1  0.413900  0.357600  0.694200  1.0  -0.1667
  C  C119  1  0.193500  0.726200  0.596600  1.0  0.7365
  C  C120  1  0.229800  0.788300  0.539700  1.0  -0.096
  C  C121  1  0.300900  0.761200  0.515400  1.0  -0.1484
  C  C122  1  0.332400  0.823000  0.464100  1.0  0.1507
  C  C123  1  0.226800  0.932900  0.458900  1.0  0.1249
  C  C124  1  0.191300  0.877200  0.511400  1.0  -0.1793
  C  C125  1  0.301900  0.234700  0.101400  1.0  0.7208
  C  C126  1  0.266400  0.296600  0.042300  1.0  -0.0696
  C  C127  1  0.202400  0.260700  0.009200  1.0  -0.1253
  C  C128  1  0.172000  0.320900  0.954600  1.0  0.1367
  C  C129  1  0.270500  0.441900  0.964200  1.0  0.1544
  C  C130  1  0.301100  0.391300  0.020200  1.0  -0.2014
  C  C131  1  0.363000  0.801000  0.257600  1.0  0.7269
  C  C132  1  0.351600  0.680700  0.261500  1.0  -0.1203
  C  C133  1  0.370300  0.621100  0.318300  1.0  -0.1723
  C  C134  1  0.361700  0.510100  0.316200  1.0  0.1562
  C  C135  1  0.313300  0.514900  0.207900  1.0  0.1569
  C  C136  1  0.322200  0.628000  0.204800  1.0  -0.123
  C  C137  1  0.192400  0.956900  0.247300  1.0  0.7436
  C  C138  1  0.114700  0.904500  0.248000  1.0  -0.0672
  C  C139  1  0.068200  0.899200  0.189500  1.0  -0.1516
  C  C140  1  0.997200  0.850300  0.192100  1.0  0.1468
  C  C141  1  0.014100  0.811300  0.304800  1.0  0.1482
  C  C142  1  0.086100  0.857600  0.305800  1.0  -0.1663
  C  C143  1  0.306500  0.226200  0.403400  1.0  0.7359
  C  C144  1  0.270200  0.288300  0.460300  1.0  -0.0955
  C  C145  1  0.199100  0.261200  0.484600  1.0  -0.1481
  C  C146  1  0.167600  0.323000  0.535900  1.0  0.1513
  C  C147  1  0.273200  0.432900  0.541100  1.0  0.1244
  C  C148  1  0.308700  0.377200  0.488600  1.0  -0.1776
  C  C149  1  0.801900  0.734700  0.101400  1.0  0.7208
  C  C150  1  0.766400  0.796600  0.042300  1.0  -0.0696
  C  C151  1  0.702400  0.760700  0.009200  1.0  -0.1253
  C  C152  1  0.672000  0.820900  0.954600  1.0  0.1367
  C  C153  1  0.770500  0.941900  0.964200  1.0  0.1544
  C  C154  1  0.801100  0.891300  0.020200  1.0  -0.2014
  C  C155  1  0.863000  0.301000  0.257600  1.0  0.7269
  C  C156  1  0.851600  0.180700  0.261500  1.0  -0.1203
  C  C157  1  0.870300  0.121100  0.318300  1.0  -0.1723
  C  C158  1  0.861700  0.010100  0.316200  1.0  0.1562
  C  C159  1  0.813300  0.014900  0.207900  1.0  0.1569
  C  C160  1  0.822200  0.128000  0.204800  1.0  -0.123
  C  C161  1  0.692400  0.456900  0.247300  1.0  0.7436
  C  C162  1  0.614700  0.404500  0.248000  1.0  -0.0672
  C  C163  1  0.568200  0.399200  0.189500  1.0  -0.1516
  C  C164  1  0.497200  0.350300  0.192100  1.0  0.1468
  C  C165  1  0.514100  0.311300  0.304800  1.0  0.1482
  C  C166  1  0.586100  0.357600  0.305800  1.0  -0.1663
  C  C167  1  0.806500  0.726200  0.403400  1.0  0.7359
  C  C168  1  0.770200  0.788300  0.460300  1.0  -0.0955
  C  C169  1  0.699100  0.761200  0.484600  1.0  -0.1481
  C  C170  1  0.667600  0.823000  0.535900  1.0  0.1513
  C  C171  1  0.773200  0.932900  0.541100  1.0  0.1244
  C  C172  1  0.808700  0.877200  0.488600  1.0  -0.1776
  N  N173  1  0.793700  0.409400  0.067700  1.0  -0.3374
  N  N174  1  0.666200  0.456600  0.737000  1.0  -0.3728
  N  N175  1  0.030900  0.808400  0.750400  1.0  -0.3402
  N  N176  1  0.796900  0.407000  0.436400  1.0  -0.2709
  N  N177  1  0.293700  0.909400  0.067700  1.0  -0.3374
  N  N178  1  0.166200  0.956600  0.737000  1.0  -0.3728
  N  N179  1  0.530900  0.308400  0.750400  1.0  -0.3402
  N  N180  1  0.296900  0.907000  0.436400  1.0  -0.2709
  N  N181  1  0.206300  0.409400  0.932300  1.0  -0.3349
  N  N182  1  0.333800  0.456600  0.263000  1.0  -0.3725
  N  N183  1  0.969100  0.808400  0.249600  1.0  -0.3421
  N  N184  1  0.203100  0.407000  0.563600  1.0  -0.2706
  N  N185  1  0.706300  0.909400  0.932300  1.0  -0.3349
  N  N186  1  0.833800  0.956600  0.263000  1.0  -0.3725
  N  N187  1  0.469100  0.308400  0.249600  1.0  -0.3421
  N  N188  1  0.703100  0.907000  0.563600  1.0  -0.2706
  O  O189  1  0.631400  0.094000  0.747100  1.0  -0.8873
  O  O190  1  0.698600  0.135800  0.902400  1.0  -0.6345
  O  O191  1  0.670200  0.291300  0.850600  1.0  -0.6247
  O  O192  1  0.649800  0.843700  0.798400  1.0  -0.6311
  O  O193  1  0.612500  0.847600  0.689800  1.0  -0.6327
  O  O194  1  0.787100  0.998200  0.807300  1.0  -0.5927
  O  O195  1  0.769700  0.952700  0.697900  1.0  -0.6239
  O  O196  1  0.648500  0.276900  0.634300  1.0  -0.6293
  O  O197  1  0.711600  0.130300  0.603000  1.0  -0.6115
  O  O198  1  0.131400  0.594000  0.747100  1.0  -0.8873
  O  O199  1  0.198600  0.635800  0.902400  1.0  -0.6345
  O  O200  1  0.170200  0.791300  0.850600  1.0  -0.6247
  O  O201  1  0.149800  0.343700  0.798400  1.0  -0.6311
  O  O202  1  0.112500  0.347600  0.689800  1.0  -0.6327
  O  O203  1  0.287100  0.498200  0.807300  1.0  -0.5927
  O  O204  1  0.269700  0.452700  0.697900  1.0  -0.6239
  O  O205  1  0.148500  0.776900  0.634300  1.0  -0.6299
  O  O206  1  0.211600  0.630300  0.603000  1.0  -0.6115
  O  O207  1  0.368600  0.094000  0.252900  1.0  -0.8885
  O  O208  1  0.301400  0.135800  0.097600  1.0  -0.6333
  O  O209  1  0.329800  0.291300  0.149400  1.0  -0.6248
  O  O210  1  0.350200  0.843700  0.201600  1.0  -0.6293
  O  O211  1  0.387500  0.847600  0.310200  1.0  -0.6299
  O  O212  1  0.212900  0.998200  0.192700  1.0  -0.5929
  O  O213  1  0.230300  0.952700  0.302100  1.0  -0.6257
  O  O214  1  0.351500  0.276900  0.365700  1.0  -0.6282
  O  O215  1  0.288400  0.130300  0.397000  1.0  -0.6112
  O  O216  1  0.868600  0.594000  0.252900  1.0  -0.8885
  O  O217  1  0.801400  0.635800  0.097600  1.0  -0.6333
  O  O218  1  0.829800  0.791300  0.149400  1.0  -0.6248
  O  O219  1  0.850200  0.343700  0.201600  1.0  -0.6293
  O  O220  1  0.887500  0.347600  0.310200  1.0  -0.6299
  O  O221  1  0.712900  0.498200  0.192700  1.0  -0.5929
  O  O222  1  0.730300  0.452700  0.302100  1.0  -0.6257
  O  O223  1  0.851500  0.776900  0.365700  1.0  -0.6286
  O  O224  1  0.788400  0.630300  0.397000  1.0  -0.6112
