# generated using pymatgen
data_Cd3H17C24N4O9
_symmetry_space_group_name_H-M   'P 1'
_cell_length_a   19.70700000
_cell_length_b   18.17540000
_cell_length_c   12.60850000
_cell_angle_alpha   90.00000000
_cell_angle_beta   90.00000000
_cell_angle_gamma   90.00000000
_symmetry_Int_Tables_number   1
_chemical_formula_structural   Cd3H17C24N4O9
_chemical_formula_sum   'Cd12 H68 C96 N16 O36'
_cell_volume   4516.14541045
_cell_formula_units_Z   4
loop_
 _symmetry_equiv_pos_site_id
 _symmetry_equiv_pos_as_xyz
  1  'x, y, z'
loop_
 _atom_site_type_symbol
 _atom_site_label
 _atom_site_symmetry_multiplicity
 _atom_site_fract_x
 _atom_site_fract_y
 _atom_site_fract_z
 _atom_site_occupancy
 _atom_site_charge
  Cd  Cd1  1  0.158880  0.163390  0.211630  1.0  1.0007
  Cd  Cd2  1  0.158880  0.663390  0.711630  1.0  1.0007
  Cd  Cd3  1  0.841120  0.836610  0.211630  1.0  1.002
  Cd  Cd4  1  0.841120  0.336610  0.711630  1.0  1.002
  Cd  Cd5  1  0.658880  0.836610  0.211630  1.0  1.001
  Cd  Cd6  1  0.658880  0.336610  0.711630  1.0  1.001
  Cd  Cd7  1  0.341120  0.163390  0.211630  1.0  1.0014
  Cd  Cd8  1  0.341120  0.663390  0.711630  1.0  1.0014
  Cd  Cd9  1  0.250000  0.145000  0.946830  1.0  0.9855
  Cd  Cd10  1  0.250000  0.645000  0.446830  1.0  0.9855
  Cd  Cd11  1  0.750000  0.855000  0.946830  1.0  0.9849
  Cd  Cd12  1  0.750000  0.355000  0.446830  1.0  0.9849
  H  H13  1  0.033200  0.147200  0.802000  1.0  0.1054
  H  H14  1  0.945500  0.201800  0.710500  1.0  0.0791
  H  H15  1  0.942400  0.370200  0.910800  1.0  0.0855
  H  H16  1  0.028300  0.315500  0.011100  1.0  0.1035
  H  H17  1  0.151900  0.147700  0.739800  1.0  0.0611
  H  H18  1  0.148400  0.123400  0.559000  1.0  0.0931
  H  H19  1  0.347300  0.009600  0.898500  1.0  0.069
  H  H20  1  0.350700  0.892100  0.828800  1.0  0.1021
  H  H21  1  0.033200  0.647200  0.302000  1.0  0.1054
  H  H22  1  0.945500  0.701800  0.210500  1.0  0.0791
  H  H23  1  0.942400  0.870200  0.410800  1.0  0.0855
  H  H24  1  0.028300  0.815500  0.511100  1.0  0.1035
  H  H25  1  0.151900  0.647700  0.239800  1.0  0.0611
  H  H26  1  0.148400  0.623400  0.059000  1.0  0.0931
  H  H27  1  0.347300  0.509600  0.398500  1.0  0.069
  H  H28  1  0.350700  0.392100  0.328800  1.0  0.1021
  H  H29  1  0.966800  0.852800  0.802000  1.0  0.1062
  H  H30  1  0.054500  0.798200  0.710500  1.0  0.079
  H  H31  1  0.057600  0.629800  0.910800  1.0  0.0852
  H  H32  1  0.971700  0.684500  0.011100  1.0  0.1037
  H  H33  1  0.848100  0.852300  0.739800  1.0  0.0615
  H  H34  1  0.851600  0.876600  0.559000  1.0  0.0939
  H  H35  1  0.652700  0.990400  0.898500  1.0  0.0685
  H  H36  1  0.649300  0.107900  0.828800  1.0  0.1018
  H  H37  1  0.966800  0.352800  0.302000  1.0  0.1062
  H  H38  1  0.054500  0.298200  0.210500  1.0  0.079
  H  H39  1  0.057600  0.129800  0.410800  1.0  0.0852
  H  H40  1  0.971700  0.184500  0.511100  1.0  0.1037
  H  H41  1  0.848100  0.352300  0.239800  1.0  0.0615
  H  H42  1  0.851600  0.376600  0.059000  1.0  0.0939
  H  H43  1  0.652700  0.490400  0.398500  1.0  0.0685
  H  H44  1  0.649300  0.607900  0.328800  1.0  0.1018
  H  H45  1  0.533200  0.852800  0.802000  1.0  0.106
  H  H46  1  0.445500  0.798200  0.710500  1.0  0.0792
  H  H47  1  0.442400  0.629800  0.910800  1.0  0.0851
  H  H48  1  0.528300  0.684500  0.011100  1.0  0.1036
  H  H49  1  0.651900  0.852300  0.739800  1.0  0.0612
  H  H50  1  0.648400  0.876600  0.559000  1.0  0.0936
  H  H51  1  0.847300  0.990400  0.898500  1.0  0.0686
  H  H52  1  0.850700  0.107900  0.828800  1.0  0.102
  H  H53  1  0.533200  0.352800  0.302000  1.0  0.106
  H  H54  1  0.445500  0.298200  0.210500  1.0  0.0792
  H  H55  1  0.442400  0.129800  0.410800  1.0  0.0851
  H  H56  1  0.528300  0.184500  0.511100  1.0  0.1036
  H  H57  1  0.651900  0.352300  0.239800  1.0  0.0612
  H  H58  1  0.648400  0.376600  0.059000  1.0  0.0936
  H  H59  1  0.847300  0.490400  0.398500  1.0  0.0686
  H  H60  1  0.850700  0.607900  0.328800  1.0  0.102
  H  H61  1  0.466800  0.147200  0.802000  1.0  0.1054
  H  H62  1  0.554500  0.201800  0.710500  1.0  0.079
  H  H63  1  0.557600  0.370200  0.910800  1.0  0.0854
  H  H64  1  0.471700  0.315500  0.011100  1.0  0.1036
  H  H65  1  0.348100  0.147700  0.739800  1.0  0.0609
  H  H66  1  0.351600  0.123400  0.559000  1.0  0.0936
  H  H67  1  0.152700  0.009600  0.898500  1.0  0.0687
  H  H68  1  0.149300  0.892100  0.828800  1.0  0.1017
  H  H69  1  0.466800  0.647200  0.302000  1.0  0.1054
  H  H70  1  0.554500  0.701800  0.210500  1.0  0.079
  H  H71  1  0.557600  0.870200  0.410800  1.0  0.0854
  H  H72  1  0.471700  0.815500  0.511100  1.0  0.1036
  H  H73  1  0.348100  0.647700  0.239800  1.0  0.0609
  H  H74  1  0.351600  0.623400  0.059000  1.0  0.0936
  H  H75  1  0.152700  0.509600  0.398500  1.0  0.0687
  H  H76  1  0.149300  0.392100  0.328800  1.0  0.1017
  H  H77  1  0.250000  0.068700  0.130400  1.0  0.344
  H  H78  1  0.250000  0.568700  0.630400  1.0  0.344
  H  H79  1  0.750000  0.931300  0.130400  1.0  0.3442
  H  H80  1  0.750000  0.431300  0.630400  1.0  0.3442
  C  C81  1  0.097700  0.192900  0.978600  1.0  0.7364
  C  C82  1  0.039500  0.224600  0.915600  1.0  -0.1304
  C  C83  1  0.014700  0.192300  0.826400  1.0  -0.1652
  C  C84  1  0.962800  0.225500  0.772100  1.0  0.1318
  C  C85  1  0.960300  0.324000  0.889500  1.0  0.1372
  C  C86  1  0.011900  0.292000  0.948800  1.0  -0.0801
  C  C87  1  0.193500  0.143200  0.702300  1.0  0.1718
  C  C88  1  0.191000  0.130700  0.592900  1.0  -0.1344
  C  C89  1  0.305600  0.985600  0.883600  1.0  0.172
  C  C90  1  0.308400  0.915500  0.841200  1.0  -0.181
  C  C91  1  0.097700  0.692900  0.478600  1.0  0.7364
  C  C92  1  0.039500  0.724600  0.415600  1.0  -0.1304
  C  C93  1  0.014700  0.692300  0.326400  1.0  -0.1652
  C  C94  1  0.962800  0.725500  0.272100  1.0  0.1318
  C  C95  1  0.960300  0.824000  0.389500  1.0  0.1372
  C  C96  1  0.011900  0.792000  0.448800  1.0  -0.0801
  C  C97  1  0.193500  0.643200  0.202300  1.0  0.1718
  C  C98  1  0.191000  0.630700  0.092900  1.0  -0.1344
  C  C99  1  0.305600  0.485600  0.383600  1.0  0.172
  C  C100  1  0.308400  0.415500  0.341200  1.0  -0.181
  C  C101  1  0.902300  0.807100  0.978600  1.0  0.7378
  C  C102  1  0.960500  0.775400  0.915600  1.0  -0.1302
  C  C103  1  0.985300  0.807700  0.826400  1.0  -0.1663
  C  C104  1  0.037200  0.774500  0.772100  1.0  0.1329
  C  C105  1  0.039700  0.676000  0.889500  1.0  0.1378
  C  C106  1  0.988100  0.708000  0.948800  1.0  -0.0797
  C  C107  1  0.806500  0.856800  0.702300  1.0  0.1716
  C  C108  1  0.809000  0.869300  0.592900  1.0  -0.1351
  C  C109  1  0.694400  0.014400  0.883600  1.0  0.1718
  C  C110  1  0.691600  0.084500  0.841200  1.0  -0.18
  C  C111  1  0.902300  0.307100  0.478600  1.0  0.7378
  C  C112  1  0.960500  0.275400  0.415600  1.0  -0.1302
  C  C113  1  0.985300  0.307700  0.326400  1.0  -0.1663
  C  C114  1  0.037200  0.274500  0.272100  1.0  0.1329
  C  C115  1  0.039700  0.176000  0.389500  1.0  0.1378
  C  C116  1  0.988100  0.208000  0.448800  1.0  -0.0797
  C  C117  1  0.806500  0.356800  0.202300  1.0  0.1716
  C  C118  1  0.809000  0.369300  0.092900  1.0  -0.1351
  C  C119  1  0.694400  0.514400  0.383600  1.0  0.1718
  C  C120  1  0.691600  0.584500  0.341200  1.0  -0.18
  C  C121  1  0.597700  0.807100  0.978600  1.0  0.7367
  C  C122  1  0.539500  0.775400  0.915600  1.0  -0.1305
  C  C123  1  0.514700  0.807700  0.826400  1.0  -0.1654
  C  C124  1  0.462800  0.774500  0.772100  1.0  0.1314
  C  C125  1  0.460300  0.676000  0.889500  1.0  0.137
  C  C126  1  0.511900  0.708000  0.948800  1.0  -0.0796
  C  C127  1  0.693500  0.856800  0.702300  1.0  0.172
  C  C128  1  0.691000  0.869300  0.592900  1.0  -0.1343
  C  C129  1  0.805600  0.014400  0.883600  1.0  0.1724
  C  C130  1  0.808400  0.084500  0.841200  1.0  -0.1794
  C  C131  1  0.597700  0.307100  0.478600  1.0  0.7367
  C  C132  1  0.539500  0.275400  0.415600  1.0  -0.1305
  C  C133  1  0.514700  0.307700  0.326400  1.0  -0.1654
  C  C134  1  0.462800  0.274500  0.272100  1.0  0.1314
  C  C135  1  0.460300  0.176000  0.389500  1.0  0.137
  C  C136  1  0.511900  0.208000  0.448800  1.0  -0.0796
  C  C137  1  0.693500  0.356800  0.202300  1.0  0.172
  C  C138  1  0.691000  0.369300  0.092900  1.0  -0.1343
  C  C139  1  0.805600  0.514400  0.383600  1.0  0.1724
  C  C140  1  0.808400  0.584500  0.341200  1.0  -0.1794
  C  C141  1  0.402300  0.192900  0.978600  1.0  0.7375
  C  C142  1  0.460500  0.224600  0.915600  1.0  -0.13
  C  C143  1  0.485300  0.192300  0.826400  1.0  -0.1659
  C  C144  1  0.537200  0.225500  0.772100  1.0  0.1334
  C  C145  1  0.539700  0.324000  0.889500  1.0  0.1376
  C  C146  1  0.488100  0.292000  0.948800  1.0  -0.0803
  C  C147  1  0.306500  0.143200  0.702300  1.0  0.1716
  C  C148  1  0.309000  0.130700  0.592900  1.0  -0.1358
  C  C149  1  0.194400  0.985600  0.883600  1.0  0.1713
  C  C150  1  0.191600  0.915500  0.841200  1.0  -0.1793
  C  C151  1  0.402300  0.692900  0.478600  1.0  0.7375
  C  C152  1  0.460500  0.724600  0.415600  1.0  -0.13
  C  C153  1  0.485300  0.692300  0.326400  1.0  -0.1659
  C  C154  1  0.537200  0.725500  0.272100  1.0  0.1334
  C  C155  1  0.539700  0.824000  0.389500  1.0  0.1376
  C  C156  1  0.488100  0.792000  0.448800  1.0  -0.0803
  C  C157  1  0.306500  0.643200  0.202300  1.0  0.1716
  C  C158  1  0.309000  0.630700  0.092900  1.0  -0.1358
  C  C159  1  0.194400  0.485600  0.383600  1.0  0.1713
  C  C160  1  0.191600  0.415500  0.341200  1.0  -0.1793
  C  C161  1  0.250000  0.128900  0.533900  1.0  -0.104
  C  C162  1  0.250000  0.121500  0.415200  1.0  0.7349
  C  C163  1  0.250000  0.881100  0.817900  1.0  -0.116
  C  C164  1  0.250000  0.805900  0.766600  1.0  0.7531
  C  C165  1  0.250000  0.628900  0.033900  1.0  -0.104
  C  C166  1  0.250000  0.621500  0.915200  1.0  0.7349
  C  C167  1  0.250000  0.381100  0.317900  1.0  -0.116
  C  C168  1  0.250000  0.305900  0.266600  1.0  0.7531
  C  C169  1  0.750000  0.871100  0.533900  1.0  -0.1032
  C  C170  1  0.750000  0.878500  0.415200  1.0  0.737
  C  C171  1  0.750000  0.118900  0.817900  1.0  -0.1167
  C  C172  1  0.750000  0.194100  0.766600  1.0  0.7542
  C  C173  1  0.750000  0.371100  0.033900  1.0  -0.1032
  C  C174  1  0.750000  0.378500  0.915200  1.0  0.737
  C  C175  1  0.750000  0.618900  0.317900  1.0  -0.1167
  C  C176  1  0.750000  0.694100  0.266600  1.0  0.7542
  N  N177  1  0.934800  0.290800  0.802200  1.0  -0.3445
  N  N178  1  0.934800  0.790800  0.302200  1.0  -0.3445
  N  N179  1  0.065200  0.709200  0.802200  1.0  -0.3448
  N  N180  1  0.065200  0.209200  0.302200  1.0  -0.3448
  N  N181  1  0.434800  0.709200  0.802200  1.0  -0.345
  N  N182  1  0.434800  0.209200  0.302200  1.0  -0.345
  N  N183  1  0.565200  0.290800  0.802200  1.0  -0.3452
  N  N184  1  0.565200  0.790800  0.302200  1.0  -0.3452
  N  N185  1  0.250000  0.149000  0.755500  1.0  -0.3687
  N  N186  1  0.250000  0.020500  0.904300  1.0  -0.3328
  N  N187  1  0.250000  0.649000  0.255500  1.0  -0.3687
  N  N188  1  0.250000  0.520500  0.404300  1.0  -0.3328
  N  N189  1  0.750000  0.851000  0.755500  1.0  -0.3683
  N  N190  1  0.750000  0.979500  0.904300  1.0  -0.3331
  N  N191  1  0.750000  0.351000  0.255500  1.0  -0.3683
  N  N192  1  0.750000  0.479500  0.404300  1.0  -0.3331
  O  O193  1  0.133600  0.146600  0.931500  1.0  -0.6238
  O  O194  1  0.105800  0.214300  0.071800  1.0  -0.639
  O  O195  1  0.193600  0.116200  0.371500  1.0  -0.6563
  O  O196  1  0.304400  0.778400  0.749000  1.0  -0.6555
  O  O197  1  0.133600  0.646600  0.431500  1.0  -0.6238
  O  O198  1  0.105800  0.714300  0.571800  1.0  -0.639
  O  O199  1  0.193600  0.616200  0.871500  1.0  -0.6563
  O  O200  1  0.304400  0.278400  0.249000  1.0  -0.6555
  O  O201  1  0.866400  0.853400  0.931500  1.0  -0.6222
  O  O202  1  0.894200  0.785700  0.071800  1.0  -0.6383
  O  O203  1  0.806400  0.883800  0.371500  1.0  -0.6554
  O  O204  1  0.695600  0.221600  0.749000  1.0  -0.6526
  O  O205  1  0.866400  0.353400  0.431500  1.0  -0.6222
  O  O206  1  0.894200  0.285700  0.571800  1.0  -0.6383
  O  O207  1  0.806400  0.383800  0.871500  1.0  -0.6554
  O  O208  1  0.695600  0.721600  0.249000  1.0  -0.6526
  O  O209  1  0.633600  0.853400  0.931500  1.0  -0.6237
  O  O210  1  0.605800  0.785700  0.071800  1.0  -0.6387
  O  O211  1  0.693600  0.883800  0.371500  1.0  -0.657
  O  O212  1  0.804400  0.221600  0.749000  1.0  -0.6554
  O  O213  1  0.633600  0.353400  0.431500  1.0  -0.6237
  O  O214  1  0.605800  0.285700  0.571800  1.0  -0.6387
  O  O215  1  0.693600  0.383800  0.871500  1.0  -0.657
  O  O216  1  0.804400  0.721600  0.249000  1.0  -0.6554
  O  O217  1  0.366400  0.146600  0.931500  1.0  -0.6229
  O  O218  1  0.394200  0.214300  0.071800  1.0  -0.6387
  O  O219  1  0.306400  0.116200  0.371500  1.0  -0.6544
  O  O220  1  0.195600  0.778400  0.749000  1.0  -0.6536
  O  O221  1  0.366400  0.646600  0.431500  1.0  -0.6229
  O  O222  1  0.394200  0.714300  0.571800  1.0  -0.6387
  O  O223  1  0.306400  0.616200  0.871500  1.0  -0.6544
  O  O224  1  0.195600  0.278400  0.249000  1.0  -0.6536
  O  O225  1  0.250000  0.123400  0.122500  1.0  -0.7849
  O  O226  1  0.250000  0.623400  0.622500  1.0  -0.7849
  O  O227  1  0.750000  0.876600  0.122500  1.0  -0.7835
  O  O228  1  0.750000  0.376600  0.622500  1.0  -0.7835
