# generated using pymatgen
data_Ag2Sn2B22H28(C4N)3
_symmetry_space_group_name_H-M   'P 1'
_cell_length_a   36.46160000
_cell_length_b   19.28410000
_cell_length_c   16.06750000
_cell_angle_alpha   90.00000000
_cell_angle_beta   95.67900000
_cell_angle_gamma   90.00000000
_symmetry_Int_Tables_number   1
_chemical_formula_structural   Ag2Sn2B22H28(C4N)3
_chemical_formula_sum   'Ag16 Sn16 B176 H224 C96 N24'
_cell_volume   11242.07813595
_cell_formula_units_Z   8
loop_
 _symmetry_equiv_pos_site_id
 _symmetry_equiv_pos_as_xyz
  1  'x, y, z'
loop_
 _atom_site_type_symbol
 _atom_site_label
 _atom_site_symmetry_multiplicity
 _atom_site_fract_x
 _atom_site_fract_y
 _atom_site_fract_z
 _atom_site_occupancy
 _atom_site_charge
  Ag  Ag1  1  0.342020  0.926400  0.297060  1.0  0.1142
  Ag  Ag2  1  0.842020  0.426400  0.297060  1.0  0.1142
  Ag  Ag3  1  0.657980  0.926400  0.702940  1.0  0.114
  Ag  Ag4  1  0.157980  0.426400  0.702940  1.0  0.114
  Ag  Ag5  1  0.657980  0.073600  0.702940  1.0  0.1143
  Ag  Ag6  1  0.157980  0.573600  0.702940  1.0  0.1143
  Ag  Ag7  1  0.342020  0.073600  0.297060  1.0  0.1142
  Ag  Ag8  1  0.842020  0.573600  0.297060  1.0  0.1142
  Ag  Ag9  1  0.340020  0.000000  0.128310  1.0  0.1113
  Ag  Ag10  1  0.405300  0.000000  0.281580  1.0  0.1638
  Ag  Ag11  1  0.840020  0.500000  0.128310  1.0  0.1113
  Ag  Ag12  1  0.905300  0.500000  0.281580  1.0  0.1638
  Ag  Ag13  1  0.659980  0.000000  0.871690  1.0  0.111
  Ag  Ag14  1  0.594700  0.000000  0.718420  1.0  0.1656
  Ag  Ag15  1  0.159980  0.500000  0.871690  1.0  0.111
  Ag  Ag16  1  0.094700  0.500000  0.718420  1.0  0.1656
  Sn  Sn17  1  0.394520  0.862300  0.209300  1.0  1.0177
  Sn  Sn18  1  0.894520  0.362300  0.209300  1.0  1.0177
  Sn  Sn19  1  0.605480  0.862300  0.790700  1.0  1.0151
  Sn  Sn20  1  0.105480  0.362300  0.790700  1.0  1.0151
  Sn  Sn21  1  0.605480  0.137700  0.790700  1.0  1.013
  Sn  Sn22  1  0.105480  0.637700  0.790700  1.0  1.013
  Sn  Sn23  1  0.394520  0.137700  0.209300  1.0  1.0139
  Sn  Sn24  1  0.894520  0.637700  0.209300  1.0  1.0139
  Sn  Sn25  1  0.274780  0.000000  0.273720  1.0  1.0033
  Sn  Sn26  1  0.377710  0.000000  0.444270  1.0  0.9866
  Sn  Sn27  1  0.774780  0.500000  0.273720  1.0  1.0033
  Sn  Sn28  1  0.877710  0.500000  0.444270  1.0  0.9866
  Sn  Sn29  1  0.725220  0.000000  0.726280  1.0  1.0013
  Sn  Sn30  1  0.622290  0.000000  0.555730  1.0  0.9818
  Sn  Sn31  1  0.225220  0.500000  0.726280  1.0  1.0013
  Sn  Sn32  1  0.122290  0.500000  0.555730  1.0  0.9818
  B  B33  1  0.436600  0.841600  0.112200  1.0  0.0574
  B  B34  1  0.389000  0.811000  0.076200  1.0  0.0892
  B  B35  1  0.373400  0.754200  0.160200  1.0  0.1506
  B  B36  1  0.411600  0.749000  0.246400  1.0  0.1958
  B  B37  1  0.428700  0.771400  0.042100  1.0  -0.0301
  B  B38  1  0.450900  0.803900  0.217700  1.0  0.1517
  B  B39  1  0.391400  0.720600  0.071000  1.0  0.0117
  B  B40  1  0.465000  0.767900  0.124700  1.0  -0.0188
  B  B41  1  0.404200  0.683900  0.171200  1.0  0.0516
  B  B42  1  0.437700  0.693000  0.096800  1.0  0.0445
  B  B43  1  0.230400  0.951900  0.350400  1.0  0.1404
  B  B44  1  0.227600  0.920200  0.239300  1.0  0.1454
  B  B45  1  0.450300  0.712900  0.202200  1.0  0.0706
  B  B46  1  0.347200  0.951500  0.551200  1.0  0.1834
  B  B47  1  0.188200  0.925800  0.294600  1.0  0.0076
  B  B48  1  0.396100  0.921500  0.550100  1.0  0.2092
  B  B49  1  0.421400  0.953900  0.641800  1.0  -0.017
  B  B50  1  0.184900  0.954700  0.188500  1.0  0.0362
  B  B51  1  0.375200  0.924400  0.643500  1.0  0.0577
  B  B52  1  0.936600  0.341600  0.112200  1.0  0.0574
  B  B53  1  0.889000  0.311000  0.076200  1.0  0.0892
  B  B54  1  0.873400  0.254200  0.160200  1.0  0.1506
  B  B55  1  0.911600  0.249000  0.246400  1.0  0.1958
  B  B56  1  0.928700  0.271400  0.042100  1.0  -0.0301
  B  B57  1  0.950900  0.303900  0.217700  1.0  0.1517
  B  B58  1  0.891400  0.220600  0.071000  1.0  0.0117
  B  B59  1  0.965000  0.267900  0.124700  1.0  -0.0188
  B  B60  1  0.904200  0.183900  0.171200  1.0  0.0516
  B  B61  1  0.937700  0.193000  0.096800  1.0  0.0445
  B  B62  1  0.730400  0.451900  0.350400  1.0  0.1404
  B  B63  1  0.727600  0.420200  0.239300  1.0  0.1452
  B  B64  1  0.950300  0.212900  0.202200  1.0  0.0706
  B  B65  1  0.847200  0.451500  0.551200  1.0  0.1834
  B  B66  1  0.688200  0.425800  0.294600  1.0  0.0076
  B  B67  1  0.896100  0.421500  0.550100  1.0  0.2092
  B  B68  1  0.921400  0.453900  0.641800  1.0  -0.017
  B  B69  1  0.684900  0.454700  0.188500  1.0  0.0362
  B  B70  1  0.875200  0.424400  0.643500  1.0  0.0577
  B  B71  1  0.563400  0.841600  0.887800  1.0  0.0592
  B  B72  1  0.611000  0.811000  0.923800  1.0  0.0935
  B  B73  1  0.626600  0.754200  0.839800  1.0  0.1512
  B  B74  1  0.588400  0.749000  0.753600  1.0  0.1916
  B  B75  1  0.571300  0.771400  0.957900  1.0  -0.0294
  B  B76  1  0.549100  0.803900  0.782300  1.0  0.1456
  B  B77  1  0.608600  0.720600  0.929000  1.0  0.0126
  B  B78  1  0.535000  0.767900  0.875300  1.0  -0.0184
  B  B79  1  0.595800  0.683900  0.828800  1.0  0.052
  B  B80  1  0.562300  0.693000  0.903200  1.0  0.043
  B  B81  1  0.769600  0.951900  0.649600  1.0  0.1355
  B  B82  1  0.772400  0.920200  0.760700  1.0  0.147
  B  B83  1  0.549700  0.712900  0.797800  1.0  0.0664
  B  B84  1  0.652800  0.951500  0.448800  1.0  0.1899
  B  B85  1  0.811800  0.925800  0.705400  1.0  0.0086
  B  B86  1  0.603900  0.921500  0.449900  1.0  0.2121
  B  B87  1  0.578600  0.953900  0.358200  1.0  -0.018
  B  B88  1  0.815100  0.954700  0.811500  1.0  0.0409
  B  B89  1  0.624800  0.924400  0.356500  1.0  0.0578
  B  B90  1  0.063400  0.341600  0.887800  1.0  0.0592
  B  B91  1  0.111000  0.311000  0.923800  1.0  0.0935
  B  B92  1  0.126600  0.254200  0.839800  1.0  0.1512
  B  B93  1  0.088400  0.249000  0.753600  1.0  0.1916
  B  B94  1  0.071300  0.271400  0.957900  1.0  -0.0294
  B  B95  1  0.049100  0.303900  0.782300  1.0  0.1456
  B  B96  1  0.108600  0.220600  0.929000  1.0  0.0126
  B  B97  1  0.035000  0.267900  0.875300  1.0  -0.0184
  B  B98  1  0.095800  0.183900  0.828800  1.0  0.052
  B  B99  1  0.062300  0.193000  0.903200  1.0  0.043
  B  B100  1  0.269600  0.451900  0.649600  1.0  0.1355
  B  B101  1  0.272400  0.420200  0.760700  1.0  0.1467
  B  B102  1  0.049700  0.212900  0.797800  1.0  0.0664
  B  B103  1  0.152800  0.451500  0.448800  1.0  0.1899
  B  B104  1  0.311800  0.425800  0.705400  1.0  0.0086
  B  B105  1  0.103900  0.421500  0.449900  1.0  0.2121
  B  B106  1  0.078600  0.453900  0.358200  1.0  -0.018
  B  B107  1  0.315100  0.454700  0.811500  1.0  0.0409
  B  B108  1  0.124800  0.424400  0.356500  1.0  0.0578
  B  B109  1  0.563400  0.158400  0.887800  1.0  0.0589
  B  B110  1  0.611000  0.189000  0.923800  1.0  0.0909
  B  B111  1  0.626600  0.245800  0.839800  1.0  0.1527
  B  B112  1  0.588400  0.251000  0.753600  1.0  0.1928
  B  B113  1  0.571300  0.228600  0.957900  1.0  -0.0293
  B  B114  1  0.549100  0.196100  0.782300  1.0  0.1465
  B  B115  1  0.608600  0.279400  0.929000  1.0  0.0121
  B  B116  1  0.535000  0.232100  0.875300  1.0  -0.0194
  B  B117  1  0.595800  0.316100  0.828800  1.0  0.0507
  B  B118  1  0.562300  0.307000  0.903200  1.0  0.0409
  B  B119  1  0.769600  0.048100  0.649600  1.0  0.1352
  B  B120  1  0.772400  0.079800  0.760700  1.0  0.1469
  B  B121  1  0.549700  0.287100  0.797800  1.0  0.0672
  B  B122  1  0.652800  0.048500  0.448800  1.0  0.1876
  B  B123  1  0.811800  0.074200  0.705400  1.0  0.0085
  B  B124  1  0.603900  0.078500  0.449900  1.0  0.2126
  B  B125  1  0.578600  0.046100  0.358200  1.0  -0.0185
  B  B126  1  0.815100  0.045300  0.811500  1.0  0.0406
  B  B127  1  0.624800  0.075600  0.356500  1.0  0.0582
  B  B128  1  0.063400  0.658400  0.887800  1.0  0.0589
  B  B129  1  0.111000  0.689000  0.923800  1.0  0.0909
  B  B130  1  0.126600  0.745800  0.839800  1.0  0.1527
  B  B131  1  0.088400  0.751000  0.753600  1.0  0.1928
  B  B132  1  0.071300  0.728600  0.957900  1.0  -0.0293
  B  B133  1  0.049100  0.696100  0.782300  1.0  0.1465
  B  B134  1  0.108600  0.779400  0.929000  1.0  0.0121
  B  B135  1  0.035000  0.732100  0.875300  1.0  -0.0194
  B  B136  1  0.095800  0.816100  0.828800  1.0  0.0507
  B  B137  1  0.062300  0.807000  0.903200  1.0  0.0409
  B  B138  1  0.269600  0.548100  0.649600  1.0  0.1352
  B  B139  1  0.272400  0.579800  0.760700  1.0  0.1466
  B  B140  1  0.049700  0.787100  0.797800  1.0  0.0672
  B  B141  1  0.152800  0.548500  0.448800  1.0  0.1876
  B  B142  1  0.311800  0.574200  0.705400  1.0  0.0085
  B  B143  1  0.103900  0.578500  0.449900  1.0  0.2126
  B  B144  1  0.078600  0.546100  0.358200  1.0  -0.0185
  B  B145  1  0.315100  0.545300  0.811500  1.0  0.0406
  B  B146  1  0.124800  0.575600  0.356500  1.0  0.0582
  B  B147  1  0.436600  0.158400  0.112200  1.0  0.056
  B  B148  1  0.389000  0.189000  0.076200  1.0  0.0866
  B  B149  1  0.373400  0.245800  0.160200  1.0  0.1527
  B  B150  1  0.411600  0.251000  0.246400  1.0  0.1969
  B  B151  1  0.428700  0.228600  0.042100  1.0  -0.0293
  B  B152  1  0.450900  0.196100  0.217700  1.0  0.154
  B  B153  1  0.391400  0.279400  0.071000  1.0  0.0117
  B  B154  1  0.465000  0.232100  0.124700  1.0  -0.0185
  B  B155  1  0.404200  0.316100  0.171200  1.0  0.0492
  B  B156  1  0.437700  0.307000  0.096800  1.0  0.0435
  B  B157  1  0.230400  0.048100  0.350400  1.0  0.1393
  B  B158  1  0.227600  0.079800  0.239300  1.0  0.145
  B  B159  1  0.450300  0.287100  0.202200  1.0  0.0721
  B  B160  1  0.347200  0.048500  0.551200  1.0  0.1823
  B  B161  1  0.188200  0.074200  0.294600  1.0  0.0056
  B  B162  1  0.396100  0.078500  0.550100  1.0  0.209
  B  B163  1  0.421400  0.046100  0.641800  1.0  -0.0165
  B  B164  1  0.184900  0.045300  0.188500  1.0  0.0359
  B  B165  1  0.375200  0.075600  0.643500  1.0  0.0571
  B  B166  1  0.936600  0.658400  0.112200  1.0  0.056
  B  B167  1  0.889000  0.689000  0.076200  1.0  0.0866
  B  B168  1  0.873400  0.745800  0.160200  1.0  0.1527
  B  B169  1  0.911600  0.751000  0.246400  1.0  0.1969
  B  B170  1  0.928700  0.728600  0.042100  1.0  -0.0293
  B  B171  1  0.950900  0.696100  0.217700  1.0  0.154
  B  B172  1  0.891400  0.779400  0.071000  1.0  0.0117
  B  B173  1  0.965000  0.732100  0.124700  1.0  -0.0185
  B  B174  1  0.904200  0.816100  0.171200  1.0  0.0492
  B  B175  1  0.937700  0.807000  0.096800  1.0  0.0435
  B  B176  1  0.730400  0.548100  0.350400  1.0  0.1393
  B  B177  1  0.727600  0.579800  0.239300  1.0  0.1448
  B  B178  1  0.950300  0.787100  0.202200  1.0  0.0721
  B  B179  1  0.847200  0.548500  0.551200  1.0  0.1823
  B  B180  1  0.688200  0.574200  0.294600  1.0  0.0056
  B  B181  1  0.896100  0.578500  0.550100  1.0  0.209
  B  B182  1  0.921400  0.546100  0.641800  1.0  -0.0165
  B  B183  1  0.684900  0.545300  0.188500  1.0  0.0359
  B  B184  1  0.875200  0.575600  0.643500  1.0  0.0571
  B  B185  1  0.225200  0.000000  0.168700  1.0  0.1686
  B  B186  1  0.426300  0.000000  0.549400  1.0  0.1605
  B  B187  1  0.189700  0.000000  0.360100  1.0  0.064
  B  B188  1  0.346600  0.000000  0.644700  1.0  0.0814
  B  B189  1  0.162300  0.000000  0.264000  1.0  0.0724
  B  B190  1  0.390400  0.000000  0.700200  1.0  0.002
  B  B191  1  0.725200  0.500000  0.168700  1.0  0.1686
  B  B192  1  0.926300  0.500000  0.549400  1.0  0.1605
  B  B193  1  0.689700  0.500000  0.360100  1.0  0.064
  B  B194  1  0.846600  0.500000  0.644700  1.0  0.0814
  B  B195  1  0.662300  0.500000  0.264000  1.0  0.0724
  B  B196  1  0.890400  0.500000  0.700200  1.0  0.002
  B  B197  1  0.774800  0.000000  0.831300  1.0  0.1717
  B  B198  1  0.573700  0.000000  0.450600  1.0  0.1609
  B  B199  1  0.810300  0.000000  0.639900  1.0  0.0627
  B  B200  1  0.653400  0.000000  0.355300  1.0  0.0861
  B  B201  1  0.837700  0.000000  0.736000  1.0  0.0742
  B  B202  1  0.609600  0.000000  0.299800  1.0  0.002
  B  B203  1  0.274800  0.500000  0.831300  1.0  0.1717
  B  B204  1  0.073700  0.500000  0.450600  1.0  0.1609
  B  B205  1  0.310300  0.500000  0.639900  1.0  0.0627
  B  B206  1  0.153400  0.500000  0.355300  1.0  0.0861
  B  B207  1  0.337700  0.500000  0.736000  1.0  0.0742
  B  B208  1  0.109600  0.500000  0.299800  1.0  0.002
  H  H209  1  0.438400  0.895500  0.938300  1.0  -0.0381
  H  H210  1  0.482300  0.896000  0.843100  1.0  -0.0454
  H  H211  1  0.447500  0.891100  0.091200  1.0  -0.0398
  H  H212  1  0.219900  0.166700  0.072100  1.0  -0.037
  H  H213  1  0.369700  0.840500  0.032500  1.0  -0.0516
  H  H214  1  0.313000  0.240400  0.989300  1.0  -0.04
  H  H215  1  0.310100  0.773700  0.551700  1.0  -0.0437
  H  H216  1  0.344200  0.747600  0.170100  1.0  -0.0502
  H  H217  1  0.406700  0.738600  0.311700  1.0  -0.0273
  H  H218  1  0.229400  0.780600  0.363600  1.0  -0.0303
  H  H219  1  0.434400  0.776900  0.976500  1.0  -0.0697
  H  H220  1  0.470800  0.828500  0.264500  1.0  -0.0688
  H  H221  1  0.372900  0.693100  0.023900  1.0  -0.0963
  H  H222  1  0.494100  0.771700  0.113000  1.0  -0.0563
  H  H223  1  0.394100  0.633000  0.189800  1.0  -0.0628
  H  H224  1  0.449200  0.647600  0.066900  1.0  -0.0553
  H  H225  1  0.243400  0.921500  0.403200  1.0  -0.0575
  H  H226  1  0.238700  0.869800  0.221700  1.0  -0.0076
  H  H227  1  0.470200  0.680300  0.240300  1.0  -0.031
  H  H228  1  0.323200  0.921100  0.525600  1.0  -0.0439
  H  H229  1  0.175100  0.877300  0.311900  1.0  -0.0667
  H  H230  1  0.403100  0.871300  0.523200  1.0  -0.0383
  H  H231  1  0.444900  0.924200  0.672000  1.0  -0.0923
  H  H232  1  0.169700  0.925600  0.137300  1.0  -0.0504
  H  H233  1  0.368900  0.875600  0.674600  1.0  -0.0876
  H  H234  1  0.938400  0.395500  0.938300  1.0  -0.0381
  H  H235  1  0.982300  0.396000  0.843100  1.0  -0.0454
  H  H236  1  0.947500  0.391100  0.091200  1.0  -0.0398
  H  H237  1  0.719900  0.666667  0.072100  1.0  -0.0368
  H  H238  1  0.869700  0.340500  0.032500  1.0  -0.0516
  H  H239  1  0.813000  0.740400  0.989300  1.0  -0.04
  H  H240  1  0.810100  0.273700  0.551700  1.0  -0.0437
  H  H241  1  0.844200  0.247600  0.170100  1.0  -0.0502
  H  H242  1  0.906700  0.238600  0.311700  1.0  -0.0273
  H  H243  1  0.729400  0.280600  0.363600  1.0  -0.0303
  H  H244  1  0.934400  0.276900  0.976500  1.0  -0.0697
  H  H245  1  0.970800  0.328500  0.264500  1.0  -0.0688
  H  H246  1  0.872900  0.193100  0.023900  1.0  -0.0963
  H  H247  1  0.994100  0.271700  0.113000  1.0  -0.0563
  H  H248  1  0.894100  0.133000  0.189800  1.0  -0.0628
  H  H249  1  0.949200  0.147600  0.066900  1.0  -0.0553
  H  H250  1  0.743400  0.421500  0.403200  1.0  -0.0575
  H  H251  1  0.738700  0.369800  0.221700  1.0  -0.0077
  H  H252  1  0.970200  0.180300  0.240300  1.0  -0.031
  H  H253  1  0.823200  0.421100  0.525600  1.0  -0.0439
  H  H254  1  0.675100  0.377300  0.311900  1.0  -0.0667
  H  H255  1  0.903100  0.371300  0.523200  1.0  -0.0383
  H  H256  1  0.944900  0.424200  0.672000  1.0  -0.0923
  H  H257  1  0.669700  0.425600  0.137300  1.0  -0.0504
  H  H258  1  0.868900  0.375600  0.674600  1.0  -0.0876
  H  H259  1  0.561600  0.895500  0.061700  1.0  -0.038
  H  H260  1  0.517700  0.896000  0.156900  1.0  -0.0442
  H  H261  1  0.552500  0.891100  0.908800  1.0  -0.0401
  H  H262  1  0.780100  0.166700  0.927900  1.0  -0.0376
  H  H263  1  0.630300  0.840500  0.967500  1.0  -0.0531
  H  H264  1  0.687000  0.240400  0.010700  1.0  -0.0399
  H  H265  1  0.689900  0.773700  0.448300  1.0  -0.0407
  H  H266  1  0.655800  0.747600  0.829900  1.0  -0.0516
  H  H267  1  0.593300  0.738600  0.688300  1.0  -0.0279
  H  H268  1  0.770600  0.780600  0.636400  1.0  -0.029
  H  H269  1  0.565600  0.776900  0.023500  1.0  -0.068
  H  H270  1  0.529200  0.828500  0.735500  1.0  -0.0685
  H  H271  1  0.627100  0.693100  0.976100  1.0  -0.0952
  H  H272  1  0.505900  0.771700  0.887000  1.0  -0.057
  H  H273  1  0.605900  0.633000  0.810200  1.0  -0.0637
  H  H274  1  0.550800  0.647600  0.933100  1.0  -0.0566
  H  H275  1  0.756600  0.921500  0.596800  1.0  -0.0573
  H  H276  1  0.761300  0.869800  0.778300  1.0  -0.0075
  H  H277  1  0.529800  0.680300  0.759700  1.0  -0.0318
  H  H278  1  0.676800  0.921100  0.474400  1.0  -0.0434
  H  H279  1  0.824900  0.877300  0.688100  1.0  -0.0666
  H  H280  1  0.596900  0.871300  0.476800  1.0  -0.0374
  H  H281  1  0.555100  0.924200  0.328000  1.0  -0.0914
  H  H282  1  0.830300  0.925600  0.862700  1.0  -0.0496
  H  H283  1  0.631100  0.875600  0.325400  1.0  -0.0877
  H  H284  1  0.061600  0.395500  0.061700  1.0  -0.038
  H  H285  1  0.017700  0.396000  0.156900  1.0  -0.0442
  H  H286  1  0.052500  0.391100  0.908800  1.0  -0.0401
  H  H287  1  0.280100  0.666667  0.927900  1.0  -0.0373
  H  H288  1  0.130300  0.340500  0.967500  1.0  -0.0531
  H  H289  1  0.187000  0.740400  0.010700  1.0  -0.0399
  H  H290  1  0.189900  0.273700  0.448300  1.0  -0.0407
  H  H291  1  0.155800  0.247600  0.829900  1.0  -0.0516
  H  H292  1  0.093300  0.238600  0.688300  1.0  -0.0279
  H  H293  1  0.270600  0.280600  0.636400  1.0  -0.029
  H  H294  1  0.065600  0.276900  0.023500  1.0  -0.068
  H  H295  1  0.029200  0.328500  0.735500  1.0  -0.0685
  H  H296  1  0.127100  0.193100  0.976100  1.0  -0.0952
  H  H297  1  0.005900  0.271700  0.887000  1.0  -0.057
  H  H298  1  0.105900  0.133000  0.810200  1.0  -0.0637
  H  H299  1  0.050800  0.147600  0.933100  1.0  -0.0566
  H  H300  1  0.256600  0.421500  0.596800  1.0  -0.0573
  H  H301  1  0.261300  0.369800  0.778300  1.0  -0.0075
  H  H302  1  0.029800  0.180300  0.759700  1.0  -0.0318
  H  H303  1  0.176800  0.421100  0.474400  1.0  -0.0434
  H  H304  1  0.324900  0.377300  0.688100  1.0  -0.0666
  H  H305  1  0.096900  0.371300  0.476800  1.0  -0.0374
  H  H306  1  0.055100  0.424200  0.328000  1.0  -0.0914
  H  H307  1  0.330300  0.425600  0.862700  1.0  -0.0496
  H  H308  1  0.131100  0.375600  0.325400  1.0  -0.0877
  H  H309  1  0.561600  0.104500  0.061700  1.0  -0.0381
  H  H310  1  0.517700  0.104000  0.156900  1.0  -0.0446
  H  H311  1  0.552500  0.108900  0.908800  1.0  -0.0403
  H  H312  1  0.780100  0.833300  0.927900  1.0  -0.0377
  H  H313  1  0.630300  0.159500  0.967500  1.0  -0.0529
  H  H314  1  0.687000  0.759600  0.010700  1.0  -0.04
  H  H315  1  0.689900  0.226300  0.448300  1.0  -0.0406
  H  H316  1  0.655800  0.252400  0.829900  1.0  -0.0518
  H  H317  1  0.593300  0.261400  0.688300  1.0  -0.0275
  H  H318  1  0.770600  0.219400  0.636400  1.0  -0.0289
  H  H319  1  0.565600  0.223100  0.023500  1.0  -0.0688
  H  H320  1  0.529200  0.171500  0.735500  1.0  -0.0692
  H  H321  1  0.627100  0.306900  0.976100  1.0  -0.0948
  H  H322  1  0.505900  0.228300  0.887000  1.0  -0.057
  H  H323  1  0.605900  0.367000  0.810200  1.0  -0.0642
  H  H324  1  0.550800  0.352400  0.933100  1.0  -0.058
  H  H325  1  0.756600  0.078500  0.596800  1.0  -0.0572
  H  H326  1  0.761300  0.130200  0.778300  1.0  -0.007
  H  H327  1  0.529800  0.319700  0.759700  1.0  -0.0307
  H  H328  1  0.676800  0.078900  0.474400  1.0  -0.0435
  H  H329  1  0.824900  0.122700  0.688100  1.0  -0.0659
  H  H330  1  0.596900  0.128700  0.476800  1.0  -0.0367
  H  H331  1  0.555100  0.075800  0.328000  1.0  -0.092
  H  H332  1  0.830300  0.074400  0.862700  1.0  -0.05
  H  H333  1  0.631100  0.124400  0.325400  1.0  -0.0868
  H  H334  1  0.061600  0.604500  0.061700  1.0  -0.0381
  H  H335  1  0.017700  0.604000  0.156900  1.0  -0.0446
  H  H336  1  0.052500  0.608900  0.908800  1.0  -0.0403
  H  H337  1  0.280100  0.333333  0.927900  1.0  -0.0374
  H  H338  1  0.130300  0.659500  0.967500  1.0  -0.0529
  H  H339  1  0.187000  0.259600  0.010700  1.0  -0.04
  H  H340  1  0.189900  0.726300  0.448300  1.0  -0.0406
  H  H341  1  0.155800  0.752400  0.829900  1.0  -0.0518
  H  H342  1  0.093300  0.761400  0.688300  1.0  -0.0275
  H  H343  1  0.270600  0.719400  0.636400  1.0  -0.0289
  H  H344  1  0.065600  0.723100  0.023500  1.0  -0.0688
  H  H345  1  0.029200  0.671500  0.735500  1.0  -0.0692
  H  H346  1  0.127100  0.806900  0.976100  1.0  -0.0948
  H  H347  1  0.005900  0.728300  0.887000  1.0  -0.057
  H  H348  1  0.105900  0.867000  0.810200  1.0  -0.0642
  H  H349  1  0.050800  0.852400  0.933100  1.0  -0.058
  H  H350  1  0.256600  0.578500  0.596800  1.0  -0.0572
  H  H351  1  0.261300  0.630200  0.778300  1.0  -0.007
  H  H352  1  0.029800  0.819700  0.759700  1.0  -0.0307
  H  H353  1  0.176800  0.578900  0.474400  1.0  -0.0435
  H  H354  1  0.324900  0.622700  0.688100  1.0  -0.0659
  H  H355  1  0.096900  0.628700  0.476800  1.0  -0.0367
  H  H356  1  0.055100  0.575800  0.328000  1.0  -0.092
  H  H357  1  0.330300  0.574400  0.862700  1.0  -0.05
  H  H358  1  0.131100  0.624400  0.325400  1.0  -0.0868
  H  H359  1  0.438400  0.104500  0.938300  1.0  -0.0377
  H  H360  1  0.482300  0.104000  0.843100  1.0  -0.0448
  H  H361  1  0.447500  0.108900  0.091200  1.0  -0.0397
  H  H362  1  0.219900  0.833300  0.072100  1.0  -0.037
  H  H363  1  0.369700  0.159500  0.032500  1.0  -0.051
  H  H364  1  0.313000  0.759600  0.989300  1.0  -0.0401
  H  H365  1  0.310100  0.226300  0.551700  1.0  -0.0424
  H  H366  1  0.344200  0.252400  0.170100  1.0  -0.0507
  H  H367  1  0.406700  0.261400  0.311700  1.0  -0.027
  H  H368  1  0.229400  0.219400  0.363600  1.0  -0.03
  H  H369  1  0.434400  0.223100  0.976500  1.0  -0.0701
  H  H370  1  0.470800  0.171500  0.264500  1.0  -0.069
  H  H371  1  0.372900  0.306900  0.023900  1.0  -0.0952
  H  H372  1  0.494100  0.228300  0.113000  1.0  -0.056
  H  H373  1  0.394100  0.367000  0.189800  1.0  -0.0646
  H  H374  1  0.449200  0.352400  0.066900  1.0  -0.0557
  H  H375  1  0.243400  0.078500  0.403200  1.0  -0.0577
  H  H376  1  0.238700  0.130200  0.221700  1.0  -0.0063
  H  H377  1  0.470200  0.319700  0.240300  1.0  -0.0311
  H  H378  1  0.323200  0.078900  0.525600  1.0  -0.0437
  H  H379  1  0.175100  0.122700  0.311900  1.0  -0.0664
  H  H380  1  0.403100  0.128700  0.523200  1.0  -0.0368
  H  H381  1  0.444900  0.075800  0.672000  1.0  -0.0929
  H  H382  1  0.169700  0.074400  0.137300  1.0  -0.0504
  H  H383  1  0.368900  0.124400  0.674600  1.0  -0.0874
  H  H384  1  0.938400  0.604500  0.938300  1.0  -0.0377
  H  H385  1  0.982300  0.604000  0.843100  1.0  -0.0448
  H  H386  1  0.947500  0.608900  0.091200  1.0  -0.0397
  H  H387  1  0.719900  0.333333  0.072100  1.0  -0.0368
  H  H388  1  0.869700  0.659500  0.032500  1.0  -0.051
  H  H389  1  0.813000  0.259600  0.989300  1.0  -0.0402
  H  H390  1  0.810100  0.726300  0.551700  1.0  -0.0424
  H  H391  1  0.844200  0.752400  0.170100  1.0  -0.0507
  H  H392  1  0.906700  0.761400  0.311700  1.0  -0.027
  H  H393  1  0.729400  0.719400  0.363600  1.0  -0.03
  H  H394  1  0.934400  0.723100  0.976500  1.0  -0.0701
  H  H395  1  0.970800  0.671500  0.264500  1.0  -0.069
  H  H396  1  0.872900  0.806900  0.023900  1.0  -0.0952
  H  H397  1  0.994100  0.728300  0.113000  1.0  -0.056
  H  H398  1  0.894100  0.867000  0.189800  1.0  -0.0646
  H  H399  1  0.949200  0.852400  0.066900  1.0  -0.0557
  H  H400  1  0.743400  0.578500  0.403200  1.0  -0.0577
  H  H401  1  0.738700  0.630200  0.221700  1.0  -0.0063
  H  H402  1  0.970200  0.819700  0.240300  1.0  -0.0311
  H  H403  1  0.823200  0.578900  0.525600  1.0  -0.0437
  H  H404  1  0.675100  0.622700  0.311900  1.0  -0.0664
  H  H405  1  0.903100  0.628700  0.523200  1.0  -0.0368
  H  H406  1  0.944900  0.575800  0.672000  1.0  -0.0929
  H  H407  1  0.669700  0.574400  0.137300  1.0  -0.0504
  H  H408  1  0.868900  0.624400  0.674600  1.0  -0.0874
  H  H409  1  0.235000  0.000000  0.106100  1.0  -0.0484
  H  H410  1  0.452700  0.000000  0.521900  1.0  -0.0398
  H  H411  1  0.177400  0.000000  0.419900  1.0  -0.0261
  H  H412  1  0.321500  0.000000  0.677600  1.0  -0.0271
  H  H413  1  0.132100  0.000000  0.262300  1.0  -0.0233
  H  H414  1  0.393500  0.000000  0.769000  1.0  -0.0656
  H  H415  1  0.735000  0.500000  0.106100  1.0  -0.0484
  H  H416  1  0.952700  0.500000  0.521900  1.0  -0.0398
  H  H417  1  0.677400  0.500000  0.419900  1.0  -0.0261
  H  H418  1  0.821500  0.500000  0.677600  1.0  -0.0271
  H  H419  1  0.632100  0.500000  0.262300  1.0  -0.0233
  H  H420  1  0.893500  0.500000  0.769000  1.0  -0.0656
  H  H421  1  0.765000  0.000000  0.893900  1.0  -0.0497
  H  H422  1  0.547300  0.000000  0.478100  1.0  -0.0405
  H  H423  1  0.822600  0.000000  0.580100  1.0  -0.0273
  H  H424  1  0.678500  0.000000  0.322400  1.0  -0.0291
  H  H425  1  0.867900  0.000000  0.737700  1.0  -0.0201
  H  H426  1  0.606500  0.000000  0.231000  1.0  -0.0658
  H  H427  1  0.265000  0.500000  0.893900  1.0  -0.0497
  H  H428  1  0.047300  0.500000  0.478100  1.0  -0.0405
  H  H429  1  0.322600  0.500000  0.580100  1.0  -0.0273
  H  H430  1  0.178500  0.500000  0.322400  1.0  -0.0291
  H  H431  1  0.367900  0.500000  0.737700  1.0  -0.0201
  H  H432  1  0.106500  0.500000  0.231000  1.0  -0.0658
  C  C433  1  0.447400  0.937000  0.919000  1.0  -0.3247
  C  C434  1  0.473300  0.937500  0.862600  1.0  -0.2968
  C  C435  1  0.305600  0.091400  0.096000  1.0  -0.2106
  C  C436  1  0.315000  0.845400  0.359900  1.0  -0.1705
  C  C437  1  0.231700  0.200400  0.043000  1.0  -0.2794
  C  C438  1  0.269200  0.195900  0.035500  1.0  -0.0338
  C  C439  1  0.287800  0.244600  0.993200  1.0  -0.3359
  C  C440  1  0.273300  0.781900  0.451500  1.0  0.0638
  C  C441  1  0.285900  0.764100  0.531300  1.0  -0.3048
  C  C442  1  0.237500  0.768300  0.418300  1.0  -0.3314
  C  C443  1  0.947400  0.437000  0.919000  1.0  -0.3247
  C  C444  1  0.973300  0.437500  0.862600  1.0  -0.2968
  C  C445  1  0.805600  0.591400  0.096000  1.0  -0.2106
  C  C446  1  0.815000  0.345400  0.359900  1.0  -0.1705
  C  C447  1  0.731700  0.700400  0.043000  1.0  -0.2802
  C  C448  1  0.769200  0.695900  0.035500  1.0  -0.0338
  C  C449  1  0.787800  0.744600  0.993200  1.0  -0.3359
  C  C450  1  0.773300  0.281900  0.451500  1.0  0.0638
  C  C451  1  0.785900  0.264100  0.531300  1.0  -0.3048
  C  C452  1  0.737500  0.268300  0.418300  1.0  -0.3314
  C  C453  1  0.552600  0.937000  0.081000  1.0  -0.3241
  C  C454  1  0.526700  0.937500  0.137400  1.0  -0.2986
  C  C455  1  0.694400  0.091400  0.904000  1.0  -0.2084
  C  C456  1  0.685000  0.845400  0.640100  1.0  -0.1698
  C  C457  1  0.768300  0.200400  0.957000  1.0  -0.2816
  C  C458  1  0.730800  0.195900  0.964500  1.0  -0.0372
  C  C459  1  0.712200  0.244600  0.006800  1.0  -0.3363
  C  C460  1  0.726700  0.781900  0.548500  1.0  0.0572
  C  C461  1  0.714100  0.764100  0.468700  1.0  -0.3043
  C  C462  1  0.762500  0.768300  0.581700  1.0  -0.3305
  C  C463  1  0.052600  0.437000  0.081000  1.0  -0.3241
  C  C464  1  0.026700  0.437500  0.137400  1.0  -0.2986
  C  C465  1  0.194400  0.591400  0.904000  1.0  -0.2084
  C  C466  1  0.185000  0.345400  0.640100  1.0  -0.1698
  C  C467  1  0.268300  0.700400  0.957000  1.0  -0.2829
  C  C468  1  0.230800  0.695900  0.964500  1.0  -0.0372
  C  C469  1  0.212200  0.744600  0.006800  1.0  -0.3363
  C  C470  1  0.226700  0.281900  0.548500  1.0  0.0572
  C  C471  1  0.214100  0.264100  0.468700  1.0  -0.3043
  C  C472  1  0.262500  0.268300  0.581700  1.0  -0.3305
  C  C473  1  0.552600  0.063000  0.081000  1.0  -0.3252
  C  C474  1  0.526700  0.062500  0.137400  1.0  -0.2991
  C  C475  1  0.694400  0.908600  0.904000  1.0  -0.21
  C  C476  1  0.685000  0.154600  0.640100  1.0  -0.1712
  C  C477  1  0.768300  0.799600  0.957000  1.0  -0.2809
  C  C478  1  0.730800  0.804100  0.964500  1.0  -0.0311
  C  C479  1  0.712200  0.755400  0.006800  1.0  -0.3366
  C  C480  1  0.726700  0.218100  0.548500  1.0  0.0586
  C  C481  1  0.714100  0.235900  0.468700  1.0  -0.3031
  C  C482  1  0.762500  0.231700  0.581700  1.0  -0.3312
  C  C483  1  0.052600  0.563000  0.081000  1.0  -0.3252
  C  C484  1  0.026700  0.562500  0.137400  1.0  -0.299
  C  C485  1  0.194400  0.408600  0.904000  1.0  -0.21
  C  C486  1  0.185000  0.654600  0.640100  1.0  -0.1712
  C  C487  1  0.268300  0.299600  0.957000  1.0  -0.2823
  C  C488  1  0.230800  0.304100  0.964500  1.0  -0.0311
  C  C489  1  0.212200  0.255400  0.006800  1.0  -0.3366
  C  C490  1  0.226700  0.718100  0.548500  1.0  0.0586
  C  C491  1  0.214100  0.735900  0.468700  1.0  -0.3031
  C  C492  1  0.262500  0.731700  0.581700  1.0  -0.3312
  C  C493  1  0.447400  0.063000  0.919000  1.0  -0.3264
  C  C494  1  0.473300  0.062500  0.862600  1.0  -0.2972
  C  C495  1  0.305600  0.908600  0.096000  1.0  -0.2123
  C  C496  1  0.315000  0.154600  0.359900  1.0  -0.1717
  C  C497  1  0.231700  0.799600  0.043000  1.0  -0.2793
  C  C498  1  0.269200  0.804100  0.035500  1.0  -0.0326
  C  C499  1  0.287800  0.755400  0.993200  1.0  -0.336
  C  C500  1  0.273300  0.218100  0.451500  1.0  0.0574
  C  C501  1  0.285900  0.235900  0.531300  1.0  -0.3044
  C  C502  1  0.237500  0.231700  0.418300  1.0  -0.3318
  C  C503  1  0.947400  0.563000  0.919000  1.0  -0.3264
  C  C504  1  0.973300  0.562500  0.862600  1.0  -0.2972
  C  C505  1  0.805600  0.408600  0.096000  1.0  -0.2123
  C  C506  1  0.815000  0.654600  0.359900  1.0  -0.1717
  C  C507  1  0.731700  0.299600  0.043000  1.0  -0.2806
  C  C508  1  0.769200  0.304100  0.035500  1.0  -0.0326
  C  C509  1  0.787800  0.255400  0.993200  1.0  -0.336
  C  C510  1  0.773300  0.718100  0.451500  1.0  0.0574
  C  C511  1  0.785900  0.735900  0.531300  1.0  -0.3044
  C  C512  1  0.737500  0.731700  0.418300  1.0  -0.3318
  C  C513  1  0.486000  0.000000  0.835200  1.0  0.0475
  C  C514  1  0.537900  0.000000  0.741900  1.0  -0.1758
  C  C515  1  0.434900  0.000000  0.946000  1.0  0.0059
  C  C516  1  0.386300  0.000000  0.050800  1.0  -0.1957
  C  C517  1  0.986000  0.500000  0.835200  1.0  0.0475
  C  C518  1  0.037900  0.500000  0.741900  1.0  -0.1758
  C  C519  1  0.934900  0.500000  0.946000  1.0  0.0059
  C  C520  1  0.886300  0.500000  0.050800  1.0  -0.1957
  C  C521  1  0.514000  0.000000  0.164800  1.0  0.0528
  C  C522  1  0.462100  0.000000  0.258100  1.0  -0.1774
  C  C523  1  0.565100  0.000000  0.054000  1.0  0.0049
  C  C524  1  0.613700  0.000000  0.949200  1.0  -0.1963
  C  C525  1  0.014000  0.500000  0.164800  1.0  0.0528
  C  C526  1  0.962100  0.500000  0.258100  1.0  -0.1774
  C  C527  1  0.065100  0.500000  0.054000  1.0  0.0049
  C  C528  1  0.113700  0.500000  0.949200  1.0  -0.1963
  N  N529  1  0.288810  0.138200  0.071100  1.0  -0.1573
  N  N530  1  0.297000  0.815100  0.399900  1.0  -0.0955
  N  N531  1  0.788810  0.638200  0.071100  1.0  -0.1573
  N  N532  1  0.797000  0.315100  0.399900  1.0  -0.0955
  N  N533  1  0.711190  0.138200  0.928900  1.0  -0.1512
  N  N534  1  0.703000  0.815100  0.600100  1.0  -0.0951
  N  N535  1  0.211190  0.638200  0.928900  1.0  -0.1513
  N  N536  1  0.203000  0.315100  0.600100  1.0  -0.0951
  N  N537  1  0.711190  0.861800  0.928900  1.0  -0.1541
  N  N538  1  0.703000  0.184900  0.600100  1.0  -0.095
  N  N539  1  0.211190  0.361800  0.928900  1.0  -0.1541
  N  N540  1  0.203000  0.684900  0.600100  1.0  -0.095
  N  N541  1  0.288810  0.861800  0.071100  1.0  -0.1598
  N  N542  1  0.297000  0.184900  0.399900  1.0  -0.0948
  N  N543  1  0.788810  0.361800  0.071100  1.0  -0.1598
  N  N544  1  0.797000  0.684900  0.399900  1.0  -0.0948
  N  N545  1  0.513600  0.000000  0.780400  1.0  0.0285
  N  N546  1  0.407500  0.000000  0.003600  1.0  -0.0947
  N  N547  1  0.013600  0.500000  0.780400  1.0  0.0285
  N  N548  1  0.907500  0.500000  0.003600  1.0  -0.0947
  N  N549  1  0.486400  0.000000  0.219600  1.0  0.0299
  N  N550  1  0.592500  0.000000  0.996400  1.0  -0.0937
  N  N551  1  0.986400  0.500000  0.219600  1.0  0.0299
  N  N552  1  0.092500  0.500000  0.996400  1.0  -0.0937
