# generated using pymatgen
data_Cd3Cu6H54C42N30(Cl4O3)2
_symmetry_space_group_name_H-M   'P 1'
_cell_length_a   22.64670000
_cell_length_b   22.64670000
_cell_length_c   22.64670000
_cell_angle_alpha   90.00000000
_cell_angle_beta   90.00000000
_cell_angle_gamma   90.00000000
_symmetry_Int_Tables_number   1
_chemical_formula_structural   Cd3Cu6H54C42N30(Cl4O3)2
_chemical_formula_sum   'Cd12 Cu24 H216 C168 N120 Cl32 O24'
_cell_volume   11614.88144219
_cell_formula_units_Z   4
loop_
 _symmetry_equiv_pos_site_id
 _symmetry_equiv_pos_as_xyz
  1  'x, y, z'
loop_
 _atom_site_type_symbol
 _atom_site_label
 _atom_site_symmetry_multiplicity
 _atom_site_fract_x
 _atom_site_fract_y
 _atom_site_fract_z
 _atom_site_occupancy
 _atom_site_charge
  Cd  Cd1  1  0.000000  0.000000  0.500000  1.0  0.8895
  Cd  Cd2  1  0.500000  0.000000  0.000000  1.0  0.8895
  Cd  Cd3  1  0.000000  0.500000  0.000000  1.0  0.8895
  Cd  Cd4  1  0.500000  0.500000  0.500000  1.0  0.8895
  Cd  Cd5  1  0.920560  0.920560  0.920560  1.0  0.6514
  Cd  Cd6  1  0.079440  0.079440  0.079440  1.0  0.6541
  Cd  Cd7  1  0.579440  0.079440  0.420560  1.0  0.6524
  Cd  Cd8  1  0.420560  0.920560  0.579440  1.0  0.6531
  Cd  Cd9  1  0.079440  0.420560  0.579440  1.0  0.6536
  Cd  Cd10  1  0.920560  0.579440  0.420560  1.0  0.6516
  Cd  Cd11  1  0.420560  0.579440  0.079440  1.0  0.6533
  Cd  Cd12  1  0.579440  0.420560  0.920560  1.0  0.6522
  Cu  Cu13  1  0.903760  0.402540  0.497870  1.0  0.8586
  Cu  Cu14  1  0.596240  0.597460  0.997870  1.0  0.8583
  Cu  Cu15  1  0.096240  0.902540  0.002130  1.0  0.8588
  Cu  Cu16  1  0.403760  0.097460  0.502130  1.0  0.8583
  Cu  Cu17  1  0.497870  0.903760  0.402540  1.0  0.8605
  Cu  Cu18  1  0.997870  0.596240  0.597460  1.0  0.8604
  Cu  Cu19  1  0.002130  0.096240  0.902540  1.0  0.8599
  Cu  Cu20  1  0.502130  0.403760  0.097460  1.0  0.8608
  Cu  Cu21  1  0.402540  0.497870  0.903760  1.0  0.8599
  Cu  Cu22  1  0.597460  0.997870  0.596240  1.0  0.8604
  Cu  Cu23  1  0.902540  0.002130  0.096240  1.0  0.8602
  Cu  Cu24  1  0.097460  0.502130  0.403760  1.0  0.8601
  Cu  Cu25  1  0.096240  0.597460  0.502130  1.0  0.8584
  Cu  Cu26  1  0.403760  0.402540  0.002130  1.0  0.8586
  Cu  Cu27  1  0.903760  0.097460  0.997870  1.0  0.8583
  Cu  Cu28  1  0.596240  0.902540  0.497870  1.0  0.8587
  Cu  Cu29  1  0.502130  0.096240  0.597460  1.0  0.8601
  Cu  Cu30  1  0.002130  0.403760  0.402540  1.0  0.8603
  Cu  Cu31  1  0.997870  0.903760  0.097460  1.0  0.861
  Cu  Cu32  1  0.497870  0.596240  0.902540  1.0  0.8602
  Cu  Cu33  1  0.597460  0.502130  0.096240  1.0  0.8603
  Cu  Cu34  1  0.402540  0.002130  0.403760  1.0  0.8601
  Cu  Cu35  1  0.097460  0.997870  0.903760  1.0  0.8602
  Cu  Cu36  1  0.902540  0.497870  0.596240  1.0  0.86
  H  H37  1  0.903300  0.060000  0.900200  1.0  0.3718
  H  H38  1  0.919100  0.296300  0.604400  1.0  0.1266
  H  H39  1  0.929600  0.228600  0.590300  1.0  0.1322
  H  H40  1  0.878300  0.263400  0.558000  1.0  0.1318
  H  H41  1  0.071400  0.277500  0.378500  1.0  0.128
  H  H42  1  0.093100  0.229000  0.423900  1.0  0.134
  H  H43  1  0.115600  0.295000  0.429900  1.0  0.1218
  H  H44  1  0.958600  0.140500  0.480700  1.0  0.1164
  H  H45  1  0.096700  0.200800  0.570000  1.0  0.0936
  H  H46  1  0.596700  0.940000  0.400200  1.0  0.3714
  H  H47  1  0.580900  0.703700  0.104400  1.0  0.1268
  H  H48  1  0.570400  0.771400  0.090300  1.0  0.1325
  H  H49  1  0.621700  0.736600  0.058000  1.0  0.131
  H  H50  1  0.428600  0.722500  0.878500  1.0  0.1279
  H  H51  1  0.406900  0.771000  0.923900  1.0  0.1334
  H  H52  1  0.384400  0.705000  0.929900  1.0  0.12
  H  H53  1  0.541400  0.859500  0.980700  1.0  0.1173
  H  H54  1  0.403300  0.799200  0.070000  1.0  0.0938
  H  H55  1  0.096700  0.560000  0.599800  1.0  0.3726
  H  H56  1  0.080900  0.796300  0.895600  1.0  0.1267
  H  H57  1  0.070400  0.728600  0.909700  1.0  0.1318
  H  H58  1  0.121700  0.763400  0.942000  1.0  0.1308
  H  H59  1  0.928600  0.777500  0.121500  1.0  0.1296
  H  H60  1  0.906900  0.729000  0.076100  1.0  0.1323
  H  H61  1  0.884400  0.795000  0.070100  1.0  0.1217
  H  H62  1  0.041400  0.640500  0.019300  1.0  0.1174
  H  H63  1  0.903300  0.700800  0.930000  1.0  0.0932
  H  H64  1  0.403300  0.440000  0.099800  1.0  0.3714
  H  H65  1  0.419100  0.203700  0.395600  1.0  0.1263
  H  H66  1  0.429600  0.271400  0.409700  1.0  0.1324
  H  H67  1  0.378300  0.236600  0.442000  1.0  0.1311
  H  H68  1  0.571400  0.222500  0.621500  1.0  0.1289
  H  H69  1  0.593100  0.271000  0.576100  1.0  0.1334
  H  H70  1  0.615600  0.205000  0.570100  1.0  0.1216
  H  H71  1  0.458600  0.359500  0.519300  1.0  0.1164
  H  H72  1  0.596700  0.299200  0.430000  1.0  0.094
  H  H73  1  0.900200  0.903300  0.060000  1.0  0.3718
  H  H74  1  0.604400  0.919100  0.296300  1.0  0.1249
  H  H75  1  0.590300  0.929600  0.228600  1.0  0.1314
  H  H76  1  0.558000  0.878300  0.263400  1.0  0.1355
  H  H77  1  0.378500  0.071400  0.277500  1.0  0.128
  H  H78  1  0.423900  0.093100  0.229000  1.0  0.1343
  H  H79  1  0.429900  0.115600  0.295000  1.0  0.1212
  H  H80  1  0.480700  0.958600  0.140500  1.0  0.1181
  H  H81  1  0.570000  0.096700  0.200800  1.0  0.0944
  H  H82  1  0.400200  0.596700  0.940000  1.0  0.3727
  H  H83  1  0.104400  0.580900  0.703700  1.0  0.1267
  H  H84  1  0.090300  0.570400  0.771400  1.0  0.1311
  H  H85  1  0.058000  0.621700  0.736600  1.0  0.1346
  H  H86  1  0.878500  0.428600  0.722500  1.0  0.1289
  H  H87  1  0.923900  0.406900  0.771000  1.0  0.1347
  H  H88  1  0.929900  0.384400  0.705000  1.0  0.1209
  H  H89  1  0.980700  0.541400  0.859500  1.0  0.1187
  H  H90  1  0.070000  0.403300  0.799200  1.0  0.0951
  H  H91  1  0.599800  0.096700  0.560000  1.0  0.3713
  H  H92  1  0.895600  0.080900  0.796300  1.0  0.1249
  H  H93  1  0.909700  0.070400  0.728600  1.0  0.1306
  H  H94  1  0.942000  0.121700  0.763400  1.0  0.1355
  H  H95  1  0.121500  0.928600  0.777500  1.0  0.1273
  H  H96  1  0.076100  0.906900  0.729000  1.0  0.1357
  H  H97  1  0.070100  0.884400  0.795000  1.0  0.1212
  H  H98  1  0.019300  0.041400  0.640500  1.0  0.1184
  H  H99  1  0.930000  0.903300  0.700800  1.0  0.0957
  H  H100  1  0.099800  0.403300  0.440000  1.0  0.374
  H  H101  1  0.395600  0.419100  0.203700  1.0  0.1249
  H  H102  1  0.409700  0.429600  0.271400  1.0  0.1317
  H  H103  1  0.442000  0.378300  0.236600  1.0  0.1346
  H  H104  1  0.621500  0.571400  0.222500  1.0  0.1267
  H  H105  1  0.576100  0.593100  0.271000  1.0  0.1344
  H  H106  1  0.570100  0.615600  0.205000  1.0  0.1226
  H  H107  1  0.519300  0.458600  0.359500  1.0  0.1184
  H  H108  1  0.430000  0.596700  0.299200  1.0  0.0953
  H  H109  1  0.060000  0.900200  0.903300  1.0  0.3717
  H  H110  1  0.296300  0.604400  0.919100  1.0  0.1277
  H  H111  1  0.228600  0.590300  0.929600  1.0  0.1321
  H  H112  1  0.263400  0.558000  0.878300  1.0  0.1346
  H  H113  1  0.277500  0.378500  0.071400  1.0  0.1297
  H  H114  1  0.229000  0.423900  0.093100  1.0  0.1358
  H  H115  1  0.295000  0.429900  0.115600  1.0  0.1233
  H  H116  1  0.140500  0.480700  0.958600  1.0  0.1187
  H  H117  1  0.200800  0.570000  0.096700  1.0  0.0951
  H  H118  1  0.940000  0.400200  0.596700  1.0  0.3733
  H  H119  1  0.703700  0.104400  0.580900  1.0  0.1285
  H  H120  1  0.771400  0.090300  0.570400  1.0  0.1324
  H  H121  1  0.736600  0.058000  0.621700  1.0  0.1344
  H  H122  1  0.722500  0.878500  0.428600  1.0  0.1302
  H  H123  1  0.771000  0.923900  0.406900  1.0  0.1322
  H  H124  1  0.705000  0.929900  0.384400  1.0  0.1224
  H  H125  1  0.859500  0.980700  0.541400  1.0  0.1189
  H  H126  1  0.799200  0.070000  0.403300  1.0  0.0943
  H  H127  1  0.560000  0.599800  0.096700  1.0  0.3713
  H  H128  1  0.796300  0.895600  0.080900  1.0  0.1273
  H  H129  1  0.728600  0.909700  0.070400  1.0  0.1315
  H  H130  1  0.763400  0.942000  0.121700  1.0  0.1348
  H  H131  1  0.777500  0.121500  0.928600  1.0  0.1291
  H  H132  1  0.729000  0.076100  0.906900  1.0  0.1352
  H  H133  1  0.795000  0.070100  0.884400  1.0  0.1207
  H  H134  1  0.640500  0.019300  0.041400  1.0  0.1192
  H  H135  1  0.700800  0.930000  0.903300  1.0  0.095
  H  H136  1  0.440000  0.099800  0.403300  1.0  0.372
  H  H137  1  0.203700  0.395600  0.419100  1.0  0.1275
  H  H138  1  0.271400  0.409700  0.429600  1.0  0.1325
  H  H139  1  0.236600  0.442000  0.378300  1.0  0.1346
  H  H140  1  0.222500  0.621500  0.571400  1.0  0.1297
  H  H141  1  0.271000  0.576100  0.593100  1.0  0.1338
  H  H142  1  0.205000  0.570100  0.615600  1.0  0.123
  H  H143  1  0.359500  0.519300  0.458600  1.0  0.1192
  H  H144  1  0.299200  0.430000  0.596700  1.0  0.0947
  H  H145  1  0.096700  0.940000  0.099800  1.0  0.3717
  H  H146  1  0.080900  0.703700  0.395600  1.0  0.1269
  H  H147  1  0.070400  0.771400  0.409700  1.0  0.1333
  H  H148  1  0.121700  0.736600  0.442000  1.0  0.1309
  H  H149  1  0.928600  0.722500  0.621500  1.0  0.1296
  H  H150  1  0.906900  0.771000  0.576100  1.0  0.1326
  H  H151  1  0.884400  0.705000  0.570100  1.0  0.1212
  H  H152  1  0.041400  0.859500  0.519300  1.0  0.1174
  H  H153  1  0.903300  0.799200  0.430000  1.0  0.093
  H  H154  1  0.403300  0.060000  0.599800  1.0  0.3722
  H  H155  1  0.419100  0.296300  0.895600  1.0  0.1259
  H  H156  1  0.429600  0.228600  0.909700  1.0  0.1315
  H  H157  1  0.378300  0.263400  0.942000  1.0  0.1317
  H  H158  1  0.571400  0.277500  0.121500  1.0  0.129
  H  H159  1  0.593100  0.229000  0.076100  1.0  0.1338
  H  H160  1  0.615600  0.295000  0.070100  1.0  0.1228
  H  H161  1  0.458600  0.140500  0.019300  1.0  0.1166
  H  H162  1  0.596700  0.200800  0.930000  1.0  0.094
  H  H163  1  0.903300  0.440000  0.400200  1.0  0.3713
  H  H164  1  0.919100  0.203700  0.104400  1.0  0.1268
  H  H165  1  0.929600  0.271400  0.090300  1.0  0.132
  H  H166  1  0.878300  0.236600  0.058000  1.0  0.1317
  H  H167  1  0.071400  0.222500  0.878500  1.0  0.128
  H  H168  1  0.093100  0.271000  0.923900  1.0  0.1345
  H  H169  1  0.115600  0.205000  0.929900  1.0  0.1209
  H  H170  1  0.958600  0.359500  0.980700  1.0  0.1161
  H  H171  1  0.096700  0.299200  0.070000  1.0  0.0938
  H  H172  1  0.596700  0.560000  0.900200  1.0  0.3723
  H  H173  1  0.580900  0.796300  0.604400  1.0  0.1269
  H  H174  1  0.570400  0.728600  0.590300  1.0  0.1325
  H  H175  1  0.621700  0.763400  0.558000  1.0  0.1305
  H  H176  1  0.428600  0.777500  0.378500  1.0  0.1276
  H  H177  1  0.406900  0.729000  0.423900  1.0  0.1324
  H  H178  1  0.384400  0.795000  0.429900  1.0  0.1202
  H  H179  1  0.541400  0.640500  0.480700  1.0  0.1172
  H  H180  1  0.403300  0.700800  0.570000  1.0  0.0937
  H  H181  1  0.099800  0.096700  0.940000  1.0  0.3729
  H  H182  1  0.395600  0.080900  0.703700  1.0  0.1253
  H  H183  1  0.409700  0.070400  0.771400  1.0  0.1315
  H  H184  1  0.442000  0.121700  0.736600  1.0  0.1346
  H  H185  1  0.621500  0.928600  0.722500  1.0  0.1272
  H  H186  1  0.576100  0.906900  0.771000  1.0  0.1346
  H  H187  1  0.570100  0.884400  0.705000  1.0  0.1214
  H  H188  1  0.519300  0.041400  0.859500  1.0  0.1186
  H  H189  1  0.430000  0.903300  0.799200  1.0  0.0952
  H  H190  1  0.599800  0.403300  0.060000  1.0  0.3714
  H  H191  1  0.895600  0.419100  0.296300  1.0  0.1245
  H  H192  1  0.909700  0.429600  0.228600  1.0  0.1305
  H  H193  1  0.942000  0.378300  0.263400  1.0  0.1348
  H  H194  1  0.121500  0.571400  0.277500  1.0  0.1269
  H  H195  1  0.076100  0.593100  0.229000  1.0  0.1355
  H  H196  1  0.070100  0.615600  0.295000  1.0  0.1217
  H  H197  1  0.019300  0.458600  0.140500  1.0  0.1185
  H  H198  1  0.930000  0.596700  0.200800  1.0  0.0951
  H  H199  1  0.400200  0.903300  0.440000  1.0  0.374
  H  H200  1  0.104400  0.919100  0.203700  1.0  0.1262
  H  H201  1  0.090300  0.929600  0.271400  1.0  0.1312
  H  H202  1  0.058000  0.878300  0.236600  1.0  0.1357
  H  H203  1  0.878500  0.071400  0.222500  1.0  0.1282
  H  H204  1  0.923900  0.093100  0.271000  1.0  0.1338
  H  H205  1  0.929900  0.115600  0.205000  1.0  0.122
  H  H206  1  0.980700  0.958600  0.359500  1.0  0.1178
  H  H207  1  0.070000  0.096700  0.299200  1.0  0.095
  H  H208  1  0.900200  0.596700  0.560000  1.0  0.3718
  H  H209  1  0.604400  0.580900  0.796300  1.0  0.1254
  H  H210  1  0.590300  0.570400  0.728600  1.0  0.1317
  H  H211  1  0.558000  0.621700  0.763400  1.0  0.1354
  H  H212  1  0.378500  0.428600  0.777500  1.0  0.1285
  H  H213  1  0.423900  0.406900  0.729000  1.0  0.1347
  H  H214  1  0.429900  0.384400  0.795000  1.0  0.1209
  H  H215  1  0.480700  0.541400  0.640500  1.0  0.1187
  H  H216  1  0.570000  0.403300  0.700800  1.0  0.0949
  H  H217  1  0.940000  0.099800  0.096700  1.0  0.3724
  H  H218  1  0.703700  0.395600  0.080900  1.0  0.1279
  H  H219  1  0.771400  0.409700  0.070400  1.0  0.1321
  H  H220  1  0.736600  0.442000  0.121700  1.0  0.1343
  H  H221  1  0.722500  0.621500  0.928600  1.0  0.1289
  H  H222  1  0.771000  0.576100  0.906900  1.0  0.1337
  H  H223  1  0.705000  0.570100  0.884400  1.0  0.1219
  H  H224  1  0.859500  0.519300  0.041400  1.0  0.1195
  H  H225  1  0.799200  0.430000  0.903300  1.0  0.0941
  H  H226  1  0.060000  0.599800  0.403300  1.0  0.3713
  H  H227  1  0.296300  0.895600  0.419100  1.0  0.1268
  H  H228  1  0.228600  0.909700  0.429600  1.0  0.1318
  H  H229  1  0.263400  0.942000  0.378300  1.0  0.1343
  H  H230  1  0.277500  0.121500  0.571400  1.0  0.1298
  H  H231  1  0.229000  0.076100  0.593100  1.0  0.1364
  H  H232  1  0.295000  0.070100  0.615600  1.0  0.1231
  H  H233  1  0.140500  0.019300  0.458600  1.0  0.119
  H  H234  1  0.200800  0.930000  0.596700  1.0  0.0951
  H  H235  1  0.440000  0.400200  0.903300  1.0  0.3731
  H  H236  1  0.203700  0.104400  0.919100  1.0  0.129
  H  H237  1  0.271400  0.090300  0.929600  1.0  0.1335
  H  H238  1  0.236600  0.058000  0.878300  1.0  0.1347
  H  H239  1  0.222500  0.878500  0.071400  1.0  0.1301
  H  H240  1  0.271000  0.923900  0.093100  1.0  0.1323
  H  H241  1  0.205000  0.929900  0.115600  1.0  0.1232
  H  H242  1  0.359500  0.980700  0.958600  1.0  0.1187
  H  H243  1  0.299200  0.070000  0.096700  1.0  0.0951
  H  H244  1  0.560000  0.900200  0.596700  1.0  0.3715
  H  H245  1  0.796300  0.604400  0.580900  1.0  0.1276
  H  H246  1  0.728600  0.590300  0.570400  1.0  0.1316
  H  H247  1  0.763400  0.558000  0.621700  1.0  0.1352
  H  H248  1  0.777500  0.378500  0.428600  1.0  0.1298
  H  H249  1  0.729000  0.423900  0.406900  1.0  0.135
  H  H250  1  0.795000  0.429900  0.384400  1.0  0.1211
  H  H251  1  0.640500  0.480700  0.541400  1.0  0.1185
  H  H252  1  0.700800  0.570000  0.403300  1.0  0.0947
  C  C253  1  0.918000  0.266300  0.573800  1.0  -0.4008
  C  C254  1  0.959200  0.282600  0.526000  1.0  0.1992
  C  C255  1  0.006300  0.251200  0.503300  1.0  0.1084
  C  C256  1  0.031000  0.284100  0.458600  1.0  0.1629
  C  C257  1  0.082300  0.270100  0.419300  1.0  -0.4007
  C  C258  1  0.993200  0.142200  0.503600  1.0  0.1721
  C  C259  1  0.069300  0.174600  0.553000  1.0  0.224
  C  C260  1  0.582000  0.733700  0.073800  1.0  -0.4007
  C  C261  1  0.540800  0.717400  0.026000  1.0  0.1991
  C  C262  1  0.493700  0.748800  0.003300  1.0  0.1085
  C  C263  1  0.469000  0.715900  0.958600  1.0  0.1633
  C  C264  1  0.417700  0.729900  0.919300  1.0  -0.3991
  C  C265  1  0.506800  0.857800  0.003600  1.0  0.1723
  C  C266  1  0.430700  0.825400  0.053000  1.0  0.2221
  C  C267  1  0.082000  0.766300  0.926200  1.0  -0.4006
  C  C268  1  0.040800  0.782600  0.974000  1.0  0.1994
  C  C269  1  0.993700  0.751200  0.996700  1.0  0.1091
  C  C270  1  0.969000  0.784100  0.041400  1.0  0.163
  C  C271  1  0.917700  0.770100  0.080700  1.0  -0.3999
  C  C272  1  0.006800  0.642200  0.996400  1.0  0.1732
  C  C273  1  0.930700  0.674600  0.947000  1.0  0.2224
  C  C274  1  0.418000  0.233700  0.426200  1.0  -0.3995
  C  C275  1  0.459200  0.217400  0.474000  1.0  0.1984
  C  C276  1  0.506300  0.248800  0.496700  1.0  0.109
  C  C277  1  0.531000  0.215900  0.541400  1.0  0.1629
  C  C278  1  0.582300  0.229900  0.580700  1.0  -0.4017
  C  C279  1  0.493200  0.357800  0.496400  1.0  0.1724
  C  C280  1  0.569300  0.325400  0.447000  1.0  0.2247
  C  C281  1  0.573800  0.918000  0.266300  1.0  -0.4009
  C  C282  1  0.526000  0.959200  0.282600  1.0  0.1979
  C  C283  1  0.503300  0.006300  0.251200  1.0  0.1096
  C  C284  1  0.458600  0.031000  0.284100  1.0  0.1649
  C  C285  1  0.419300  0.082300  0.270100  1.0  -0.4022
  C  C286  1  0.503600  0.993200  0.142200  1.0  0.1708
  C  C287  1  0.553000  0.069300  0.174600  1.0  0.2218
  C  C288  1  0.073800  0.582000  0.733700  1.0  -0.402
  C  C289  1  0.026000  0.540800  0.717400  1.0  0.1969
  C  C290  1  0.003300  0.493700  0.748800  1.0  0.109
  C  C291  1  0.958600  0.469000  0.715900  1.0  0.1643
  C  C292  1  0.919300  0.417700  0.729900  1.0  -0.4031
  C  C293  1  0.003600  0.506800  0.857800  1.0  0.1714
  C  C294  1  0.053000  0.430700  0.825400  1.0  0.222
  C  C295  1  0.926200  0.082000  0.766300  1.0  -0.4002
  C  C296  1  0.974000  0.040800  0.782600  1.0  0.1981
  C  C297  1  0.996700  0.993700  0.751200  1.0  0.109
  C  C298  1  0.041400  0.969000  0.784100  1.0  0.1652
  C  C299  1  0.080700  0.917700  0.770100  1.0  -0.4036
  C  C300  1  0.996400  0.006800  0.642200  1.0  0.1723
  C  C301  1  0.947000  0.930700  0.674600  1.0  0.2195
  C  C302  1  0.426200  0.418000  0.233700  1.0  -0.3996
  C  C303  1  0.474000  0.459200  0.217400  1.0  0.1965
  C  C304  1  0.496700  0.506300  0.248800  1.0  0.1088
  C  C305  1  0.541400  0.531000  0.215900  1.0  0.1643
  C  C306  1  0.580700  0.582300  0.229900  1.0  -0.4033
  C  C307  1  0.496400  0.493200  0.357800  1.0  0.1725
  C  C308  1  0.447000  0.569300  0.325400  1.0  0.2185
  C  C309  1  0.266300  0.573800  0.918000  1.0  -0.4001
  C  C310  1  0.282600  0.526000  0.959200  1.0  0.1978
  C  C311  1  0.251200  0.503300  0.006300  1.0  0.1083
  C  C312  1  0.284100  0.458600  0.031000  1.0  0.1643
  C  C313  1  0.270100  0.419300  0.082300  1.0  -0.4032
  C  C314  1  0.142200  0.503600  0.993200  1.0  0.172
  C  C315  1  0.174600  0.553000  0.069300  1.0  0.2217
  C  C316  1  0.733700  0.073800  0.582000  1.0  -0.4016
  C  C317  1  0.717400  0.026000  0.540800  1.0  0.198
  C  C318  1  0.748800  0.003300  0.493700  1.0  0.1093
  C  C319  1  0.715900  0.958600  0.469000  1.0  0.1636
  C  C320  1  0.729900  0.919300  0.417700  1.0  -0.4022
  C  C321  1  0.857800  0.003600  0.506800  1.0  0.1714
  C  C322  1  0.825400  0.053000  0.430700  1.0  0.224
  C  C323  1  0.766300  0.926200  0.082000  1.0  -0.4024
  C  C324  1  0.782600  0.974000  0.040800  1.0  0.1985
  C  C325  1  0.751200  0.996700  0.993700  1.0  0.1089
  C  C326  1  0.784100  0.041400  0.969000  1.0  0.164
  C  C327  1  0.770100  0.080700  0.917700  1.0  -0.4017
  C  C328  1  0.642200  0.996400  0.006800  1.0  0.1713
  C  C329  1  0.674600  0.947000  0.930700  1.0  0.2236
  C  C330  1  0.233700  0.426200  0.418000  1.0  -0.4018
  C  C331  1  0.217400  0.474000  0.459200  1.0  0.1992
  C  C332  1  0.248800  0.496700  0.506300  1.0  0.1087
  C  C333  1  0.215900  0.541400  0.531000  1.0  0.1651
  C  C334  1  0.229900  0.580700  0.582300  1.0  -0.4049
  C  C335  1  0.357800  0.496400  0.493200  1.0  0.1722
  C  C336  1  0.325400  0.447000  0.569300  1.0  0.2226
  C  C337  1  0.082000  0.733700  0.426200  1.0  -0.4003
  C  C338  1  0.040800  0.717400  0.474000  1.0  0.199
  C  C339  1  0.993700  0.748800  0.496700  1.0  0.1092
  C  C340  1  0.969000  0.715900  0.541400  1.0  0.1629
  C  C341  1  0.917700  0.729900  0.580700  1.0  -0.4005
  C  C342  1  0.006800  0.857800  0.496400  1.0  0.1729
  C  C343  1  0.930700  0.825400  0.447000  1.0  0.2223
  C  C344  1  0.418000  0.266300  0.926200  1.0  -0.4001
  C  C345  1  0.459200  0.282600  0.974000  1.0  0.1989
  C  C346  1  0.506300  0.251200  0.996700  1.0  0.1092
  C  C347  1  0.531000  0.284100  0.041400  1.0  0.163
  C  C348  1  0.582300  0.270100  0.080700  1.0  -0.4013
  C  C349  1  0.493200  0.142200  0.996400  1.0  0.1728
  C  C350  1  0.569300  0.174600  0.947000  1.0  0.2249
  C  C351  1  0.918000  0.233700  0.073800  1.0  -0.4003
  C  C352  1  0.959200  0.217400  0.026000  1.0  0.1987
  C  C353  1  0.006300  0.248800  0.003300  1.0  0.1082
  C  C354  1  0.031000  0.215900  0.958600  1.0  0.1631
  C  C355  1  0.082300  0.229900  0.919300  1.0  -0.4012
  C  C356  1  0.993200  0.357800  0.003600  1.0  0.172
  C  C357  1  0.069300  0.325400  0.053000  1.0  0.224
  C  C358  1  0.582000  0.766300  0.573800  1.0  -0.4008
  C  C359  1  0.540800  0.782600  0.526000  1.0  0.1996
  C  C360  1  0.493700  0.751200  0.503300  1.0  0.1083
  C  C361  1  0.469000  0.784100  0.458600  1.0  0.1631
  C  C362  1  0.417700  0.770100  0.419300  1.0  -0.399
  C  C363  1  0.506800  0.642200  0.503600  1.0  0.1723
  C  C364  1  0.430700  0.674600  0.553000  1.0  0.222
  C  C365  1  0.426200  0.082000  0.733700  1.0  -0.4013
  C  C366  1  0.474000  0.040800  0.717400  1.0  0.1966
  C  C367  1  0.496700  0.993700  0.748800  1.0  0.1087
  C  C368  1  0.541400  0.969000  0.715900  1.0  0.1647
  C  C369  1  0.580700  0.917700  0.729900  1.0  -0.4034
  C  C370  1  0.496400  0.006800  0.857800  1.0  0.1726
  C  C371  1  0.447000  0.930700  0.825400  1.0  0.2196
  C  C372  1  0.926200  0.418000  0.266300  1.0  -0.3992
  C  C373  1  0.974000  0.459200  0.282600  1.0  0.198
  C  C374  1  0.996700  0.506300  0.251200  1.0  0.1092
  C  C375  1  0.041400  0.531000  0.284100  1.0  0.1649
  C  C376  1  0.080700  0.582300  0.270100  1.0  -0.4035
  C  C377  1  0.996400  0.493200  0.142200  1.0  0.1715
  C  C378  1  0.947000  0.569300  0.174600  1.0  0.2179
  C  C379  1  0.073800  0.918000  0.233700  1.0  -0.4011
  C  C380  1  0.026000  0.959200  0.217400  1.0  0.1965
  C  C381  1  0.003300  0.006300  0.248800  1.0  0.1092
  C  C382  1  0.958600  0.031000  0.215900  1.0  0.1638
  C  C383  1  0.919300  0.082300  0.229900  1.0  -0.403
  C  C384  1  0.003600  0.993200  0.357800  1.0  0.1717
  C  C385  1  0.053000  0.069300  0.325400  1.0  0.2213
  C  C386  1  0.573800  0.582000  0.766300  1.0  -0.401
  C  C387  1  0.526000  0.540800  0.782600  1.0  0.1984
  C  C388  1  0.503300  0.493700  0.751200  1.0  0.1093
  C  C389  1  0.458600  0.469000  0.784100  1.0  0.1653
  C  C390  1  0.419300  0.417700  0.770100  1.0  -0.4024
  C  C391  1  0.503600  0.506800  0.642200  1.0  0.1712
  C  C392  1  0.553000  0.430700  0.674600  1.0  0.223
  C  C393  1  0.733700  0.426200  0.082000  1.0  -0.402
  C  C394  1  0.717400  0.474000  0.040800  1.0  0.199
  C  C395  1  0.748800  0.496700  0.993700  1.0  0.1094
  C  C396  1  0.715900  0.541400  0.969000  1.0  0.1643
  C  C397  1  0.729900  0.580700  0.917700  1.0  -0.4026
  C  C398  1  0.857800  0.496400  0.006800  1.0  0.1715
  C  C399  1  0.825400  0.447000  0.930700  1.0  0.2246
  C  C400  1  0.266300  0.926200  0.418000  1.0  -0.4006
  C  C401  1  0.282600  0.974000  0.459200  1.0  0.1987
  C  C402  1  0.251200  0.996700  0.506300  1.0  0.1084
  C  C403  1  0.284100  0.041400  0.531000  1.0  0.1649
  C  C404  1  0.270100  0.080700  0.582300  1.0  -0.4048
  C  C405  1  0.142200  0.996400  0.493200  1.0  0.1722
  C  C406  1  0.174600  0.947000  0.569300  1.0  0.222
  C  C407  1  0.233700  0.073800  0.918000  1.0  -0.4016
  C  C408  1  0.217400  0.026000  0.959200  1.0  0.1983
  C  C409  1  0.248800  0.003300  0.006300  1.0  0.1086
  C  C410  1  0.215900  0.958600  0.031000  1.0  0.1644
  C  C411  1  0.229900  0.919300  0.082300  1.0  -0.4033
  C  C412  1  0.357800  0.003600  0.993200  1.0  0.1718
  C  C413  1  0.325400  0.053000  0.069300  1.0  0.2213
  C  C414  1  0.766300  0.573800  0.582000  1.0  -0.4017
  C  C415  1  0.782600  0.526000  0.540800  1.0  0.1975
  C  C416  1  0.751200  0.503300  0.493700  1.0  0.1089
  C  C417  1  0.784100  0.458600  0.469000  1.0  0.1633
  C  C418  1  0.770100  0.419300  0.417700  1.0  -0.4012
  C  C419  1  0.642200  0.503600  0.506800  1.0  0.1714
  C  C420  1  0.674600  0.553000  0.430700  1.0  0.224
  N  N421  1  0.956600  0.334500  0.496100  1.0  -0.3409
  N  N422  1  0.001200  0.334900  0.455100  1.0  -0.3454
  N  N423  1  0.022500  0.096950  0.524800  1.0  -0.2121
  N  N424  1  0.021800  0.192240  0.520800  1.0  0.0204
  N  N425  1  0.072600  0.117500  0.557500  1.0  -0.3451
  N  N426  1  0.543400  0.665500  0.996100  1.0  -0.3401
  N  N427  1  0.498800  0.665100  0.955100  1.0  -0.3454
  N  N428  1  0.477500  0.903050  0.024800  1.0  -0.211
  N  N429  1  0.478200  0.807760  0.020800  1.0  0.0196
  N  N430  1  0.427400  0.882500  0.057500  1.0  -0.3434
  N  N431  1  0.043400  0.834500  0.003900  1.0  -0.3405
  N  N432  1  0.998800  0.834900  0.044900  1.0  -0.3448
  N  N433  1  0.977500  0.596950  0.975200  1.0  -0.2122
  N  N434  1  0.978200  0.692240  0.979200  1.0  0.0196
  N  N435  1  0.927400  0.617500  0.942500  1.0  -0.3424
  N  N436  1  0.456600  0.165500  0.503900  1.0  -0.3412
  N  N437  1  0.501200  0.165100  0.544900  1.0  -0.3452
  N  N438  1  0.522500  0.403050  0.475200  1.0  -0.2123
  N  N439  1  0.521800  0.307760  0.479200  1.0  0.0206
  N  N440  1  0.572600  0.382500  0.442500  1.0  -0.3447
  N  N441  1  0.496100  0.956600  0.334500  1.0  -0.3411
  N  N442  1  0.455100  0.001200  0.334900  1.0  -0.3475
  N  N443  1  0.524800  0.022500  0.096950  1.0  -0.2082
  N  N444  1  0.520800  0.021800  0.192240  1.0  0.0198
  N  N445  1  0.557500  0.072600  0.117500  1.0  -0.3439
  N  N446  1  0.996100  0.543400  0.665500  1.0  -0.3402
  N  N447  1  0.955100  0.498800  0.665100  1.0  -0.349
  N  N448  1  0.024800  0.477500  0.903050  1.0  -0.2108
  N  N449  1  0.020800  0.478200  0.807760  1.0  0.0202
  N  N450  1  0.057500  0.427400  0.882500  1.0  -0.3443
  N  N451  1  0.003900  0.043400  0.834500  1.0  -0.3408
  N  N452  1  0.044900  0.998800  0.834900  1.0  -0.3468
  N  N453  1  0.975200  0.977500  0.596950  1.0  -0.2079
  N  N454  1  0.979200  0.978200  0.692240  1.0  0.0202
  N  N455  1  0.942500  0.927400  0.617500  1.0  -0.3425
  N  N456  1  0.503900  0.456600  0.165500  1.0  -0.3405
  N  N457  1  0.544900  0.501200  0.165100  1.0  -0.3484
  N  N458  1  0.475200  0.522500  0.403050  1.0  -0.2109
  N  N459  1  0.479200  0.521800  0.307760  1.0  0.0199
  N  N460  1  0.442500  0.572600  0.382500  1.0  -0.3422
  N  N461  1  0.334500  0.496100  0.956600  1.0  -0.3398
  N  N462  1  0.334900  0.455100  0.001200  1.0  -0.3474
  N  N463  1  0.096950  0.524800  0.022500  1.0  -0.2093
  N  N464  1  0.192240  0.520800  0.021800  1.0  0.0207
  N  N465  1  0.117500  0.557500  0.072600  1.0  -0.3433
  N  N466  1  0.665500  0.996100  0.543400  1.0  -0.3407
  N  N467  1  0.665100  0.955100  0.498800  1.0  -0.3492
  N  N468  1  0.903050  0.024800  0.477500  1.0  -0.2093
  N  N469  1  0.807760  0.020800  0.478200  1.0  0.0202
  N  N470  1  0.882500  0.057500  0.427400  1.0  -0.3421
  N  N471  1  0.834500  0.003900  0.043400  1.0  -0.3392
  N  N472  1  0.834900  0.044900  0.998800  1.0  -0.3479
  N  N473  1  0.596950  0.975200  0.977500  1.0  -0.2093
  N  N474  1  0.692240  0.979200  0.978200  1.0  0.0204
  N  N475  1  0.617500  0.942500  0.927400  1.0  -0.3422
  N  N476  1  0.165500  0.503900  0.456600  1.0  -0.3405
  N  N477  1  0.165100  0.544900  0.501200  1.0  -0.3493
  N  N478  1  0.403050  0.475200  0.522500  1.0  -0.2088
  N  N479  1  0.307760  0.479200  0.521800  1.0  0.0197
  N  N480  1  0.382500  0.442500  0.572600  1.0  -0.3424
  N  N481  1  0.043400  0.665500  0.503900  1.0  -0.3405
  N  N482  1  0.998800  0.665100  0.544900  1.0  -0.3445
  N  N483  1  0.977500  0.903050  0.475200  1.0  -0.2118
  N  N484  1  0.978200  0.807760  0.479200  1.0  0.0197
  N  N485  1  0.927400  0.882500  0.442500  1.0  -0.3426
  N  N486  1  0.456600  0.334500  0.003900  1.0  -0.3409
  N  N487  1  0.501200  0.334900  0.044900  1.0  -0.3455
  N  N488  1  0.522500  0.096950  0.975200  1.0  -0.2125
  N  N489  1  0.521800  0.192240  0.979200  1.0  0.0206
  N  N490  1  0.572600  0.117500  0.942500  1.0  -0.3442
  N  N491  1  0.956600  0.165500  0.996100  1.0  -0.3408
  N  N492  1  0.001200  0.165100  0.955100  1.0  -0.3461
  N  N493  1  0.022500  0.403050  0.024800  1.0  -0.2116
  N  N494  1  0.021800  0.307760  0.020800  1.0  0.0205
  N  N495  1  0.072600  0.382500  0.057500  1.0  -0.3449
  N  N496  1  0.543400  0.834500  0.496100  1.0  -0.3403
  N  N497  1  0.498800  0.834900  0.455100  1.0  -0.3448
  N  N498  1  0.477500  0.596950  0.524800  1.0  -0.2118
  N  N499  1  0.478200  0.692240  0.520800  1.0  0.0196
  N  N500  1  0.427400  0.617500  0.557500  1.0  -0.3444
  N  N501  1  0.503900  0.043400  0.665500  1.0  -0.3401
  N  N502  1  0.544900  0.998800  0.665100  1.0  -0.3485
  N  N503  1  0.475200  0.977500  0.903050  1.0  -0.2106
  N  N504  1  0.479200  0.978200  0.807760  1.0  0.0201
  N  N505  1  0.442500  0.927400  0.882500  1.0  -0.3429
  N  N506  1  0.003900  0.456600  0.334500  1.0  -0.3412
  N  N507  1  0.044900  0.501200  0.334900  1.0  -0.3466
  N  N508  1  0.975200  0.522500  0.096950  1.0  -0.2079
  N  N509  1  0.979200  0.521800  0.192240  1.0  0.02
  N  N510  1  0.942500  0.572600  0.117500  1.0  -0.3424
  N  N511  1  0.996100  0.956600  0.165500  1.0  -0.3402
  N  N512  1  0.955100  0.001200  0.165100  1.0  -0.3489
  N  N513  1  0.024800  0.022500  0.403050  1.0  -0.2111
  N  N514  1  0.020800  0.021800  0.307760  1.0  0.0201
  N  N515  1  0.057500  0.072600  0.382500  1.0  -0.3439
  N  N516  1  0.496100  0.543400  0.834500  1.0  -0.3408
  N  N517  1  0.455100  0.498800  0.834900  1.0  -0.3474
  N  N518  1  0.524800  0.477500  0.596950  1.0  -0.2082
  N  N519  1  0.520800  0.478200  0.692240  1.0  0.0199
  N  N520  1  0.557500  0.427400  0.617500  1.0  -0.3442
  N  N521  1  0.665500  0.503900  0.043400  1.0  -0.3404
  N  N522  1  0.665100  0.544900  0.998800  1.0  -0.3494
  N  N523  1  0.903050  0.475200  0.977500  1.0  -0.2087
  N  N524  1  0.807760  0.479200  0.978200  1.0  0.0197
  N  N525  1  0.882500  0.442500  0.927400  1.0  -0.3412
  N  N526  1  0.334500  0.003900  0.456600  1.0  -0.3397
  N  N527  1  0.334900  0.044900  0.501200  1.0  -0.3476
  N  N528  1  0.096950  0.975200  0.522500  1.0  -0.2091
  N  N529  1  0.192240  0.979200  0.521800  1.0  0.0205
  N  N530  1  0.117500  0.942500  0.572600  1.0  -0.344
  N  N531  1  0.165500  0.996100  0.956600  1.0  -0.3409
  N  N532  1  0.165100  0.955100  0.001200  1.0  -0.3492
  N  N533  1  0.403050  0.024800  0.022500  1.0  -0.2094
  N  N534  1  0.307760  0.020800  0.021800  1.0  0.0203
  N  N535  1  0.382500  0.057500  0.072600  1.0  -0.3436
  N  N536  1  0.834500  0.496100  0.543400  1.0  -0.3395
  N  N537  1  0.834900  0.455100  0.498800  1.0  -0.3474
  N  N538  1  0.596950  0.524800  0.477500  1.0  -0.2094
  N  N539  1  0.692240  0.520800  0.478200  1.0  0.0205
  N  N540  1  0.617500  0.557500  0.427400  1.0  -0.3416
  Cl  Cl541  1  0.862400  0.977700  0.855200  1.0  -0.4958
  Cl  Cl542  1  0.855200  0.862400  0.977700  1.0  -0.497
  Cl  Cl543  1  0.977700  0.855200  0.862400  1.0  -0.4978
  Cl  Cl544  1  0.137600  0.022300  0.144800  1.0  -0.4937
  Cl  Cl545  1  0.144800  0.137600  0.022300  1.0  -0.492
  Cl  Cl546  1  0.022300  0.144800  0.137600  1.0  -0.4953
  Cl  Cl547  1  0.988610  0.988610  0.988610  1.0  -0.0776
  Cl  Cl548  1  0.011390  0.011390  0.011390  1.0  -0.0764
  Cl  Cl549  1  0.637600  0.022300  0.355200  1.0  -0.495
  Cl  Cl550  1  0.644800  0.137600  0.477700  1.0  -0.4967
  Cl  Cl551  1  0.522300  0.144800  0.362400  1.0  -0.4965
  Cl  Cl552  1  0.362400  0.977700  0.644800  1.0  -0.4934
  Cl  Cl553  1  0.355200  0.862400  0.522300  1.0  -0.4924
  Cl  Cl554  1  0.477700  0.855200  0.637600  1.0  -0.4949
  Cl  Cl555  1  0.511390  0.011390  0.488610  1.0  -0.0778
  Cl  Cl556  1  0.488610  0.988610  0.511390  1.0  -0.0759
  Cl  Cl557  1  0.137600  0.477700  0.644800  1.0  -0.4948
  Cl  Cl558  1  0.144800  0.362400  0.522300  1.0  -0.4935
  Cl  Cl559  1  0.022300  0.355200  0.637600  1.0  -0.4962
  Cl  Cl560  1  0.862400  0.522300  0.355200  1.0  -0.495
  Cl  Cl561  1  0.855200  0.637600  0.477700  1.0  -0.4968
  Cl  Cl562  1  0.977700  0.644800  0.362400  1.0  -0.4966
  Cl  Cl563  1  0.011390  0.488610  0.511390  1.0  -0.0749
  Cl  Cl564  1  0.988610  0.511390  0.488610  1.0  -0.078
  Cl  Cl565  1  0.362400  0.522300  0.144800  1.0  -0.4929
  Cl  Cl566  1  0.355200  0.637600  0.022300  1.0  -0.4918
  Cl  Cl567  1  0.477700  0.644800  0.137600  1.0  -0.4948
  Cl  Cl568  1  0.637600  0.477700  0.855200  1.0  -0.4961
  Cl  Cl569  1  0.644800  0.362400  0.977700  1.0  -0.4969
  Cl  Cl570  1  0.522300  0.355200  0.862400  1.0  -0.4977
  Cl  Cl571  1  0.488610  0.511390  0.011390  1.0  -0.0769
  Cl  Cl572  1  0.511390  0.488610  0.988610  1.0  -0.0767
  O  O573  1  0.917060  0.092800  0.913840  1.0  -0.903
  O  O574  1  0.582940  0.907200  0.413840  1.0  -0.9106
  O  O575  1  0.082940  0.592800  0.586160  1.0  -0.9008
  O  O576  1  0.417060  0.407200  0.086160  1.0  -0.9105
  O  O577  1  0.913840  0.917060  0.092800  1.0  -0.9098
  O  O578  1  0.413840  0.582940  0.907200  1.0  -0.9105
  O  O579  1  0.586160  0.082940  0.592800  1.0  -0.9086
  O  O580  1  0.086160  0.417060  0.407200  1.0  -0.9094
  O  O581  1  0.092800  0.913840  0.917060  1.0  -0.9062
  O  O582  1  0.907200  0.413840  0.582940  1.0  -0.907
  O  O583  1  0.592800  0.586160  0.082940  1.0  -0.9052
  O  O584  1  0.407200  0.086160  0.417060  1.0  -0.9076
  O  O585  1  0.082940  0.907200  0.086160  1.0  -0.9097
  O  O586  1  0.417060  0.092800  0.586160  1.0  -0.9015
  O  O587  1  0.917060  0.407200  0.413840  1.0  -0.9112
  O  O588  1  0.582940  0.592800  0.913840  1.0  -0.9022
  O  O589  1  0.086160  0.082940  0.907200  1.0  -0.9092
  O  O590  1  0.586160  0.417060  0.092800  1.0  -0.9083
  O  O591  1  0.413840  0.917060  0.407200  1.0  -0.9108
  O  O592  1  0.913840  0.582940  0.592800  1.0  -0.91
  O  O593  1  0.907200  0.086160  0.082940  1.0  -0.9072
  O  O594  1  0.092800  0.586160  0.417060  1.0  -0.9063
  O  O595  1  0.407200  0.413840  0.917060  1.0  -0.9077
  O  O596  1  0.592800  0.913840  0.582940  1.0  -0.9049
