# generated using pymatgen
data_Ag2H5C11O4
_symmetry_space_group_name_H-M   'P 1'
_cell_length_a   9.17800000
_cell_length_b   11.14800000
_cell_length_c   14.33700000
_cell_angle_alpha   88.19100000
_cell_angle_beta   78.88200000
_cell_angle_gamma   77.96800000
_symmetry_Int_Tables_number   1
_chemical_formula_structural   Ag2H5C11O4
_chemical_formula_sum   'Ag8 H20 C44 O16'
_cell_volume   1407.70051400
_cell_formula_units_Z   4
loop_
 _symmetry_equiv_pos_site_id
 _symmetry_equiv_pos_as_xyz
  1  'x, y, z'
loop_
 _atom_site_type_symbol
 _atom_site_label
 _atom_site_symmetry_multiplicity
 _atom_site_fract_x
 _atom_site_fract_y
 _atom_site_fract_z
 _atom_site_occupancy
 _atom_site_charge
  Ag  Ag1  1  0.046700  0.988100  0.389240  1.0  0.4645
  Ag  Ag2  1  0.108120  0.166790  0.251140  1.0  0.4224
  Ag  Ag3  1  0.108860  0.973570  0.060150  1.0  0.4348
  Ag  Ag4  1  0.302380  0.002730  0.495350  1.0  0.4179
  Ag  Ag5  1  0.953300  0.011900  0.610760  1.0  0.4617
  Ag  Ag6  1  0.891880  0.833210  0.748860  1.0  0.4212
  Ag  Ag7  1  0.891140  0.026430  0.939850  1.0  0.4345
  Ag  Ag8  1  0.697620  0.997270  0.504650  1.0  0.4185
  H  H9  1  0.509200  0.726100  0.297200  1.0  0.1134
  H  H10  1  0.730500  0.601200  0.222100  1.0  0.1212
  H  H11  1  0.459000  0.893900  0.051600  1.0  0.1232
  H  H12  1  0.679500  0.766800  0.975300  1.0  0.1195
  H  H13  1  0.794300  0.432700  0.085500  1.0  0.1244
  H  H14  1  0.592600  0.217900  0.537300  1.0  0.1247
  H  H15  1  0.337300  0.302500  0.575000  1.0  0.1252
  H  H16  1  0.625300  0.409800  0.297000  1.0  0.121
  H  H17  1  0.370800  0.500700  0.338200  1.0  0.1307
  H  H18  1  0.834100  0.369200  0.539600  1.0  0.1209
  H  H19  1  0.490800  0.273900  0.702800  1.0  0.1137
  H  H20  1  0.269500  0.398800  0.777900  1.0  0.1211
  H  H21  1  0.541000  0.106100  0.948400  1.0  0.1235
  H  H22  1  0.320500  0.233200  0.024700  1.0  0.1207
  H  H23  1  0.205700  0.567300  0.914500  1.0  0.125
  H  H24  1  0.407400  0.782100  0.462700  1.0  0.1236
  H  H25  1  0.662700  0.697500  0.425000  1.0  0.1247
  H  H26  1  0.374700  0.590200  0.703000  1.0  0.1203
  H  H27  1  0.629200  0.499300  0.661800  1.0  0.1312
  H  H28  1  0.165900  0.630800  0.460400  1.0  0.121
  C  C29  1  0.318500  0.906400  0.231500  1.0  0.7281
  C  C30  1  0.462200  0.824500  0.181600  1.0  -0.1237
  C  C31  1  0.543900  0.735100  0.232500  1.0  -0.0343
  C  C32  1  0.676300  0.659900  0.187300  1.0  -0.1121
  C  C33  1  0.513500  0.835100  0.086100  1.0  -0.0233
  C  C34  1  0.646300  0.758800  0.040200  1.0  -0.0976
  C  C35  1  0.729800  0.670600  0.090800  1.0  0.0448
  C  C36  1  0.870200  0.586000  0.043100  1.0  0.0232
  C  C37  1  0.877500  0.460100  0.050700  1.0  -0.0859
  C  C38  1  0.997100  0.625800  0.991000  1.0  -0.0402
  C  C39  1  0.006400  0.759700  0.986200  1.0  0.7355
  C  C40  1  0.794100  0.230900  0.377800  1.0  0.7393
  C  C41  1  0.633400  0.299600  0.410700  1.0  -0.1321
  C  C42  1  0.547300  0.271700  0.495300  1.0  -0.1042
  C  C43  1  0.394200  0.323000  0.518000  1.0  -0.1151
  C  C44  1  0.567100  0.386800  0.352500  1.0  -0.0258
  C  C45  1  0.413800  0.440100  0.376700  1.0  -0.0975
  C  C46  1  0.324400  0.404300  0.457300  1.0  0.0533
  C  C47  1  0.157700  0.452500  0.477900  1.0  0.0017
  C  C48  1  0.055800  0.373800  0.501700  1.0  -0.0628
  C  C49  1  0.900700  0.422300  0.523500  1.0  -0.0734
  C  C50  1  0.108000  0.236400  0.501400  1.0  0.7173
  C  C51  1  0.681500  0.093600  0.768500  1.0  0.7293
  C  C52  1  0.537800  0.175500  0.818400  1.0  -0.1238
  C  C53  1  0.456100  0.264900  0.767500  1.0  -0.0334
  C  C54  1  0.323700  0.340100  0.812700  1.0  -0.111
  C  C55  1  0.486500  0.164900  0.913900  1.0  -0.0222
  C  C56  1  0.353700  0.241200  0.959800  1.0  -0.0984
  C  C57  1  0.270200  0.329400  0.909200  1.0  0.0451
  C  C58  1  0.129800  0.414000  0.956900  1.0  0.0235
  C  C59  1  0.122500  0.539900  0.949300  1.0  -0.0865
  C  C60  1  0.002900  0.374200  0.009000  1.0  -0.0403
  C  C61  1  0.993600  0.240300  0.013800  1.0  0.7365
  C  C62  1  0.205900  0.769100  0.622200  1.0  0.7396
  C  C63  1  0.366600  0.700400  0.589300  1.0  -0.1335
  C  C64  1  0.452700  0.728300  0.504700  1.0  -0.1052
  C  C65  1  0.605800  0.677000  0.482000  1.0  -0.116
  C  C66  1  0.432900  0.613200  0.647500  1.0  -0.0254
  C  C67  1  0.586200  0.559900  0.623300  1.0  -0.0973
  C  C68  1  0.675600  0.595700  0.542700  1.0  0.0534
  C  C69  1  0.842300  0.547500  0.522100  1.0  0.0028
  C  C70  1  0.944200  0.626200  0.498300  1.0  -0.0615
  C  C71  1  0.099300  0.577700  0.476500  1.0  -0.0755
  C  C72  1  0.892000  0.763600  0.498600  1.0  0.717
  O  O73  1  0.273300  0.886400  0.317100  1.0  -0.5891
  O  O74  1  0.255400  0.990500  0.182900  1.0  -0.608
  O  O75  1  0.096300  0.788800  0.030700  1.0  -0.5705
  O  O76  1  0.929300  0.828400  0.938200  1.0  -0.6102
  O  O77  1  0.839400  0.137400  0.425100  1.0  -0.6486
  O  O78  1  0.870000  0.266800  0.305800  1.0  -0.5648
  O  O79  1  0.070600  0.183300  0.577600  1.0  -0.6515
  O  O80  1  0.186200  0.184900  0.427300  1.0  -0.6345
  O  O81  1  0.726700  0.113600  0.682900  1.0  -0.5896
  O  O82  1  0.744600  0.009500  0.817100  1.0  -0.6069
  O  O83  1  0.903700  0.211200  0.969300  1.0  -0.5705
  O  O84  1  0.070700  0.171600  0.061800  1.0  -0.6119
  O  O85  1  0.160600  0.862600  0.574900  1.0  -0.6502
  O  O86  1  0.130000  0.733200  0.694200  1.0  -0.5659
  O  O87  1  0.929400  0.816700  0.422400  1.0  -0.6496
  O  O88  1  0.813800  0.815100  0.572700  1.0  -0.6352
