# generated using pymatgen
data_Zn3H26C36(IN2)6
_symmetry_space_group_name_H-M   'P 1'
_cell_length_a   34.59220000
_cell_length_b   14.81410000
_cell_length_c   31.42660000
_cell_angle_alpha   90.00000000
_cell_angle_beta   100.79000000
_cell_angle_gamma   90.00000000
_symmetry_Int_Tables_number   1
_chemical_formula_structural   Zn3H26C36(IN2)6
_chemical_formula_sum   'Zn24 H208 C288 I48 N96'
_cell_volume   15819.90287443
_cell_formula_units_Z   8
loop_
 _symmetry_equiv_pos_site_id
 _symmetry_equiv_pos_as_xyz
  1  'x, y, z'
loop_
 _atom_site_type_symbol
 _atom_site_label
 _atom_site_symmetry_multiplicity
 _atom_site_fract_x
 _atom_site_fract_y
 _atom_site_fract_z
 _atom_site_occupancy
 _atom_site_charge
  Zn  Zn1  1  0.126960  0.405540  0.062630  1.0  0.8784
  Zn  Zn2  1  0.413530  0.378470  0.403630  1.0  0.8485
  Zn  Zn3  1  0.328880  0.147010  0.229090  1.0  0.8757
  Zn  Zn4  1  0.626960  0.905540  0.062630  1.0  0.8784
  Zn  Zn5  1  0.913530  0.878470  0.403630  1.0  0.8485
  Zn  Zn6  1  0.828880  0.647010  0.229090  1.0  0.8756
  Zn  Zn7  1  0.126960  0.594460  0.562630  1.0  0.8777
  Zn  Zn8  1  0.413530  0.621530  0.903630  1.0  0.8466
  Zn  Zn9  1  0.328880  0.852990  0.729090  1.0  0.8756
  Zn  Zn10  1  0.626960  0.094460  0.562630  1.0  0.8777
  Zn  Zn11  1  0.913530  0.121530  0.903630  1.0  0.8466
  Zn  Zn12  1  0.828880  0.352990  0.729090  1.0  0.8754
  Zn  Zn13  1  0.873040  0.405540  0.437370  1.0  0.8786
  Zn  Zn14  1  0.586470  0.378470  0.096370  1.0  0.848
  Zn  Zn15  1  0.671120  0.147010  0.270910  1.0  0.8751
  Zn  Zn16  1  0.373040  0.905540  0.437370  1.0  0.8786
  Zn  Zn17  1  0.086470  0.878470  0.096370  1.0  0.848
  Zn  Zn18  1  0.171120  0.647010  0.270910  1.0  0.875
  Zn  Zn19  1  0.873040  0.594460  0.937370  1.0  0.8776
  Zn  Zn20  1  0.586470  0.621530  0.596370  1.0  0.8463
  Zn  Zn21  1  0.671120  0.852990  0.770910  1.0  0.8759
  Zn  Zn22  1  0.373040  0.094460  0.937370  1.0  0.8776
  Zn  Zn23  1  0.086470  0.121530  0.596370  1.0  0.8463
  Zn  Zn24  1  0.171120  0.352990  0.770910  1.0  0.8758
  H  H25  1  0.270000  0.016500  0.176700  1.0  0.0645
  H  H26  1  0.328900  0.736300  0.651100  1.0  0.0695
  H  H27  1  0.579600  0.018600  0.619000  1.0  0.0773
  H  H28  1  0.337000  0.350900  0.338200  1.0  0.081
  H  H29  1  0.374100  0.640400  0.307100  1.0  0.113
  H  H30  1  0.362700  0.975300  0.265600  1.0  0.0678
  H  H31  1  0.303000  0.422200  0.276900  1.0  0.1156
  H  H32  1  0.364900  0.718400  0.595000  1.0  0.1025
  H  H33  1  0.491000  0.637500  0.478400  1.0  0.0951
  H  H34  1  0.577400  0.967500  0.497900  1.0  0.0641
  H  H35  1  0.258200  0.863600  0.169800  1.0  0.0969
  H  H36  1  0.479800  0.515800  0.433700  1.0  0.1041
  H  H37  1  0.170400  0.578800  0.070700  1.0  0.0704
  H  H38  1  0.376600  0.473700  0.469900  1.0  0.0939
  H  H39  1  0.353400  0.821500  0.263000  1.0  0.1153
  H  H40  1  0.178100  0.376300  0.152000  1.0  0.0796
  H  H41  1  0.410000  0.555400  0.361600  1.0  0.0746
  H  H42  1  0.385900  0.603500  0.512200  1.0  0.1016
  H  H43  1  0.217300  0.662700  0.118700  1.0  0.1073
  H  H44  1  0.229900  0.441600  0.195400  1.0  0.1086
  H  H45  1  0.524200  0.871500  0.494100  1.0  0.1159
  H  H46  1  0.525200  0.924900  0.619600  1.0  0.102
  H  H47  1  0.396400  0.932500  0.697600  1.0  0.0633
  H  H48  1  0.438100  0.907800  0.652900  1.0  0.1076
  H  H49  1  0.488800  0.764000  0.504600  1.0  0.2572
  H  H50  1  0.273300  0.496600  0.228700  1.0  0.2352
  H  H51  1  0.770000  0.516500  0.176700  1.0  0.0645
  H  H52  1  0.828900  0.236300  0.651100  1.0  0.0695
  H  H53  1  0.079600  0.518600  0.619000  1.0  0.0773
  H  H54  1  0.837000  0.850900  0.338200  1.0  0.081
  H  H55  1  0.874100  0.140400  0.307100  1.0  0.113
  H  H56  1  0.862700  0.475300  0.265600  1.0  0.0678
  H  H57  1  0.803000  0.922200  0.276900  1.0  0.1156
  H  H58  1  0.864900  0.218400  0.595000  1.0  0.1025
  H  H59  1  0.991000  0.137500  0.478400  1.0  0.0947
  H  H60  1  0.077400  0.467500  0.497900  1.0  0.0641
  H  H61  1  0.758200  0.363600  0.169800  1.0  0.0969
  H  H62  1  0.979800  0.015800  0.433700  1.0  0.1043
  H  H63  1  0.670400  0.078800  0.070700  1.0  0.0704
  H  H64  1  0.876600  0.973700  0.469900  1.0  0.0939
  H  H65  1  0.853400  0.321500  0.263000  1.0  0.1153
  H  H66  1  0.678100  0.876300  0.152000  1.0  0.0796
  H  H67  1  0.910000  0.055400  0.361600  1.0  0.0746
  H  H68  1  0.885900  0.103500  0.512200  1.0  0.1016
  H  H69  1  0.717300  0.162700  0.118700  1.0  0.1073
  H  H70  1  0.729900  0.941600  0.195400  1.0  0.1086
  H  H71  1  0.024200  0.371500  0.494100  1.0  0.1159
  H  H72  1  0.025200  0.424900  0.619600  1.0  0.102
  H  H73  1  0.896400  0.432500  0.697600  1.0  0.0633
  H  H74  1  0.938100  0.407800  0.652900  1.0  0.1076
  H  H75  1  0.988800  0.264000  0.504600  1.0  0.2572
  H  H76  1  0.773300  0.996600  0.228700  1.0  0.2352
  H  H77  1  0.270000  0.983500  0.676700  1.0  0.0641
  H  H78  1  0.328900  0.263700  0.151100  1.0  0.0695
  H  H79  1  0.579600  0.981400  0.119000  1.0  0.0774
  H  H80  1  0.337000  0.649100  0.838200  1.0  0.0819
  H  H81  1  0.374100  0.359600  0.807100  1.0  0.1131
  H  H82  1  0.362700  0.024700  0.765600  1.0  0.0683
  H  H83  1  0.303000  0.577800  0.776900  1.0  0.1166
  H  H84  1  0.364900  0.281600  0.095000  1.0  0.103
  H  H85  1  0.491000  0.362500  0.978400  1.0  0.0948
  H  H86  1  0.577400  0.032500  0.997900  1.0  0.0644
  H  H87  1  0.258200  0.136400  0.669800  1.0  0.0972
  H  H88  1  0.479800  0.484200  0.933700  1.0  0.1039
  H  H89  1  0.170400  0.421200  0.570700  1.0  0.0705
  H  H90  1  0.376600  0.526300  0.969900  1.0  0.0935
  H  H91  1  0.353400  0.178500  0.763000  1.0  0.1153
  H  H92  1  0.178100  0.623700  0.652000  1.0  0.0802
  H  H93  1  0.410000  0.444600  0.861600  1.0  0.0742
  H  H94  1  0.385900  0.396500  0.012200  1.0  0.1014
  H  H95  1  0.217300  0.337300  0.618700  1.0  0.1073
  H  H96  1  0.229900  0.558400  0.695400  1.0  0.1082
  H  H97  1  0.524200  0.128500  0.994100  1.0  0.1162
  H  H98  1  0.525200  0.075100  0.119600  1.0  0.102
  H  H99  1  0.396400  0.067500  0.197600  1.0  0.0632
  H  H100  1  0.438100  0.092200  0.152900  1.0  0.1072
  H  H101  1  0.488800  0.236000  0.004600  1.0  0.2572
  H  H102  1  0.273300  0.503400  0.728700  1.0  0.2355
  H  H103  1  0.770000  0.483500  0.676700  1.0  0.0641
  H  H104  1  0.828900  0.763700  0.151100  1.0  0.0695
  H  H105  1  0.079600  0.481400  0.119000  1.0  0.0774
  H  H106  1  0.837000  0.149100  0.838200  1.0  0.0819
  H  H107  1  0.874100  0.859600  0.807100  1.0  0.1131
  H  H108  1  0.862700  0.524700  0.765600  1.0  0.0683
  H  H109  1  0.803000  0.077800  0.776900  1.0  0.1165
  H  H110  1  0.864900  0.781600  0.095000  1.0  0.103
  H  H111  1  0.991000  0.862500  0.978400  1.0  0.0943
  H  H112  1  0.077400  0.532500  0.997900  1.0  0.0644
  H  H113  1  0.758200  0.636400  0.669800  1.0  0.0972
  H  H114  1  0.979800  0.984200  0.933700  1.0  0.1041
  H  H115  1  0.670400  0.921200  0.570700  1.0  0.0705
  H  H116  1  0.876600  0.026300  0.969900  1.0  0.0935
  H  H117  1  0.853400  0.678500  0.763000  1.0  0.1153
  H  H118  1  0.678100  0.123700  0.652000  1.0  0.0802
  H  H119  1  0.910000  0.944600  0.861600  1.0  0.0742
  H  H120  1  0.885900  0.896500  0.012200  1.0  0.1014
  H  H121  1  0.717300  0.837300  0.618700  1.0  0.1073
  H  H122  1  0.729900  0.058400  0.695400  1.0  0.1082
  H  H123  1  0.024200  0.628500  0.994100  1.0  0.1162
  H  H124  1  0.025200  0.575100  0.119600  1.0  0.102
  H  H125  1  0.896400  0.567500  0.197600  1.0  0.0632
  H  H126  1  0.938100  0.592200  0.152900  1.0  0.1072
  H  H127  1  0.988800  0.736000  0.004600  1.0  0.2572
  H  H128  1  0.773300  0.003400  0.728700  1.0  0.2355
  H  H129  1  0.730000  0.016500  0.323300  1.0  0.0646
  H  H130  1  0.671100  0.736300  0.848900  1.0  0.0688
  H  H131  1  0.420400  0.018600  0.881000  1.0  0.0763
  H  H132  1  0.663000  0.350900  0.161800  1.0  0.0801
  H  H133  1  0.625900  0.640400  0.192900  1.0  0.1133
  H  H134  1  0.637300  0.975300  0.234400  1.0  0.0685
  H  H135  1  0.697000  0.422200  0.223100  1.0  0.1154
  H  H136  1  0.635100  0.718400  0.905000  1.0  0.1017
  H  H137  1  0.509000  0.637500  0.021600  1.0  0.0949
  H  H138  1  0.422600  0.967500  0.002100  1.0  0.0645
  H  H139  1  0.741800  0.863600  0.330200  1.0  0.0974
  H  H140  1  0.520200  0.515800  0.066300  1.0  0.1042
  H  H141  1  0.829600  0.578800  0.429300  1.0  0.07
  H  H142  1  0.623400  0.473700  0.030100  1.0  0.0937
  H  H143  1  0.646600  0.821500  0.237000  1.0  0.1145
  H  H144  1  0.821900  0.376300  0.348000  1.0  0.0798
  H  H145  1  0.590000  0.555400  0.138400  1.0  0.0746
  H  H146  1  0.614100  0.603500  0.987800  1.0  0.102
  H  H147  1  0.782700  0.662700  0.381300  1.0  0.1075
  H  H148  1  0.770100  0.441600  0.304600  1.0  0.1084
  H  H149  1  0.475800  0.871500  0.005900  1.0  0.1169
  H  H150  1  0.474800  0.924900  0.880400  1.0  0.1024
  H  H151  1  0.603600  0.932500  0.802400  1.0  0.0639
  H  H152  1  0.561900  0.907800  0.847100  1.0  0.1083
  H  H153  1  0.511200  0.764000  0.995400  1.0  0.2575
  H  H154  1  0.726700  0.496600  0.271300  1.0  0.2341
  H  H155  1  0.230000  0.516500  0.323300  1.0  0.0646
  H  H156  1  0.171100  0.236300  0.848900  1.0  0.0688
  H  H157  1  0.920400  0.518600  0.881000  1.0  0.0763
  H  H158  1  0.163000  0.850900  0.161800  1.0  0.0801
  H  H159  1  0.125900  0.140400  0.192900  1.0  0.1133
  H  H160  1  0.137300  0.475300  0.234400  1.0  0.0685
  H  H161  1  0.197000  0.922200  0.223100  1.0  0.1154
  H  H162  1  0.135100  0.218400  0.905000  1.0  0.1017
  H  H163  1  0.009000  0.137500  0.021600  1.0  0.0945
  H  H164  1  0.922600  0.467500  0.002100  1.0  0.0645
  H  H165  1  0.241800  0.363600  0.330200  1.0  0.0974
  H  H166  1  0.020200  0.015800  0.066300  1.0  0.1045
  H  H167  1  0.329600  0.078800  0.429300  1.0  0.07
  H  H168  1  0.123400  0.973700  0.030100  1.0  0.0937
  H  H169  1  0.146600  0.321500  0.237000  1.0  0.1145
  H  H170  1  0.321900  0.876300  0.348000  1.0  0.0798
  H  H171  1  0.090000  0.055400  0.138400  1.0  0.0746
  H  H172  1  0.114100  0.103500  0.987800  1.0  0.102
  H  H173  1  0.282700  0.162700  0.381300  1.0  0.1075
  H  H174  1  0.270100  0.941600  0.304600  1.0  0.1084
  H  H175  1  0.975800  0.371500  0.005900  1.0  0.1169
  H  H176  1  0.974800  0.424900  0.880400  1.0  0.1024
  H  H177  1  0.103600  0.432500  0.802400  1.0  0.064
  H  H178  1  0.061900  0.407800  0.847100  1.0  0.1083
  H  H179  1  0.011200  0.264000  0.995400  1.0  0.2575
  H  H180  1  0.226700  0.996600  0.271300  1.0  0.2341
  H  H181  1  0.730000  0.983500  0.823300  1.0  0.0644
  H  H182  1  0.671100  0.263700  0.348900  1.0  0.069
  H  H183  1  0.420400  0.981400  0.381000  1.0  0.0763
  H  H184  1  0.663000  0.649100  0.661800  1.0  0.0808
  H  H185  1  0.625900  0.359600  0.692900  1.0  0.1131
  H  H186  1  0.637300  0.024700  0.734400  1.0  0.0687
  H  H187  1  0.697000  0.577800  0.723100  1.0  0.1152
  H  H188  1  0.635100  0.281600  0.405000  1.0  0.1017
  H  H189  1  0.509000  0.362500  0.521600  1.0  0.0948
  H  H190  1  0.422600  0.032500  0.502100  1.0  0.0644
  H  H191  1  0.741800  0.136400  0.830200  1.0  0.0972
  H  H192  1  0.520200  0.484200  0.566300  1.0  0.1041
  H  H193  1  0.829600  0.421200  0.929300  1.0  0.0706
  H  H194  1  0.623400  0.526300  0.530100  1.0  0.094
  H  H195  1  0.646600  0.178500  0.737000  1.0  0.1151
  H  H196  1  0.821900  0.623700  0.848000  1.0  0.08
  H  H197  1  0.590000  0.444600  0.638400  1.0  0.0747
  H  H198  1  0.614100  0.396500  0.487800  1.0  0.1018
  H  H199  1  0.782700  0.337300  0.881300  1.0  0.1073
  H  H200  1  0.770100  0.558400  0.804600  1.0  0.1088
  H  H201  1  0.475800  0.128500  0.505900  1.0  0.1166
  H  H202  1  0.474800  0.075100  0.380400  1.0  0.1024
  H  H203  1  0.603600  0.067500  0.302400  1.0  0.0636
  H  H204  1  0.561900  0.092200  0.347100  1.0  0.1078
  H  H205  1  0.511200  0.236000  0.495400  1.0  0.2573
  H  H206  1  0.726700  0.503400  0.771300  1.0  0.2343
  H  H207  1  0.230000  0.483500  0.823300  1.0  0.0644
  H  H208  1  0.171100  0.763700  0.348900  1.0  0.069
  H  H209  1  0.920400  0.481400  0.381000  1.0  0.0763
  H  H210  1  0.163000  0.149100  0.661800  1.0  0.0808
  H  H211  1  0.125900  0.859600  0.692900  1.0  0.1131
  H  H212  1  0.137300  0.524700  0.734400  1.0  0.0687
  H  H213  1  0.197000  0.077800  0.723100  1.0  0.1152
  H  H214  1  0.135100  0.781600  0.405000  1.0  0.1017
  H  H215  1  0.009000  0.862500  0.521600  1.0  0.0946
  H  H216  1  0.922600  0.532500  0.502100  1.0  0.0644
  H  H217  1  0.241800  0.636400  0.830200  1.0  0.0972
  H  H218  1  0.020200  0.984200  0.566300  1.0  0.1044
  H  H219  1  0.329600  0.921200  0.929300  1.0  0.0706
  H  H220  1  0.123400  0.026300  0.530100  1.0  0.094
  H  H221  1  0.146600  0.678500  0.737000  1.0  0.1151
  H  H222  1  0.321900  0.123700  0.848000  1.0  0.08
  H  H223  1  0.090000  0.944600  0.638400  1.0  0.0747
  H  H224  1  0.114100  0.896500  0.487800  1.0  0.1018
  H  H225  1  0.282700  0.837300  0.881300  1.0  0.1073
  H  H226  1  0.270100  0.058400  0.804600  1.0  0.1088
  H  H227  1  0.975800  0.628500  0.505900  1.0  0.1166
  H  H228  1  0.974800  0.575100  0.380400  1.0  0.1024
  H  H229  1  0.103600  0.567500  0.302400  1.0  0.0637
  H  H230  1  0.061900  0.592200  0.347100  1.0  0.1078
  H  H231  1  0.011200  0.736000  0.495400  1.0  0.2573
  H  H232  1  0.226700  0.003400  0.771300  1.0  0.2343
  C  C233  1  0.310100  0.594900  0.250600  1.0  0.3422
  C  C234  1  0.260700  0.605600  0.193100  1.0  0.3412
  C  C235  1  0.516300  0.894300  0.555400  1.0  0.0428
  C  C236  1  0.287200  0.976300  0.194700  1.0  0.1294
  C  C237  1  0.296700  0.727500  0.216000  1.0  0.2366
  C  C238  1  0.446500  0.712300  0.530400  1.0  0.4115
  C  C239  1  0.333200  0.542600  0.286400  1.0  -0.0779
  C  C240  1  0.351300  0.773200  0.650800  1.0  0.1066
  C  C241  1  0.440100  0.632300  0.501200  1.0  -0.0564
  C  C242  1  0.567100  0.991100  0.592700  1.0  0.1247
  C  C243  1  0.407100  0.806100  0.619500  1.0  -0.0672
  C  C244  1  0.344900  0.409200  0.330700  1.0  0.1227
  C  C245  1  0.303900  0.824200  0.216000  1.0  -0.0445
  C  C246  1  0.482100  0.834800  0.555200  1.0  0.4193
  C  C247  1  0.366200  0.580600  0.312200  1.0  -0.1459
  C  C248  1  0.431700  0.792700  0.584900  1.0  0.4325
  C  C249  1  0.228000  0.559000  0.162600  1.0  -0.1327
  C  C250  1  0.340600  0.951700  0.246200  1.0  0.1457
  C  C251  1  0.323800  0.452500  0.295300  1.0  -0.1658
  C  C252  1  0.373600  0.759700  0.618000  1.0  -0.11
  C  C253  1  0.467100  0.604600  0.476600  1.0  -0.157
  C  C254  1  0.565700  0.960900  0.522700  1.0  0.1243
  C  C255  1  0.279900  0.884800  0.190500  1.0  -0.1525
  C  C256  1  0.460700  0.532600  0.450300  1.0  0.1014
  C  C257  1  0.181700  0.552400  0.097700  1.0  0.1464
  C  C258  1  0.399800  0.508600  0.471000  1.0  0.1052
  C  C259  1  0.335600  0.859900  0.244700  1.0  -0.1636
  C  C260  1  0.187100  0.433500  0.144100  1.0  0.1185
  C  C261  1  0.386800  0.529900  0.345000  1.0  0.1682
  C  C262  1  0.405800  0.584500  0.497100  1.0  -0.1092
  C  C263  1  0.210500  0.602900  0.125300  1.0  -0.1516
  C  C264  1  0.216500  0.473100  0.170600  1.0  -0.193
  C  C265  1  0.533800  0.903800  0.520100  1.0  -0.2207
  C  C266  1  0.534500  0.934800  0.593400  1.0  -0.1781
  C  C267  1  0.391100  0.883400  0.678000  1.0  0.1702
  C  C268  1  0.415200  0.871400  0.650900  1.0  -0.1838
  C  C269  1  0.810100  0.094900  0.250600  1.0  0.3422
  C  C270  1  0.760700  0.105600  0.193100  1.0  0.3412
  C  C271  1  0.016300  0.394300  0.555400  1.0  0.0428
  C  C272  1  0.787200  0.476300  0.194700  1.0  0.1294
  C  C273  1  0.796700  0.227500  0.216000  1.0  0.2366
  C  C274  1  0.946500  0.212300  0.530400  1.0  0.4115
  C  C275  1  0.833200  0.042600  0.286400  1.0  -0.0779
  C  C276  1  0.851300  0.273200  0.650800  1.0  0.1065
  C  C277  1  0.940100  0.132300  0.501200  1.0  -0.0564
  C  C278  1  0.067100  0.491100  0.592700  1.0  0.1247
  C  C279  1  0.907100  0.306100  0.619500  1.0  -0.0672
  C  C280  1  0.844900  0.909200  0.330700  1.0  0.1227
  C  C281  1  0.803900  0.324200  0.216000  1.0  -0.0445
  C  C282  1  0.982100  0.334800  0.555200  1.0  0.4193
  C  C283  1  0.866200  0.080600  0.312200  1.0  -0.1459
  C  C284  1  0.931700  0.292700  0.584900  1.0  0.4325
  C  C285  1  0.728000  0.059000  0.162600  1.0  -0.1327
  C  C286  1  0.840600  0.451700  0.246200  1.0  0.1457
  C  C287  1  0.823800  0.952500  0.295300  1.0  -0.1658
  C  C288  1  0.873600  0.259700  0.618000  1.0  -0.11
  C  C289  1  0.967100  0.104600  0.476600  1.0  -0.157
  C  C290  1  0.065700  0.460900  0.522700  1.0  0.1243
  C  C291  1  0.779900  0.384800  0.190500  1.0  -0.1525
  C  C292  1  0.960700  0.032600  0.450300  1.0  0.1014
  C  C293  1  0.681700  0.052400  0.097700  1.0  0.1464
  C  C294  1  0.899800  0.008600  0.471000  1.0  0.1052
  C  C295  1  0.835600  0.359900  0.244700  1.0  -0.1636
  C  C296  1  0.687100  0.933500  0.144100  1.0  0.1185
  C  C297  1  0.886800  0.029900  0.345000  1.0  0.1682
  C  C298  1  0.905800  0.084500  0.497100  1.0  -0.1092
  C  C299  1  0.710500  0.102900  0.125300  1.0  -0.1516
  C  C300  1  0.716500  0.973100  0.170600  1.0  -0.193
  C  C301  1  0.033800  0.403800  0.520100  1.0  -0.2207
  C  C302  1  0.034500  0.434800  0.593400  1.0  -0.1781
  C  C303  1  0.891100  0.383400  0.678000  1.0  0.1701
  C  C304  1  0.915200  0.371400  0.650900  1.0  -0.1839
  C  C305  1  0.310100  0.405100  0.750600  1.0  0.342
  C  C306  1  0.260700  0.394400  0.693100  1.0  0.3411
  C  C307  1  0.516300  0.105700  0.055400  1.0  0.0428
  C  C308  1  0.287200  0.023700  0.694700  1.0  0.1284
  C  C309  1  0.296700  0.272500  0.716000  1.0  0.236
  C  C310  1  0.446500  0.287700  0.030400  1.0  0.4118
  C  C311  1  0.333200  0.457400  0.786400  1.0  -0.0782
  C  C312  1  0.351300  0.226800  0.150800  1.0  0.1058
  C  C313  1  0.440100  0.367700  0.001200  1.0  -0.057
  C  C314  1  0.567100  0.008900  0.092700  1.0  0.126
  C  C315  1  0.407100  0.193900  0.119500  1.0  -0.0676
  C  C316  1  0.344900  0.590800  0.830700  1.0  0.1232
  C  C317  1  0.303900  0.175800  0.716000  1.0  -0.0427
  C  C318  1  0.482100  0.165200  0.055200  1.0  0.4194
  C  C319  1  0.366200  0.419400  0.812200  1.0  -0.1468
  C  C320  1  0.431700  0.207300  0.084900  1.0  0.4325
  C  C321  1  0.228000  0.441000  0.662600  1.0  -0.1327
  C  C322  1  0.340600  0.048300  0.746200  1.0  0.1453
  C  C323  1  0.323800  0.547500  0.795300  1.0  -0.1668
  C  C324  1  0.373600  0.240300  0.118000  1.0  -0.1106
  C  C325  1  0.467100  0.395400  0.976600  1.0  -0.1566
  C  C326  1  0.565700  0.039100  0.022700  1.0  0.124
  C  C327  1  0.279900  0.115200  0.690500  1.0  -0.1528
  C  C328  1  0.460700  0.467400  0.950300  1.0  0.1015
  C  C329  1  0.181700  0.447600  0.597700  1.0  0.1467
  C  C330  1  0.399800  0.491400  0.971000  1.0  0.1042
  C  C331  1  0.335600  0.140100  0.744700  1.0  -0.1634
  C  C332  1  0.187100  0.566500  0.644100  1.0  0.1198
  C  C333  1  0.386800  0.470100  0.845000  1.0  0.1685
  C  C334  1  0.405800  0.415500  0.997100  1.0  -0.1095
  C  C335  1  0.210500  0.397100  0.625300  1.0  -0.1514
  C  C336  1  0.216500  0.526900  0.670600  1.0  -0.1928
  C  C337  1  0.533800  0.096200  0.020100  1.0  -0.2209
  C  C338  1  0.534500  0.065200  0.093400  1.0  -0.1778
  C  C339  1  0.391100  0.116600  0.178000  1.0  0.1713
  C  C340  1  0.415200  0.128600  0.150900  1.0  -0.1824
  C  C341  1  0.810100  0.905100  0.750600  1.0  0.342
  C  C342  1  0.760700  0.894400  0.693100  1.0  0.3411
  C  C343  1  0.016300  0.605700  0.055400  1.0  0.0428
  C  C344  1  0.787200  0.523700  0.694700  1.0  0.1284
  C  C345  1  0.796700  0.772500  0.716000  1.0  0.236
  C  C346  1  0.946500  0.787700  0.030400  1.0  0.4118
  C  C347  1  0.833200  0.957400  0.786400  1.0  -0.0782
  C  C348  1  0.851300  0.726800  0.150800  1.0  0.1057
  C  C349  1  0.940100  0.867700  0.001200  1.0  -0.057
  C  C350  1  0.067100  0.508900  0.092700  1.0  0.126
  C  C351  1  0.907100  0.693900  0.119500  1.0  -0.0676
  C  C352  1  0.844900  0.090800  0.830700  1.0  0.1232
  C  C353  1  0.803900  0.675800  0.716000  1.0  -0.0427
  C  C354  1  0.982100  0.665200  0.055200  1.0  0.4194
  C  C355  1  0.866200  0.919400  0.812200  1.0  -0.1468
  C  C356  1  0.931700  0.707300  0.084900  1.0  0.4325
  C  C357  1  0.728000  0.941000  0.662600  1.0  -0.1327
  C  C358  1  0.840600  0.548300  0.746200  1.0  0.1453
  C  C359  1  0.823800  0.047500  0.795300  1.0  -0.1668
  C  C360  1  0.873600  0.740300  0.118000  1.0  -0.1106
  C  C361  1  0.967100  0.895400  0.976600  1.0  -0.1566
  C  C362  1  0.065700  0.539100  0.022700  1.0  0.124
  C  C363  1  0.779900  0.615200  0.690500  1.0  -0.1528
  C  C364  1  0.960700  0.967400  0.950300  1.0  0.1015
  C  C365  1  0.681700  0.947600  0.597700  1.0  0.1467
  C  C366  1  0.899800  0.991400  0.971000  1.0  0.1042
  C  C367  1  0.835600  0.640100  0.744700  1.0  -0.1634
  C  C368  1  0.687100  0.066500  0.644100  1.0  0.1198
  C  C369  1  0.886800  0.970100  0.845000  1.0  0.1685
  C  C370  1  0.905800  0.915500  0.997100  1.0  -0.1095
  C  C371  1  0.710500  0.897100  0.625300  1.0  -0.1514
  C  C372  1  0.716500  0.026900  0.670600  1.0  -0.1928
  C  C373  1  0.033800  0.596200  0.020100  1.0  -0.2209
  C  C374  1  0.034500  0.565200  0.093400  1.0  -0.1778
  C  C375  1  0.891100  0.616600  0.178000  1.0  0.1713
  C  C376  1  0.915200  0.628600  0.150900  1.0  -0.1826
  C  C377  1  0.689900  0.594900  0.249400  1.0  0.3421
  C  C378  1  0.739300  0.605600  0.306900  1.0  0.3416
  C  C379  1  0.483700  0.894300  0.944600  1.0  0.0433
  C  C380  1  0.712800  0.976300  0.305300  1.0  0.1286
  C  C381  1  0.703300  0.727500  0.284000  1.0  0.2369
  C  C382  1  0.553500  0.712300  0.969600  1.0  0.4123
  C  C383  1  0.666800  0.542600  0.213600  1.0  -0.0793
  C  C384  1  0.648700  0.773200  0.849200  1.0  0.1046
  C  C385  1  0.559900  0.632300  0.998800  1.0  -0.0553
  C  C386  1  0.432900  0.991100  0.907300  1.0  0.1245
  C  C387  1  0.592900  0.806100  0.880500  1.0  -0.0679
  C  C388  1  0.655100  0.409200  0.169300  1.0  0.1227
  C  C389  1  0.696100  0.824200  0.284000  1.0  -0.0469
  C  C390  1  0.517900  0.834800  0.944800  1.0  0.4196
  C  C391  1  0.633800  0.580600  0.187800  1.0  -0.1475
  C  C392  1  0.568300  0.792700  0.915100  1.0  0.4312
  C  C393  1  0.772000  0.559000  0.337400  1.0  -0.1334
  C  C394  1  0.659400  0.951700  0.253800  1.0  0.1444
  C  C395  1  0.676200  0.452500  0.204700  1.0  -0.1644
  C  C396  1  0.626400  0.759700  0.882000  1.0  -0.1089
  C  C397  1  0.532900  0.604600  0.023400  1.0  -0.1556
  C  C398  1  0.434300  0.960900  0.977300  1.0  0.1257
  C  C399  1  0.720100  0.884800  0.309500  1.0  -0.1505
  C  C400  1  0.539300  0.532600  0.049700  1.0  0.102
  C  C401  1  0.818300  0.552400  0.402300  1.0  0.1477
  C  C402  1  0.600200  0.508600  0.029000  1.0  0.1055
  C  C403  1  0.664400  0.859900  0.255300  1.0  -0.1651
  C  C404  1  0.812900  0.433500  0.355900  1.0  0.1178
  C  C405  1  0.613200  0.529900  0.155000  1.0  0.1684
  C  C406  1  0.594200  0.584500  0.002900  1.0  -0.1071
  C  C407  1  0.789500  0.602900  0.374700  1.0  -0.1535
  C  C408  1  0.783500  0.473100  0.329400  1.0  -0.1955
  C  C409  1  0.466200  0.903800  0.979900  1.0  -0.2203
  C  C410  1  0.465500  0.934800  0.906600  1.0  -0.1773
  C  C411  1  0.608900  0.883400  0.822000  1.0  0.1709
  C  C412  1  0.584800  0.871400  0.849100  1.0  -0.1807
  C  C413  1  0.189900  0.094900  0.249400  1.0  0.3421
  C  C414  1  0.239300  0.105600  0.306900  1.0  0.3416
  C  C415  1  0.983700  0.394300  0.944600  1.0  0.0433
  C  C416  1  0.212800  0.476300  0.305300  1.0  0.1286
  C  C417  1  0.203300  0.227500  0.284000  1.0  0.2369
  C  C418  1  0.053500  0.212300  0.969600  1.0  0.4123
  C  C419  1  0.166800  0.042600  0.213600  1.0  -0.0793
  C  C420  1  0.148700  0.273200  0.849200  1.0  0.1045
  C  C421  1  0.059900  0.132300  0.998800  1.0  -0.0553
  C  C422  1  0.932900  0.491100  0.907300  1.0  0.1245
  C  C423  1  0.092900  0.306100  0.880500  1.0  -0.0679
  C  C424  1  0.155100  0.909200  0.169300  1.0  0.1227
  C  C425  1  0.196100  0.324200  0.284000  1.0  -0.0469
  C  C426  1  0.017900  0.334800  0.944800  1.0  0.4196
  C  C427  1  0.133800  0.080600  0.187800  1.0  -0.1475
  C  C428  1  0.068300  0.292700  0.915100  1.0  0.4312
  C  C429  1  0.272000  0.059000  0.337400  1.0  -0.1334
  C  C430  1  0.159400  0.451700  0.253800  1.0  0.1444
  C  C431  1  0.176200  0.952500  0.204700  1.0  -0.1644
  C  C432  1  0.126400  0.259700  0.882000  1.0  -0.1089
  C  C433  1  0.032900  0.104600  0.023400  1.0  -0.1556
  C  C434  1  0.934300  0.460900  0.977300  1.0  0.1257
  C  C435  1  0.220100  0.384800  0.309500  1.0  -0.1505
  C  C436  1  0.039300  0.032600  0.049700  1.0  0.102
  C  C437  1  0.318300  0.052400  0.402300  1.0  0.1477
  C  C438  1  0.100200  0.008600  0.029000  1.0  0.1055
  C  C439  1  0.164400  0.359900  0.255300  1.0  -0.1651
  C  C440  1  0.312900  0.933500  0.355900  1.0  0.1178
  C  C441  1  0.113200  0.029900  0.155000  1.0  0.1684
  C  C442  1  0.094200  0.084500  0.002900  1.0  -0.1071
  C  C443  1  0.289500  0.102900  0.374700  1.0  -0.1535
  C  C444  1  0.283500  0.973100  0.329400  1.0  -0.1955
  C  C445  1  0.966200  0.403800  0.979900  1.0  -0.2203
  C  C446  1  0.965500  0.434800  0.906600  1.0  -0.1773
  C  C447  1  0.108900  0.383400  0.822000  1.0  0.1709
  C  C448  1  0.084800  0.371400  0.849100  1.0  -0.1808
  C  C449  1  0.689900  0.405100  0.749400  1.0  0.3414
  C  C450  1  0.739300  0.394400  0.806900  1.0  0.3419
  C  C451  1  0.483700  0.105700  0.444600  1.0  0.0432
  C  C452  1  0.712800  0.023700  0.805300  1.0  0.1288
  C  C453  1  0.703300  0.272500  0.784000  1.0  0.237
  C  C454  1  0.553500  0.287700  0.469600  1.0  0.4119
  C  C455  1  0.666800  0.457400  0.713600  1.0  -0.0799
  C  C456  1  0.648700  0.226800  0.349200  1.0  0.104
  C  C457  1  0.559900  0.367700  0.498800  1.0  -0.056
  C  C458  1  0.432900  0.008900  0.407300  1.0  0.1243
  C  C459  1  0.592900  0.193900  0.380500  1.0  -0.0681
  C  C460  1  0.655100  0.590800  0.669300  1.0  0.1238
  C  C461  1  0.696100  0.175800  0.784000  1.0  -0.0452
  C  C462  1  0.517900  0.165200  0.444800  1.0  0.4183
  C  C463  1  0.633800  0.419400  0.687800  1.0  -0.1476
  C  C464  1  0.568300  0.207300  0.415100  1.0  0.4313
  C  C465  1  0.772000  0.441000  0.837400  1.0  -0.1332
  C  C466  1  0.659400  0.048300  0.753800  1.0  0.1442
  C  C467  1  0.676200  0.547500  0.704700  1.0  -0.1659
  C  C468  1  0.626400  0.240300  0.382000  1.0  -0.1106
  C  C469  1  0.532900  0.395400  0.523400  1.0  -0.1547
  C  C470  1  0.434300  0.039100  0.477300  1.0  0.1254
  C  C471  1  0.720100  0.115200  0.809500  1.0  -0.1504
  C  C472  1  0.539300  0.467400  0.549700  1.0  0.1012
  C  C473  1  0.818300  0.447600  0.902300  1.0  0.1476
  C  C474  1  0.600200  0.491400  0.529000  1.0  0.1053
  C  C475  1  0.664400  0.140100  0.755300  1.0  -0.1658
  C  C476  1  0.812900  0.566500  0.855900  1.0  0.1208
  C  C477  1  0.613200  0.470100  0.655000  1.0  0.1688
  C  C478  1  0.594200  0.415500  0.502900  1.0  -0.1078
  C  C479  1  0.789500  0.397100  0.874700  1.0  -0.1525
  C  C480  1  0.783500  0.526900  0.829400  1.0  -0.1956
  C  C481  1  0.466200  0.096200  0.479900  1.0  -0.2203
  C  C482  1  0.465500  0.065200  0.406600  1.0  -0.1767
  C  C483  1  0.608900  0.116600  0.322000  1.0  0.1716
  C  C484  1  0.584800  0.128600  0.349100  1.0  -0.1795
  C  C485  1  0.189900  0.905100  0.749400  1.0  0.3414
  C  C486  1  0.239300  0.894400  0.806900  1.0  0.3419
  C  C487  1  0.983700  0.605700  0.444600  1.0  0.0432
  C  C488  1  0.212800  0.523700  0.805300  1.0  0.1288
  C  C489  1  0.203300  0.772500  0.784000  1.0  0.237
  C  C490  1  0.053500  0.787700  0.469600  1.0  0.4119
  C  C491  1  0.166800  0.957400  0.713600  1.0  -0.0799
  C  C492  1  0.148700  0.726800  0.349200  1.0  0.104
  C  C493  1  0.059900  0.867700  0.498800  1.0  -0.056
  C  C494  1  0.932900  0.508900  0.407300  1.0  0.1243
  C  C495  1  0.092900  0.693900  0.380500  1.0  -0.0681
  C  C496  1  0.155100  0.090800  0.669300  1.0  0.1238
  C  C497  1  0.196100  0.675800  0.784000  1.0  -0.0452
  C  C498  1  0.017900  0.665200  0.444800  1.0  0.4183
  C  C499  1  0.133800  0.919400  0.687800  1.0  -0.1476
  C  C500  1  0.068300  0.707300  0.415100  1.0  0.4313
  C  C501  1  0.272000  0.941000  0.837400  1.0  -0.1332
  C  C502  1  0.159400  0.548300  0.753800  1.0  0.1442
  C  C503  1  0.176200  0.047500  0.704700  1.0  -0.1659
  C  C504  1  0.126400  0.740300  0.382000  1.0  -0.1106
  C  C505  1  0.032900  0.895400  0.523400  1.0  -0.1547
  C  C506  1  0.934300  0.539100  0.477300  1.0  0.1254
  C  C507  1  0.220100  0.615200  0.809500  1.0  -0.1504
  C  C508  1  0.039300  0.967400  0.549700  1.0  0.1012
  C  C509  1  0.318300  0.947600  0.902300  1.0  0.1476
  C  C510  1  0.100200  0.991400  0.529000  1.0  0.1053
  C  C511  1  0.164400  0.640100  0.755300  1.0  -0.1658
  C  C512  1  0.312900  0.066500  0.855900  1.0  0.1208
  C  C513  1  0.113200  0.970100  0.655000  1.0  0.1688
  C  C514  1  0.094200  0.915500  0.502900  1.0  -0.1078
  C  C515  1  0.289500  0.897100  0.874700  1.0  -0.1525
  C  C516  1  0.283500  0.026900  0.829400  1.0  -0.1956
  C  C517  1  0.966200  0.596200  0.479900  1.0  -0.2203
  C  C518  1  0.965500  0.565200  0.406600  1.0  -0.1767
  C  C519  1  0.108900  0.616600  0.322000  1.0  0.1715
  C  C520  1  0.084800  0.628600  0.349100  1.0  -0.1795
  I  I521  1  0.267190  0.241080  0.208930  1.0  -0.45
  I  I522  1  0.374690  0.165490  0.303040  1.0  -0.4429
  I  I523  1  0.107160  0.265220  0.101490  1.0  -0.4247
  I  I524  1  0.474410  0.341550  0.372630  1.0  -0.379
  I  I525  1  0.148930  0.400610  0.990480  1.0  -0.3439
  I  I526  1  0.374210  0.265230  0.437750  1.0  -0.442
  I  I527  1  0.767190  0.741080  0.208930  1.0  -0.45
  I  I528  1  0.874690  0.665490  0.303040  1.0  -0.4429
  I  I529  1  0.607160  0.765220  0.101490  1.0  -0.4247
  I  I530  1  0.974410  0.841550  0.372630  1.0  -0.379
  I  I531  1  0.648930  0.900610  0.990480  1.0  -0.3439
  I  I532  1  0.874210  0.765230  0.437750  1.0  -0.442
  I  I533  1  0.267190  0.758920  0.708930  1.0  -0.45
  I  I534  1  0.374690  0.834510  0.803040  1.0  -0.4438
  I  I535  1  0.107160  0.734780  0.601490  1.0  -0.4239
  I  I536  1  0.474410  0.658450  0.872630  1.0  -0.3787
  I  I537  1  0.148930  0.599390  0.490480  1.0  -0.3443
  I  I538  1  0.374210  0.734770  0.937750  1.0  -0.4424
  I  I539  1  0.767190  0.258920  0.708930  1.0  -0.45
  I  I540  1  0.874690  0.334510  0.803040  1.0  -0.4438
  I  I541  1  0.607160  0.234780  0.601490  1.0  -0.4239
  I  I542  1  0.974410  0.158450  0.872630  1.0  -0.3787
  I  I543  1  0.648930  0.099390  0.490480  1.0  -0.3443
  I  I544  1  0.874210  0.234770  0.937750  1.0  -0.4424
  I  I545  1  0.732810  0.241080  0.291070  1.0  -0.4517
  I  I546  1  0.625310  0.165490  0.196960  1.0  -0.4447
  I  I547  1  0.892840  0.265220  0.398510  1.0  -0.4242
  I  I548  1  0.525590  0.341550  0.127370  1.0  -0.3779
  I  I549  1  0.851070  0.400610  0.509520  1.0  -0.344
  I  I550  1  0.625790  0.265230  0.062250  1.0  -0.4433
  I  I551  1  0.232810  0.741080  0.291070  1.0  -0.4517
  I  I552  1  0.125310  0.665490  0.196960  1.0  -0.4447
  I  I553  1  0.392840  0.765220  0.398510  1.0  -0.4242
  I  I554  1  0.025590  0.841550  0.127370  1.0  -0.3779
  I  I555  1  0.351070  0.900610  0.509520  1.0  -0.344
  I  I556  1  0.125790  0.765230  0.062250  1.0  -0.4433
  I  I557  1  0.732810  0.758920  0.791070  1.0  -0.4519
  I  I558  1  0.625310  0.834510  0.696960  1.0  -0.4452
  I  I559  1  0.892840  0.734780  0.898510  1.0  -0.424
  I  I560  1  0.525590  0.658450  0.627370  1.0  -0.3778
  I  I561  1  0.851070  0.599390  0.009520  1.0  -0.3435
  I  I562  1  0.625790  0.734770  0.562250  1.0  -0.4436
  I  I563  1  0.232810  0.258920  0.791070  1.0  -0.4519
  I  I564  1  0.125310  0.334510  0.696960  1.0  -0.4452
  I  I565  1  0.392840  0.234780  0.898510  1.0  -0.424
  I  I566  1  0.025590  0.158450  0.627370  1.0  -0.3778
  I  I567  1  0.351070  0.099390  0.009520  1.0  -0.3435
  I  I568  1  0.125790  0.234770  0.562250  1.0  -0.4436
  N  N569  1  0.316600  0.010200  0.222000  1.0  -0.3135
  N  N570  1  0.266800  0.691400  0.187500  1.0  -0.3553
  N  N571  1  0.426900  0.483400  0.447000  1.0  -0.3223
  N  N572  1  0.423500  0.721900  0.559600  1.0  -0.4881
  N  N573  1  0.377000  0.448500  0.355100  1.0  -0.3256
  N  N574  1  0.475300  0.769300  0.525600  1.0  -0.3234
  N  N575  1  0.320400  0.680200  0.247400  1.0  -0.445
  N  N576  1  0.580800  0.006900  0.557900  1.0  -0.3122
  N  N577  1  0.169100  0.471500  0.106100  1.0  -0.3364
  N  N578  1  0.459900  0.849900  0.585400  1.0  -0.4131
  N  N579  1  0.279800  0.553100  0.224900  1.0  -0.3312
  N  N580  1  0.360200  0.833300  0.680300  1.0  -0.3228
  N  N581  1  0.816600  0.510200  0.222000  1.0  -0.3136
  N  N582  1  0.766800  0.191400  0.187500  1.0  -0.3553
  N  N583  1  0.926900  0.983400  0.447000  1.0  -0.3223
  N  N584  1  0.923500  0.221900  0.559600  1.0  -0.4881
  N  N585  1  0.877000  0.948500  0.355100  1.0  -0.3256
  N  N586  1  0.975300  0.269300  0.525600  1.0  -0.3234
  N  N587  1  0.820400  0.180200  0.247400  1.0  -0.445
  N  N588  1  0.080800  0.506900  0.557900  1.0  -0.3122
  N  N589  1  0.669100  0.971500  0.106100  1.0  -0.3364
  N  N590  1  0.959900  0.349900  0.585400  1.0  -0.4131
  N  N591  1  0.779800  0.053100  0.224900  1.0  -0.3312
  N  N592  1  0.860200  0.333333  0.680300  1.0  -0.3234
  N  N593  1  0.316600  0.989800  0.722000  1.0  -0.3103
  N  N594  1  0.266800  0.308600  0.687500  1.0  -0.3553
  N  N595  1  0.426900  0.516600  0.947000  1.0  -0.3219
  N  N596  1  0.423500  0.278100  0.059600  1.0  -0.4876
  N  N597  1  0.377000  0.551500  0.855100  1.0  -0.3269
  N  N598  1  0.475300  0.230700  0.025600  1.0  -0.3232
  N  N599  1  0.320400  0.319800  0.747400  1.0  -0.4456
  N  N600  1  0.580800  0.993100  0.057900  1.0  -0.3114
  N  N601  1  0.169100  0.528500  0.606100  1.0  -0.3352
  N  N602  1  0.459900  0.150100  0.085400  1.0  -0.4126
  N  N603  1  0.279800  0.446900  0.724900  1.0  -0.3307
  N  N604  1  0.360200  0.166700  0.180300  1.0  -0.3219
  N  N605  1  0.816600  0.489800  0.722000  1.0  -0.3104
  N  N606  1  0.766800  0.808600  0.687500  1.0  -0.3553
  N  N607  1  0.926900  0.016600  0.947000  1.0  -0.3219
  N  N608  1  0.923500  0.778100  0.059600  1.0  -0.4876
  N  N609  1  0.877000  0.051500  0.855100  1.0  -0.3269
  N  N610  1  0.975300  0.730700  0.025600  1.0  -0.3232
  N  N611  1  0.820400  0.819800  0.747400  1.0  -0.4456
  N  N612  1  0.080800  0.493100  0.057900  1.0  -0.3114
  N  N613  1  0.669100  0.028500  0.606100  1.0  -0.3352
  N  N614  1  0.959900  0.650100  0.085400  1.0  -0.4126
  N  N615  1  0.779800  0.946900  0.724900  1.0  -0.3307
  N  N616  1  0.860200  0.666667  0.180300  1.0  -0.3225
  N  N617  1  0.683400  0.010200  0.278000  1.0  -0.3121
  N  N618  1  0.733200  0.691400  0.312500  1.0  -0.3521
  N  N619  1  0.573100  0.483400  0.053000  1.0  -0.3212
  N  N620  1  0.576500  0.721900  0.940400  1.0  -0.4872
  N  N621  1  0.623000  0.448500  0.144900  1.0  -0.3266
  N  N622  1  0.524700  0.769300  0.974400  1.0  -0.3238
  N  N623  1  0.679600  0.680200  0.252600  1.0  -0.4422
  N  N624  1  0.419200  0.006900  0.942100  1.0  -0.3114
  N  N625  1  0.830900  0.471500  0.393900  1.0  -0.3349
  N  N626  1  0.540100  0.849900  0.914600  1.0  -0.4126
  N  N627  1  0.720200  0.553100  0.275100  1.0  -0.3306
  N  N628  1  0.639800  0.833300  0.819700  1.0  -0.3206
  N  N629  1  0.183400  0.510200  0.278000  1.0  -0.3122
  N  N630  1  0.233200  0.191400  0.312500  1.0  -0.3521
  N  N631  1  0.073100  0.983400  0.053000  1.0  -0.3212
  N  N632  1  0.076500  0.221900  0.940400  1.0  -0.4872
  N  N633  1  0.123000  0.948500  0.144900  1.0  -0.3266
  N  N634  1  0.024700  0.269300  0.974400  1.0  -0.3238
  N  N635  1  0.179600  0.180200  0.252600  1.0  -0.4422
  N  N636  1  0.919200  0.506900  0.942100  1.0  -0.3114
  N  N637  1  0.330900  0.971500  0.393900  1.0  -0.3349
  N  N638  1  0.040100  0.349900  0.914600  1.0  -0.4126
  N  N639  1  0.220200  0.053100  0.275100  1.0  -0.3306
  N  N640  1  0.139800  0.333333  0.819700  1.0  -0.3213
  N  N641  1  0.683400  0.989800  0.778000  1.0  -0.3111
  N  N642  1  0.733200  0.308600  0.812500  1.0  -0.3513
  N  N643  1  0.573100  0.516600  0.553000  1.0  -0.3215
  N  N644  1  0.576500  0.278100  0.440400  1.0  -0.4873
  N  N645  1  0.623000  0.551500  0.644900  1.0  -0.3255
  N  N646  1  0.524700  0.230700  0.474400  1.0  -0.3235
  N  N647  1  0.679600  0.319800  0.752600  1.0  -0.4432
  N  N648  1  0.419200  0.993100  0.442100  1.0  -0.3131
  N  N649  1  0.830900  0.528500  0.893900  1.0  -0.3358
  N  N650  1  0.540100  0.150100  0.414600  1.0  -0.4129
  N  N651  1  0.720200  0.446900  0.775100  1.0  -0.3309
  N  N652  1  0.639800  0.166700  0.319700  1.0  -0.321
  N  N653  1  0.183400  0.489800  0.778000  1.0  -0.3111
  N  N654  1  0.233200  0.808600  0.812500  1.0  -0.3513
  N  N655  1  0.073100  0.016600  0.553000  1.0  -0.3215
  N  N656  1  0.076500  0.778100  0.440400  1.0  -0.4873
  N  N657  1  0.123000  0.051500  0.644900  1.0  -0.3255
  N  N658  1  0.024700  0.730700  0.474400  1.0  -0.3235
  N  N659  1  0.179600  0.819800  0.752600  1.0  -0.4432
  N  N660  1  0.919200  0.493100  0.442100  1.0  -0.3131
  N  N661  1  0.330900  0.028500  0.893900  1.0  -0.3358
  N  N662  1  0.040100  0.650100  0.414600  1.0  -0.4129
  N  N663  1  0.220200  0.946900  0.775100  1.0  -0.3309
  N  N664  1  0.139800  0.666667  0.319700  1.0  -0.3216
