# generated using pymatgen
data_Zn3H26C36(IN2)6
_symmetry_space_group_name_H-M   'P 1'
_cell_length_a   34.59220000
_cell_length_b   14.81410000
_cell_length_c   31.42660000
_cell_angle_alpha   90.00000000
_cell_angle_beta   100.79000000
_cell_angle_gamma   90.00000000
_symmetry_Int_Tables_number   1
_chemical_formula_structural   Zn3H26C36(IN2)6
_chemical_formula_sum   'Zn24 H208 C288 I48 N96'
_cell_volume   15819.90287443
_cell_formula_units_Z   8
loop_
 _symmetry_equiv_pos_site_id
 _symmetry_equiv_pos_as_xyz
  1  'x, y, z'
loop_
 _atom_site_type_symbol
 _atom_site_label
 _atom_site_symmetry_multiplicity
 _atom_site_fract_x
 _atom_site_fract_y
 _atom_site_fract_z
 _atom_site_occupancy
 _atom_site_charge
  Zn  Zn1  1  0.126970  0.405590  0.062640  1.0  0.8809
  Zn  Zn2  1  0.413550  0.378470  0.403570  1.0  0.8612
  Zn  Zn3  1  0.328910  0.146960  0.229150  1.0  0.8622
  Zn  Zn4  1  0.626970  0.905590  0.062640  1.0  0.8809
  Zn  Zn5  1  0.913550  0.878470  0.403570  1.0  0.8612
  Zn  Zn6  1  0.828910  0.646960  0.229150  1.0  0.8622
  Zn  Zn7  1  0.126970  0.594410  0.562640  1.0  0.8794
  Zn  Zn8  1  0.413550  0.621530  0.903570  1.0  0.8613
  Zn  Zn9  1  0.328910  0.853040  0.729150  1.0  0.862
  Zn  Zn10  1  0.626970  0.094410  0.562640  1.0  0.8794
  Zn  Zn11  1  0.913550  0.121530  0.903570  1.0  0.8613
  Zn  Zn12  1  0.828910  0.353040  0.729150  1.0  0.862
  Zn  Zn13  1  0.873030  0.405590  0.437360  1.0  0.8813
  Zn  Zn14  1  0.586450  0.378470  0.096430  1.0  0.8606
  Zn  Zn15  1  0.671090  0.146960  0.270850  1.0  0.8623
  Zn  Zn16  1  0.373030  0.905590  0.437360  1.0  0.8813
  Zn  Zn17  1  0.086450  0.878470  0.096430  1.0  0.8606
  Zn  Zn18  1  0.171090  0.646960  0.270850  1.0  0.8623
  Zn  Zn19  1  0.873030  0.594410  0.937360  1.0  0.8795
  Zn  Zn20  1  0.586450  0.621530  0.596430  1.0  0.8609
  Zn  Zn21  1  0.671090  0.853040  0.770850  1.0  0.8627
  Zn  Zn22  1  0.373030  0.094410  0.937360  1.0  0.8795
  Zn  Zn23  1  0.086450  0.121530  0.596430  1.0  0.8609
  Zn  Zn24  1  0.171090  0.353040  0.770850  1.0  0.8627
  H  H25  1  0.269600  0.015800  0.176400  1.0  0.0688
  H  H26  1  0.327100  0.741700  0.648700  1.0  0.0768
  H  H27  1  0.576600  0.026000  0.618300  1.0  0.08
  H  H28  1  0.337300  0.349900  0.338400  1.0  0.0877
  H  H29  1  0.374600  0.640800  0.307200  1.0  0.1137
  H  H30  1  0.362000  0.975100  0.267800  1.0  0.0684
  H  H31  1  0.302400  0.422600  0.277600  1.0  0.1169
  H  H32  1  0.367200  0.712000  0.597800  1.0  0.1038
  H  H33  1  0.490900  0.638700  0.478100  1.0  0.104
  H  H34  1  0.577300  0.968000  0.498100  1.0  0.0656
  H  H35  1  0.258100  0.863600  0.170200  1.0  0.0981
  H  H36  1  0.480200  0.514600  0.433900  1.0  0.1098
  H  H37  1  0.170200  0.578600  0.071300  1.0  0.0686
  H  H38  1  0.375900  0.476000  0.467900  1.0  0.095
  H  H39  1  0.353800  0.820700  0.262200  1.0  0.1087
  H  H40  1  0.178500  0.376200  0.151600  1.0  0.068
  H  H41  1  0.410500  0.554300  0.361300  1.0  0.0757
  H  H42  1  0.385800  0.602500  0.512400  1.0  0.1025
  H  H43  1  0.218000  0.661500  0.117900  1.0  0.1095
  H  H44  1  0.228500  0.441900  0.196800  1.0  0.1305
  H  H45  1  0.523600  0.873500  0.493100  1.0  0.1052
  H  H46  1  0.525800  0.922500  0.620200  1.0  0.105
  H  H47  1  0.396000  0.931500  0.698700  1.0  0.0618
  H  H48  1  0.441300  0.901200  0.657300  1.0  0.1137
  H  H49  1  0.489100  0.763700  0.505000  1.0  0.2614
  H  H50  1  0.273000  0.496800  0.229300  1.0  0.2452
  H  H51  1  0.769600  0.515800  0.176400  1.0  0.0688
  H  H52  1  0.827100  0.241700  0.648700  1.0  0.0768
  H  H53  1  0.076600  0.526000  0.618300  1.0  0.08
  H  H54  1  0.837300  0.849900  0.338400  1.0  0.0877
  H  H55  1  0.874600  0.140800  0.307200  1.0  0.1137
  H  H56  1  0.862000  0.475100  0.267800  1.0  0.0684
  H  H57  1  0.802400  0.922600  0.277600  1.0  0.1169
  H  H58  1  0.867200  0.212000  0.597800  1.0  0.1038
  H  H59  1  0.990900  0.138700  0.478100  1.0  0.1047
  H  H60  1  0.077300  0.468000  0.498100  1.0  0.0656
  H  H61  1  0.758100  0.363600  0.170200  1.0  0.0981
  H  H62  1  0.980200  0.014600  0.433900  1.0  0.1093
  H  H63  1  0.670200  0.078600  0.071300  1.0  0.0686
  H  H64  1  0.875900  0.976000  0.467900  1.0  0.095
  H  H65  1  0.853800  0.320700  0.262200  1.0  0.1087
  H  H66  1  0.678500  0.876200  0.151600  1.0  0.068
  H  H67  1  0.910500  0.054300  0.361300  1.0  0.0757
  H  H68  1  0.885800  0.102500  0.512400  1.0  0.1025
  H  H69  1  0.718000  0.161500  0.117900  1.0  0.1095
  H  H70  1  0.728500  0.941900  0.196800  1.0  0.1305
  H  H71  1  0.023600  0.373500  0.493100  1.0  0.1052
  H  H72  1  0.025800  0.422500  0.620200  1.0  0.105
  H  H73  1  0.896000  0.431500  0.698700  1.0  0.0618
  H  H74  1  0.941300  0.401200  0.657300  1.0  0.1137
  H  H75  1  0.989100  0.263700  0.505000  1.0  0.2614
  H  H76  1  0.773000  0.996800  0.229300  1.0  0.2452
  H  H77  1  0.269600  0.984200  0.676400  1.0  0.0682
  H  H78  1  0.327100  0.258300  0.148700  1.0  0.0764
  H  H79  1  0.576600  0.974000  0.118300  1.0  0.0804
  H  H80  1  0.337300  0.650100  0.838400  1.0  0.0885
  H  H81  1  0.374600  0.359200  0.807200  1.0  0.114
  H  H82  1  0.362000  0.024900  0.767800  1.0  0.0687
  H  H83  1  0.302400  0.577400  0.777600  1.0  0.1176
  H  H84  1  0.367200  0.288000  0.097800  1.0  0.1043
  H  H85  1  0.490900  0.361300  0.978100  1.0  0.1035
  H  H86  1  0.577300  0.032000  0.998100  1.0  0.0659
  H  H87  1  0.258100  0.136400  0.670200  1.0  0.0983
  H  H88  1  0.480200  0.485400  0.933900  1.0  0.1099
  H  H89  1  0.170200  0.421400  0.571300  1.0  0.0686
  H  H90  1  0.375900  0.524000  0.967900  1.0  0.0948
  H  H91  1  0.353800  0.179300  0.762200  1.0  0.1088
  H  H92  1  0.178500  0.623800  0.651600  1.0  0.0684
  H  H93  1  0.410500  0.445700  0.861300  1.0  0.0754
  H  H94  1  0.385800  0.397500  0.012400  1.0  0.1024
  H  H95  1  0.218000  0.338500  0.617900  1.0  0.1096
  H  H96  1  0.228500  0.558100  0.696800  1.0  0.1308
  H  H97  1  0.523600  0.126500  0.993100  1.0  0.1054
  H  H98  1  0.525800  0.077500  0.120200  1.0  0.105
  H  H99  1  0.396000  0.068500  0.198700  1.0  0.0625
  H  H100  1  0.441300  0.098800  0.157300  1.0  0.1141
  H  H101  1  0.489100  0.236300  0.005000  1.0  0.2614
  H  H102  1  0.273000  0.503200  0.729300  1.0  0.2452
  H  H103  1  0.769600  0.484200  0.676400  1.0  0.0682
  H  H104  1  0.827100  0.758300  0.148700  1.0  0.0764
  H  H105  1  0.076600  0.474000  0.118300  1.0  0.0804
  H  H106  1  0.837300  0.150100  0.838400  1.0  0.0885
  H  H107  1  0.874600  0.859200  0.807200  1.0  0.114
  H  H108  1  0.862000  0.524900  0.767800  1.0  0.0687
  H  H109  1  0.802400  0.077400  0.777600  1.0  0.1176
  H  H110  1  0.867200  0.788000  0.097800  1.0  0.1043
  H  H111  1  0.990900  0.861300  0.978100  1.0  0.1042
  H  H112  1  0.077300  0.532000  0.998100  1.0  0.0659
  H  H113  1  0.758100  0.636400  0.670200  1.0  0.0983
  H  H114  1  0.980200  0.985400  0.933900  1.0  0.1095
  H  H115  1  0.670200  0.921400  0.571300  1.0  0.0686
  H  H116  1  0.875900  0.024000  0.967900  1.0  0.0948
  H  H117  1  0.853800  0.679300  0.762200  1.0  0.1088
  H  H118  1  0.678500  0.123800  0.651600  1.0  0.0684
  H  H119  1  0.910500  0.945700  0.861300  1.0  0.0754
  H  H120  1  0.885800  0.897500  0.012400  1.0  0.1024
  H  H121  1  0.718000  0.838500  0.617900  1.0  0.1096
  H  H122  1  0.728500  0.058100  0.696800  1.0  0.1308
  H  H123  1  0.023600  0.626500  0.993100  1.0  0.1054
  H  H124  1  0.025800  0.577500  0.120200  1.0  0.105
  H  H125  1  0.896000  0.568500  0.198700  1.0  0.0625
  H  H126  1  0.941300  0.598800  0.157300  1.0  0.1141
  H  H127  1  0.989100  0.736300  0.005000  1.0  0.2614
  H  H128  1  0.773000  0.003200  0.729300  1.0  0.2452
  H  H129  1  0.730400  0.015800  0.323600  1.0  0.0696
  H  H130  1  0.672900  0.741700  0.851300  1.0  0.0764
  H  H131  1  0.423400  0.026000  0.881700  1.0  0.0796
  H  H132  1  0.662700  0.349900  0.161600  1.0  0.0868
  H  H133  1  0.625400  0.640800  0.192800  1.0  0.1138
  H  H134  1  0.638000  0.975100  0.232200  1.0  0.0691
  H  H135  1  0.697600  0.422600  0.222400  1.0  0.1168
  H  H136  1  0.632800  0.712000  0.902200  1.0  0.1033
  H  H137  1  0.509100  0.638700  0.021900  1.0  0.1034
  H  H138  1  0.422700  0.968000  0.001900  1.0  0.0659
  H  H139  1  0.741900  0.863600  0.329800  1.0  0.0985
  H  H140  1  0.519800  0.514600  0.066100  1.0  0.1101
  H  H141  1  0.829800  0.578600  0.428700  1.0  0.0681
  H  H142  1  0.624100  0.476000  0.032100  1.0  0.0938
  H  H143  1  0.646200  0.820700  0.237800  1.0  0.108
  H  H144  1  0.821500  0.376200  0.348400  1.0  0.0678
  H  H145  1  0.589500  0.554300  0.138700  1.0  0.0759
  H  H146  1  0.614200  0.602500  0.987600  1.0  0.1023
  H  H147  1  0.782000  0.661500  0.382100  1.0  0.1095
  H  H148  1  0.771500  0.441900  0.303200  1.0  0.1281
  H  H149  1  0.476400  0.873500  0.006900  1.0  0.1049
  H  H150  1  0.474200  0.922500  0.879800  1.0  0.1051
  H  H151  1  0.604000  0.931500  0.801300  1.0  0.0629
  H  H152  1  0.558700  0.901200  0.842700  1.0  0.1142
  H  H153  1  0.510900  0.763700  0.995000  1.0  0.2614
  H  H154  1  0.727000  0.496800  0.270700  1.0  0.2444
  H  H155  1  0.230400  0.515800  0.323600  1.0  0.0696
  H  H156  1  0.172900  0.241700  0.851300  1.0  0.0764
  H  H157  1  0.923400  0.526000  0.881700  1.0  0.0796
  H  H158  1  0.162700  0.849900  0.161600  1.0  0.0868
  H  H159  1  0.125400  0.140800  0.192800  1.0  0.1138
  H  H160  1  0.138000  0.475100  0.232200  1.0  0.0691
  H  H161  1  0.197600  0.922600  0.222400  1.0  0.1168
  H  H162  1  0.132800  0.212000  0.902200  1.0  0.1033
  H  H163  1  0.009100  0.138700  0.021900  1.0  0.1037
  H  H164  1  0.922700  0.468000  0.001900  1.0  0.0659
  H  H165  1  0.241900  0.363600  0.329800  1.0  0.0985
  H  H166  1  0.019800  0.014600  0.066100  1.0  0.1098
  H  H167  1  0.329800  0.078600  0.428700  1.0  0.0681
  H  H168  1  0.124100  0.976000  0.032100  1.0  0.0938
  H  H169  1  0.146200  0.320700  0.237800  1.0  0.108
  H  H170  1  0.321500  0.876200  0.348400  1.0  0.0678
  H  H171  1  0.089500  0.054300  0.138700  1.0  0.0759
  H  H172  1  0.114200  0.102500  0.987600  1.0  0.1023
  H  H173  1  0.282000  0.161500  0.382100  1.0  0.1095
  H  H174  1  0.271500  0.941900  0.303200  1.0  0.1281
  H  H175  1  0.976400  0.373500  0.006900  1.0  0.1049
  H  H176  1  0.974200  0.422500  0.879800  1.0  0.1051
  H  H177  1  0.104000  0.431500  0.801300  1.0  0.0629
  H  H178  1  0.058700  0.401200  0.842700  1.0  0.1142
  H  H179  1  0.010900  0.263700  0.995000  1.0  0.2614
  H  H180  1  0.227000  0.996800  0.270700  1.0  0.2444
  H  H181  1  0.730400  0.984200  0.823600  1.0  0.0693
  H  H182  1  0.672900  0.258300  0.351300  1.0  0.0764
  H  H183  1  0.423400  0.974000  0.381700  1.0  0.0795
  H  H184  1  0.662700  0.650100  0.661600  1.0  0.0877
  H  H185  1  0.625400  0.359200  0.692800  1.0  0.1138
  H  H186  1  0.638000  0.024900  0.732200  1.0  0.0691
  H  H187  1  0.697600  0.577400  0.722400  1.0  0.1164
  H  H188  1  0.632800  0.288000  0.402200  1.0  0.1029
  H  H189  1  0.509100  0.361300  0.521900  1.0  0.1032
  H  H190  1  0.422700  0.032000  0.501900  1.0  0.0659
  H  H191  1  0.741900  0.136400  0.829800  1.0  0.0983
  H  H192  1  0.519800  0.485400  0.566100  1.0  0.11
  H  H193  1  0.829800  0.421400  0.928700  1.0  0.0685
  H  H194  1  0.624100  0.524000  0.532100  1.0  0.0945
  H  H195  1  0.646200  0.179300  0.737800  1.0  0.1085
  H  H196  1  0.821500  0.623800  0.848400  1.0  0.0681
  H  H197  1  0.589500  0.445700  0.638700  1.0  0.0762
  H  H198  1  0.614200  0.397500  0.487600  1.0  0.1021
  H  H199  1  0.782000  0.338500  0.882100  1.0  0.1094
  H  H200  1  0.771500  0.558100  0.803200  1.0  0.1287
  H  H201  1  0.476400  0.126500  0.506900  1.0  0.1047
  H  H202  1  0.474200  0.077500  0.379800  1.0  0.1051
  H  H203  1  0.604000  0.068500  0.301300  1.0  0.0627
  H  H204  1  0.558700  0.098800  0.342700  1.0  0.1143
  H  H205  1  0.510900  0.236300  0.495000  1.0  0.2613
  H  H206  1  0.727000  0.503200  0.770700  1.0  0.2448
  H  H207  1  0.230400  0.484200  0.823600  1.0  0.0693
  H  H208  1  0.172900  0.758300  0.351300  1.0  0.0764
  H  H209  1  0.923400  0.474000  0.381700  1.0  0.0795
  H  H210  1  0.162700  0.150100  0.661600  1.0  0.0877
  H  H211  1  0.125400  0.859200  0.692800  1.0  0.1138
  H  H212  1  0.138000  0.524900  0.732200  1.0  0.0691
  H  H213  1  0.197600  0.077400  0.722400  1.0  0.1164
  H  H214  1  0.132800  0.788000  0.402200  1.0  0.1029
  H  H215  1  0.009100  0.861300  0.521900  1.0  0.1035
  H  H216  1  0.922700  0.532000  0.501900  1.0  0.0659
  H  H217  1  0.241900  0.636400  0.829800  1.0  0.0983
  H  H218  1  0.019800  0.985400  0.566100  1.0  0.1097
  H  H219  1  0.329800  0.921400  0.928700  1.0  0.0685
  H  H220  1  0.124100  0.024000  0.532100  1.0  0.0945
  H  H221  1  0.146200  0.679300  0.737800  1.0  0.1085
  H  H222  1  0.321500  0.123800  0.848400  1.0  0.0681
  H  H223  1  0.089500  0.945700  0.638700  1.0  0.0762
  H  H224  1  0.114200  0.897500  0.487600  1.0  0.1021
  H  H225  1  0.282000  0.838500  0.882100  1.0  0.1094
  H  H226  1  0.271500  0.058100  0.803200  1.0  0.1287
  H  H227  1  0.976400  0.626500  0.506900  1.0  0.1047
  H  H228  1  0.974200  0.577500  0.379800  1.0  0.1051
  H  H229  1  0.104000  0.568500  0.301300  1.0  0.0627
  H  H230  1  0.058700  0.598800  0.342700  1.0  0.1143
  H  H231  1  0.010900  0.736300  0.495000  1.0  0.2613
  H  H232  1  0.227000  0.003200  0.770700  1.0  0.2448
  C  C233  1  0.310100  0.595300  0.249900  1.0  0.3521
  C  C234  1  0.260800  0.605600  0.193200  1.0  0.3998
  C  C235  1  0.516400  0.893800  0.555400  1.0  -0.0244
  C  C236  1  0.286900  0.975900  0.194400  1.0  0.1253
  C  C237  1  0.297000  0.727500  0.216100  1.0  0.2618
  C  C238  1  0.446500  0.711700  0.530100  1.0  0.4236
  C  C239  1  0.332900  0.542200  0.286500  1.0  -0.1203
  C  C240  1  0.350900  0.774500  0.650200  1.0  0.1122
  C  C241  1  0.440100  0.632300  0.501100  1.0  -0.0854
  C  C242  1  0.565700  0.993800  0.592700  1.0  0.1125
  C  C243  1  0.407000  0.805000  0.619600  1.0  -0.097
  C  C244  1  0.344900  0.408600  0.331100  1.0  0.1143
  C  C245  1  0.304100  0.824300  0.216000  1.0  -0.0554
  C  C246  1  0.482000  0.834300  0.554800  1.0  0.3857
  C  C247  1  0.366600  0.581100  0.312300  1.0  -0.1297
  C  C248  1  0.431400  0.792700  0.585100  1.0  0.3422
  C  C249  1  0.228100  0.559700  0.162400  1.0  -0.1258
  C  C250  1  0.340700  0.951800  0.247300  1.0  0.1436
  C  C251  1  0.323500  0.452700  0.295800  1.0  -0.1554
  C  C252  1  0.374500  0.757500  0.619000  1.0  -0.1088
  C  C253  1  0.467200  0.605200  0.476500  1.0  -0.1344
  C  C254  1  0.565400  0.961300  0.522800  1.0  0.1404
  C  C255  1  0.279900  0.885100  0.190700  1.0  -0.1178
  C  C256  1  0.461000  0.532400  0.450200  1.0  0.1026
  C  C257  1  0.181800  0.551900  0.098100  1.0  0.1514
  C  C258  1  0.399600  0.509500  0.470100  1.0  0.1218
  C  C259  1  0.335600  0.859600  0.244500  1.0  -0.1244
  C  C260  1  0.187100  0.434000  0.144300  1.0  0.1479
  C  C261  1  0.387000  0.529600  0.344900  1.0  0.1635
  C  C262  1  0.405500  0.584200  0.496900  1.0  -0.1032
  C  C263  1  0.210800  0.602200  0.125000  1.0  -0.1503
  C  C264  1  0.216000  0.472700  0.171400  1.0  -0.2176
  C  C265  1  0.533500  0.904400  0.519400  1.0  -0.2369
  C  C266  1  0.534400  0.934600  0.593800  1.0  -0.1717
  C  C267  1  0.391400  0.882000  0.679200  1.0  0.1809
  C  C268  1  0.417200  0.869000  0.653300  1.0  -0.195
  C  C269  1  0.810100  0.095300  0.249900  1.0  0.3521
  C  C270  1  0.760800  0.105600  0.193200  1.0  0.3998
  C  C271  1  0.016400  0.393800  0.555400  1.0  -0.0244
  C  C272  1  0.786900  0.475900  0.194400  1.0  0.1253
  C  C273  1  0.797000  0.227500  0.216100  1.0  0.2618
  C  C274  1  0.946500  0.211700  0.530100  1.0  0.4236
  C  C275  1  0.832900  0.042200  0.286500  1.0  -0.1203
  C  C276  1  0.850900  0.274500  0.650200  1.0  0.1122
  C  C277  1  0.940100  0.132300  0.501100  1.0  -0.0854
  C  C278  1  0.065700  0.493800  0.592700  1.0  0.1125
  C  C279  1  0.907000  0.305000  0.619600  1.0  -0.097
  C  C280  1  0.844900  0.908600  0.331100  1.0  0.1143
  C  C281  1  0.804100  0.324300  0.216000  1.0  -0.0554
  C  C282  1  0.982000  0.334300  0.554800  1.0  0.3857
  C  C283  1  0.866600  0.081100  0.312300  1.0  -0.1297
  C  C284  1  0.931400  0.292700  0.585100  1.0  0.3422
  C  C285  1  0.728100  0.059700  0.162400  1.0  -0.1258
  C  C286  1  0.840700  0.451800  0.247300  1.0  0.1436
  C  C287  1  0.823500  0.952700  0.295800  1.0  -0.1554
  C  C288  1  0.874500  0.257500  0.619000  1.0  -0.1088
  C  C289  1  0.967200  0.105200  0.476500  1.0  -0.1344
  C  C290  1  0.065400  0.461300  0.522800  1.0  0.1404
  C  C291  1  0.779900  0.385100  0.190700  1.0  -0.1178
  C  C292  1  0.961000  0.032400  0.450200  1.0  0.1026
  C  C293  1  0.681800  0.051900  0.098100  1.0  0.1514
  C  C294  1  0.899600  0.009500  0.470100  1.0  0.1218
  C  C295  1  0.835600  0.359600  0.244500  1.0  -0.1244
  C  C296  1  0.687100  0.934000  0.144300  1.0  0.1479
  C  C297  1  0.887000  0.029600  0.344900  1.0  0.1635
  C  C298  1  0.905500  0.084200  0.496900  1.0  -0.1032
  C  C299  1  0.710800  0.102200  0.125000  1.0  -0.1503
  C  C300  1  0.716000  0.972700  0.171400  1.0  -0.2176
  C  C301  1  0.033500  0.404400  0.519400  1.0  -0.2369
  C  C302  1  0.034400  0.434600  0.593800  1.0  -0.1717
  C  C303  1  0.891400  0.382000  0.679200  1.0  0.1809
  C  C304  1  0.917200  0.369000  0.653300  1.0  -0.195
  C  C305  1  0.310100  0.404700  0.749900  1.0  0.3518
  C  C306  1  0.260800  0.394400  0.693200  1.0  0.3993
  C  C307  1  0.516400  0.106200  0.055400  1.0  -0.0244
  C  C308  1  0.286900  0.024100  0.694400  1.0  0.1243
  C  C309  1  0.297000  0.272500  0.716100  1.0  0.2613
  C  C310  1  0.446500  0.288300  0.030100  1.0  0.4244
  C  C311  1  0.332900  0.457800  0.786500  1.0  -0.1206
  C  C312  1  0.350900  0.225500  0.150200  1.0  0.111
  C  C313  1  0.440100  0.367700  0.001100  1.0  -0.0858
  C  C314  1  0.565700  0.006200  0.092700  1.0  0.1133
  C  C315  1  0.407000  0.195000  0.119600  1.0  -0.0971
  C  C316  1  0.344900  0.591400  0.831100  1.0  0.1143
  C  C317  1  0.304100  0.175700  0.716000  1.0  -0.0543
  C  C318  1  0.482000  0.165700  0.054800  1.0  0.3853
  C  C319  1  0.366600  0.418900  0.812300  1.0  -0.1299
  C  C320  1  0.431400  0.207300  0.085100  1.0  0.3421
  C  C321  1  0.228100  0.440300  0.662400  1.0  -0.1256
  C  C322  1  0.340700  0.048200  0.747300  1.0  0.1437
  C  C323  1  0.323500  0.547300  0.795800  1.0  -0.1559
  C  C324  1  0.374500  0.242500  0.119000  1.0  -0.1096
  C  C325  1  0.467200  0.394800  0.976500  1.0  -0.1352
  C  C326  1  0.565400  0.038700  0.022800  1.0  0.1397
  C  C327  1  0.279900  0.114900  0.690700  1.0  -0.118
  C  C328  1  0.461000  0.467600  0.950200  1.0  0.1029
  C  C329  1  0.181800  0.448100  0.598100  1.0  0.1514
  C  C330  1  0.399600  0.490500  0.970100  1.0  0.1202
  C  C331  1  0.335600  0.140400  0.744500  1.0  -0.1239
  C  C332  1  0.187100  0.566000  0.644300  1.0  0.1485
  C  C333  1  0.387000  0.470400  0.844900  1.0  0.164
  C  C334  1  0.405500  0.415800  0.996900  1.0  -0.1039
  C  C335  1  0.210800  0.397800  0.625000  1.0  -0.1507
  C  C336  1  0.216000  0.527300  0.671400  1.0  -0.218
  C  C337  1  0.533500  0.095600  0.019400  1.0  -0.2382
  C  C338  1  0.534400  0.065400  0.093800  1.0  -0.1714
  C  C339  1  0.391400  0.118000  0.179200  1.0  0.1813
  C  C340  1  0.417200  0.131000  0.153300  1.0  -0.1947
  C  C341  1  0.810100  0.904700  0.749900  1.0  0.3518
  C  C342  1  0.760800  0.894400  0.693200  1.0  0.3993
  C  C343  1  0.016400  0.606200  0.055400  1.0  -0.0244
  C  C344  1  0.786900  0.524100  0.694400  1.0  0.1243
  C  C345  1  0.797000  0.772500  0.716100  1.0  0.2613
  C  C346  1  0.946500  0.788300  0.030100  1.0  0.4244
  C  C347  1  0.832900  0.957800  0.786500  1.0  -0.1206
  C  C348  1  0.850900  0.725500  0.150200  1.0  0.111
  C  C349  1  0.940100  0.867700  0.001100  1.0  -0.0858
  C  C350  1  0.065700  0.506200  0.092700  1.0  0.1133
  C  C351  1  0.907000  0.695000  0.119600  1.0  -0.0971
  C  C352  1  0.844900  0.091400  0.831100  1.0  0.1143
  C  C353  1  0.804100  0.675700  0.716000  1.0  -0.0543
  C  C354  1  0.982000  0.665700  0.054800  1.0  0.3853
  C  C355  1  0.866600  0.918900  0.812300  1.0  -0.1299
  C  C356  1  0.931400  0.707300  0.085100  1.0  0.3421
  C  C357  1  0.728100  0.940300  0.662400  1.0  -0.1256
  C  C358  1  0.840700  0.548200  0.747300  1.0  0.1437
  C  C359  1  0.823500  0.047300  0.795800  1.0  -0.1559
  C  C360  1  0.874500  0.742500  0.119000  1.0  -0.1096
  C  C361  1  0.967200  0.894800  0.976500  1.0  -0.1352
  C  C362  1  0.065400  0.538700  0.022800  1.0  0.1397
  C  C363  1  0.779900  0.614900  0.690700  1.0  -0.118
  C  C364  1  0.961000  0.967600  0.950200  1.0  0.1029
  C  C365  1  0.681800  0.948100  0.598100  1.0  0.1514
  C  C366  1  0.899600  0.990500  0.970100  1.0  0.1202
  C  C367  1  0.835600  0.640400  0.744500  1.0  -0.1239
  C  C368  1  0.687100  0.066000  0.644300  1.0  0.1485
  C  C369  1  0.887000  0.970400  0.844900  1.0  0.164
  C  C370  1  0.905500  0.915800  0.996900  1.0  -0.1039
  C  C371  1  0.710800  0.897800  0.625000  1.0  -0.1507
  C  C372  1  0.716000  0.027300  0.671400  1.0  -0.218
  C  C373  1  0.033500  0.595600  0.019400  1.0  -0.2382
  C  C374  1  0.034400  0.565400  0.093800  1.0  -0.1714
  C  C375  1  0.891400  0.618000  0.179200  1.0  0.1813
  C  C376  1  0.917200  0.631000  0.153300  1.0  -0.1947
  C  C377  1  0.689900  0.595300  0.250100  1.0  0.3494
  C  C378  1  0.739200  0.605600  0.306800  1.0  0.4019
  C  C379  1  0.483600  0.893800  0.944600  1.0  -0.0263
  C  C380  1  0.713100  0.975900  0.305600  1.0  0.1243
  C  C381  1  0.703000  0.727500  0.283900  1.0  0.2617
  C  C382  1  0.553500  0.711700  0.969900  1.0  0.4237
  C  C383  1  0.667100  0.542200  0.213500  1.0  -0.1212
  C  C384  1  0.649100  0.774500  0.849800  1.0  0.1119
  C  C385  1  0.559900  0.632300  0.998900  1.0  -0.0842
  C  C386  1  0.434300  0.993800  0.907300  1.0  0.1121
  C  C387  1  0.593000  0.805000  0.880400  1.0  -0.0988
  C  C388  1  0.655100  0.408600  0.168900  1.0  0.1144
  C  C389  1  0.695900  0.824300  0.284000  1.0  -0.0555
  C  C390  1  0.518000  0.834300  0.945200  1.0  0.3862
  C  C391  1  0.633400  0.581100  0.187700  1.0  -0.13
  C  C392  1  0.568600  0.792700  0.914900  1.0  0.3431
  C  C393  1  0.771900  0.559700  0.337600  1.0  -0.126
  C  C394  1  0.659300  0.951800  0.252700  1.0  0.1425
  C  C395  1  0.676500  0.452700  0.204200  1.0  -0.1553
  C  C396  1  0.625500  0.757500  0.881000  1.0  -0.1077
  C  C397  1  0.532800  0.605200  0.023500  1.0  -0.1332
  C  C398  1  0.434600  0.961300  0.977200  1.0  0.1413
  C  C399  1  0.720100  0.885100  0.309300  1.0  -0.1162
  C  C400  1  0.539000  0.532400  0.049800  1.0  0.102
  C  C401  1  0.818200  0.551900  0.401900  1.0  0.1521
  C  C402  1  0.600400  0.509500  0.029900  1.0  0.1205
  C  C403  1  0.664400  0.859600  0.255500  1.0  -0.1253
  C  C404  1  0.812900  0.434000  0.355700  1.0  0.1479
  C  C405  1  0.613000  0.529600  0.155100  1.0  0.1626
  C  C406  1  0.594500  0.584200  0.003100  1.0  -0.1012
  C  C407  1  0.789200  0.602200  0.375000  1.0  -0.1522
  C  C408  1  0.784000  0.472700  0.328600  1.0  -0.2188
  C  C409  1  0.466500  0.904400  0.980600  1.0  -0.2373
  C  C410  1  0.465600  0.934600  0.906200  1.0  -0.1693
  C  C411  1  0.608600  0.882000  0.820800  1.0  0.1814
  C  C412  1  0.582800  0.869000  0.846700  1.0  -0.1947
  C  C413  1  0.189900  0.095300  0.250100  1.0  0.3494
  C  C414  1  0.239200  0.105600  0.306800  1.0  0.4019
  C  C415  1  0.983600  0.393800  0.944600  1.0  -0.0263
  C  C416  1  0.213100  0.475900  0.305600  1.0  0.1243
  C  C417  1  0.203000  0.227500  0.283900  1.0  0.2617
  C  C418  1  0.053500  0.211700  0.969900  1.0  0.4237
  C  C419  1  0.167100  0.042200  0.213500  1.0  -0.1212
  C  C420  1  0.149100  0.274500  0.849800  1.0  0.1119
  C  C421  1  0.059900  0.132300  0.998900  1.0  -0.0842
  C  C422  1  0.934300  0.493800  0.907300  1.0  0.1121
  C  C423  1  0.093000  0.305000  0.880400  1.0  -0.0988
  C  C424  1  0.155100  0.908600  0.168900  1.0  0.1144
  C  C425  1  0.195900  0.324300  0.284000  1.0  -0.0555
  C  C426  1  0.018000  0.334300  0.945200  1.0  0.3862
  C  C427  1  0.133400  0.081100  0.187700  1.0  -0.13
  C  C428  1  0.068600  0.292700  0.914900  1.0  0.3431
  C  C429  1  0.271900  0.059700  0.337600  1.0  -0.126
  C  C430  1  0.159300  0.451800  0.252700  1.0  0.1425
  C  C431  1  0.176500  0.952700  0.204200  1.0  -0.1553
  C  C432  1  0.125500  0.257500  0.881000  1.0  -0.1077
  C  C433  1  0.032800  0.105200  0.023500  1.0  -0.1332
  C  C434  1  0.934600  0.461300  0.977200  1.0  0.1413
  C  C435  1  0.220100  0.385100  0.309300  1.0  -0.1162
  C  C436  1  0.039000  0.032400  0.049800  1.0  0.102
  C  C437  1  0.318200  0.051900  0.401900  1.0  0.1521
  C  C438  1  0.100400  0.009500  0.029900  1.0  0.1205
  C  C439  1  0.164400  0.359600  0.255500  1.0  -0.1253
  C  C440  1  0.312900  0.934000  0.355700  1.0  0.1479
  C  C441  1  0.113000  0.029600  0.155100  1.0  0.1626
  C  C442  1  0.094500  0.084200  0.003100  1.0  -0.1012
  C  C443  1  0.289200  0.102200  0.375000  1.0  -0.1522
  C  C444  1  0.284000  0.972700  0.328600  1.0  -0.2188
  C  C445  1  0.966500  0.404400  0.980600  1.0  -0.2373
  C  C446  1  0.965600  0.434600  0.906200  1.0  -0.1693
  C  C447  1  0.108600  0.382000  0.820800  1.0  0.1814
  C  C448  1  0.082800  0.369000  0.846700  1.0  -0.1947
  C  C449  1  0.689900  0.404700  0.750100  1.0  0.3487
  C  C450  1  0.739200  0.394400  0.806800  1.0  0.4021
  C  C451  1  0.483600  0.106200  0.444600  1.0  -0.0263
  C  C452  1  0.713100  0.024100  0.805600  1.0  0.1243
  C  C453  1  0.703000  0.272500  0.783900  1.0  0.2617
  C  C454  1  0.553500  0.288300  0.469900  1.0  0.4242
  C  C455  1  0.667100  0.457800  0.713500  1.0  -0.122
  C  C456  1  0.649100  0.225500  0.349800  1.0  0.1114
  C  C457  1  0.559900  0.367700  0.498900  1.0  -0.0846
  C  C458  1  0.434300  0.006200  0.407300  1.0  0.1118
  C  C459  1  0.593000  0.195000  0.380400  1.0  -0.0987
  C  C460  1  0.655100  0.591400  0.668900  1.0  0.1155
  C  C461  1  0.695900  0.175700  0.784000  1.0  -0.0547
  C  C462  1  0.518000  0.165700  0.445200  1.0  0.3846
  C  C463  1  0.633400  0.418900  0.687700  1.0  -0.1302
  C  C464  1  0.568600  0.207300  0.414900  1.0  0.343
  C  C465  1  0.771900  0.440300  0.837600  1.0  -0.1256
  C  C466  1  0.659300  0.048200  0.752700  1.0  0.1428
  C  C467  1  0.676500  0.547300  0.704200  1.0  -0.1563
  C  C468  1  0.625500  0.242500  0.381000  1.0  -0.1091
  C  C469  1  0.532800  0.394800  0.523500  1.0  -0.1335
  C  C470  1  0.434600  0.038700  0.477200  1.0  0.1409
  C  C471  1  0.720100  0.114900  0.809300  1.0  -0.1166
  C  C472  1  0.539000  0.467600  0.549800  1.0  0.1014
  C  C473  1  0.818200  0.448100  0.901900  1.0  0.1524
  C  C474  1  0.600400  0.490500  0.529900  1.0  0.1206
  C  C475  1  0.664400  0.140400  0.755500  1.0  -0.1257
  C  C476  1  0.812900  0.566000  0.855700  1.0  0.1492
  C  C477  1  0.613000  0.470400  0.655100  1.0  0.1631
  C  C478  1  0.594500  0.415800  0.503100  1.0  -0.1017
  C  C479  1  0.789200  0.397800  0.875000  1.0  -0.1511
  C  C480  1  0.784000  0.527300  0.828600  1.0  -0.2186
  C  C481  1  0.466500  0.095600  0.480600  1.0  -0.238
  C  C482  1  0.465600  0.065400  0.406200  1.0  -0.1688
  C  C483  1  0.608600  0.118000  0.320800  1.0  0.1819
  C  C484  1  0.582800  0.131000  0.346700  1.0  -0.1939
  C  C485  1  0.189900  0.904700  0.750100  1.0  0.3487
  C  C486  1  0.239200  0.894400  0.806800  1.0  0.4021
  C  C487  1  0.983600  0.606200  0.444600  1.0  -0.0263
  C  C488  1  0.213100  0.524100  0.805600  1.0  0.1243
  C  C489  1  0.203000  0.772500  0.783900  1.0  0.2617
  C  C490  1  0.053500  0.788300  0.469900  1.0  0.4242
  C  C491  1  0.167100  0.957800  0.713500  1.0  -0.122
  C  C492  1  0.149100  0.725500  0.349800  1.0  0.1114
  C  C493  1  0.059900  0.867700  0.498900  1.0  -0.0846
  C  C494  1  0.934300  0.506200  0.407300  1.0  0.1118
  C  C495  1  0.093000  0.695000  0.380400  1.0  -0.0987
  C  C496  1  0.155100  0.091400  0.668900  1.0  0.1155
  C  C497  1  0.195900  0.675700  0.784000  1.0  -0.0547
  C  C498  1  0.018000  0.665700  0.445200  1.0  0.3846
  C  C499  1  0.133400  0.918900  0.687700  1.0  -0.1302
  C  C500  1  0.068600  0.707300  0.414900  1.0  0.343
  C  C501  1  0.271900  0.940300  0.837600  1.0  -0.1256
  C  C502  1  0.159300  0.548200  0.752700  1.0  0.1428
  C  C503  1  0.176500  0.047300  0.704200  1.0  -0.1563
  C  C504  1  0.125500  0.742500  0.381000  1.0  -0.1091
  C  C505  1  0.032800  0.894800  0.523500  1.0  -0.1335
  C  C506  1  0.934600  0.538700  0.477200  1.0  0.1409
  C  C507  1  0.220100  0.614900  0.809300  1.0  -0.1166
  C  C508  1  0.039000  0.967600  0.549800  1.0  0.1014
  C  C509  1  0.318200  0.948100  0.901900  1.0  0.1524
  C  C510  1  0.100400  0.990500  0.529900  1.0  0.1206
  C  C511  1  0.164400  0.640400  0.755500  1.0  -0.1257
  C  C512  1  0.312900  0.066000  0.855700  1.0  0.1492
  C  C513  1  0.113000  0.970400  0.655100  1.0  0.1631
  C  C514  1  0.094500  0.915800  0.503100  1.0  -0.1017
  C  C515  1  0.289200  0.897800  0.875000  1.0  -0.1511
  C  C516  1  0.284000  0.027300  0.828600  1.0  -0.2186
  C  C517  1  0.966500  0.595600  0.480600  1.0  -0.238
  C  C518  1  0.965600  0.565400  0.406200  1.0  -0.1688
  C  C519  1  0.108600  0.618000  0.320800  1.0  0.1819
  C  C520  1  0.082800  0.631000  0.346700  1.0  -0.1939
  I  I521  1  0.267220  0.241140  0.208940  1.0  -0.4471
  I  I522  1  0.374690  0.165480  0.302990  1.0  -0.4385
  I  I523  1  0.107190  0.265180  0.101460  1.0  -0.4513
  I  I524  1  0.474380  0.341490  0.372690  1.0  -0.3831
  I  I525  1  0.148930  0.400680  0.990420  1.0  -0.3241
  I  I526  1  0.374130  0.265320  0.437760  1.0  -0.4407
  I  I527  1  0.767220  0.741140  0.208940  1.0  -0.4471
  I  I528  1  0.874690  0.665480  0.302990  1.0  -0.4385
  I  I529  1  0.607190  0.765180  0.101460  1.0  -0.4513
  I  I530  1  0.974380  0.841490  0.372690  1.0  -0.3831
  I  I531  1  0.648930  0.900680  0.990420  1.0  -0.3241
  I  I532  1  0.874130  0.765320  0.437760  1.0  -0.4407
  I  I533  1  0.267220  0.758860  0.708940  1.0  -0.4471
  I  I534  1  0.374690  0.834520  0.802990  1.0  -0.4389
  I  I535  1  0.107190  0.734820  0.601460  1.0  -0.4504
  I  I536  1  0.474380  0.658510  0.872690  1.0  -0.3828
  I  I537  1  0.148930  0.599320  0.490420  1.0  -0.3246
  I  I538  1  0.374130  0.734680  0.937760  1.0  -0.4412
  I  I539  1  0.767220  0.258860  0.708940  1.0  -0.4471
  I  I540  1  0.874690  0.334520  0.802990  1.0  -0.4389
  I  I541  1  0.607190  0.234820  0.601460  1.0  -0.4504
  I  I542  1  0.974380  0.158510  0.872690  1.0  -0.3828
  I  I543  1  0.648930  0.099320  0.490420  1.0  -0.3246
  I  I544  1  0.874130  0.234680  0.937760  1.0  -0.4412
  I  I545  1  0.732780  0.241140  0.291060  1.0  -0.4483
  I  I546  1  0.625310  0.165480  0.197010  1.0  -0.4391
  I  I547  1  0.892810  0.265180  0.398540  1.0  -0.4499
  I  I548  1  0.525620  0.341490  0.127310  1.0  -0.3835
  I  I549  1  0.851070  0.400680  0.509580  1.0  -0.3246
  I  I550  1  0.625870  0.265320  0.062240  1.0  -0.4419
  I  I551  1  0.232780  0.741140  0.291060  1.0  -0.4483
  I  I552  1  0.125310  0.665480  0.197010  1.0  -0.4391
  I  I553  1  0.392810  0.765180  0.398540  1.0  -0.4499
  I  I554  1  0.025620  0.841490  0.127310  1.0  -0.3835
  I  I555  1  0.351070  0.900680  0.509580  1.0  -0.3246
  I  I556  1  0.125870  0.765320  0.062240  1.0  -0.4419
  I  I557  1  0.732780  0.758860  0.791060  1.0  -0.4486
  I  I558  1  0.625310  0.834520  0.697010  1.0  -0.4394
  I  I559  1  0.892810  0.734820  0.898540  1.0  -0.4499
  I  I560  1  0.525620  0.658510  0.627310  1.0  -0.3835
  I  I561  1  0.851070  0.599320  0.009580  1.0  -0.3245
  I  I562  1  0.625870  0.734680  0.562240  1.0  -0.4422
  I  I563  1  0.232780  0.258860  0.791060  1.0  -0.4486
  I  I564  1  0.125310  0.334520  0.697010  1.0  -0.4394
  I  I565  1  0.392810  0.234820  0.898540  1.0  -0.4499
  I  I566  1  0.025620  0.158510  0.627310  1.0  -0.3835
  I  I567  1  0.351070  0.099320  0.009580  1.0  -0.3245
  I  I568  1  0.125870  0.234680  0.562240  1.0  -0.4422
  N  N569  1  0.316800  0.010400  0.222200  1.0  -0.3239
  N  N570  1  0.266400  0.691300  0.187600  1.0  -0.3663
  N  N571  1  0.426500  0.483800  0.447300  1.0  -0.3201
  N  N572  1  0.423800  0.721200  0.559700  1.0  -0.5003
  N  N573  1  0.376700  0.448800  0.355300  1.0  -0.3227
  N  N574  1  0.475400  0.769100  0.525800  1.0  -0.3254
  N  N575  1  0.320500  0.680200  0.247100  1.0  -0.4589
  N  N576  1  0.580500  0.006700  0.557600  1.0  -0.2901
  N  N577  1  0.168900  0.471800  0.106200  1.0  -0.3277
  N  N578  1  0.460400  0.850200  0.585500  1.0  -0.4603
  N  N579  1  0.279800  0.553000  0.225100  1.0  -0.3397
  N  N580  1  0.360500  0.833000  0.680500  1.0  -0.2538
  N  N581  1  0.816800  0.510400  0.222200  1.0  -0.3239
  N  N582  1  0.766400  0.191300  0.187600  1.0  -0.3663
  N  N583  1  0.926500  0.983800  0.447300  1.0  -0.3201
  N  N584  1  0.923800  0.221200  0.559700  1.0  -0.5003
  N  N585  1  0.876700  0.948800  0.355300  1.0  -0.3227
  N  N586  1  0.975400  0.269100  0.525800  1.0  -0.3254
  N  N587  1  0.820500  0.180200  0.247100  1.0  -0.4589
  N  N588  1  0.080500  0.506700  0.557600  1.0  -0.2901
  N  N589  1  0.668900  0.971800  0.106200  1.0  -0.3277
  N  N590  1  0.960400  0.350200  0.585500  1.0  -0.4603
  N  N591  1  0.779800  0.053000  0.225100  1.0  -0.3397
  N  N592  1  0.860500  0.333000  0.680500  1.0  -0.2538
  N  N593  1  0.316800  0.989600  0.722200  1.0  -0.3212
  N  N594  1  0.266400  0.308700  0.687600  1.0  -0.3666
  N  N595  1  0.426500  0.516200  0.947300  1.0  -0.32
  N  N596  1  0.423800  0.278800  0.059700  1.0  -0.5
  N  N597  1  0.376700  0.551200  0.855300  1.0  -0.3245
  N  N598  1  0.475400  0.230900  0.025800  1.0  -0.3255
  N  N599  1  0.320500  0.319800  0.747100  1.0  -0.4595
  N  N600  1  0.580500  0.993300  0.057600  1.0  -0.2895
  N  N601  1  0.168900  0.528200  0.606200  1.0  -0.3276
  N  N602  1  0.460400  0.149800  0.085500  1.0  -0.4591
  N  N603  1  0.279800  0.447000  0.725100  1.0  -0.3405
  N  N604  1  0.360500  0.167000  0.180500  1.0  -0.2534
  N  N605  1  0.816800  0.489600  0.722200  1.0  -0.3212
  N  N606  1  0.766400  0.808700  0.687600  1.0  -0.3666
  N  N607  1  0.926500  0.016200  0.947300  1.0  -0.32
  N  N608  1  0.923800  0.778800  0.059700  1.0  -0.5
  N  N609  1  0.876700  0.051200  0.855300  1.0  -0.3245
  N  N610  1  0.975400  0.730900  0.025800  1.0  -0.3255
  N  N611  1  0.820500  0.819800  0.747100  1.0  -0.4595
  N  N612  1  0.080500  0.493300  0.057600  1.0  -0.2895
  N  N613  1  0.668900  0.028200  0.606200  1.0  -0.3276
  N  N614  1  0.960400  0.649800  0.085500  1.0  -0.4591
  N  N615  1  0.779800  0.947000  0.725100  1.0  -0.3405
  N  N616  1  0.860500  0.667000  0.180500  1.0  -0.2534
  N  N617  1  0.683200  0.010400  0.277800  1.0  -0.3226
  N  N618  1  0.733600  0.691300  0.312400  1.0  -0.3636
  N  N619  1  0.573500  0.483800  0.052700  1.0  -0.3198
  N  N620  1  0.576200  0.721200  0.940300  1.0  -0.4983
  N  N621  1  0.623300  0.448800  0.144700  1.0  -0.3232
  N  N622  1  0.524600  0.769100  0.974200  1.0  -0.326
  N  N623  1  0.679500  0.680200  0.252900  1.0  -0.4561
  N  N624  1  0.419500  0.006700  0.942400  1.0  -0.2906
  N  N625  1  0.831100  0.471800  0.393800  1.0  -0.3287
  N  N626  1  0.539600  0.850200  0.914500  1.0  -0.4595
  N  N627  1  0.720200  0.553000  0.274900  1.0  -0.339
  N  N628  1  0.639500  0.833000  0.819500  1.0  -0.2535
  N  N629  1  0.183200  0.510400  0.277800  1.0  -0.3226
  N  N630  1  0.233600  0.191300  0.312400  1.0  -0.3636
  N  N631  1  0.073500  0.983800  0.052700  1.0  -0.3198
  N  N632  1  0.076200  0.221200  0.940300  1.0  -0.4983
  N  N633  1  0.123300  0.948800  0.144700  1.0  -0.3232
  N  N634  1  0.024600  0.269100  0.974200  1.0  -0.326
  N  N635  1  0.179500  0.180200  0.252900  1.0  -0.4561
  N  N636  1  0.919500  0.506700  0.942400  1.0  -0.2906
  N  N637  1  0.331100  0.971800  0.393800  1.0  -0.3287
  N  N638  1  0.039600  0.350200  0.914500  1.0  -0.4595
  N  N639  1  0.220200  0.053000  0.274900  1.0  -0.339
  N  N640  1  0.139500  0.333000  0.819500  1.0  -0.2535
  N  N641  1  0.683200  0.989600  0.777800  1.0  -0.323
  N  N642  1  0.733600  0.308700  0.812400  1.0  -0.3623
  N  N643  1  0.573500  0.516200  0.552700  1.0  -0.3204
  N  N644  1  0.576200  0.278800  0.440300  1.0  -0.4983
  N  N645  1  0.623300  0.551200  0.644700  1.0  -0.3234
  N  N646  1  0.524600  0.230900  0.474200  1.0  -0.3261
  N  N647  1  0.679500  0.319800  0.752900  1.0  -0.4569
  N  N648  1  0.419500  0.993300  0.442400  1.0  -0.2907
  N  N649  1  0.831100  0.528200  0.893800  1.0  -0.3298
  N  N650  1  0.539600  0.149800  0.414500  1.0  -0.4595
  N  N651  1  0.720200  0.447000  0.774900  1.0  -0.3402
  N  N652  1  0.639500  0.167000  0.319500  1.0  -0.2538
  N  N653  1  0.183200  0.489600  0.777800  1.0  -0.323
  N  N654  1  0.233600  0.808700  0.812400  1.0  -0.3623
  N  N655  1  0.073500  0.016200  0.552700  1.0  -0.3204
  N  N656  1  0.076200  0.778800  0.440300  1.0  -0.4983
  N  N657  1  0.123300  0.051200  0.644700  1.0  -0.3234
  N  N658  1  0.024600  0.730900  0.474200  1.0  -0.3261
  N  N659  1  0.179500  0.819800  0.752900  1.0  -0.4569
  N  N660  1  0.919500  0.493300  0.442400  1.0  -0.2907
  N  N661  1  0.331100  0.028200  0.893800  1.0  -0.3298
  N  N662  1  0.039600  0.649800  0.414500  1.0  -0.4595
  N  N663  1  0.220200  0.947000  0.774900  1.0  -0.3402
  N  N664  1  0.139500  0.667000  0.319500  1.0  -0.2538
