# generated using pymatgen
data_ZnH8C12(IN2)2
_symmetry_space_group_name_H-M   'P 1'
_cell_length_a   33.68890000
_cell_length_b   14.64640000
_cell_length_c   31.95210000
_cell_angle_alpha   90.00000000
_cell_angle_beta   99.14920000
_cell_angle_gamma   90.00000000
_symmetry_Int_Tables_number   1
_chemical_formula_structural   ZnH8C12(IN2)2
_chemical_formula_sum   'Zn24 H192 C288 I48 N96'
_cell_volume   15565.26166448
_cell_formula_units_Z   24
loop_
 _symmetry_equiv_pos_site_id
 _symmetry_equiv_pos_as_xyz
  1  'x, y, z'
loop_
 _atom_site_type_symbol
 _atom_site_label
 _atom_site_symmetry_multiplicity
 _atom_site_fract_x
 _atom_site_fract_y
 _atom_site_fract_z
 _atom_site_occupancy
 _atom_site_charge
  Zn  Zn1  1  0.829320  0.137430  0.728410  1.0  0.8398
  Zn  Zn2  1  0.626750  0.390180  0.564140  1.0  0.933
  Zn  Zn3  1  0.907220  0.369320  0.905810  1.0  0.8545
  Zn  Zn4  1  0.329320  0.637430  0.728410  1.0  0.8398
  Zn  Zn5  1  0.126750  0.890180  0.564140  1.0  0.933
  Zn  Zn6  1  0.407220  0.869320  0.905810  1.0  0.8545
  Zn  Zn7  1  0.829320  0.862570  0.228410  1.0  0.8404
  Zn  Zn8  1  0.626750  0.609820  0.064140  1.0  0.9321
  Zn  Zn9  1  0.907220  0.630680  0.405810  1.0  0.856
  Zn  Zn10  1  0.329320  0.362570  0.228410  1.0  0.8404
  Zn  Zn11  1  0.126750  0.109820  0.064140  1.0  0.9321
  Zn  Zn12  1  0.407220  0.130680  0.405810  1.0  0.856
  Zn  Zn13  1  0.170680  0.137430  0.771590  1.0  0.8403
  Zn  Zn14  1  0.373250  0.390180  0.935860  1.0  0.9327
  Zn  Zn15  1  0.092780  0.369320  0.594190  1.0  0.8544
  Zn  Zn16  1  0.670680  0.637430  0.771590  1.0  0.8403
  Zn  Zn17  1  0.873250  0.890180  0.935860  1.0  0.9327
  Zn  Zn18  1  0.592780  0.869320  0.594190  1.0  0.8544
  Zn  Zn19  1  0.170680  0.862570  0.271590  1.0  0.8409
  Zn  Zn20  1  0.373250  0.609820  0.435860  1.0  0.9321
  Zn  Zn21  1  0.092780  0.630680  0.094190  1.0  0.8558
  Zn  Zn22  1  0.670680  0.362570  0.271590  1.0  0.8408
  Zn  Zn23  1  0.873250  0.109820  0.435860  1.0  0.9321
  Zn  Zn24  1  0.592780  0.130680  0.094190  1.0  0.8558
  H  H25  1  0.762100  0.848200  0.667100  1.0  0.1101
  H  H26  1  0.991800  0.626100  0.977800  1.0  0.1119
  H  H27  1  0.670300  0.569200  0.573300  1.0  0.087
  H  H28  1  0.862600  0.965400  0.767600  1.0  0.0818
  H  H29  1  0.803200  0.405100  0.775500  1.0  0.1114
  H  H30  1  0.836500  0.333333  0.835100  1.0  0.0747
  H  H31  1  0.852700  0.809000  0.764600  1.0  0.1127
  H  H32  1  0.729400  0.424800  0.695500  1.0  0.1045
  H  H33  1  0.976800  0.499400  0.934100  1.0  0.0855
  H  H34  1  0.678900  0.355000  0.648500  1.0  0.0831
  H  H35  1  0.027700  0.875200  0.989800  1.0  0.107
  H  H36  1  0.082500  0.974900  0.994200  1.0  0.0996
  H  H37  1  0.074300  0.026200  0.117200  1.0  0.1009
  H  H38  1  0.019500  0.926500  0.112700  1.0  0.1044
  H  H39  1  0.869200  0.478900  0.967300  1.0  0.089
  H  H40  1  0.882100  0.602900  0.012800  1.0  0.1103
  H  H41  1  0.718300  0.647200  0.619400  1.0  0.1195
  H  H42  1  0.870300  0.630900  0.808100  1.0  0.1168
  H  H43  1  0.903700  0.550300  0.865400  1.0  0.0751
  H  H44  1  0.772900  0.004400  0.674400  1.0  0.0824
  H  H45  1  0.877100  0.687000  0.112100  1.0  0.1105
  H  H46  1  0.841000  0.717100  0.165800  1.0  0.0757
  H  H47  1  0.920600  0.941400  0.124900  1.0  0.111
  H  H48  1  0.883200  0.964900  0.178700  1.0  0.087
  H  H49  1  0.262100  0.348200  0.667100  1.0  0.1101
  H  H50  1  0.491800  0.126100  0.977800  1.0  0.1114
  H  H51  1  0.170300  0.069200  0.573300  1.0  0.087
  H  H52  1  0.362600  0.465400  0.767600  1.0  0.0818
  H  H53  1  0.303200  0.905100  0.775500  1.0  0.1115
  H  H54  1  0.336500  0.833300  0.835100  1.0  0.0748
  H  H55  1  0.352700  0.309000  0.764600  1.0  0.1127
  H  H56  1  0.229400  0.924800  0.695500  1.0  0.1045
  H  H57  1  0.476800  0.999400  0.934100  1.0  0.0835
  H  H58  1  0.178900  0.855000  0.648500  1.0  0.0831
  H  H59  1  0.527700  0.375200  0.989800  1.0  0.107
  H  H60  1  0.582500  0.474900  0.994200  1.0  0.0996
  H  H61  1  0.574300  0.526200  0.117200  1.0  0.1009
  H  H62  1  0.519500  0.426500  0.112700  1.0  0.1044
  H  H63  1  0.369200  0.978900  0.967300  1.0  0.089
  H  H64  1  0.382100  0.102900  0.012800  1.0  0.1103
  H  H65  1  0.218300  0.147200  0.619400  1.0  0.1195
  H  H66  1  0.370300  0.130900  0.808100  1.0  0.1168
  H  H67  1  0.403700  0.050300  0.865400  1.0  0.0751
  H  H68  1  0.272900  0.504400  0.674400  1.0  0.0824
  H  H69  1  0.377100  0.187000  0.112100  1.0  0.1105
  H  H70  1  0.341000  0.217100  0.165800  1.0  0.0757
  H  H71  1  0.420600  0.441400  0.124900  1.0  0.111
  H  H72  1  0.383200  0.464900  0.178700  1.0  0.087
  H  H73  1  0.762100  0.151800  0.167100  1.0  0.1104
  H  H74  1  0.991800  0.373900  0.477800  1.0  0.1121
  H  H75  1  0.670300  0.430800  0.073300  1.0  0.0871
  H  H76  1  0.862600  0.034600  0.267600  1.0  0.0819
  H  H77  1  0.803200  0.594900  0.275500  1.0  0.1114
  H  H78  1  0.836500  0.666667  0.335100  1.0  0.0742
  H  H79  1  0.852700  0.191000  0.264600  1.0  0.1125
  H  H80  1  0.729400  0.575200  0.195500  1.0  0.1043
  H  H81  1  0.976800  0.500600  0.434100  1.0  0.0854
  H  H82  1  0.678900  0.645000  0.148500  1.0  0.0832
  H  H83  1  0.027700  0.124800  0.489800  1.0  0.107
  H  H84  1  0.082500  0.025100  0.494200  1.0  0.0994
  H  H85  1  0.074300  0.973800  0.617200  1.0  0.1013
  H  H86  1  0.019500  0.073500  0.612700  1.0  0.1044
  H  H87  1  0.869200  0.521100  0.467300  1.0  0.0891
  H  H88  1  0.882100  0.397100  0.512800  1.0  0.1102
  H  H89  1  0.718300  0.352800  0.119400  1.0  0.1194
  H  H90  1  0.870300  0.369100  0.308100  1.0  0.1169
  H  H91  1  0.903700  0.449700  0.365400  1.0  0.0749
  H  H92  1  0.772900  0.995600  0.174400  1.0  0.082
  H  H93  1  0.877100  0.313000  0.612100  1.0  0.111
  H  H94  1  0.841000  0.282900  0.665800  1.0  0.0754
  H  H95  1  0.920600  0.058600  0.624900  1.0  0.1107
  H  H96  1  0.883200  0.035100  0.678700  1.0  0.0869
  H  H97  1  0.262100  0.651800  0.167100  1.0  0.1104
  H  H98  1  0.491800  0.873900  0.477800  1.0  0.1117
  H  H99  1  0.170300  0.930800  0.073300  1.0  0.0871
  H  H100  1  0.362600  0.534600  0.267600  1.0  0.0819
  H  H101  1  0.303200  0.094900  0.275500  1.0  0.1114
  H  H102  1  0.336500  0.166700  0.335100  1.0  0.0743
  H  H103  1  0.352700  0.691000  0.264600  1.0  0.1125
  H  H104  1  0.229400  0.075200  0.195500  1.0  0.1043
  H  H105  1  0.476800  0.000600  0.434100  1.0  0.0834
  H  H106  1  0.178900  0.145000  0.148500  1.0  0.0832
  H  H107  1  0.527700  0.624800  0.489800  1.0  0.107
  H  H108  1  0.582500  0.525100  0.494200  1.0  0.0994
  H  H109  1  0.574300  0.473800  0.617200  1.0  0.1013
  H  H110  1  0.519500  0.573500  0.612700  1.0  0.1044
  H  H111  1  0.369200  0.021100  0.467300  1.0  0.0891
  H  H112  1  0.382100  0.897100  0.512800  1.0  0.1102
  H  H113  1  0.218300  0.852800  0.119400  1.0  0.1194
  H  H114  1  0.370300  0.869100  0.308100  1.0  0.1169
  H  H115  1  0.403700  0.949700  0.365400  1.0  0.0749
  H  H116  1  0.272900  0.495600  0.174400  1.0  0.082
  H  H117  1  0.377100  0.813000  0.612100  1.0  0.111
  H  H118  1  0.341000  0.782900  0.665800  1.0  0.0754
  H  H119  1  0.420600  0.558600  0.624900  1.0  0.1107
  H  H120  1  0.383200  0.535100  0.678700  1.0  0.0869
  H  H121  1  0.237900  0.848200  0.832900  1.0  0.111
  H  H122  1  0.008200  0.626100  0.522200  1.0  0.1119
  H  H123  1  0.329700  0.569200  0.926700  1.0  0.0875
  H  H124  1  0.137400  0.965400  0.732400  1.0  0.0829
  H  H125  1  0.196800  0.405100  0.724500  1.0  0.1113
  H  H126  1  0.163500  0.333333  0.664900  1.0  0.0742
  H  H127  1  0.147300  0.809000  0.735400  1.0  0.113
  H  H128  1  0.270600  0.424800  0.804500  1.0  0.1047
  H  H129  1  0.023200  0.499400  0.565900  1.0  0.0859
  H  H130  1  0.321100  0.355000  0.851500  1.0  0.0836
  H  H131  1  0.972300  0.875200  0.510200  1.0  0.1074
  H  H132  1  0.917500  0.974900  0.505800  1.0  0.1003
  H  H133  1  0.925700  0.026200  0.382800  1.0  0.1005
  H  H134  1  0.980500  0.926500  0.387300  1.0  0.1046
  H  H135  1  0.130800  0.478900  0.532700  1.0  0.0885
  H  H136  1  0.117900  0.602900  0.487200  1.0  0.1102
  H  H137  1  0.281700  0.647200  0.880600  1.0  0.1202
  H  H138  1  0.129700  0.630900  0.691900  1.0  0.1167
  H  H139  1  0.096300  0.550300  0.634600  1.0  0.0748
  H  H140  1  0.227100  0.004400  0.825600  1.0  0.0822
  H  H141  1  0.122900  0.687000  0.387900  1.0  0.1108
  H  H142  1  0.159000  0.717100  0.334200  1.0  0.0762
  H  H143  1  0.079400  0.941400  0.375100  1.0  0.1107
  H  H144  1  0.116800  0.964900  0.321300  1.0  0.0875
  H  H145  1  0.737900  0.348200  0.832900  1.0  0.111
  H  H146  1  0.508200  0.126100  0.522200  1.0  0.1116
  H  H147  1  0.829700  0.069200  0.926700  1.0  0.0875
  H  H148  1  0.637400  0.465400  0.732400  1.0  0.0829
  H  H149  1  0.696800  0.905100  0.724500  1.0  0.1113
  H  H150  1  0.663500  0.833300  0.664900  1.0  0.0743
  H  H151  1  0.647300  0.309000  0.735400  1.0  0.113
  H  H152  1  0.770600  0.924800  0.804500  1.0  0.1047
  H  H153  1  0.523200  0.999400  0.565900  1.0  0.0838
  H  H154  1  0.821100  0.855000  0.851500  1.0  0.0836
  H  H155  1  0.472300  0.375200  0.510200  1.0  0.1074
  H  H156  1  0.417500  0.474900  0.505800  1.0  0.1003
  H  H157  1  0.425700  0.526200  0.382800  1.0  0.1005
  H  H158  1  0.480500  0.426500  0.387300  1.0  0.1046
  H  H159  1  0.630800  0.978900  0.532700  1.0  0.0885
  H  H160  1  0.617900  0.102900  0.487200  1.0  0.1102
  H  H161  1  0.781700  0.147200  0.880600  1.0  0.1202
  H  H162  1  0.629700  0.130900  0.691900  1.0  0.1167
  H  H163  1  0.596300  0.050300  0.634600  1.0  0.0748
  H  H164  1  0.727100  0.504400  0.825600  1.0  0.0822
  H  H165  1  0.622900  0.187000  0.387900  1.0  0.1108
  H  H166  1  0.659000  0.217100  0.334200  1.0  0.0762
  H  H167  1  0.579400  0.441400  0.375100  1.0  0.1107
  H  H168  1  0.616800  0.464900  0.321300  1.0  0.0875
  H  H169  1  0.237900  0.151800  0.332900  1.0  0.111
  H  H170  1  0.008200  0.373900  0.022200  1.0  0.1122
  H  H171  1  0.329700  0.430800  0.426700  1.0  0.0877
  H  H172  1  0.137400  0.034600  0.232400  1.0  0.0828
  H  H173  1  0.196800  0.594900  0.224500  1.0  0.1108
  H  H174  1  0.163500  0.666667  0.164900  1.0  0.0743
  H  H175  1  0.147300  0.191000  0.235400  1.0  0.1132
  H  H176  1  0.270600  0.575200  0.304500  1.0  0.1045
  H  H177  1  0.023200  0.500600  0.065900  1.0  0.0859
  H  H178  1  0.321100  0.645000  0.351500  1.0  0.0834
  H  H179  1  0.972300  0.124800  0.010200  1.0  0.1072
  H  H180  1  0.917500  0.025100  0.005800  1.0  0.0999
  H  H181  1  0.925700  0.973800  0.882800  1.0  0.1005
  H  H182  1  0.980500  0.073500  0.887300  1.0  0.1047
  H  H183  1  0.130800  0.521100  0.032700  1.0  0.0891
  H  H184  1  0.117900  0.397100  0.987200  1.0  0.11
  H  H185  1  0.281700  0.352800  0.380600  1.0  0.1201
  H  H186  1  0.129700  0.369100  0.191900  1.0  0.1167
  H  H187  1  0.096300  0.449700  0.134600  1.0  0.0751
  H  H188  1  0.227100  0.995600  0.325600  1.0  0.0824
  H  H189  1  0.122900  0.313000  0.887900  1.0  0.111
  H  H190  1  0.159000  0.282900  0.834200  1.0  0.076
  H  H191  1  0.079400  0.058600  0.875100  1.0  0.1102
  H  H192  1  0.116800  0.035100  0.821300  1.0  0.0871
  H  H193  1  0.737900  0.651800  0.332900  1.0  0.111
  H  H194  1  0.508200  0.873900  0.022200  1.0  0.1119
  H  H195  1  0.829700  0.930800  0.426700  1.0  0.0877
  H  H196  1  0.637400  0.534600  0.232400  1.0  0.0828
  H  H197  1  0.696800  0.094900  0.224500  1.0  0.1109
  H  H198  1  0.663500  0.166700  0.164900  1.0  0.0744
  H  H199  1  0.647300  0.691000  0.235400  1.0  0.1132
  H  H200  1  0.770600  0.075200  0.304500  1.0  0.1045
  H  H201  1  0.523200  0.000600  0.065900  1.0  0.0838
  H  H202  1  0.821100  0.145000  0.351500  1.0  0.0834
  H  H203  1  0.472300  0.624800  0.010200  1.0  0.1072
  H  H204  1  0.417500  0.525100  0.005800  1.0  0.0999
  H  H205  1  0.425700  0.473800  0.882800  1.0  0.1005
  H  H206  1  0.480500  0.573500  0.887300  1.0  0.1047
  H  H207  1  0.630800  0.021100  0.032700  1.0  0.0891
  H  H208  1  0.617900  0.897100  0.987200  1.0  0.11
  H  H209  1  0.781700  0.852800  0.380600  1.0  0.1201
  H  H210  1  0.629700  0.869100  0.191900  1.0  0.1167
  H  H211  1  0.596300  0.949700  0.134600  1.0  0.0751
  H  H212  1  0.727100  0.495600  0.325600  1.0  0.0824
  H  H213  1  0.622900  0.813000  0.887900  1.0  0.111
  H  H214  1  0.659000  0.782900  0.834200  1.0  0.076
  H  H215  1  0.579400  0.558600  0.875100  1.0  0.1102
  H  H216  1  0.616800  0.535100  0.821300  1.0  0.0871
  C  C217  1  0.782700  0.871000  0.688400  1.0  -0.1326
  C  C218  1  0.966500  0.596800  0.976100  1.0  -0.1662
  C  C219  1  0.682400  0.539900  0.598700  1.0  0.1414
  C  C220  1  0.841600  0.941100  0.747300  1.0  0.1395
  C  C221  1  0.729800  0.543300  0.662500  1.0  -0.1139
  C  C222  1  0.823400  0.436800  0.794000  1.0  -0.1465
  C  C223  1  0.806100  0.812000  0.715300  1.0  -0.1115
  C  C224  1  0.761580  0.587900  0.692400  1.0  0.3922
  C  C225  1  0.843600  0.394200  0.829200  1.0  0.1282
  C  C226  1  0.836100  0.848000  0.745500  1.0  -0.1487
  C  C227  1  0.798430  0.711700  0.715000  1.0  0.3735
  C  C228  1  0.810500  0.578000  0.749100  1.0  0.3748
  C  C229  1  0.938350  0.628700  0.999600  1.0  -0.1186
  C  C230  1  0.717400  0.456100  0.670600  1.0  -0.1343
  C  C231  1  0.832700  0.526500  0.785700  1.0  -0.1243
  C  C232  1  0.957300  0.521300  0.950100  1.0  0.1373
  C  C233  1  0.930300  0.792500  0.081400  1.0  0.4142
  C  C234  1  0.687600  0.414500  0.642200  1.0  0.1414
  C  C235  1  0.946460  0.708100  0.028000  1.0  0.3788
  C  C236  1  0.018460  0.891500  0.050830  1.0  -0.1117
  C  C237  1  0.037180  0.905800  0.015630  1.0  -0.0757
  C  C238  1  0.069730  0.965100  0.018290  1.0  0.1248
  C  C239  1  0.064800  0.995600  0.091330  1.0  0.1242
  C  C240  1  0.032300  0.936400  0.088680  1.0  -0.1024
  C  C241  1  0.894400  0.509000  0.969700  1.0  0.1415
  C  C242  1  0.901800  0.583200  0.996600  1.0  -0.1198
  C  C243  1  0.711200  0.586500  0.625700  1.0  -0.1586
  C  C244  1  0.863000  0.569500  0.812900  1.0  -0.1356
  C  C245  1  0.882400  0.521200  0.847100  1.0  0.1626
  C  C246  1  0.789500  0.963800  0.692700  1.0  0.1374
  C  C247  1  0.981200  0.835700  0.048500  1.0  0.3895
  C  C248  1  0.879800  0.744400  0.126100  1.0  -0.1485
  C  C249  1  0.905100  0.808800  0.114600  1.0  -0.036
  C  C250  1  0.858400  0.763000  0.158100  1.0  0.1341
  C  C251  1  0.905100  0.892800  0.133700  1.0  -0.1147
  C  C252  1  0.882700  0.906600  0.165600  1.0  0.1406
  C  C253  1  0.282700  0.371000  0.688400  1.0  -0.1326
  C  C254  1  0.466500  0.096800  0.976100  1.0  -0.1662
  C  C255  1  0.182400  0.039900  0.598700  1.0  0.1414
  C  C256  1  0.341600  0.441100  0.747300  1.0  0.1395
  C  C257  1  0.229800  0.043300  0.662500  1.0  -0.1139
  C  C258  1  0.323400  0.936800  0.794000  1.0  -0.1466
  C  C259  1  0.306100  0.312000  0.715300  1.0  -0.1115
  C  C260  1  0.261580  0.087900  0.692400  1.0  0.3922
  C  C261  1  0.343600  0.894200  0.829200  1.0  0.1268
  C  C262  1  0.336100  0.348000  0.745500  1.0  -0.1487
  C  C263  1  0.298430  0.211700  0.715000  1.0  0.3735
  C  C264  1  0.310500  0.078000  0.749100  1.0  0.3747
  C  C265  1  0.438350  0.128700  0.999600  1.0  -0.1186
  C  C266  1  0.217400  0.956100  0.670600  1.0  -0.1343
  C  C267  1  0.332700  0.026500  0.785700  1.0  -0.1243
  C  C268  1  0.457300  0.021300  0.950100  1.0  0.1373
  C  C269  1  0.430300  0.292500  0.081400  1.0  0.4142
  C  C270  1  0.187600  0.914500  0.642200  1.0  0.1414
  C  C271  1  0.446460  0.208100  0.028000  1.0  0.3788
  C  C272  1  0.518460  0.391500  0.050830  1.0  -0.1117
  C  C273  1  0.537180  0.405800  0.015630  1.0  -0.0757
  C  C274  1  0.569730  0.465100  0.018290  1.0  0.1248
  C  C275  1  0.564800  0.495600  0.091330  1.0  0.1242
  C  C276  1  0.532300  0.436400  0.088680  1.0  -0.1024
  C  C277  1  0.394400  0.009000  0.969700  1.0  0.1415
  C  C278  1  0.401800  0.083200  0.996600  1.0  -0.1198
  C  C279  1  0.211200  0.086500  0.625700  1.0  -0.1586
  C  C280  1  0.363000  0.069500  0.812900  1.0  -0.1356
  C  C281  1  0.382400  0.021200  0.847100  1.0  0.1626
  C  C282  1  0.289500  0.463800  0.692700  1.0  0.1374
  C  C283  1  0.481200  0.335700  0.048500  1.0  0.3895
  C  C284  1  0.379800  0.244400  0.126100  1.0  -0.1485
  C  C285  1  0.405100  0.308800  0.114600  1.0  -0.036
  C  C286  1  0.358400  0.263000  0.158100  1.0  0.1341
  C  C287  1  0.405100  0.392800  0.133700  1.0  -0.1147
  C  C288  1  0.382700  0.406600  0.165600  1.0  0.1406
  C  C289  1  0.782700  0.129000  0.188400  1.0  -0.1324
  C  C290  1  0.966500  0.403200  0.476100  1.0  -0.1658
  C  C291  1  0.682400  0.460100  0.098700  1.0  0.1418
  C  C292  1  0.841600  0.058900  0.247300  1.0  0.1397
  C  C293  1  0.729800  0.456700  0.162500  1.0  -0.1134
  C  C294  1  0.823400  0.563200  0.294000  1.0  -0.1464
  C  C295  1  0.806100  0.188000  0.215300  1.0  -0.1107
  C  C296  1  0.761580  0.412100  0.192400  1.0  0.3922
  C  C297  1  0.843600  0.605800  0.329200  1.0  0.1286
  C  C298  1  0.836100  0.152000  0.245500  1.0  -0.1482
  C  C299  1  0.798430  0.288300  0.215000  1.0  0.373
  C  C300  1  0.810500  0.422000  0.249100  1.0  0.3752
  C  C301  1  0.938350  0.371300  0.499600  1.0  -0.1187
  C  C302  1  0.717400  0.543900  0.170600  1.0  -0.1351
  C  C303  1  0.832700  0.473500  0.285700  1.0  -0.1247
  C  C304  1  0.957300  0.478700  0.450100  1.0  0.1372
  C  C305  1  0.930300  0.207500  0.581400  1.0  0.4141
  C  C306  1  0.687600  0.585500  0.142200  1.0  0.1409
  C  C307  1  0.946460  0.291900  0.528000  1.0  0.3783
  C  C308  1  0.018460  0.108500  0.550830  1.0  -0.1112
  C  C309  1  0.037180  0.094200  0.515630  1.0  -0.0759
  C  C310  1  0.069730  0.034900  0.518290  1.0  0.1252
  C  C311  1  0.064800  0.004400  0.591330  1.0  0.1249
  C  C312  1  0.032300  0.063600  0.588680  1.0  -0.1029
  C  C313  1  0.894400  0.491000  0.469700  1.0  0.1412
  C  C314  1  0.901800  0.416800  0.496600  1.0  -0.1196
  C  C315  1  0.711200  0.413500  0.125700  1.0  -0.1582
  C  C316  1  0.863000  0.430500  0.312900  1.0  -0.135
  C  C317  1  0.882400  0.478800  0.347100  1.0  0.1632
  C  C318  1  0.789500  0.036200  0.192700  1.0  0.1376
  C  C319  1  0.981200  0.164300  0.548500  1.0  0.3895
  C  C320  1  0.879800  0.255600  0.626100  1.0  -0.1488
  C  C321  1  0.905100  0.191200  0.614600  1.0  -0.036
  C  C322  1  0.858400  0.237000  0.658100  1.0  0.1321
  C  C323  1  0.905100  0.107200  0.633700  1.0  -0.1145
  C  C324  1  0.882700  0.093400  0.665600  1.0  0.1421
  C  C325  1  0.282700  0.629000  0.188400  1.0  -0.1324
  C  C326  1  0.466500  0.903200  0.476100  1.0  -0.1658
  C  C327  1  0.182400  0.960100  0.098700  1.0  0.1418
  C  C328  1  0.341600  0.558900  0.247300  1.0  0.1397
  C  C329  1  0.229800  0.956700  0.162500  1.0  -0.1134
  C  C330  1  0.323400  0.063200  0.294000  1.0  -0.1465
  C  C331  1  0.306100  0.688000  0.215300  1.0  -0.1107
  C  C332  1  0.261580  0.912100  0.192400  1.0  0.3922
  C  C333  1  0.343600  0.105800  0.329200  1.0  0.127
  C  C334  1  0.336100  0.652000  0.245500  1.0  -0.1482
  C  C335  1  0.298430  0.788300  0.215000  1.0  0.373
  C  C336  1  0.310500  0.922000  0.249100  1.0  0.3752
  C  C337  1  0.438350  0.871300  0.499600  1.0  -0.1187
  C  C338  1  0.217400  0.043900  0.170600  1.0  -0.1351
  C  C339  1  0.332700  0.973500  0.285700  1.0  -0.1247
  C  C340  1  0.457300  0.978700  0.450100  1.0  0.1372
  C  C341  1  0.430300  0.707500  0.581400  1.0  0.4141
  C  C342  1  0.187600  0.085500  0.142200  1.0  0.1409
  C  C343  1  0.446460  0.791900  0.528000  1.0  0.3783
  C  C344  1  0.518460  0.608500  0.550830  1.0  -0.1112
  C  C345  1  0.537180  0.594200  0.515630  1.0  -0.0759
  C  C346  1  0.569730  0.534900  0.518290  1.0  0.1252
  C  C347  1  0.564800  0.504400  0.591330  1.0  0.1249
  C  C348  1  0.532300  0.563600  0.588680  1.0  -0.1029
  C  C349  1  0.394400  0.991000  0.469700  1.0  0.1412
  C  C350  1  0.401800  0.916800  0.496600  1.0  -0.1196
  C  C351  1  0.211200  0.913500  0.125700  1.0  -0.1582
  C  C352  1  0.363000  0.930500  0.312900  1.0  -0.135
  C  C353  1  0.382400  0.978800  0.347100  1.0  0.1631
  C  C354  1  0.289500  0.536200  0.192700  1.0  0.1376
  C  C355  1  0.481200  0.664300  0.548500  1.0  0.3895
  C  C356  1  0.379800  0.755600  0.626100  1.0  -0.1488
  C  C357  1  0.405100  0.691200  0.614600  1.0  -0.036
  C  C358  1  0.358400  0.737000  0.658100  1.0  0.1321
  C  C359  1  0.405100  0.607200  0.633700  1.0  -0.1145
  C  C360  1  0.382700  0.593400  0.665600  1.0  0.1421
  C  C361  1  0.217300  0.871000  0.811600  1.0  -0.1357
  C  C362  1  0.033500  0.596800  0.523900  1.0  -0.168
  C  C363  1  0.317600  0.539900  0.901300  1.0  0.1431
  C  C364  1  0.158400  0.941100  0.752700  1.0  0.1386
  C  C365  1  0.270200  0.543300  0.837500  1.0  -0.1167
  C  C366  1  0.176600  0.436800  0.706000  1.0  -0.1461
  C  C367  1  0.193900  0.812000  0.784700  1.0  -0.1106
  C  C368  1  0.238420  0.587900  0.807600  1.0  0.3922
  C  C369  1  0.156400  0.394200  0.670800  1.0  0.129
  C  C370  1  0.163900  0.848000  0.754500  1.0  -0.151
  C  C371  1  0.201570  0.711700  0.785000  1.0  0.373
  C  C372  1  0.189500  0.578000  0.750900  1.0  0.3751
  C  C373  1  0.061650  0.628700  0.500400  1.0  -0.1189
  C  C374  1  0.282600  0.456100  0.829400  1.0  -0.1352
  C  C375  1  0.167300  0.526500  0.714300  1.0  -0.1236
  C  C376  1  0.042700  0.521300  0.549900  1.0  0.1375
  C  C377  1  0.069700  0.792500  0.418600  1.0  0.4144
  C  C378  1  0.312400  0.414500  0.857800  1.0  0.1394
  C  C379  1  0.053540  0.708100  0.472000  1.0  0.379
  C  C380  1  0.981540  0.891500  0.449170  1.0  -0.1112
  C  C381  1  0.962820  0.905800  0.484370  1.0  -0.0759
  C  C382  1  0.930270  0.965100  0.481710  1.0  0.1248
  C  C383  1  0.935200  0.995600  0.408670  1.0  0.1253
  C  C384  1  0.967700  0.936400  0.411320  1.0  -0.099
  C  C385  1  0.105600  0.509000  0.530300  1.0  0.1403
  C  C386  1  0.098200  0.583200  0.503400  1.0  -0.1175
  C  C387  1  0.288800  0.586500  0.874300  1.0  -0.1604
  C  C388  1  0.137000  0.569500  0.687100  1.0  -0.1363
  C  C389  1  0.117600  0.521200  0.652900  1.0  0.1622
  C  C390  1  0.210500  0.963800  0.807300  1.0  0.1373
  C  C391  1  0.018800  0.835700  0.451500  1.0  0.3886
  C  C392  1  0.120200  0.744400  0.373900  1.0  -0.1494
  C  C393  1  0.094900  0.808800  0.385400  1.0  -0.0371
  C  C394  1  0.141600  0.763000  0.341900  1.0  0.1328
  C  C395  1  0.094900  0.892800  0.366300  1.0  -0.1157
  C  C396  1  0.117300  0.906600  0.334400  1.0  0.1408
  C  C397  1  0.717300  0.371000  0.811600  1.0  -0.1357
  C  C398  1  0.533500  0.096800  0.523900  1.0  -0.168
  C  C399  1  0.817600  0.039900  0.901300  1.0  0.1431
  C  C400  1  0.658400  0.441100  0.752700  1.0  0.1386
  C  C401  1  0.770200  0.043300  0.837500  1.0  -0.1167
  C  C402  1  0.676600  0.936800  0.706000  1.0  -0.1462
  C  C403  1  0.693900  0.312000  0.784700  1.0  -0.1106
  C  C404  1  0.738420  0.087900  0.807600  1.0  0.3922
  C  C405  1  0.656400  0.894200  0.670800  1.0  0.1278
  C  C406  1  0.663900  0.348000  0.754500  1.0  -0.151
  C  C407  1  0.701570  0.211700  0.785000  1.0  0.373
  C  C408  1  0.689500  0.078000  0.750900  1.0  0.3751
  C  C409  1  0.561650  0.128700  0.500400  1.0  -0.1189
  C  C410  1  0.782600  0.956100  0.829400  1.0  -0.1352
  C  C411  1  0.667300  0.026500  0.714300  1.0  -0.1236
  C  C412  1  0.542700  0.021300  0.549900  1.0  0.1375
  C  C413  1  0.569700  0.292500  0.418600  1.0  0.4144
  C  C414  1  0.812400  0.914500  0.857800  1.0  0.1394
  C  C415  1  0.553540  0.208100  0.472000  1.0  0.379
  C  C416  1  0.481540  0.391500  0.449170  1.0  -0.1112
  C  C417  1  0.462820  0.405800  0.484370  1.0  -0.0759
  C  C418  1  0.430270  0.465100  0.481710  1.0  0.1248
  C  C419  1  0.435200  0.495600  0.408670  1.0  0.1253
  C  C420  1  0.467700  0.436400  0.411320  1.0  -0.099
  C  C421  1  0.605600  0.009000  0.530300  1.0  0.1403
  C  C422  1  0.598200  0.083200  0.503400  1.0  -0.1175
  C  C423  1  0.788800  0.086500  0.874300  1.0  -0.1604
  C  C424  1  0.637000  0.069500  0.687100  1.0  -0.1363
  C  C425  1  0.617600  0.021200  0.652900  1.0  0.1622
  C  C426  1  0.710500  0.463800  0.807300  1.0  0.1373
  C  C427  1  0.518800  0.335700  0.451500  1.0  0.3886
  C  C428  1  0.620200  0.244400  0.373900  1.0  -0.1494
  C  C429  1  0.594900  0.308800  0.385400  1.0  -0.0371
  C  C430  1  0.641600  0.263000  0.341900  1.0  0.1328
  C  C431  1  0.594900  0.392800  0.366300  1.0  -0.1157
  C  C432  1  0.617300  0.406600  0.334400  1.0  0.1408
  C  C433  1  0.217300  0.129000  0.311600  1.0  -0.1351
  C  C434  1  0.033500  0.403200  0.023900  1.0  -0.1668
  C  C435  1  0.317600  0.460100  0.401300  1.0  0.1442
  C  C436  1  0.158400  0.058900  0.252700  1.0  0.1379
  C  C437  1  0.270200  0.456700  0.337500  1.0  -0.116
  C  C438  1  0.176600  0.563200  0.206000  1.0  -0.1468
  C  C439  1  0.193900  0.188000  0.284700  1.0  -0.1109
  C  C440  1  0.238420  0.412100  0.307600  1.0  0.3921
  C  C441  1  0.156400  0.605800  0.170800  1.0  0.1307
  C  C442  1  0.163900  0.152000  0.254500  1.0  -0.1511
  C  C443  1  0.201570  0.288300  0.285000  1.0  0.3733
  C  C444  1  0.189500  0.422000  0.250900  1.0  0.3755
  C  C445  1  0.061650  0.371300  0.000400  1.0  -0.1188
  C  C446  1  0.282600  0.543900  0.329400  1.0  -0.1357
  C  C447  1  0.167300  0.473500  0.214300  1.0  -0.1236
  C  C448  1  0.042700  0.478700  0.049900  1.0  0.1368
  C  C449  1  0.069700  0.207500  0.918600  1.0  0.4143
  C  C450  1  0.312400  0.585500  0.357800  1.0  0.1403
  C  C451  1  0.053540  0.291900  0.972000  1.0  0.3784
  C  C452  1  0.981540  0.108500  0.949170  1.0  -0.1107
  C  C453  1  0.962820  0.094200  0.984370  1.0  -0.0761
  C  C454  1  0.930270  0.034900  0.981710  1.0  0.1251
  C  C455  1  0.935200  0.004400  0.908670  1.0  0.1258
  C  C456  1  0.967700  0.063600  0.911320  1.0  -0.0994
  C  C457  1  0.105600  0.491000  0.030300  1.0  0.1409
  C  C458  1  0.098200  0.416800  0.003400  1.0  -0.1172
  C  C459  1  0.288800  0.413500  0.374300  1.0  -0.1593
  C  C460  1  0.137000  0.430500  0.187100  1.0  -0.1352
  C  C461  1  0.117600  0.478800  0.152900  1.0  0.1627
  C  C462  1  0.210500  0.036200  0.307300  1.0  0.1387
  C  C463  1  0.018800  0.164300  0.951500  1.0  0.3891
  C  C464  1  0.120200  0.255600  0.873900  1.0  -0.1497
  C  C465  1  0.094900  0.191200  0.885400  1.0  -0.0367
  C  C466  1  0.141600  0.237000  0.841900  1.0  0.1328
  C  C467  1  0.094900  0.107200  0.866300  1.0  -0.1136
  C  C468  1  0.117300  0.093400  0.834400  1.0  0.1411
  C  C469  1  0.717300  0.629000  0.311600  1.0  -0.1351
  C  C470  1  0.533500  0.903200  0.023900  1.0  -0.1668
  C  C471  1  0.817600  0.960100  0.401300  1.0  0.1442
  C  C472  1  0.658400  0.558900  0.252700  1.0  0.1379
  C  C473  1  0.770200  0.956700  0.337500  1.0  -0.116
  C  C474  1  0.676600  0.063200  0.206000  1.0  -0.1469
  C  C475  1  0.693900  0.688000  0.284700  1.0  -0.1109
  C  C476  1  0.738420  0.912100  0.307600  1.0  0.3921
  C  C477  1  0.656400  0.105800  0.170800  1.0  0.1293
  C  C478  1  0.663900  0.652000  0.254500  1.0  -0.1511
  C  C479  1  0.701570  0.788300  0.285000  1.0  0.3733
  C  C480  1  0.689500  0.922000  0.250900  1.0  0.3755
  C  C481  1  0.561650  0.871300  0.000400  1.0  -0.1188
  C  C482  1  0.782600  0.043900  0.329400  1.0  -0.1357
  C  C483  1  0.667300  0.973500  0.214300  1.0  -0.1236
  C  C484  1  0.542700  0.978700  0.049900  1.0  0.1368
  C  C485  1  0.569700  0.707500  0.918600  1.0  0.4143
  C  C486  1  0.812400  0.085500  0.357800  1.0  0.1403
  C  C487  1  0.553540  0.791900  0.972000  1.0  0.3784
  C  C488  1  0.481540  0.608500  0.949170  1.0  -0.1107
  C  C489  1  0.462820  0.594200  0.984370  1.0  -0.0761
  C  C490  1  0.430270  0.534900  0.981710  1.0  0.1251
  C  C491  1  0.435200  0.504400  0.908670  1.0  0.1258
  C  C492  1  0.467700  0.563600  0.911320  1.0  -0.0994
  C  C493  1  0.605600  0.991000  0.030300  1.0  0.1409
  C  C494  1  0.598200  0.916800  0.003400  1.0  -0.1172
  C  C495  1  0.788800  0.913500  0.374300  1.0  -0.1593
  C  C496  1  0.637000  0.930500  0.187100  1.0  -0.1352
  C  C497  1  0.617600  0.978800  0.152900  1.0  0.1627
  C  C498  1  0.710500  0.536200  0.307300  1.0  0.1387
  C  C499  1  0.518800  0.664300  0.951500  1.0  0.3891
  C  C500  1  0.620200  0.755600  0.873900  1.0  -0.1497
  C  C501  1  0.594900  0.691200  0.885400  1.0  -0.0367
  C  C502  1  0.641600  0.737000  0.841900  1.0  0.1328
  C  C503  1  0.594900  0.607200  0.866300  1.0  -0.1136
  C  C504  1  0.617300  0.593400  0.834400  1.0  0.1411
  I  I505  1  0.764510  0.227150  0.707100  1.0  -0.4499
  I  I506  1  0.599390  0.262420  0.605880  1.0  -0.423
  I  I507  1  0.653060  0.367410  0.495330  1.0  -0.3509
  I  I508  1  0.875110  0.160380  0.798760  1.0  -0.448
  I  I509  1  0.859970  0.267250  0.939280  1.0  -0.3968
  I  I510  1  0.970680  0.323640  0.877480  1.0  -0.3931
  I  I511  1  0.264510  0.727150  0.707100  1.0  -0.4499
  I  I512  1  0.099390  0.762420  0.605880  1.0  -0.423
  I  I513  1  0.153060  0.867410  0.495330  1.0  -0.3509
  I  I514  1  0.375110  0.660380  0.798760  1.0  -0.448
  I  I515  1  0.359970  0.767250  0.939280  1.0  -0.3968
  I  I516  1  0.470680  0.823640  0.877480  1.0  -0.3931
  I  I517  1  0.764510  0.772850  0.207100  1.0  -0.4502
  I  I518  1  0.599390  0.737580  0.105880  1.0  -0.4228
  I  I519  1  0.653060  0.632590  0.995330  1.0  -0.3509
  I  I520  1  0.875110  0.839620  0.298760  1.0  -0.4482
  I  I521  1  0.859970  0.732750  0.439280  1.0  -0.3965
  I  I522  1  0.970680  0.676360  0.377480  1.0  -0.3932
  I  I523  1  0.264510  0.272850  0.207100  1.0  -0.4502
  I  I524  1  0.099390  0.237580  0.105880  1.0  -0.4228
  I  I525  1  0.153060  0.132590  0.995330  1.0  -0.3509
  I  I526  1  0.375110  0.339620  0.298760  1.0  -0.4482
  I  I527  1  0.359970  0.232750  0.439280  1.0  -0.3965
  I  I528  1  0.470680  0.176360  0.377480  1.0  -0.3932
  I  I529  1  0.235490  0.227150  0.792900  1.0  -0.4487
  I  I530  1  0.400610  0.262420  0.894120  1.0  -0.4228
  I  I531  1  0.346940  0.367410  0.004670  1.0  -0.3506
  I  I532  1  0.124890  0.160380  0.701240  1.0  -0.4481
  I  I533  1  0.140030  0.267250  0.560720  1.0  -0.3968
  I  I534  1  0.029320  0.323640  0.622520  1.0  -0.3933
  I  I535  1  0.735490  0.727150  0.792900  1.0  -0.4487
  I  I536  1  0.900610  0.762420  0.894120  1.0  -0.4228
  I  I537  1  0.846940  0.867410  0.004670  1.0  -0.3506
  I  I538  1  0.624890  0.660380  0.701240  1.0  -0.4481
  I  I539  1  0.640030  0.767250  0.560720  1.0  -0.3968
  I  I540  1  0.529320  0.823640  0.622520  1.0  -0.3933
  I  I541  1  0.235490  0.772850  0.292900  1.0  -0.4492
  I  I542  1  0.400610  0.737580  0.394120  1.0  -0.4227
  I  I543  1  0.346940  0.632590  0.504670  1.0  -0.3505
  I  I544  1  0.124890  0.839620  0.201240  1.0  -0.4482
  I  I545  1  0.140030  0.732750  0.060720  1.0  -0.3967
  I  I546  1  0.029320  0.676360  0.122520  1.0  -0.3937
  I  I547  1  0.735490  0.272850  0.292900  1.0  -0.4492
  I  I548  1  0.900610  0.237580  0.394120  1.0  -0.4227
  I  I549  1  0.846940  0.132590  0.504670  1.0  -0.3505
  I  I550  1  0.624890  0.339620  0.201240  1.0  -0.4482
  I  I551  1  0.640030  0.232750  0.060720  1.0  -0.3967
  I  I552  1  0.529320  0.176360  0.122520  1.0  -0.3937
  N  N553  1  0.818610  0.998500  0.721740  1.0  -0.3095
  N  N554  1  0.921710  0.478300  0.946920  1.0  -0.3021
  N  N555  1  0.670500  0.455000  0.606510  1.0  -0.3109
  N  N556  1  0.975830  0.765700  0.021420  1.0  -0.4357
  N  N557  1  0.768940  0.677000  0.686880  1.0  -0.3398
  N  N558  1  0.923610  0.716700  0.058230  1.0  -0.4502
  N  N559  1  0.872940  0.435500  0.855800  1.0  -0.3152
  N  N560  1  0.821320  0.665200  0.745690  1.0  -0.4026
  N  N561  1  0.083550  0.009900  0.056130  1.0  -0.306
  N  N562  1  0.780640  0.536100  0.723890  1.0  -0.4506
  N  N563  1  0.958340  0.854300  0.077600  1.0  -0.3641
  N  N564  1  0.860460  0.840800  0.178700  1.0  -0.3082
  N  N565  1  0.318610  0.498500  0.721740  1.0  -0.3095
  N  N566  1  0.421710  0.978300  0.946920  1.0  -0.3021
  N  N567  1  0.170500  0.955000  0.606510  1.0  -0.3109
  N  N568  1  0.475830  0.265700  0.021420  1.0  -0.4357
  N  N569  1  0.268940  0.177000  0.686880  1.0  -0.3398
  N  N570  1  0.423610  0.216700  0.058230  1.0  -0.4502
  N  N571  1  0.372940  0.935500  0.855800  1.0  -0.3154
  N  N572  1  0.321320  0.165200  0.745690  1.0  -0.4026
  N  N573  1  0.583550  0.509900  0.056130  1.0  -0.306
  N  N574  1  0.280640  0.036100  0.723890  1.0  -0.4506
  N  N575  1  0.458340  0.354300  0.077600  1.0  -0.3641
  N  N576  1  0.360460  0.340800  0.178700  1.0  -0.3082
  N  N577  1  0.818610  0.001500  0.221740  1.0  -0.3089
  N  N578  1  0.921710  0.521700  0.446920  1.0  -0.3009
  N  N579  1  0.670500  0.545000  0.106510  1.0  -0.3101
  N  N580  1  0.975830  0.234300  0.521420  1.0  -0.4359
  N  N581  1  0.768940  0.323000  0.186880  1.0  -0.3401
  N  N582  1  0.923610  0.283300  0.558230  1.0  -0.45
  N  N583  1  0.872940  0.564500  0.355800  1.0  -0.3143
  N  N584  1  0.821320  0.334800  0.245690  1.0  -0.4026
  N  N585  1  0.083550  0.990100  0.556130  1.0  -0.3069
  N  N586  1  0.780640  0.463900  0.223890  1.0  -0.4503
  N  N587  1  0.958340  0.145700  0.577600  1.0  -0.3632
  N  N588  1  0.860460  0.159200  0.678700  1.0  -0.3081
  N  N589  1  0.318610  0.501500  0.221740  1.0  -0.3089
  N  N590  1  0.421710  0.021700  0.446920  1.0  -0.3009
  N  N591  1  0.170500  0.045000  0.106510  1.0  -0.3101
  N  N592  1  0.475830  0.734300  0.521420  1.0  -0.4359
  N  N593  1  0.268940  0.823000  0.186880  1.0  -0.3401
  N  N594  1  0.423610  0.783300  0.558230  1.0  -0.45
  N  N595  1  0.372940  0.064500  0.355800  1.0  -0.3144
  N  N596  1  0.321320  0.834800  0.245690  1.0  -0.4026
  N  N597  1  0.583550  0.490100  0.556130  1.0  -0.3069
  N  N598  1  0.280640  0.963900  0.223890  1.0  -0.4503
  N  N599  1  0.458340  0.645700  0.577600  1.0  -0.3632
  N  N600  1  0.360460  0.659200  0.678700  1.0  -0.3081
  N  N601  1  0.181390  0.998500  0.778260  1.0  -0.3089
  N  N602  1  0.078290  0.478300  0.553080  1.0  -0.3018
  N  N603  1  0.329500  0.455000  0.893490  1.0  -0.3071
  N  N604  1  0.024170  0.765700  0.478580  1.0  -0.4395
  N  N605  1  0.231060  0.677000  0.813120  1.0  -0.3383
  N  N606  1  0.076390  0.716700  0.441770  1.0  -0.4501
  N  N607  1  0.127060  0.435500  0.644200  1.0  -0.3169
  N  N608  1  0.178680  0.665200  0.754310  1.0  -0.3999
  N  N609  1  0.916450  0.009900  0.443870  1.0  -0.3051
  N  N610  1  0.219360  0.536100  0.776110  1.0  -0.4509
  N  N611  1  0.041660  0.854300  0.422400  1.0  -0.3656
  N  N612  1  0.139540  0.840800  0.321300  1.0  -0.309
  N  N613  1  0.681390  0.498500  0.778260  1.0  -0.3089
  N  N614  1  0.578290  0.978300  0.553080  1.0  -0.3018
  N  N615  1  0.829500  0.955000  0.893490  1.0  -0.3071
  N  N616  1  0.524170  0.265700  0.478580  1.0  -0.4395
  N  N617  1  0.731060  0.177000  0.813120  1.0  -0.3383
  N  N618  1  0.576390  0.216700  0.441770  1.0  -0.4501
  N  N619  1  0.627060  0.935500  0.644200  1.0  -0.3171
  N  N620  1  0.678680  0.165200  0.754310  1.0  -0.3999
  N  N621  1  0.416450  0.509900  0.443870  1.0  -0.3051
  N  N622  1  0.719360  0.036100  0.776110  1.0  -0.4509
  N  N623  1  0.541660  0.354300  0.422400  1.0  -0.3656
  N  N624  1  0.639540  0.340800  0.321300  1.0  -0.309
  N  N625  1  0.181390  0.001500  0.278260  1.0  -0.3096
  N  N626  1  0.078290  0.521700  0.053080  1.0  -0.3019
  N  N627  1  0.329500  0.545000  0.393490  1.0  -0.3078
  N  N628  1  0.024170  0.234300  0.978580  1.0  -0.4398
  N  N629  1  0.231060  0.323000  0.313120  1.0  -0.338
  N  N630  1  0.076390  0.283300  0.941770  1.0  -0.4492
  N  N631  1  0.127060  0.564500  0.144200  1.0  -0.314
  N  N632  1  0.178680  0.334800  0.254310  1.0  -0.4
  N  N633  1  0.916450  0.990100  0.943870  1.0  -0.3067
  N  N634  1  0.219360  0.463900  0.276110  1.0  -0.4509
  N  N635  1  0.041660  0.145700  0.922400  1.0  -0.366
  N  N636  1  0.139540  0.159200  0.821300  1.0  -0.3095
  N  N637  1  0.681390  0.501500  0.278260  1.0  -0.3096
  N  N638  1  0.578290  0.021700  0.053080  1.0  -0.3019
  N  N639  1  0.829500  0.045000  0.393490  1.0  -0.3078
  N  N640  1  0.524170  0.734300  0.978580  1.0  -0.4398
  N  N641  1  0.731060  0.823000  0.313120  1.0  -0.338
  N  N642  1  0.576390  0.783300  0.941770  1.0  -0.4492
  N  N643  1  0.627060  0.064500  0.144200  1.0  -0.3142
  N  N644  1  0.678680  0.834800  0.254310  1.0  -0.4
  N  N645  1  0.416450  0.490100  0.943870  1.0  -0.3067
  N  N646  1  0.719360  0.963900  0.276110  1.0  -0.4509
  N  N647  1  0.541660  0.645700  0.922400  1.0  -0.366
  N  N648  1  0.639540  0.659200  0.821300  1.0  -0.3095
