# generated using pymatgen
data_Dy2H6C18(SO4)3
_symmetry_space_group_name_H-M   'P 1'
_cell_length_a   17.33580000
_cell_length_b   11.63480000
_cell_length_c   18.31980000
_cell_angle_alpha   90.00000000
_cell_angle_beta   110.42600000
_cell_angle_gamma   90.00000000
_symmetry_Int_Tables_number   1
_chemical_formula_structural   Dy2H6C18(SO4)3
_chemical_formula_sum   'Dy8 H24 C72 S12 O48'
_cell_volume   3462.74465138
_cell_formula_units_Z   4
loop_
 _symmetry_equiv_pos_site_id
 _symmetry_equiv_pos_as_xyz
  1  'x, y, z'
loop_
 _atom_site_type_symbol
 _atom_site_label
 _atom_site_symmetry_multiplicity
 _atom_site_fract_x
 _atom_site_fract_y
 _atom_site_fract_z
 _atom_site_occupancy
 _atom_site_charge
  Dy  Dy1  1  0.998960  0.083250  0.094590  1.0  2.3052
  Dy  Dy2  1  0.502380  0.569610  0.399040  1.0  2.2987
  Dy  Dy3  1  0.001040  0.083250  0.405410  1.0  2.3066
  Dy  Dy4  1  0.497620  0.569610  0.100960  1.0  2.2988
  Dy  Dy5  1  0.001040  0.916750  0.905410  1.0  2.3067
  Dy  Dy6  1  0.497620  0.430390  0.600960  1.0  2.299
  Dy  Dy7  1  0.998960  0.916750  0.594590  1.0  2.3072
  Dy  Dy8  1  0.502380  0.430390  0.899040  1.0  2.2984
  H  H9  1  0.284500  0.664200  0.307400  1.0  0.112
  H  H10  1  0.163200  0.786300  0.250900  1.0  0.115
  H  H11  1  0.200500  0.948400  0.424200  1.0  0.0997
  H  H12  1  0.182200  0.268400  0.213200  1.0  0.1148
  H  H13  1  0.303700  0.382300  0.283300  1.0  0.1083
  H  H14  1  0.322200  0.853900  0.415500  1.0  0.1242
  H  H15  1  0.715500  0.664200  0.192600  1.0  0.112
  H  H16  1  0.836800  0.786300  0.249100  1.0  0.1153
  H  H17  1  0.799500  0.948400  0.075800  1.0  0.0992
  H  H18  1  0.817800  0.268400  0.286800  1.0  0.1153
  H  H19  1  0.696300  0.382300  0.216700  1.0  0.1084
  H  H20  1  0.677800  0.853900  0.084500  1.0  0.1245
  H  H21  1  0.715500  0.335800  0.692600  1.0  0.1119
  H  H22  1  0.836800  0.213700  0.749100  1.0  0.1156
  H  H23  1  0.799500  0.051600  0.575800  1.0  0.0994
  H  H24  1  0.817800  0.731600  0.786800  1.0  0.1152
  H  H25  1  0.696300  0.617700  0.716700  1.0  0.1087
  H  H26  1  0.677800  0.146100  0.584500  1.0  0.1247
  H  H27  1  0.284500  0.335800  0.807400  1.0  0.1118
  H  H28  1  0.163200  0.213700  0.750900  1.0  0.1154
  H  H29  1  0.200500  0.051600  0.924200  1.0  0.0995
  H  H30  1  0.182200  0.731600  0.713200  1.0  0.1145
  H  H31  1  0.303700  0.617700  0.783300  1.0  0.1085
  H  H32  1  0.322200  0.146100  0.915500  1.0  0.1243
  C  C33  1  0.116100  0.111200  0.295200  1.0  0.7705
  C  C34  1  0.375700  0.587100  0.216100  1.0  0.7701
  C  C35  1  0.186100  0.192500  0.314400  1.0  -0.2017
  C  C36  1  0.299300  0.653900  0.202200  1.0  -0.2114
  C  C37  1  0.174500  0.773200  0.144400  1.0  -0.1868
  C  C38  1  0.201500  0.839000  0.511900  1.0  -0.2012
  C  C39  1  0.323600  0.742700  0.501700  1.0  -0.2007
  C  C40  1  0.264100  0.685900  0.255200  1.0  -0.0642
  C  C41  1  0.104200  0.840700  0.091800  1.0  0.7892
  C  C42  1  0.193400  0.755700  0.222400  1.0  -0.0699
  C  C43  1  0.390400  0.660100  0.506100  1.0  0.7824
  C  C44  1  0.309000  0.306700  0.385200  1.0  -0.2065
  C  C45  1  0.380100  0.354800  0.447900  1.0  0.7411
  C  C46  1  0.128700  0.869000  0.532000  1.0  0.7152
  C  C47  1  0.226700  0.886900  0.455400  1.0  -0.051
  C  C48  1  0.209600  0.263700  0.266700  1.0  -0.0558
  C  C49  1  0.279900  0.329400  0.307100  1.0  -0.0567
  C  C50  1  0.296700  0.832000  0.450300  1.0  -0.069
  C  C51  1  0.883900  0.111200  0.204800  1.0  0.7701
  C  C52  1  0.624300  0.587100  0.283900  1.0  0.769
  C  C53  1  0.813900  0.192500  0.185600  1.0  -0.202
  C  C54  1  0.700700  0.653900  0.297800  1.0  -0.2086
  C  C55  1  0.825500  0.773200  0.355600  1.0  -0.1843
  C  C56  1  0.798500  0.839000  0.988100  1.0  -0.2005
  C  C57  1  0.676400  0.742700  0.998300  1.0  -0.2013
  C  C58  1  0.735900  0.685900  0.244800  1.0  -0.0657
  C  C59  1  0.895800  0.840700  0.408200  1.0  0.7886
  C  C60  1  0.806600  0.755700  0.277600  1.0  -0.0698
  C  C61  1  0.609600  0.660100  0.993900  1.0  0.7828
  C  C62  1  0.691000  0.306700  0.114800  1.0  -0.2074
  C  C63  1  0.619900  0.354800  0.052100  1.0  0.7396
  C  C64  1  0.871300  0.869000  0.968000  1.0  0.7168
  C  C65  1  0.773300  0.886900  0.044600  1.0  -0.0501
  C  C66  1  0.790400  0.263700  0.233300  1.0  -0.0562
  C  C67  1  0.720100  0.329400  0.192900  1.0  -0.0555
  C  C68  1  0.703300  0.832000  0.049700  1.0  -0.069
  C  C69  1  0.883900  0.888800  0.704800  1.0  0.7709
  C  C70  1  0.624300  0.412900  0.783900  1.0  0.7695
  C  C71  1  0.813900  0.807500  0.685600  1.0  -0.2017
  C  C72  1  0.700700  0.346100  0.797800  1.0  -0.2087
  C  C73  1  0.825500  0.226800  0.855600  1.0  -0.1846
  C  C74  1  0.798500  0.161000  0.488100  1.0  -0.2001
  C  C75  1  0.676400  0.257300  0.498300  1.0  -0.2009
  C  C76  1  0.735900  0.314100  0.744800  1.0  -0.0659
  C  C77  1  0.895800  0.159300  0.908200  1.0  0.7848
  C  C78  1  0.806600  0.244300  0.777600  1.0  -0.0696
  C  C79  1  0.609600  0.339900  0.493900  1.0  0.783
  C  C80  1  0.691000  0.693300  0.614800  1.0  -0.2074
  C  C81  1  0.619900  0.645200  0.552100  1.0  0.739
  C  C82  1  0.871300  0.131000  0.468000  1.0  0.717
  C  C83  1  0.773300  0.113100  0.544600  1.0  -0.0499
  C  C84  1  0.790400  0.736300  0.733300  1.0  -0.0558
  C  C85  1  0.720100  0.670600  0.692900  1.0  -0.0553
  C  C86  1  0.703300  0.168000  0.549700  1.0  -0.0686
  C  C87  1  0.116100  0.888800  0.795200  1.0  0.7712
  C  C88  1  0.375700  0.412900  0.716100  1.0  0.7705
  C  C89  1  0.186100  0.807500  0.814400  1.0  -0.2022
  C  C90  1  0.299300  0.346100  0.702200  1.0  -0.2115
  C  C91  1  0.174500  0.226800  0.644400  1.0  -0.1862
  C  C92  1  0.201500  0.161000  0.011900  1.0  -0.2023
  C  C93  1  0.323600  0.257300  0.001700  1.0  -0.2013
  C  C94  1  0.264100  0.314100  0.755200  1.0  -0.0644
  C  C95  1  0.104200  0.159300  0.591800  1.0  0.7852
  C  C96  1  0.193400  0.244300  0.722400  1.0  -0.07
  C  C97  1  0.390400  0.339900  0.006100  1.0  0.783
  C  C98  1  0.309000  0.693300  0.885200  1.0  -0.2078
  C  C99  1  0.380100  0.645200  0.947900  1.0  0.7413
  C  C100  1  0.128700  0.131000  0.032000  1.0  0.7153
  C  C101  1  0.226700  0.113100  0.955400  1.0  -0.0508
  C  C102  1  0.209600  0.736300  0.766700  1.0  -0.0556
  C  C103  1  0.279900  0.670600  0.807100  1.0  -0.0562
  C  C104  1  0.296700  0.168000  0.950300  1.0  -0.0685
  S  S105  1  0.244760  0.707430  0.110320  1.0  0.1574
  S  S106  1  0.250280  0.205190  0.410120  1.0  0.1478
  S  S107  1  0.264390  0.726600  0.559350  1.0  0.1451
  S  S108  1  0.755240  0.707430  0.389680  1.0  0.1584
  S  S109  1  0.749720  0.205190  0.089880  1.0  0.1478
  S  S110  1  0.735610  0.726600  0.940650  1.0  0.1441
  S  S111  1  0.755240  0.292570  0.889680  1.0  0.1582
  S  S112  1  0.749720  0.794810  0.589880  1.0  0.1483
  S  S113  1  0.735610  0.273400  0.440650  1.0  0.1425
  S  S114  1  0.244760  0.292570  0.610320  1.0  0.1573
  S  S115  1  0.250280  0.794810  0.910120  1.0  0.1484
  S  S116  1  0.264390  0.273400  0.059350  1.0  0.1446
  O  O117  1  0.405330  0.582000  0.163940  1.0  -0.7226
  O  O118  1  0.100800  0.066300  0.351630  1.0  -0.6708
  O  O119  1  0.404770  0.537300  0.282220  1.0  -0.7089
  O  O120  1  0.077880  0.090500  0.225070  1.0  -0.7282
  O  O121  1  0.079970  0.946500  0.493540  1.0  -0.8527
  O  O122  1  0.408300  0.586400  0.559280  1.0  -0.7237
  O  O123  1  0.071600  0.910600  0.124570  1.0  -0.7005
  O  O124  1  0.422350  0.671600  0.454770  1.0  -0.7501
  O  O125  1  0.423800  0.432300  0.433590  1.0  -0.8094
  O  O126  1  0.082770  0.821800  0.019590  1.0  -0.7694
  O  O127  1  0.395780  0.315400  0.515940  1.0  -0.5945
  O  O128  1  0.116280  0.817900  0.587560  1.0  -0.6899
  O  O129  1  0.594670  0.582000  0.336060  1.0  -0.7216
  O  O130  1  0.899200  0.066300  0.148370  1.0  -0.6709
  O  O131  1  0.595230  0.537300  0.217780  1.0  -0.7104
  O  O132  1  0.922120  0.090500  0.274930  1.0  -0.7274
  O  O133  1  0.920030  0.946500  0.006460  1.0  -0.8537
  O  O134  1  0.591700  0.586400  0.940720  1.0  -0.725
  O  O135  1  0.928400  0.910600  0.375430  1.0  -0.7018
  O  O136  1  0.577650  0.671600  0.045230  1.0  -0.7507
  O  O137  1  0.576200  0.432300  0.066410  1.0  -0.8074
  O  O138  1  0.917230  0.821800  0.480410  1.0  -0.769
  O  O139  1  0.604220  0.315400  0.984060  1.0  -0.5943
  O  O140  1  0.883720  0.817900  0.912440  1.0  -0.6891
  O  O141  1  0.594670  0.418000  0.836060  1.0  -0.7211
  O  O142  1  0.899200  0.933700  0.648370  1.0  -0.6705
  O  O143  1  0.595230  0.462700  0.717780  1.0  -0.7115
  O  O144  1  0.922120  0.909500  0.774930  1.0  -0.7276
  O  O145  1  0.920030  0.053500  0.506460  1.0  -0.8552
  O  O146  1  0.591700  0.413600  0.440720  1.0  -0.7252
  O  O147  1  0.928400  0.089400  0.875430  1.0  -0.7017
  O  O148  1  0.577650  0.328400  0.545230  1.0  -0.7508
  O  O149  1  0.576200  0.567700  0.566410  1.0  -0.8084
  O  O150  1  0.917230  0.178200  0.980410  1.0  -0.7697
  O  O151  1  0.604220  0.684600  0.484060  1.0  -0.5959
  O  O152  1  0.883720  0.182100  0.412440  1.0  -0.6895
  O  O153  1  0.405330  0.418000  0.663940  1.0  -0.7225
  O  O154  1  0.100800  0.933700  0.851630  1.0  -0.6707
  O  O155  1  0.404770  0.462700  0.782220  1.0  -0.7097
  O  O156  1  0.077880  0.909500  0.725070  1.0  -0.7284
  O  O157  1  0.079970  0.053500  0.993540  1.0  -0.8539
  O  O158  1  0.408300  0.413600  0.059280  1.0  -0.7239
  O  O159  1  0.071600  0.089400  0.624570  1.0  -0.7017
  O  O160  1  0.422350  0.328400  0.954770  1.0  -0.7509
  O  O161  1  0.423800  0.567700  0.933590  1.0  -0.8093
  O  O162  1  0.082770  0.178200  0.519590  1.0  -0.7682
  O  O163  1  0.395780  0.684600  0.015940  1.0  -0.5961
  O  O164  1  0.116280  0.182100  0.087560  1.0  -0.69
