# generated using pymatgen
data_Zn2H14C17N15O4
_symmetry_space_group_name_H-M   'P 1'
_cell_length_a   20.81800000
_cell_length_b   9.88700000
_cell_length_c   17.28100000
_cell_angle_alpha   90.00000000
_cell_angle_beta   90.00000000
_cell_angle_gamma   90.00000000
_symmetry_Int_Tables_number   1
_chemical_formula_structural   Zn2H14C17N15O4
_chemical_formula_sum   'Zn8 H56 C68 N60 O16'
_cell_volume   3556.90616805
_cell_formula_units_Z   4
loop_
 _symmetry_equiv_pos_site_id
 _symmetry_equiv_pos_as_xyz
  1  'x, y, z'
loop_
 _atom_site_type_symbol
 _atom_site_label
 _atom_site_symmetry_multiplicity
 _atom_site_fract_x
 _atom_site_fract_y
 _atom_site_fract_z
 _atom_site_occupancy
 _atom_site_charge
  Zn  Zn1  1  0.183830  0.689730  0.177180  1.0  0.8292
  Zn  Zn2  1  0.816170  0.310270  0.177180  1.0  0.8283
  Zn  Zn3  1  0.316170  0.189730  0.322820  1.0  0.8282
  Zn  Zn4  1  0.683830  0.810270  0.322820  1.0  0.8281
  Zn  Zn5  1  0.816170  0.310270  0.822820  1.0  0.8282
  Zn  Zn6  1  0.183830  0.689730  0.822820  1.0  0.8293
  Zn  Zn7  1  0.683830  0.810270  0.677180  1.0  0.8282
  Zn  Zn8  1  0.316170  0.189730  0.677180  1.0  0.8283
  H  H9  1  0.241300  0.901900  0.387300  1.0  0.3458
  H  H10  1  0.214700  0.780600  0.347500  1.0  0.3554
  H  H11  1  0.121400  0.871600  0.045100  1.0  0.3606
  H  H12  1  0.840500  0.841000  0.336000  1.0  0.1016
  H  H13  1  0.977700  0.612500  0.240100  1.0  0.1103
  H  H14  1  0.876500  0.631300  0.295100  1.0  0.1058
  H  H15  1  0.902500  0.030100  0.317800  1.0  0.1024
  H  H16  1  0.758700  0.098100  0.387300  1.0  0.3448
  H  H17  1  0.785300  0.219400  0.347500  1.0  0.3558
  H  H18  1  0.878600  0.128400  0.045100  1.0  0.3613
  H  H19  1  0.159500  0.159000  0.336000  1.0  0.1019
  H  H20  1  0.022300  0.387500  0.240100  1.0  0.1105
  H  H21  1  0.123500  0.368700  0.295100  1.0  0.1058
  H  H22  1  0.097500  0.969900  0.317800  1.0  0.1028
  H  H23  1  0.258700  0.401900  0.112700  1.0  0.3455
  H  H24  1  0.285300  0.280600  0.152500  1.0  0.3546
  H  H25  1  0.378600  0.371600  0.454900  1.0  0.3603
  H  H26  1  0.659500  0.341000  0.164000  1.0  0.1007
  H  H27  1  0.522300  0.112500  0.259900  1.0  0.1101
  H  H28  1  0.623500  0.131300  0.204900  1.0  0.1061
  H  H29  1  0.597500  0.530100  0.182200  1.0  0.1029
  H  H30  1  0.741300  0.598100  0.112700  1.0  0.3458
  H  H31  1  0.714700  0.719400  0.152500  1.0  0.3552
  H  H32  1  0.621400  0.628400  0.454900  1.0  0.361
  H  H33  1  0.340500  0.659000  0.164000  1.0  0.1013
  H  H34  1  0.477700  0.887500  0.259900  1.0  0.1102
  H  H35  1  0.376500  0.868700  0.204900  1.0  0.1061
  H  H36  1  0.402500  0.469900  0.182200  1.0  0.1026
  H  H37  1  0.758700  0.098100  0.612700  1.0  0.3451
  H  H38  1  0.785300  0.219400  0.652500  1.0  0.3549
  H  H39  1  0.878600  0.128400  0.954900  1.0  0.3605
  H  H40  1  0.159500  0.159000  0.664000  1.0  0.1011
  H  H41  1  0.022300  0.387500  0.759900  1.0  0.1101
  H  H42  1  0.123500  0.368700  0.704900  1.0  0.1061
  H  H43  1  0.097500  0.969900  0.682200  1.0  0.1029
  H  H44  1  0.241300  0.901900  0.612700  1.0  0.3457
  H  H45  1  0.214700  0.780600  0.652500  1.0  0.3549
  H  H46  1  0.121400  0.871600  0.954900  1.0  0.3606
  H  H47  1  0.840500  0.841000  0.664000  1.0  0.1012
  H  H48  1  0.977700  0.612500  0.759900  1.0  0.1103
  H  H49  1  0.876500  0.631300  0.704900  1.0  0.1057
  H  H50  1  0.902500  0.030100  0.682200  1.0  0.1028
  H  H51  1  0.741300  0.598100  0.887300  1.0  0.3451
  H  H52  1  0.714700  0.719400  0.847500  1.0  0.3566
  H  H53  1  0.621400  0.628400  0.545100  1.0  0.3611
  H  H54  1  0.340500  0.659000  0.836000  1.0  0.1017
  H  H55  1  0.477700  0.887500  0.740100  1.0  0.1106
  H  H56  1  0.376500  0.868700  0.795100  1.0  0.1056
  H  H57  1  0.402500  0.469900  0.817800  1.0  0.1028
  H  H58  1  0.258700  0.401900  0.887300  1.0  0.3452
  H  H59  1  0.285300  0.280600  0.847500  1.0  0.3546
  H  H60  1  0.378600  0.371600  0.545100  1.0  0.3612
  H  H61  1  0.659500  0.341000  0.836000  1.0  0.1018
  H  H62  1  0.522300  0.112500  0.740100  1.0  0.1101
  H  H63  1  0.623500  0.131300  0.795100  1.0  0.1062
  H  H64  1  0.597500  0.530100  0.817800  1.0  0.1024
  C  C65  1  0.001600  0.811700  0.244700  1.0  -0.0311
  C  C66  1  0.064900  0.793300  0.203200  1.0  0.6849
  C  C67  1  0.245500  0.914900  0.276100  1.0  0.4999
  C  C68  1  0.880500  0.833000  0.312400  1.0  -0.09
  C  C69  1  0.979300  0.938600  0.269100  1.0  0.0163
  C  C70  1  0.962600  0.696700  0.255900  1.0  -0.08
  C  C71  1  0.902300  0.707500  0.289100  1.0  -0.0973
  C  C72  1  0.918200  0.946400  0.302100  1.0  -0.1052
  C  C73  1  0.998400  0.188300  0.244700  1.0  -0.0305
  C  C74  1  0.935100  0.206700  0.203200  1.0  0.6855
  C  C75  1  0.754500  0.085100  0.276100  1.0  0.4978
  C  C76  1  0.119500  0.167000  0.312400  1.0  -0.0895
  C  C77  1  0.020700  0.061400  0.269100  1.0  0.0158
  C  C78  1  0.037400  0.303300  0.255900  1.0  -0.0804
  C  C79  1  0.097700  0.292500  0.289100  1.0  -0.0962
  C  C80  1  0.081800  0.053600  0.302100  1.0  -0.1047
  C  C81  1  0.498400  0.311700  0.255300  1.0  -0.0324
  C  C82  1  0.435100  0.293300  0.296800  1.0  0.6868
  C  C83  1  0.254500  0.414900  0.223900  1.0  0.4981
  C  C84  1  0.619500  0.333000  0.187600  1.0  -0.0888
  C  C85  1  0.520700  0.438600  0.230900  1.0  0.0154
  C  C86  1  0.537400  0.196700  0.244100  1.0  -0.0799
  C  C87  1  0.597700  0.207500  0.210900  1.0  -0.0967
  C  C88  1  0.581800  0.446400  0.197900  1.0  -0.1077
  C  C89  1  0.501600  0.688300  0.255300  1.0  -0.0316
  C  C90  1  0.564900  0.706700  0.296800  1.0  0.6871
  C  C91  1  0.745500  0.585100  0.223900  1.0  0.5001
  C  C92  1  0.380500  0.667000  0.187600  1.0  -0.0898
  C  C93  1  0.479300  0.561400  0.230900  1.0  0.0159
  C  C94  1  0.462600  0.803300  0.244100  1.0  -0.0811
  C  C95  1  0.402300  0.792500  0.210900  1.0  -0.0968
  C  C96  1  0.418200  0.553600  0.197900  1.0  -0.1032
  C  C97  1  0.998400  0.188300  0.755300  1.0  -0.0318
  C  C98  1  0.935100  0.206700  0.796800  1.0  0.6869
  C  C99  1  0.754500  0.085100  0.723900  1.0  0.498
  C  C100  1  0.119500  0.167000  0.687600  1.0  -0.089
  C  C101  1  0.020700  0.061400  0.730900  1.0  0.0154
  C  C102  1  0.037400  0.303300  0.744100  1.0  -0.0806
  C  C103  1  0.097700  0.292500  0.710900  1.0  -0.0957
  C  C104  1  0.081800  0.053600  0.697900  1.0  -0.1081
  C  C105  1  0.001600  0.811700  0.755300  1.0  -0.0319
  C  C106  1  0.064900  0.793300  0.796800  1.0  0.6868
  C  C107  1  0.245500  0.914900  0.723900  1.0  0.5002
  C  C108  1  0.880500  0.833000  0.687600  1.0  -0.0894
  C  C109  1  0.979300  0.938600  0.730900  1.0  0.016
  C  C110  1  0.962600  0.696700  0.744100  1.0  -0.0801
  C  C111  1  0.902300  0.707500  0.710900  1.0  -0.0977
  C  C112  1  0.918200  0.946400  0.697900  1.0  -0.1031
  C  C113  1  0.501600  0.688300  0.744700  1.0  -0.0306
  C  C114  1  0.564900  0.706700  0.703200  1.0  0.6855
  C  C115  1  0.745500  0.585100  0.776100  1.0  0.4998
  C  C116  1  0.380500  0.667000  0.812400  1.0  -0.0905
  C  C117  1  0.479300  0.561400  0.769100  1.0  0.0162
  C  C118  1  0.462600  0.803300  0.755900  1.0  -0.0807
  C  C119  1  0.402300  0.792500  0.789100  1.0  -0.0969
  C  C120  1  0.418200  0.553600  0.802100  1.0  -0.1066
  C  C121  1  0.498400  0.311700  0.744700  1.0  -0.0313
  C  C122  1  0.435100  0.293300  0.703200  1.0  0.685
  C  C123  1  0.254500  0.414900  0.776100  1.0  0.4979
  C  C124  1  0.619500  0.333000  0.812400  1.0  -0.0891
  C  C125  1  0.520700  0.438600  0.769100  1.0  0.0158
  C  C126  1  0.537400  0.196700  0.755900  1.0  -0.0801
  C  C127  1  0.597700  0.207500  0.789100  1.0  -0.0965
  C  C128  1  0.581800  0.446400  0.802100  1.0  -0.1035
  C  C129  1  0.173100  0.724700  0.000000  1.0  0.5743
  C  C130  1  0.826900  0.275300  0.000000  1.0  0.5748
  C  C131  1  0.326900  0.224700  0.500000  1.0  0.5748
  C  C132  1  0.673100  0.775300  0.500000  1.0  0.5744
  N  N133  1  0.193000  0.662000  0.063500  1.0  -0.3163
  N  N134  1  0.249000  0.949500  0.152800  1.0  -0.0904
  N  N135  1  0.232100  0.859400  0.345300  1.0  -0.7157
  N  N136  1  0.230100  0.560400  0.037100  1.0  -0.1059
  N  N137  1  0.273600  0.054800  0.186400  1.0  -0.0582
  N  N138  1  0.272700  0.037400  0.264400  1.0  -0.2977
  N  N139  1  0.230600  0.859000  0.208100  1.0  -0.291
  N  N140  1  0.807000  0.338000  0.063500  1.0  -0.3164
  N  N141  1  0.751000  0.050500  0.152800  1.0  -0.0916
  N  N142  1  0.767900  0.140600  0.345300  1.0  -0.7137
  N  N143  1  0.769900  0.439600  0.037100  1.0  -0.1052
  N  N144  1  0.726400  0.945200  0.186400  1.0  -0.0587
  N  N145  1  0.727300  0.962600  0.264400  1.0  -0.2971
  N  N146  1  0.769400  0.141000  0.208100  1.0  -0.2893
  N  N147  1  0.307000  0.162000  0.436500  1.0  -0.3144
  N  N148  1  0.251000  0.449500  0.347200  1.0  -0.0952
  N  N149  1  0.267900  0.359400  0.154700  1.0  -0.7148
  N  N150  1  0.269900  0.060400  0.462900  1.0  -0.1059
  N  N151  1  0.226400  0.554800  0.313600  1.0  -0.0561
  N  N152  1  0.227300  0.537400  0.235600  1.0  -0.2986
  N  N153  1  0.269400  0.359000  0.291900  1.0  -0.2893
  N  N154  1  0.693000  0.838000  0.436500  1.0  -0.3146
  N  N155  1  0.749000  0.550500  0.347200  1.0  -0.0944
  N  N156  1  0.732100  0.640600  0.154700  1.0  -0.717
  N  N157  1  0.730100  0.939600  0.462900  1.0  -0.1058
  N  N158  1  0.773600  0.445200  0.313600  1.0  -0.057
  N  N159  1  0.772700  0.462600  0.235600  1.0  -0.2974
  N  N160  1  0.730600  0.641000  0.291900  1.0  -0.2904
  N  N161  1  0.807000  0.338000  0.936500  1.0  -0.3125
  N  N162  1  0.751000  0.050500  0.847200  1.0  -0.0953
  N  N163  1  0.767900  0.140600  0.654700  1.0  -0.7158
  N  N164  1  0.769900  0.439600  0.962900  1.0  -0.1054
  N  N165  1  0.726400  0.945200  0.813600  1.0  -0.0583
  N  N166  1  0.727300  0.962600  0.735600  1.0  -0.2977
  N  N167  1  0.769400  0.141000  0.791900  1.0  -0.2894
  N  N168  1  0.193000  0.662000  0.936500  1.0  -0.3128
  N  N169  1  0.249000  0.949500  0.847200  1.0  -0.0944
  N  N170  1  0.232100  0.859400  0.654700  1.0  -0.7158
  N  N171  1  0.230100  0.560400  0.962900  1.0  -0.106
  N  N172  1  0.273600  0.054800  0.813600  1.0  -0.0568
  N  N173  1  0.272700  0.037400  0.735600  1.0  -0.2985
  N  N174  1  0.230600  0.859000  0.791900  1.0  -0.2903
  N  N175  1  0.693000  0.838000  0.563500  1.0  -0.3147
  N  N176  1  0.749000  0.550500  0.652800  1.0  -0.0906
  N  N177  1  0.732100  0.640600  0.845300  1.0  -0.7153
  N  N178  1  0.730100  0.939600  0.537100  1.0  -0.1023
  N  N179  1  0.773600  0.445200  0.686400  1.0  -0.0575
  N  N180  1  0.772700  0.462600  0.764400  1.0  -0.2971
  N  N181  1  0.730600  0.641000  0.708100  1.0  -0.2902
  N  N182  1  0.307000  0.162000  0.563500  1.0  -0.3143
  N  N183  1  0.251000  0.449500  0.652800  1.0  -0.0917
  N  N184  1  0.267900  0.359400  0.845300  1.0  -0.7142
  N  N185  1  0.269900  0.060400  0.537100  1.0  -0.1036
  N  N186  1  0.226400  0.554800  0.686400  1.0  -0.0568
  N  N187  1  0.227300  0.537400  0.764400  1.0  -0.2976
  N  N188  1  0.269400  0.359000  0.708100  1.0  -0.2895
  N  N189  1  0.134700  0.835600  0.000000  1.0  -0.7214
  N  N190  1  0.865300  0.164400  0.000000  1.0  -0.7219
  N  N191  1  0.365300  0.335600  0.500000  1.0  -0.7223
  N  N192  1  0.634700  0.664400  0.500000  1.0  -0.7208
  O  O193  1  0.097990  0.690900  0.225100  1.0  -0.5953
  O  O194  1  0.080000  0.871800  0.149900  1.0  -0.5646
  O  O195  1  0.902010  0.309100  0.225100  1.0  -0.5968
  O  O196  1  0.920000  0.128200  0.149900  1.0  -0.5662
  O  O197  1  0.402010  0.190900  0.274900  1.0  -0.5968
  O  O198  1  0.420000  0.371800  0.350100  1.0  -0.5654
  O  O199  1  0.597990  0.809100  0.274900  1.0  -0.5964
  O  O200  1  0.580000  0.628200  0.350100  1.0  -0.5649
  O  O201  1  0.902010  0.309100  0.774900  1.0  -0.5966
  O  O202  1  0.920000  0.128200  0.850100  1.0  -0.5648
  O  O203  1  0.097990  0.690900  0.774900  1.0  -0.5957
  O  O204  1  0.080000  0.871800  0.850100  1.0  -0.5653
  O  O205  1  0.597990  0.809100  0.725100  1.0  -0.5959
  O  O206  1  0.580000  0.628200  0.649900  1.0  -0.5656
  O  O207  1  0.402010  0.190900  0.725100  1.0  -0.5968
  O  O208  1  0.420000  0.371800  0.649900  1.0  -0.5654
