# generated using pymatgen
data_Zn2H12C15N15O4
_symmetry_space_group_name_H-M   'P 1'
_cell_length_a   31.92800000
_cell_length_b   16.00300000
_cell_length_c   10.32900000
_cell_angle_alpha   90.00000000
_cell_angle_beta   90.00000000
_cell_angle_gamma   90.00000000
_symmetry_Int_Tables_number   1
_chemical_formula_structural   Zn2H12C15N15O4
_chemical_formula_sum   'Zn8 H48 C60 N60 O16'
_cell_volume   5277.53834494
_cell_formula_units_Z   4
loop_
 _symmetry_equiv_pos_site_id
 _symmetry_equiv_pos_as_xyz
  1  'x, y, z'
loop_
 _atom_site_type_symbol
 _atom_site_label
 _atom_site_symmetry_multiplicity
 _atom_site_fract_x
 _atom_site_fract_y
 _atom_site_fract_z
 _atom_site_occupancy
 _atom_site_charge
  Zn  Zn1  1  0.293470  0.057920  0.398590  1.0  0.9432
  Zn  Zn2  1  0.206530  0.942080  0.898590  1.0  0.9428
  Zn  Zn3  1  0.706530  0.557920  0.601410  1.0  0.9433
  Zn  Zn4  1  0.793470  0.442080  0.101410  1.0  0.9436
  Zn  Zn5  1  0.706530  0.942080  0.601410  1.0  0.9434
  Zn  Zn6  1  0.793470  0.057920  0.101410  1.0  0.9435
  Zn  Zn7  1  0.293470  0.442080  0.398590  1.0  0.9429
  Zn  Zn8  1  0.206530  0.557920  0.898590  1.0  0.943
  H  H9  1  0.354100  0.201300  0.526400  1.0  0.3367
  H  H10  1  0.419700  0.987700  0.279800  1.0  0.1317
  H  H11  1  0.438100  0.052100  0.648900  1.0  0.1305
  H  H12  1  0.509700  0.038800  0.744700  1.0  0.1306
  H  H13  1  0.285600  0.070600  0.822100  1.0  0.339
  H  H14  1  0.309700  0.089100  0.694100  1.0  0.3437
  H  H15  1  0.145900  0.798700  0.026400  1.0  0.3362
  H  H16  1  0.080300  0.012300  0.779800  1.0  0.1319
  H  H17  1  0.061900  0.947900  0.148900  1.0  0.1308
  H  H18  1  0.990300  0.961200  0.244700  1.0  0.1307
  H  H19  1  0.214400  0.929400  0.322100  1.0  0.3394
  H  H20  1  0.190300  0.910900  0.194100  1.0  0.3447
  H  H21  1  0.645900  0.701300  0.473600  1.0  0.3376
  H  H22  1  0.580300  0.487700  0.720200  1.0  0.1312
  H  H23  1  0.561900  0.552100  0.351100  1.0  0.1308
  H  H24  1  0.490300  0.538800  0.255300  1.0  0.1311
  H  H25  1  0.714400  0.570600  0.177900  1.0  0.3383
  H  H26  1  0.690300  0.589100  0.305900  1.0  0.3442
  H  H27  1  0.854100  0.298700  0.973600  1.0  0.3371
  H  H28  1  0.919700  0.512300  0.220200  1.0  0.1311
  H  H29  1  0.938100  0.447900  0.851100  1.0  0.1307
  H  H30  1  0.009700  0.461200  0.755300  1.0  0.1305
  H  H31  1  0.785600  0.429400  0.677900  1.0  0.3374
  H  H32  1  0.809700  0.410900  0.805900  1.0  0.3448
  H  H33  1  0.645900  0.798700  0.473600  1.0  0.3368
  H  H34  1  0.580300  0.012300  0.720200  1.0  0.131
  H  H35  1  0.561900  0.947900  0.351100  1.0  0.1309
  H  H36  1  0.490300  0.961200  0.255300  1.0  0.1306
  H  H37  1  0.714400  0.929400  0.177900  1.0  0.3386
  H  H38  1  0.690300  0.910900  0.305900  1.0  0.3443
  H  H39  1  0.854100  0.201300  0.973600  1.0  0.3373
  H  H40  1  0.919700  0.987700  0.220200  1.0  0.1312
  H  H41  1  0.938100  0.052100  0.851100  1.0  0.1307
  H  H42  1  0.009700  0.038800  0.755300  1.0  0.131
  H  H43  1  0.785600  0.070600  0.677900  1.0  0.3373
  H  H44  1  0.809700  0.089100  0.805900  1.0  0.3446
  H  H45  1  0.354100  0.298700  0.526400  1.0  0.3365
  H  H46  1  0.419700  0.512300  0.279800  1.0  0.1321
  H  H47  1  0.438100  0.447900  0.648900  1.0  0.1305
  H  H48  1  0.509700  0.461200  0.744700  1.0  0.1307
  H  H49  1  0.285600  0.429400  0.822100  1.0  0.3386
  H  H50  1  0.309700  0.410900  0.694100  1.0  0.3441
  H  H51  1  0.145900  0.701300  0.026400  1.0  0.3378
  H  H52  1  0.080300  0.487700  0.779800  1.0  0.1316
  H  H53  1  0.061900  0.552100  0.148900  1.0  0.1308
  H  H54  1  0.990300  0.538800  0.244700  1.0  0.1307
  H  H55  1  0.214400  0.570600  0.322100  1.0  0.3396
  H  H56  1  0.190300  0.589100  0.194100  1.0  0.3444
  C  C57  1  0.376370  0.044300  0.481500  1.0  0.7151
  C  C58  1  0.422130  0.022100  0.467600  1.0  -0.1442
  C  C59  1  0.437790  0.994800  0.349600  1.0  -0.0373
  C  C60  1  0.448740  0.033000  0.570500  1.0  -0.0329
  C  C61  1  0.492340  0.014900  0.559600  1.0  0.0616
  C  C62  1  0.519880  0.022400  0.664300  1.0  -0.0825
  C  C63  1  0.260990  0.014400  0.669900  1.0  0.4525
  C  C64  1  0.123630  0.955700  0.981500  1.0  0.7145
  C  C65  1  0.077870  0.977900  0.967600  1.0  -0.1436
  C  C66  1  0.062210  0.005200  0.849600  1.0  -0.0381
  C  C67  1  0.051260  0.967000  0.070500  1.0  -0.0315
  C  C68  1  0.007660  0.985100  0.059600  1.0  0.0616
  C  C69  1  0.980120  0.977600  0.164300  1.0  -0.081
  C  C70  1  0.239010  0.985600  0.169900  1.0  0.4528
  C  C71  1  0.623630  0.544300  0.518500  1.0  0.7141
  C  C72  1  0.577870  0.522100  0.532400  1.0  -0.144
  C  C73  1  0.562210  0.494800  0.650400  1.0  -0.0387
  C  C74  1  0.551260  0.533000  0.429500  1.0  -0.0316
  C  C75  1  0.507660  0.514900  0.440400  1.0  0.0615
  C  C76  1  0.480120  0.522400  0.335700  1.0  -0.0823
  C  C77  1  0.739010  0.514400  0.330100  1.0  0.4529
  C  C78  1  0.876370  0.455700  0.018500  1.0  0.7149
  C  C79  1  0.922130  0.477900  0.032400  1.0  -0.144
  C  C80  1  0.937790  0.505200  0.150400  1.0  -0.0394
  C  C81  1  0.948740  0.467000  0.929500  1.0  -0.0308
  C  C82  1  0.992340  0.485100  0.940400  1.0  0.0619
  C  C83  1  0.019880  0.477600  0.835700  1.0  -0.0818
  C  C84  1  0.760990  0.485600  0.830100  1.0  0.4531
  C  C85  1  0.623630  0.955700  0.518500  1.0  0.7146
  C  C86  1  0.577870  0.977900  0.532400  1.0  -0.1438
  C  C87  1  0.562210  0.005200  0.650400  1.0  -0.0382
  C  C88  1  0.551260  0.967000  0.429500  1.0  -0.0279
  C  C89  1  0.507660  0.985100  0.440400  1.0  0.0618
  C  C90  1  0.480120  0.977600  0.335700  1.0  -0.0862
  C  C91  1  0.739010  0.985600  0.330100  1.0  0.4532
  C  C92  1  0.876370  0.044300  0.018500  1.0  0.7151
  C  C93  1  0.922130  0.022100  0.032400  1.0  -0.1444
  C  C94  1  0.937790  0.994800  0.150400  1.0  -0.0396
  C  C95  1  0.948740  0.033000  0.929500  1.0  -0.0286
  C  C96  1  0.992340  0.014900  0.940400  1.0  0.0617
  C  C97  1  0.019880  0.022400  0.835700  1.0  -0.0869
  C  C98  1  0.760990  0.014400  0.830100  1.0  0.4529
  C  C99  1  0.376370  0.455700  0.481500  1.0  0.7149
  C  C100  1  0.422130  0.477900  0.467600  1.0  -0.1437
  C  C101  1  0.437790  0.505200  0.349600  1.0  -0.037
  C  C102  1  0.448740  0.467000  0.570500  1.0  -0.0294
  C  C103  1  0.492340  0.485100  0.559600  1.0  0.0618
  C  C104  1  0.519880  0.477600  0.664300  1.0  -0.0865
  C  C105  1  0.260990  0.485600  0.669900  1.0  0.4528
  C  C106  1  0.123630  0.544300  0.981500  1.0  0.7141
  C  C107  1  0.077870  0.522100  0.967600  1.0  -0.1438
  C  C108  1  0.062210  0.494800  0.849600  1.0  -0.0384
  C  C109  1  0.051260  0.533000  0.070500  1.0  -0.0286
  C  C110  1  0.007660  0.514900  0.059600  1.0  0.0613
  C  C111  1  0.980120  0.522400  0.164300  1.0  -0.0862
  C  C112  1  0.239010  0.514400  0.169900  1.0  0.4525
  C  C113  1  0.303710  0.250000  0.443600  1.0  0.5342
  C  C114  1  0.196290  0.750000  0.943600  1.0  0.5337
  C  C115  1  0.696290  0.750000  0.556400  1.0  0.5336
  C  C116  1  0.803710  0.250000  0.056400  1.0  0.5341
  N  N117  1  0.283110  0.180300  0.408000  1.0  -0.3196
  N  N118  1  0.247100  0.209000  0.346100  1.0  -0.1581
  N  N119  1  0.260390  0.003800  0.540400  1.0  -0.2666
  N  N120  1  0.226780  0.954800  0.514400  1.0  -0.1951
  N  N121  1  0.207560  0.936400  0.621600  1.0  -0.1142
  N  N122  1  0.228300  0.973400  0.723300  1.0  -0.303
  N  N123  1  0.288570  0.063800  0.736100  1.0  -0.7373
  N  N124  1  0.216890  0.819700  0.908000  1.0  -0.3193
  N  N125  1  0.252900  0.791000  0.846100  1.0  -0.1581
  N  N126  1  0.239610  0.996200  0.040400  1.0  -0.2678
  N  N127  1  0.273220  0.045200  0.014400  1.0  -0.195
  N  N128  1  0.292440  0.063600  0.121600  1.0  -0.1143
  N  N129  1  0.271700  0.026600  0.223300  1.0  -0.3032
  N  N130  1  0.211430  0.936200  0.236100  1.0  -0.7368
  N  N131  1  0.716890  0.680300  0.592000  1.0  -0.3193
  N  N132  1  0.752900  0.709000  0.653900  1.0  -0.1587
  N  N133  1  0.739610  0.503800  0.459600  1.0  -0.2697
  N  N134  1  0.773220  0.454800  0.485600  1.0  -0.1944
  N  N135  1  0.792440  0.436400  0.378400  1.0  -0.1124
  N  N136  1  0.771700  0.473400  0.276700  1.0  -0.3041
  N  N137  1  0.711430  0.563800  0.263900  1.0  -0.7358
  N  N138  1  0.783110  0.319700  0.092000  1.0  -0.3186
  N  N139  1  0.747100  0.291000  0.153900  1.0  -0.1581
  N  N140  1  0.760390  0.496200  0.959600  1.0  -0.2676
  N  N141  1  0.726780  0.545200  0.985600  1.0  -0.1941
  N  N142  1  0.707560  0.563600  0.878400  1.0  -0.115
  N  N143  1  0.728300  0.526600  0.776700  1.0  -0.3028
  N  N144  1  0.788570  0.436200  0.763900  1.0  -0.7368
  N  N145  1  0.716890  0.819700  0.592000  1.0  -0.3187
  N  N146  1  0.752900  0.791000  0.653900  1.0  -0.1582
  N  N147  1  0.739610  0.996200  0.459600  1.0  -0.2692
  N  N148  1  0.773220  0.045200  0.485600  1.0  -0.1949
  N  N149  1  0.792440  0.063600  0.378400  1.0  -0.1146
  N  N150  1  0.771700  0.026600  0.276700  1.0  -0.3041
  N  N151  1  0.711430  0.936200  0.263900  1.0  -0.7362
  N  N152  1  0.783110  0.180300  0.092000  1.0  -0.3192
  N  N153  1  0.747100  0.209000  0.153900  1.0  -0.1585
  N  N154  1  0.760390  0.003800  0.959600  1.0  -0.2675
  N  N155  1  0.726780  0.954800  0.985600  1.0  -0.1939
  N  N156  1  0.707560  0.936400  0.878400  1.0  -0.114
  N  N157  1  0.728300  0.973400  0.776700  1.0  -0.3029
  N  N158  1  0.788570  0.063800  0.763900  1.0  -0.7364
  N  N159  1  0.283110  0.319700  0.408000  1.0  -0.3196
  N  N160  1  0.247100  0.291000  0.346100  1.0  -0.1568
  N  N161  1  0.260390  0.496200  0.540400  1.0  -0.2667
  N  N162  1  0.226780  0.545200  0.514400  1.0  -0.1943
  N  N163  1  0.207560  0.563600  0.621600  1.0  -0.1149
  N  N164  1  0.228300  0.526600  0.723300  1.0  -0.3026
  N  N165  1  0.288570  0.436200  0.736100  1.0  -0.7372
  N  N166  1  0.216890  0.680300  0.908000  1.0  -0.3199
  N  N167  1  0.252900  0.709000  0.846100  1.0  -0.158
  N  N168  1  0.239610  0.503800  0.040400  1.0  -0.2686
  N  N169  1  0.273220  0.454800  0.014400  1.0  -0.1949
  N  N170  1  0.292440  0.436400  0.121600  1.0  -0.1127
  N  N171  1  0.271700  0.473400  0.223300  1.0  -0.3035
  N  N172  1  0.211430  0.563800  0.236100  1.0  -0.7372
  N  N173  1  0.341620  0.250000  0.506300  1.0  -0.7199
  N  N174  1  0.158380  0.750000  0.006300  1.0  -0.7204
  N  N175  1  0.658380  0.750000  0.493700  1.0  -0.72
  N  N176  1  0.841620  0.250000  0.993700  1.0  -0.7195
  O  O177  1  0.363580  0.080900  0.583500  1.0  -0.5267
  O  O178  1  0.352610  0.026600  0.385700  1.0  -0.5746
  O  O179  1  0.136420  0.919100  0.083500  1.0  -0.5274
  O  O180  1  0.147390  0.973400  0.885700  1.0  -0.576
  O  O181  1  0.636420  0.580900  0.416500  1.0  -0.5251
  O  O182  1  0.647390  0.526600  0.614300  1.0  -0.5766
  O  O183  1  0.863580  0.419100  0.916500  1.0  -0.5241
  O  O184  1  0.852610  0.473400  0.114300  1.0  -0.5758
  O  O185  1  0.636420  0.919100  0.416500  1.0  -0.5248
  O  O186  1  0.647390  0.973400  0.614300  1.0  -0.5767
  O  O187  1  0.863580  0.080900  0.916500  1.0  -0.5243
  O  O188  1  0.852610  0.026600  0.114300  1.0  -0.576
  O  O189  1  0.363580  0.419100  0.583500  1.0  -0.5261
  O  O190  1  0.352610  0.473400  0.385700  1.0  -0.5753
  O  O191  1  0.136420  0.580900  0.083500  1.0  -0.5279
  O  O192  1  0.147390  0.526600  0.885700  1.0  -0.5756
