# generated using pymatgen
data_Eu4H12C36S6O25
_symmetry_space_group_name_H-M   'P 1'
_cell_length_a   11.25470000
_cell_length_b   17.56640000
_cell_length_c   16.84960000
_cell_angle_alpha   90.00000000
_cell_angle_beta   93.47300000
_cell_angle_gamma   90.00000000
_symmetry_Int_Tables_number   1
_chemical_formula_structural   Eu4H12C36S6O25
_chemical_formula_sum   'Eu8 H24 C72 S12 O50'
_cell_volume   3325.12481540
_cell_formula_units_Z   2
loop_
 _symmetry_equiv_pos_site_id
 _symmetry_equiv_pos_as_xyz
  1  'x, y, z'
loop_
 _atom_site_type_symbol
 _atom_site_label
 _atom_site_symmetry_multiplicity
 _atom_site_fract_x
 _atom_site_fract_y
 _atom_site_fract_z
 _atom_site_occupancy
 _atom_site_charge
  Eu  Eu1  1  0.304550  0.254480  0.466610  1.0  2.1823
  Eu  Eu2  1  0.152320  0.246790  0.689490  1.0  2.1149
  Eu  Eu3  1  0.178310  0.249100  0.969520  1.0  2.1452
  Eu  Eu4  1  0.379640  0.245150  0.179970  1.0  2.1822
  Eu  Eu5  1  0.695450  0.754480  0.533390  1.0  2.1826
  Eu  Eu6  1  0.847680  0.746790  0.310510  1.0  2.1177
  Eu  Eu7  1  0.821690  0.749100  0.030480  1.0  2.1454
  Eu  Eu8  1  0.620360  0.745150  0.820030  1.0  2.1859
  H  H9  1  0.619000  0.945200  0.215800  1.0  0.1154
  H  H10  1  0.525300  0.071200  0.209900  1.0  0.1188
  H  H11  1  0.009200  0.943900  0.359700  1.0  0.1164
  H  H12  1  0.101700  0.068300  0.386100  1.0  0.119
  H  H13  1  0.608600  0.973300  0.549900  1.0  0.1219
  H  H14  1  0.493800  0.091000  0.531800  1.0  0.1192
  H  H15  1  0.990200  0.580900  0.969500  1.0  0.1134
  H  H16  1  0.089300  0.461400  0.952700  1.0  0.1281
  H  H17  1  0.616800  0.549200  0.121800  1.0  0.1193
  H  H18  1  0.523500  0.423500  0.134500  1.0  0.1119
  H  H19  1  0.079000  0.564100  0.295900  1.0  0.1262
  H  H20  1  0.171600  0.439700  0.284300  1.0  0.1191
  H  H21  1  0.381000  0.445200  0.784200  1.0  0.1151
  H  H22  1  0.474700  0.571200  0.790100  1.0  0.1189
  H  H23  1  0.990800  0.443900  0.640300  1.0  0.1188
  H  H24  1  0.898300  0.568300  0.613900  1.0  0.1188
  H  H25  1  0.391400  0.473300  0.450100  1.0  0.1215
  H  H26  1  0.506200  0.591000  0.468200  1.0  0.1189
  H  H27  1  0.009800  0.080900  0.030500  1.0  0.1134
  H  H28  1  0.910700  0.961400  0.047300  1.0  0.1284
  H  H29  1  0.383200  0.049200  0.878200  1.0  0.1195
  H  H30  1  0.476500  0.923500  0.865500  1.0  0.1124
  H  H31  1  0.921000  0.064100  0.704100  1.0  0.1267
  H  H32  1  0.828400  0.939700  0.715700  1.0  0.1186
  C  C33  1  0.629600  0.862000  0.359100  1.0  0.7773
  C  C34  1  0.573700  0.933400  0.330200  1.0  -0.202
  C  C35  1  0.581900  0.967200  0.257900  1.0  -0.0733
  C  C36  1  0.526900  0.040100  0.254600  1.0  -0.063
  C  C37  1  0.477300  0.059500  0.322600  1.0  -0.1992
  C  C38  1  0.420400  0.133000  0.343000  1.0  0.7249
  C  C39  1  0.886900  0.869400  0.475500  1.0  0.7968
  C  C40  1  0.949300  0.942200  0.469600  1.0  -0.2
  C  C41  1  0.005300  0.969800  0.407700  1.0  -0.0425
  C  C42  1  0.058000  0.042100  0.422400  1.0  -0.0586
  C  C43  1  0.036700  0.068200  0.496000  1.0  -0.1946
  C  C44  1  0.077200  0.141800  0.530900  1.0  0.7551
  C  C45  1  0.575700  0.875800  0.677000  1.0  0.7944
  C  C46  1  0.530100  0.952600  0.651800  1.0  -0.202
  C  C47  1  0.554600  0.990500  0.585600  1.0  -0.0653
  C  C48  1  0.489700  0.059100  0.575600  1.0  -0.0632
  C  C49  1  0.420900  0.072900  0.637300  1.0  -0.1992
  C  C50  1  0.338900  0.138000  0.648800  1.0  0.7752
  C  C51  1  0.819000  0.633700  0.853300  1.0  0.7905
  C  C52  1  0.898800  0.567000  0.862100  1.0  -0.1895
  C  C53  1  0.976900  0.549800  0.925100  1.0  -0.0463
  C  C54  1  0.033500  0.481000  0.915100  1.0  -0.0565
  C  C55  1  0.001300  0.444400  0.846200  1.0  -0.1797
  C  C56  1  0.046300  0.367100  0.823100  1.0  0.7415
  C  C57  1  0.584700  0.633900  0.981500  1.0  0.7818
  C  C58  1  0.541100  0.560000  0.010900  1.0  -0.1996
  C  C59  1  0.567400  0.527000  0.082000  1.0  -0.0454
  C  C60  1  0.512400  0.454800  0.090100  1.0  -0.0621
  C  C61  1  0.441500  0.437600  0.024800  1.0  -0.1909
  C  C62  1  0.368900  0.367200  0.011400  1.0  0.771
  C  C63  1  0.942100  0.627500  0.169600  1.0  0.793
  C  C64  1  0.001400  0.553700  0.183500  1.0  -0.1826
  C  C65  1  0.069600  0.533500  0.250900  1.0  -0.0525
  C  C66  1  0.123000  0.462200  0.244300  1.0  -0.0514
  C  C67  1  0.095000  0.429400  0.171400  1.0  -0.2029
  C  C68  1  0.140000  0.356700  0.139700  1.0  0.7443
  C  C69  1  0.370400  0.362000  0.640900  1.0  0.7787
  C  C70  1  0.426300  0.433400  0.669800  1.0  -0.2013
  C  C71  1  0.418100  0.467200  0.742100  1.0  -0.072
  C  C72  1  0.473100  0.540100  0.745400  1.0  -0.0627
  C  C73  1  0.522700  0.559500  0.677400  1.0  -0.1997
  C  C74  1  0.579600  0.633000  0.657000  1.0  0.724
  C  C75  1  0.113100  0.369400  0.524500  1.0  0.795
  C  C76  1  0.050700  0.442200  0.530400  1.0  -0.1974
  C  C77  1  0.994700  0.469800  0.592300  1.0  -0.042
  C  C78  1  0.942000  0.542100  0.577600  1.0  -0.0601
  C  C79  1  0.963300  0.568200  0.504000  1.0  -0.1966
  C  C80  1  0.922800  0.641800  0.469100  1.0  0.7558
  C  C81  1  0.424300  0.375800  0.323000  1.0  0.7958
  C  C82  1  0.469900  0.452600  0.348200  1.0  -0.2002
  C  C83  1  0.445400  0.490500  0.414400  1.0  -0.0644
  C  C84  1  0.510300  0.559100  0.424400  1.0  -0.0633
  C  C85  1  0.579100  0.572900  0.362700  1.0  -0.197
  C  C86  1  0.661100  0.638000  0.351200  1.0  0.7738
  C  C87  1  0.181000  0.133700  0.146700  1.0  0.789
  C  C88  1  0.101200  0.067000  0.137900  1.0  -0.1899
  C  C89  1  0.023100  0.049800  0.074900  1.0  -0.0448
  C  C90  1  0.966500  0.981000  0.084900  1.0  -0.0567
  C  C91  1  0.998700  0.944400  0.153800  1.0  -0.178
  C  C92  1  0.953700  0.867100  0.176900  1.0  0.7427
  C  C93  1  0.415300  0.133900  0.018500  1.0  0.7827
  C  C94  1  0.458900  0.060000  0.989100  1.0  -0.1996
  C  C95  1  0.432600  0.027000  0.918000  1.0  -0.0448
  C  C96  1  0.487600  0.954800  0.909900  1.0  -0.062
  C  C97  1  0.558500  0.937600  0.975200  1.0  -0.1917
  C  C98  1  0.631100  0.867200  0.988600  1.0  0.7709
  C  C99  1  0.057900  0.127500  0.830400  1.0  0.7929
  C  C100  1  0.998600  0.053700  0.816500  1.0  -0.1824
  C  C101  1  0.930400  0.033500  0.749100  1.0  -0.0524
  C  C102  1  0.877000  0.962200  0.755700  1.0  -0.052
  C  C103  1  0.905000  0.929400  0.828600  1.0  -0.2027
  C  C104  1  0.860000  0.856700  0.860300  1.0  0.7455
  S  S105  1  0.494300  0.989110  0.392000  1.0  0.169
  S  S106  1  0.957200  0.005100  0.547770  1.0  0.1699
  S  S107  1  0.433100  0.002340  0.707200  1.0  0.1842
  S  S108  1  0.898900  0.497650  0.789480  1.0  0.1537
  S  S109  1  0.443200  0.506150  0.952820  1.0  0.1852
  S  S110  1  0.004100  0.485780  0.112030  1.0  0.1716
  S  S111  1  0.505700  0.489110  0.608000  1.0  0.1699
  S  S112  1  0.042800  0.505100  0.452230  1.0  0.1718
  S  S113  1  0.566900  0.502340  0.292800  1.0  0.1855
  S  S114  1  0.101100  0.997650  0.210520  1.0  0.1504
  S  S115  1  0.556800  0.006150  0.047180  1.0  0.1836
  S  S116  1  0.995900  0.985780  0.887970  1.0  0.1715
  O  O117  1  0.680700  0.825100  0.307200  1.0  -0.7113
  O  O118  1  0.625500  0.846200  0.431000  1.0  -0.7052
  O  O119  1  0.444000  0.187700  0.296500  1.0  -0.7193
  O  O120  1  0.362800  0.138100  0.402100  1.0  -0.5775
  O  O121  1  0.892600  0.824100  0.416600  1.0  -0.7562
  O  O122  1  0.835600  0.855800  0.537300  1.0  -0.6243
  O  O123  1  0.134200  0.184100  0.484800  1.0  -0.7239
  O  O124  1  0.055700  0.157400  0.600900  1.0  -0.6563
  O  O125  1  0.626500  0.839400  0.626600  1.0  -0.7259
  O  O126  1  0.561500  0.855500  0.745900  1.0  -0.6677
  O  O127  1  0.320400  0.185100  0.593500  1.0  -0.8289
  O  O128  1  0.290000  0.142100  0.713300  1.0  -0.5993
  O  O129  1  0.761200  0.644200  0.788300  1.0  -0.6296
  O  O130  1  0.811700  0.677900  0.911900  1.0  -0.8377
  O  O131  1  0.052100  0.351000  0.750800  1.0  -0.6701
  O  O132  1  0.074500  0.325900  0.879300  1.0  -0.7209
  O  O133  1  0.643900  0.674500  0.031100  1.0  -0.7107
  O  O134  1  0.560800  0.650200  0.909900  1.0  -0.7417
  O  O135  1  0.371100  0.317800  0.065400  1.0  -0.8328
  O  O136  1  0.309000  0.360100  0.947200  1.0  -0.6084
  O  O137  1  0.884300  0.637900  0.103200  1.0  -0.6712
  O  O138  1  0.953000  0.676200  0.223600  1.0  -0.6868
  O  O139  1  0.119700  0.342600  0.067700  1.0  -0.721
  O  O140  1  0.201300  0.315000  0.189700  1.0  -0.6936
  O  O141  1  0.276600  0.249200  0.830000  1.0  -0.497
  O  O142  1  0.319300  0.325100  0.692800  1.0  -0.7093
  O  O143  1  0.374500  0.346200  0.569000  1.0  -0.706
  O  O144  1  0.556000  0.687700  0.703500  1.0  -0.7211
  O  O145  1  0.637200  0.638100  0.597900  1.0  -0.5787
  O  O146  1  0.107400  0.324100  0.583400  1.0  -0.7569
  O  O147  1  0.164400  0.355800  0.462700  1.0  -0.6241
  O  O148  1  0.865800  0.684100  0.515200  1.0  -0.7233
  O  O149  1  0.944300  0.657400  0.399100  1.0  -0.6578
  O  O150  1  0.373500  0.339400  0.373400  1.0  -0.7241
  O  O151  1  0.438500  0.355500  0.254100  1.0  -0.6679
  O  O152  1  0.679600  0.685100  0.406500  1.0  -0.8318
  O  O153  1  0.710000  0.642100  0.286700  1.0  -0.6005
  O  O154  1  0.238800  0.144200  0.211700  1.0  -0.6292
  O  O155  1  0.188300  0.177900  0.088100  1.0  -0.8367
  O  O156  1  0.947900  0.851000  0.249200  1.0  -0.6695
  O  O157  1  0.925500  0.825900  0.120700  1.0  -0.7198
  O  O158  1  0.356100  0.174500  0.968900  1.0  -0.7099
  O  O159  1  0.439200  0.150200  0.090100  1.0  -0.7409
  O  O160  1  0.628900  0.817800  0.934600  1.0  -0.833
  O  O161  1  0.691000  0.860100  0.052800  1.0  -0.6084
  O  O162  1  0.115700  0.137900  0.896800  1.0  -0.6734
  O  O163  1  0.047000  0.176200  0.776400  1.0  -0.6866
  O  O164  1  0.880300  0.842600  0.932300  1.0  -0.7202
  O  O165  1  0.798700  0.815000  0.810300  1.0  -0.6942
  O  O166  1  0.723400  0.749200  0.170000  1.0  -0.4986
