# generated using pymatgen
data_Sm6H20C54S9O37
_symmetry_space_group_name_H-M   'P 1'
_cell_length_a   50.64100000
_cell_length_b   11.35300000
_cell_length_c   17.52770000
_cell_angle_alpha   90.00000000
_cell_angle_beta   90.00000000
_cell_angle_gamma   90.00000000
_symmetry_Int_Tables_number   1
_chemical_formula_structural   Sm6H20C54S9O37
_chemical_formula_sum   'Sm24 H80 C216 S36 O148'
_cell_volume   10077.15276296
_cell_formula_units_Z   4
loop_
 _symmetry_equiv_pos_site_id
 _symmetry_equiv_pos_as_xyz
  1  'x, y, z'
loop_
 _atom_site_type_symbol
 _atom_site_label
 _atom_site_symmetry_multiplicity
 _atom_site_fract_x
 _atom_site_fract_y
 _atom_site_fract_z
 _atom_site_occupancy
 _atom_site_charge
  Sm  Sm1  1  0.488780  0.806390  0.532420  1.0  2.309
  Sm  Sm2  1  0.562890  0.635350  0.525520  1.0  2.2876
  Sm  Sm3  1  0.655780  0.635780  0.527060  1.0  2.2879
  Sm  Sm4  1  0.726840  0.814700  0.523680  1.0  2.3152
  Sm  Sm5  1  0.606020  0.089370  0.022280  1.0  2.3093
  Sm  Sm6  1  0.676650  0.267120  0.027540  1.0  2.3083
  Sm  Sm7  1  0.511220  0.193610  0.032420  1.0  2.3097
  Sm  Sm8  1  0.437110  0.364650  0.025520  1.0  2.2889
  Sm  Sm9  1  0.344220  0.364220  0.027060  1.0  2.2857
  Sm  Sm10  1  0.273160  0.185300  0.023680  1.0  2.3153
  Sm  Sm11  1  0.393980  0.910630  0.522280  1.0  2.3064
  Sm  Sm12  1  0.323350  0.732880  0.527540  1.0  2.3087
  Sm  Sm13  1  0.988780  0.693610  0.532420  1.0  2.3095
  Sm  Sm14  1  0.062890  0.864650  0.525520  1.0  2.2868
  Sm  Sm15  1  0.155780  0.864220  0.527060  1.0  2.2866
  Sm  Sm16  1  0.226840  0.685300  0.523680  1.0  2.3139
  Sm  Sm17  1  0.106020  0.410630  0.022280  1.0  2.3065
  Sm  Sm18  1  0.176650  0.232880  0.027540  1.0  2.3082
  Sm  Sm19  1  0.011220  0.306390  0.032420  1.0  2.3093
  Sm  Sm20  1  0.937110  0.135350  0.025520  1.0  2.2897
  Sm  Sm21  1  0.844220  0.135780  0.027060  1.0  2.2871
  Sm  Sm22  1  0.773160  0.314700  0.023680  1.0  2.3137
  Sm  Sm23  1  0.893980  0.589370  0.522280  1.0  2.3092
  Sm  Sm24  1  0.823350  0.767120  0.527540  1.0  2.309
  H  H25  1  0.461800  0.603700  0.349800  1.0  0.1019
  H  H26  1  0.452800  0.515200  0.224600  1.0  0.1027
  H  H27  1  0.511100  0.990900  0.371400  1.0  0.0974
  H  H28  1  0.516400  0.101000  0.252100  1.0  0.1068
  H  H29  1  0.593500  0.857300  0.725400  1.0  0.1011
  H  H30  1  0.595300  0.949900  0.850500  1.0  0.1003
  H  H31  1  0.567500  0.407200  0.342000  1.0  0.1094
  H  H32  1  0.571200  0.308000  0.218900  1.0  0.0998
  H  H33  1  0.650000  0.547100  0.740300  1.0  0.1096
  H  H34  1  0.655500  0.442700  0.860800  1.0  0.0974
  H  H35  1  0.625200  0.847800  0.329200  1.0  0.1047
  H  H36  1  0.620300  0.950300  0.206100  1.0  0.1031
  H  H37  1  0.761400  0.579600  0.710200  1.0  0.107
  H  H38  1  0.765700  0.480800  0.833300  1.0  0.1047
  H  H39  1  0.675200  0.467000  0.359400  1.0  0.0942
  H  H40  1  0.680500  0.360700  0.239700  1.0  0.1081
  H  H41  1  0.705900  0.060700  0.825600  1.0  0.1046
  H  H42  1  0.711200  0.960100  0.703100  1.0  0.1048
  H  H43  1  0.611800  0.776000  0.570000  1.0  0.4516
  H  H44  1  0.608900  0.795000  0.492000  1.0  0.4177
  H  H45  1  0.538200  0.396300  0.849800  1.0  0.1011
  H  H46  1  0.547200  0.484800  0.724600  1.0  0.1026
  H  H47  1  0.488900  0.009100  0.871400  1.0  0.097
  H  H48  1  0.483600  0.899000  0.752100  1.0  0.1064
  H  H49  1  0.406500  0.142700  0.225400  1.0  0.101
  H  H50  1  0.404700  0.050100  0.350500  1.0  0.0998
  H  H51  1  0.432500  0.592800  0.842000  1.0  0.1091
  H  H52  1  0.428800  0.692000  0.718900  1.0  0.0998
  H  H53  1  0.350000  0.452900  0.240300  1.0  0.1095
  H  H54  1  0.344500  0.557300  0.360800  1.0  0.0975
  H  H55  1  0.374800  0.152200  0.829200  1.0  0.1052
  H  H56  1  0.379700  0.049700  0.706100  1.0  0.1032
  H  H57  1  0.238600  0.420400  0.210200  1.0  0.1074
  H  H58  1  0.234300  0.519200  0.333333  1.0  0.1049
  H  H59  1  0.324800  0.533000  0.859400  1.0  0.0938
  H  H60  1  0.319500  0.639300  0.739700  1.0  0.1088
  H  H61  1  0.294100  0.939300  0.325600  1.0  0.1039
  H  H62  1  0.288800  0.039900  0.203100  1.0  0.1046
  H  H63  1  0.388200  0.224000  0.070000  1.0  0.4523
  H  H64  1  0.391100  0.205000  0.992000  1.0  0.4168
  H  H65  1  0.961800  0.896300  0.349800  1.0  0.1013
  H  H66  1  0.952800  0.984800  0.224600  1.0  0.1025
  H  H67  1  0.011100  0.509100  0.371400  1.0  0.0972
  H  H68  1  0.016400  0.399000  0.252100  1.0  0.1061
  H  H69  1  0.093500  0.642700  0.725400  1.0  0.1009
  H  H70  1  0.095300  0.550100  0.850500  1.0  0.0999
  H  H71  1  0.067500  0.092800  0.342000  1.0  0.1091
  H  H72  1  0.071200  0.192000  0.218900  1.0  0.0997
  H  H73  1  0.150000  0.952900  0.740300  1.0  0.1097
  H  H74  1  0.155500  0.057300  0.860800  1.0  0.0976
  H  H75  1  0.125200  0.652200  0.329200  1.0  0.1049
  H  H76  1  0.120300  0.549700  0.206100  1.0  0.1038
  H  H77  1  0.261400  0.920400  0.710200  1.0  0.1073
  H  H78  1  0.265700  0.019200  0.833300  1.0  0.1049
  H  H79  1  0.175200  0.033000  0.359400  1.0  0.0944
  H  H80  1  0.180500  0.139300  0.239700  1.0  0.1084
  H  H81  1  0.205900  0.439300  0.825600  1.0  0.1042
  H  H82  1  0.211200  0.539900  0.703100  1.0  0.1046
  H  H83  1  0.111800  0.724000  0.570000  1.0  0.4522
  H  H84  1  0.108900  0.705000  0.492000  1.0  0.4169
  H  H85  1  0.038200  0.103700  0.849800  1.0  0.1014
  H  H86  1  0.047200  0.015200  0.724600  1.0  0.1024
  H  H87  1  0.988900  0.490900  0.871400  1.0  0.097
  H  H88  1  0.983600  0.601000  0.752100  1.0  0.1065
  H  H89  1  0.906500  0.357300  0.225400  1.0  0.1011
  H  H90  1  0.904700  0.449900  0.350500  1.0  0.1002
  H  H91  1  0.932500  0.907200  0.842000  1.0  0.1094
  H  H92  1  0.928800  0.808000  0.718900  1.0  0.0999
  H  H93  1  0.850000  0.047100  0.240300  1.0  0.1099
  H  H94  1  0.844500  0.942700  0.360800  1.0  0.0975
  H  H95  1  0.874800  0.347800  0.829200  1.0  0.1051
  H  H96  1  0.879700  0.450300  0.706100  1.0  0.1031
  H  H97  1  0.738600  0.079600  0.210200  1.0  0.1072
  H  H98  1  0.734300  0.980800  0.333333  1.0  0.1047
  H  H99  1  0.824800  0.967000  0.859400  1.0  0.0938
  H  H100  1  0.819500  0.860700  0.739700  1.0  0.1089
  H  H101  1  0.794100  0.560700  0.325600  1.0  0.1045
  H  H102  1  0.788800  0.460100  0.203100  1.0  0.1049
  H  H103  1  0.888200  0.276000  0.070000  1.0  0.4518
  H  H104  1  0.891100  0.295000  0.992000  1.0  0.4175
  C  C105  1  0.509820  0.573600  0.421800  1.0  0.7647
  C  C106  1  0.498400  0.532900  0.349000  1.0  -0.2144
  C  C107  1  0.473910  0.558400  0.323000  1.0  -0.0532
  C  C108  1  0.468820  0.508400  0.250400  1.0  -0.0663
  C  C109  1  0.489860  0.450000  0.223200  1.0  -0.225
  C  C110  1  0.491970  0.387300  0.149200  1.0  0.7822
  C  C111  1  0.549320  0.821700  0.415500  1.0  0.7615
  C  C112  1  0.545410  0.905100  0.350900  1.0  -0.2065
  C  C113  1  0.525310  0.981200  0.338400  1.0  -0.0733
  C  C114  1  0.528350  0.044400  0.269100  1.0  -0.0801
  C  C115  1  0.550120  0.014100  0.230700  1.0  -0.2072
  C  C116  1  0.558380  0.059200  0.155400  1.0  0.7737
  C  C117  1  0.546720  0.856700  0.640300  1.0  0.7767
  C  C118  1  0.556110  0.912500  0.711700  1.0  -0.2164
  C  C119  1  0.579470  0.898700  0.746700  1.0  -0.0729
  C  C120  1  0.580610  0.953000  0.818700  1.0  -0.0759
  C  C121  1  0.558250  0.009800  0.836500  1.0  -0.2128
  C  C122  1  0.551670  0.067700  0.910800  1.0  0.7422
  C  C123  1  0.609770  0.530700  0.405500  1.0  0.7897
  C  C124  1  0.604690  0.468800  0.332100  1.0  -0.2129
  C  C125  1  0.582580  0.409900  0.311800  1.0  -0.0665
  C  C126  1  0.584580  0.353000  0.240700  1.0  -0.0678
  C  C127  1  0.608680  0.372400  0.207900  1.0  -0.2142
  C  C128  1  0.619280  0.323300  0.135900  1.0  0.7505
  C  C129  1  0.606660  0.517800  0.648400  1.0  0.7466
  C  C130  1  0.614440  0.471100  0.724100  1.0  -0.2018
  C  C131  1  0.637490  0.495500  0.759800  1.0  -0.0846
  C  C132  1  0.640700  0.435100  0.829700  1.0  -0.0708
  C  C133  1  0.619880  0.365000  0.846300  1.0  -0.2067
  C  C134  1  0.617170  0.286400  0.912500  1.0  0.768
  C  C135  1  0.672440  0.866300  0.412800  1.0  0.7812
  C  C136  1  0.662250  0.918400  0.340500  1.0  -0.2094
  C  C137  1  0.638150  0.895600  0.307600  1.0  -0.0857
  C  C138  1  0.635400  0.954300  0.236200  1.0  -0.066
  C  C139  1  0.657130  0.016400  0.217200  1.0  -0.203
  C  C140  1  0.661850  0.084800  0.147000  1.0  0.7512
  C  C141  1  0.712630  0.579000  0.633100  1.0  0.8022
  C  C142  1  0.722920  0.531000  0.705100  1.0  -0.2206
  C  C143  1  0.747620  0.540700  0.734500  1.0  -0.0563
  C  C144  1  0.749930  0.484800  0.806000  1.0  -0.0733
  C  C145  1  0.726970  0.437800  0.830800  1.0  -0.2167
  C  C146  1  0.721680  0.384300  0.905900  1.0  0.7685
  C  C147  1  0.714380  0.621700  0.410900  1.0  0.7716
  C  C148  1  0.711360  0.541800  0.345100  1.0  -0.1981
  C  C149  1  0.690060  0.472600  0.328600  1.0  -0.0712
  C  C150  1  0.693250  0.410700  0.259800  1.0  -0.0759
  C  C151  1  0.716840  0.431500  0.225700  1.0  -0.2041
  C  C152  1  0.725190  0.384600  0.149700  1.0  0.7362
  C  C153  1  0.658920  0.041700  0.909400  1.0  0.7729
  C  C154  1  0.668870  0.993800  0.835300  1.0  -0.211
  C  C155  1  0.692910  0.014000  0.803400  1.0  -0.0637
  C  C156  1  0.695980  0.955900  0.732700  1.0  -0.0586
  C  C157  1  0.674070  0.892900  0.713000  1.0  -0.2091
  C  C158  1  0.669900  0.820800  0.644100  1.0  0.7923
  C  C159  1  0.490180  0.426400  0.921800  1.0  0.7649
  C  C160  1  0.501600  0.467100  0.849000  1.0  -0.2154
  C  C161  1  0.526090  0.441600  0.823000  1.0  -0.0545
  C  C162  1  0.531180  0.491600  0.750400  1.0  -0.0671
  C  C163  1  0.510140  0.550000  0.723200  1.0  -0.2245
  C  C164  1  0.508030  0.612700  0.649200  1.0  0.7821
  C  C165  1  0.450680  0.178300  0.915500  1.0  0.7614
  C  C166  1  0.454590  0.094900  0.850900  1.0  -0.2079
  C  C167  1  0.474690  0.018800  0.838400  1.0  -0.0725
  C  C168  1  0.471650  0.955600  0.769100  1.0  -0.08
  C  C169  1  0.449880  0.985900  0.730700  1.0  -0.2099
  C  C170  1  0.441620  0.940800  0.655400  1.0  0.7734
  C  C171  1  0.453280  0.143300  0.140300  1.0  0.777
  C  C172  1  0.443890  0.087500  0.211700  1.0  -0.2151
  C  C173  1  0.420530  0.101300  0.246700  1.0  -0.0725
  C  C174  1  0.419390  0.047000  0.318700  1.0  -0.0753
  C  C175  1  0.441750  0.990200  0.336500  1.0  -0.2118
  C  C176  1  0.448330  0.932300  0.410800  1.0  0.7417
  C  C177  1  0.390230  0.469300  0.905500  1.0  0.7904
  C  C178  1  0.395310  0.531200  0.832100  1.0  -0.2148
  C  C179  1  0.417420  0.590100  0.811800  1.0  -0.067
  C  C180  1  0.415420  0.647000  0.740700  1.0  -0.0688
  C  C181  1  0.391320  0.627600  0.707900  1.0  -0.2161
  C  C182  1  0.380720  0.676700  0.635900  1.0  0.7496
  C  C183  1  0.393340  0.482200  0.148400  1.0  0.7476
  C  C184  1  0.385560  0.528900  0.224100  1.0  -0.2012
  C  C185  1  0.362510  0.504500  0.259800  1.0  -0.0839
  C  C186  1  0.359300  0.564900  0.329700  1.0  -0.0706
  C  C187  1  0.380120  0.635000  0.346300  1.0  -0.2067
  C  C188  1  0.382830  0.713600  0.412500  1.0  0.7688
  C  C189  1  0.327560  0.133700  0.912800  1.0  0.7833
  C  C190  1  0.337750  0.081600  0.840500  1.0  -0.2104
  C  C191  1  0.361850  0.104400  0.807600  1.0  -0.0859
  C  C192  1  0.364600  0.045700  0.736200  1.0  -0.0662
  C  C193  1  0.342870  0.983600  0.717200  1.0  -0.2041
  C  C194  1  0.338150  0.915200  0.647000  1.0  0.7518
  C  C195  1  0.287370  0.421000  0.133100  1.0  0.8033
  C  C196  1  0.277080  0.469000  0.205100  1.0  -0.2183
  C  C197  1  0.252380  0.459300  0.234500  1.0  -0.0563
  C  C198  1  0.250070  0.515200  0.306000  1.0  -0.0723
  C  C199  1  0.273030  0.562200  0.330800  1.0  -0.2156
  C  C200  1  0.278320  0.615700  0.405900  1.0  0.7693
  C  C201  1  0.285620  0.378300  0.910900  1.0  0.7711
  C  C202  1  0.288640  0.458200  0.845100  1.0  -0.1984
  C  C203  1  0.309940  0.527400  0.828600  1.0  -0.0713
  C  C204  1  0.306750  0.589300  0.759800  1.0  -0.0763
  C  C205  1  0.283160  0.568500  0.725700  1.0  -0.2044
  C  C206  1  0.274810  0.615400  0.649700  1.0  0.7357
  C  C207  1  0.341080  0.958300  0.409400  1.0  0.7719
  C  C208  1  0.331130  0.006200  0.335300  1.0  -0.2079
  C  C209  1  0.307090  0.986000  0.303400  1.0  -0.0634
  C  C210  1  0.304020  0.044100  0.232700  1.0  -0.0582
  C  C211  1  0.325930  0.107100  0.213000  1.0  -0.2052
  C  C212  1  0.330100  0.179200  0.144100  1.0  0.7932
  C  C213  1  0.009820  0.926400  0.421800  1.0  0.7642
  C  C214  1  0.998400  0.967100  0.349000  1.0  -0.2144
  C  C215  1  0.973910  0.941600  0.323000  1.0  -0.0533
  C  C216  1  0.968820  0.991600  0.250400  1.0  -0.0662
  C  C217  1  0.989860  0.050000  0.223200  1.0  -0.2247
  C  C218  1  0.991970  0.112700  0.149200  1.0  0.7821
  C  C219  1  0.049320  0.678300  0.415500  1.0  0.7613
  C  C220  1  0.045410  0.594900  0.350900  1.0  -0.2062
  C  C221  1  0.025310  0.518800  0.338400  1.0  -0.0728
  C  C222  1  0.028350  0.455600  0.269100  1.0  -0.0798
  C  C223  1  0.050120  0.485900  0.230700  1.0  -0.208
  C  C224  1  0.058380  0.440800  0.155400  1.0  0.7744
  C  C225  1  0.046720  0.643300  0.640300  1.0  0.7777
  C  C226  1  0.056110  0.587500  0.711700  1.0  -0.2158
  C  C227  1  0.079470  0.601300  0.746700  1.0  -0.0726
  C  C228  1  0.080610  0.547000  0.818700  1.0  -0.0758
  C  C229  1  0.058250  0.490200  0.836500  1.0  -0.2132
  C  C230  1  0.051670  0.432300  0.910800  1.0  0.7425
  C  C231  1  0.109770  0.969300  0.405500  1.0  0.7894
  C  C232  1  0.104690  0.031200  0.332100  1.0  -0.2132
  C  C233  1  0.082580  0.090100  0.311800  1.0  -0.0667
  C  C234  1  0.084580  0.147000  0.240700  1.0  -0.0681
  C  C235  1  0.108680  0.127600  0.207900  1.0  -0.215
  C  C236  1  0.119280  0.176700  0.135900  1.0  0.7508
  C  C237  1  0.106660  0.982200  0.648400  1.0  0.7472
  C  C238  1  0.114440  0.028900  0.724100  1.0  -0.202
  C  C239  1  0.137490  0.004500  0.759800  1.0  -0.0843
  C  C240  1  0.140700  0.064900  0.829700  1.0  -0.0706
  C  C241  1  0.119880  0.135000  0.846300  1.0  -0.2068
  C  C242  1  0.117170  0.213600  0.912500  1.0  0.7679
  C  C243  1  0.172440  0.633700  0.412800  1.0  0.7825
  C  C244  1  0.162250  0.581600  0.340500  1.0  -0.2089
  C  C245  1  0.138150  0.604400  0.307600  1.0  -0.0858
  C  C246  1  0.135400  0.545700  0.236200  1.0  -0.0661
  C  C247  1  0.157130  0.483600  0.217200  1.0  -0.2032
  C  C248  1  0.161850  0.415200  0.147000  1.0  0.7515
  C  C249  1  0.212630  0.921000  0.633100  1.0  0.8016
  C  C250  1  0.222920  0.969000  0.705100  1.0  -0.2208
  C  C251  1  0.247620  0.959300  0.734500  1.0  -0.0557
  C  C252  1  0.249930  0.015200  0.806000  1.0  -0.0729
  C  C253  1  0.226970  0.062200  0.830800  1.0  -0.2161
  C  C254  1  0.221680  0.115700  0.905900  1.0  0.7698
  C  C255  1  0.214380  0.878300  0.410900  1.0  0.772
  C  C256  1  0.211360  0.958200  0.345100  1.0  -0.1984
  C  C257  1  0.190060  0.027400  0.328600  1.0  -0.0717
  C  C258  1  0.193250  0.089300  0.259800  1.0  -0.0761
  C  C259  1  0.216840  0.068500  0.225700  1.0  -0.2035
  C  C260  1  0.225190  0.115400  0.149700  1.0  0.7358
  C  C261  1  0.158920  0.458300  0.909400  1.0  0.772
  C  C262  1  0.168870  0.506200  0.835300  1.0  -0.2112
  C  C263  1  0.192910  0.486000  0.803400  1.0  -0.0643
  C  C264  1  0.195980  0.544100  0.732700  1.0  -0.0591
  C  C265  1  0.174070  0.607100  0.713000  1.0  -0.2087
  C  C266  1  0.169900  0.679200  0.644100  1.0  0.7932
  C  C267  1  0.990180  0.073600  0.921800  1.0  0.7652
  C  C268  1  0.001600  0.032900  0.849000  1.0  -0.2156
  C  C269  1  0.026090  0.058400  0.823000  1.0  -0.0542
  C  C270  1  0.031180  0.008400  0.750400  1.0  -0.0668
  C  C271  1  0.010140  0.950000  0.723200  1.0  -0.2249
  C  C272  1  0.008030  0.887300  0.649200  1.0  0.7819
  C  C273  1  0.950680  0.321700  0.915500  1.0  0.7615
  C  C274  1  0.954590  0.405100  0.850900  1.0  -0.2082
  C  C275  1  0.974690  0.481200  0.838400  1.0  -0.0729
  C  C276  1  0.971650  0.544400  0.769100  1.0  -0.0803
  C  C277  1  0.949880  0.514100  0.730700  1.0  -0.2095
  C  C278  1  0.941620  0.559200  0.655400  1.0  0.7723
  C  C279  1  0.953280  0.356700  0.140300  1.0  0.7757
  C  C280  1  0.943890  0.412500  0.211700  1.0  -0.2159
  C  C281  1  0.920530  0.398700  0.246700  1.0  -0.0725
  C  C282  1  0.919390  0.453000  0.318700  1.0  -0.0752
  C  C283  1  0.941750  0.509800  0.336500  1.0  -0.2113
  C  C284  1  0.948330  0.567700  0.410800  1.0  0.7414
  C  C285  1  0.890230  0.030700  0.905500  1.0  0.7905
  C  C286  1  0.895310  0.968800  0.832100  1.0  -0.2141
  C  C287  1  0.917420  0.909900  0.811800  1.0  -0.0669
  C  C288  1  0.915420  0.853000  0.740700  1.0  -0.0685
  C  C289  1  0.891320  0.872400  0.707900  1.0  -0.2155
  C  C290  1  0.880720  0.823300  0.635900  1.0  0.7492
  C  C291  1  0.893340  0.017800  0.148400  1.0  0.747
  C  C292  1  0.885560  0.971100  0.224100  1.0  -0.2009
  C  C293  1  0.862510  0.995500  0.259800  1.0  -0.0842
  C  C294  1  0.859300  0.935100  0.329700  1.0  -0.071
  C  C295  1  0.880120  0.865000  0.346300  1.0  -0.2071
  C  C296  1  0.882830  0.786400  0.412500  1.0  0.7686
  C  C297  1  0.827560  0.366300  0.912800  1.0  0.7819
  C  C298  1  0.837750  0.418400  0.840500  1.0  -0.211
  C  C299  1  0.861850  0.395600  0.807600  1.0  -0.086
  C  C300  1  0.864600  0.454300  0.736200  1.0  -0.0666
  C  C301  1  0.842870  0.516400  0.717200  1.0  -0.2035
  C  C302  1  0.838150  0.584800  0.647000  1.0  0.7518
  C  C303  1  0.787370  0.079000  0.133100  1.0  0.8042
  C  C304  1  0.777080  0.031000  0.205100  1.0  -0.2183
  C  C305  1  0.752380  0.040700  0.234500  1.0  -0.0572
  C  C306  1  0.750070  0.984800  0.306000  1.0  -0.0722
  C  C307  1  0.773030  0.937800  0.330800  1.0  -0.2157
  C  C308  1  0.778320  0.884300  0.405900  1.0  0.7704
  C  C309  1  0.785620  0.121700  0.910900  1.0  0.7703
  C  C310  1  0.788640  0.041800  0.845100  1.0  -0.1982
  C  C311  1  0.809940  0.972600  0.828600  1.0  -0.0711
  C  C312  1  0.806750  0.910700  0.759800  1.0  -0.0762
  C  C313  1  0.783160  0.931500  0.725700  1.0  -0.2045
  C  C314  1  0.774810  0.884600  0.649700  1.0  0.7362
  C  C315  1  0.841080  0.541700  0.409400  1.0  0.773
  C  C316  1  0.831130  0.493800  0.335300  1.0  -0.2077
  C  C317  1  0.807090  0.514000  0.303400  1.0  -0.063
  C  C318  1  0.804020  0.455900  0.232700  1.0  -0.0582
  C  C319  1  0.825930  0.392900  0.213000  1.0  -0.2059
  C  C320  1  0.830100  0.320800  0.144100  1.0  0.7924
  S  S321  1  0.515680  0.450450  0.285130  1.0  0.1581
  S  S322  1  0.568200  0.910820  0.279180  1.0  0.1696
  S  S323  1  0.535670  0.997800  0.765960  1.0  0.1496
  S  S324  1  0.628410  0.459270  0.263190  1.0  0.1596
  S  S325  1  0.595850  0.374570  0.777580  1.0  0.1415
  S  S326  1  0.681290  0.007870  0.285140  1.0  0.154
  S  S327  1  0.702460  0.454820  0.765130  1.0  0.1659
  S  S328  1  0.735640  0.527520  0.277820  1.0  0.1706
  S  S329  1  0.649630  0.906120  0.779620  1.0  0.1612
  S  S330  1  0.484320  0.549550  0.785130  1.0  0.1585
  S  S331  1  0.431800  0.089180  0.779180  1.0  0.1719
  S  S332  1  0.464330  0.002200  0.265960  1.0  0.1494
  S  S333  1  0.371590  0.540730  0.763190  1.0  0.1606
  S  S334  1  0.404150  0.625430  0.277580  1.0  0.1387
  S  S335  1  0.318710  0.992130  0.785140  1.0  0.1554
  S  S336  1  0.297540  0.545180  0.265130  1.0  0.165
  S  S337  1  0.264360  0.472480  0.777820  1.0  0.171
  S  S338  1  0.350370  0.093880  0.279620  1.0  0.159
  S  S339  1  0.015680  0.049550  0.285130  1.0  0.1582
  S  S340  1  0.068200  0.589180  0.279180  1.0  0.1701
  S  S341  1  0.035670  0.502200  0.765960  1.0  0.1498
  S  S342  1  0.128410  0.040730  0.263190  1.0  0.1593
  S  S343  1  0.095850  0.125430  0.777580  1.0  0.141
  S  S344  1  0.181290  0.492130  0.285140  1.0  0.1541
  S  S345  1  0.202460  0.045180  0.765130  1.0  0.1658
  S  S346  1  0.235640  0.972480  0.277820  1.0  0.1702
  S  S347  1  0.149630  0.593880  0.779620  1.0  0.1611
  S  S348  1  0.984320  0.950450  0.785130  1.0  0.1582
  S  S349  1  0.931800  0.410820  0.779180  1.0  0.1716
  S  S350  1  0.964330  0.497800  0.265960  1.0  0.1491
  S  S351  1  0.871590  0.959270  0.763190  1.0  0.1613
  S  S352  1  0.904150  0.874570  0.277580  1.0  0.1398
  S  S353  1  0.818710  0.507870  0.785140  1.0  0.1555
  S  S354  1  0.797540  0.954820  0.265130  1.0  0.1654
  S  S355  1  0.764360  0.027520  0.777820  1.0  0.1713
  S  S356  1  0.850370  0.406120  0.279620  1.0  0.1594
  O  O357  1  0.533250  0.544300  0.437700  1.0  -0.6805
  O  O358  1  0.494990  0.632700  0.463100  1.0  -0.7593
  O  O359  1  0.512250  0.331300  0.136200  1.0  -0.6213
  O  O360  1  0.472580  0.397200  0.104400  1.0  -0.7823
  O  O361  1  0.531350  0.808700  0.463300  1.0  -0.8146
  O  O362  1  0.570470  0.766700  0.419000  1.0  -0.6518
  O  O363  1  0.541910  0.115500  0.118800  1.0  -0.7466
  O  O364  1  0.581340  0.035700  0.133500  1.0  -0.6813
  O  O365  1  0.523020  0.868700  0.623600  1.0  -0.7406
  O  O366  1  0.564120  0.801300  0.603400  1.0  -0.6858
  O  O367  1  0.531680  0.132500  0.913800  1.0  -0.6209
  O  O368  1  0.566640  0.042900  0.965100  1.0  -0.7202
  O  O369  1  0.591830  0.522300  0.454700  1.0  -0.7038
  O  O370  1  0.631490  0.580500  0.414100  1.0  -0.6787
  O  O371  1  0.602830  0.266100  0.095000  1.0  -0.6941
  O  O372  1  0.643180  0.333500  0.121700  1.0  -0.739
  O  O373  1  0.582930  0.528000  0.630800  1.0  -0.7125
  O  O374  1  0.625560  0.545700  0.606900  1.0  -0.7553
  O  O375  1  0.609410  0.744900  0.527000  1.0  -0.8346
  O  O376  1  0.636340  0.270500  0.956700  1.0  -0.8367
  O  O377  1  0.656160  0.812000  0.453100  1.0  -0.6868
  O  O378  1  0.696240  0.884900  0.427700  1.0  -0.7223
  O  O379  1  0.644350  0.084700  0.095500  1.0  -0.8503
  O  O380  1  0.682890  0.141200  0.139600  1.0  -0.6455
  O  O381  1  0.688510  0.563800  0.618600  1.0  -0.7397
  O  O382  1  0.728780  0.635200  0.592100  1.0  -0.7243
  O  O383  1  0.700620  0.331100  0.916400  1.0  -0.687
  O  O384  1  0.739590  0.397500  0.954900  1.0  -0.7666
  O  O385  1  0.695280  0.634100  0.456000  1.0  -0.865
  O  O386  1  0.735880  0.675200  0.418800  1.0  -0.6227
  O  O387  1  0.748670  0.374400  0.135200  1.0  -0.6542
  O  O388  1  0.706310  0.364000  0.105400  1.0  -0.7491
  O  O389  1  0.635430  0.020400  0.926400  1.0  -0.7221
  O  O390  1  0.675420  0.096600  0.948700  1.0  -0.7349
  O  O391  1  0.648150  0.770500  0.635700  1.0  -0.6637
  O  O392  1  0.688050  0.812100  0.596200  1.0  -0.8333
  O  O393  1  0.595360  0.235400  0.922600  1.0  -0.633
  O  O394  1  0.466750  0.455700  0.937700  1.0  -0.6793
  O  O395  1  0.505010  0.367300  0.963100  1.0  -0.7592
  O  O396  1  0.487750  0.668700  0.636200  1.0  -0.62
  O  O397  1  0.527420  0.602800  0.604400  1.0  -0.7816
  O  O398  1  0.468650  0.191300  0.963300  1.0  -0.8141
  O  O399  1  0.429530  0.233300  0.919000  1.0  -0.6508
  O  O400  1  0.458090  0.884500  0.618800  1.0  -0.7473
  O  O401  1  0.418660  0.964300  0.633500  1.0  -0.6792
  O  O402  1  0.476980  0.131300  0.123600  1.0  -0.7406
  O  O403  1  0.435880  0.198700  0.103400  1.0  -0.6858
  O  O404  1  0.468320  0.867500  0.413800  1.0  -0.6224
  O  O405  1  0.433360  0.957100  0.465100  1.0  -0.7212
  O  O406  1  0.408170  0.477700  0.954700  1.0  -0.7038
  O  O407  1  0.368510  0.419500  0.914100  1.0  -0.6783
  O  O408  1  0.397170  0.733900  0.595000  1.0  -0.6943
  O  O409  1  0.356820  0.666500  0.621700  1.0  -0.7375
  O  O410  1  0.417070  0.472000  0.130800  1.0  -0.7138
  O  O411  1  0.374440  0.454300  0.106900  1.0  -0.7551
  O  O412  1  0.390590  0.255100  0.027000  1.0  -0.833
  O  O413  1  0.363660  0.729500  0.456700  1.0  -0.8363
  O  O414  1  0.343840  0.188000  0.953100  1.0  -0.6866
  O  O415  1  0.303760  0.115100  0.927700  1.0  -0.7205
  O  O416  1  0.355650  0.915300  0.595500  1.0  -0.8507
  O  O417  1  0.317110  0.858800  0.639600  1.0  -0.645
  O  O418  1  0.311490  0.436200  0.118600  1.0  -0.7382
  O  O419  1  0.271220  0.364800  0.092100  1.0  -0.7258
  O  O420  1  0.299380  0.668900  0.416400  1.0  -0.6875
  O  O421  1  0.260410  0.602500  0.454900  1.0  -0.7672
  O  O422  1  0.304720  0.365900  0.956000  1.0  -0.8654
  O  O423  1  0.264120  0.324800  0.918800  1.0  -0.6223
  O  O424  1  0.251330  0.625600  0.635200  1.0  -0.6523
  O  O425  1  0.293690  0.636000  0.605400  1.0  -0.7476
  O  O426  1  0.364570  0.979600  0.426400  1.0  -0.722
  O  O427  1  0.324580  0.903400  0.448700  1.0  -0.7355
  O  O428  1  0.351850  0.229500  0.135700  1.0  -0.664
  O  O429  1  0.311950  0.187900  0.096200  1.0  -0.8339
  O  O430  1  0.404640  0.764600  0.422600  1.0  -0.6338
  O  O431  1  0.033250  0.955700  0.437700  1.0  -0.6807
  O  O432  1  0.994990  0.867300  0.463100  1.0  -0.7605
  O  O433  1  0.012250  0.168700  0.136200  1.0  -0.6224
  O  O434  1  0.972580  0.102800  0.104400  1.0  -0.782
  O  O435  1  0.031350  0.691300  0.463300  1.0  -0.8138
  O  O436  1  0.070470  0.733300  0.419000  1.0  -0.6511
  O  O437  1  0.041910  0.384500  0.118800  1.0  -0.7464
  O  O438  1  0.081340  0.464300  0.133500  1.0  -0.6795
  O  O439  1  0.023020  0.631300  0.623600  1.0  -0.7397
  O  O440  1  0.064120  0.698700  0.603400  1.0  -0.6856
  O  O441  1  0.031680  0.367500  0.913800  1.0  -0.6225
  O  O442  1  0.066640  0.457100  0.965100  1.0  -0.7203
  O  O443  1  0.091830  0.977700  0.454700  1.0  -0.7042
  O  O444  1  0.131490  0.919500  0.414100  1.0  -0.6791
  O  O445  1  0.102830  0.233900  0.095000  1.0  -0.693
  O  O446  1  0.143180  0.166500  0.121700  1.0  -0.7387
  O  O447  1  0.082930  0.972000  0.630800  1.0  -0.7129
  O  O448  1  0.125560  0.954300  0.606900  1.0  -0.7543
  O  O449  1  0.109410  0.755100  0.527000  1.0  -0.833
  O  O450  1  0.136340  0.229500  0.956700  1.0  -0.8367
  O  O451  1  0.156160  0.688000  0.453100  1.0  -0.6866
  O  O452  1  0.196240  0.615100  0.427700  1.0  -0.7219
  O  O453  1  0.144350  0.415300  0.095500  1.0  -0.8501
  O  O454  1  0.182890  0.358800  0.139600  1.0  -0.6456
  O  O455  1  0.188510  0.936200  0.618600  1.0  -0.7383
  O  O456  1  0.228780  0.864800  0.592100  1.0  -0.7249
  O  O457  1  0.200620  0.168900  0.916400  1.0  -0.6868
  O  O458  1  0.239590  0.102500  0.954900  1.0  -0.7663
  O  O459  1  0.195280  0.865900  0.456000  1.0  -0.8647
  O  O460  1  0.235880  0.824800  0.418800  1.0  -0.6231
  O  O461  1  0.248670  0.125600  0.135200  1.0  -0.6536
  O  O462  1  0.206310  0.136000  0.105400  1.0  -0.749
  O  O463  1  0.135430  0.479600  0.926400  1.0  -0.7215
  O  O464  1  0.175420  0.403400  0.948700  1.0  -0.7358
  O  O465  1  0.148150  0.729500  0.635700  1.0  -0.6635
  O  O466  1  0.188050  0.687900  0.596200  1.0  -0.8335
  O  O467  1  0.095360  0.264600  0.922600  1.0  -0.6323
  O  O468  1  0.966750  0.044300  0.937700  1.0  -0.68
  O  O469  1  0.005010  0.132700  0.963100  1.0  -0.7583
  O  O470  1  0.987750  0.831300  0.636200  1.0  -0.6203
  O  O471  1  0.027420  0.897200  0.604400  1.0  -0.7824
  O  O472  1  0.968650  0.308700  0.963300  1.0  -0.8149
  O  O473  1  0.929530  0.266700  0.919000  1.0  -0.6514
  O  O474  1  0.958090  0.615500  0.618800  1.0  -0.7475
  O  O475  1  0.918660  0.535700  0.633500  1.0  -0.6817
  O  O476  1  0.976980  0.368700  0.123600  1.0  -0.741
  O  O477  1  0.935880  0.301300  0.103400  1.0  -0.6858
  O  O478  1  0.968320  0.632500  0.413800  1.0  -0.6213
  O  O479  1  0.933360  0.542900  0.465100  1.0  -0.7206
  O  O480  1  0.908170  0.022300  0.954700  1.0  -0.7033
  O  O481  1  0.868510  0.080500  0.914100  1.0  -0.6775
  O  O482  1  0.897170  0.766100  0.595000  1.0  -0.695
  O  O483  1  0.856820  0.833500  0.621700  1.0  -0.7374
  O  O484  1  0.917070  0.028000  0.130800  1.0  -0.7134
  O  O485  1  0.874440  0.045700  0.106900  1.0  -0.7556
  O  O486  1  0.890590  0.244900  0.027000  1.0  -0.834
  O  O487  1  0.863660  0.770500  0.456700  1.0  -0.8362
  O  O488  1  0.843840  0.312000  0.953100  1.0  -0.6869
  O  O489  1  0.803760  0.384900  0.927700  1.0  -0.7204
  O  O490  1  0.855650  0.584700  0.595500  1.0  -0.8504
  O  O491  1  0.817110  0.641200  0.639600  1.0  -0.644
  O  O492  1  0.811490  0.063800  0.118600  1.0  -0.7388
  O  O493  1  0.771220  0.135200  0.092100  1.0  -0.7246
  O  O494  1  0.799380  0.831100  0.416400  1.0  -0.6877
  O  O495  1  0.760410  0.897500  0.454900  1.0  -0.7673
  O  O496  1  0.804720  0.134100  0.956000  1.0  -0.8655
  O  O497  1  0.764120  0.175200  0.918800  1.0  -0.6215
  O  O498  1  0.751330  0.874400  0.635200  1.0  -0.6532
  O  O499  1  0.793690  0.864000  0.605400  1.0  -0.748
  O  O500  1  0.864570  0.520400  0.426400  1.0  -0.7214
  O  O501  1  0.824580  0.596600  0.448700  1.0  -0.7342
  O  O502  1  0.851850  0.270500  0.135700  1.0  -0.6644
  O  O503  1  0.811950  0.312100  0.096200  1.0  -0.8339
  O  O504  1  0.904640  0.735400  0.422600  1.0  -0.6341
