# generated using pymatgen
data_CdC2(N2O)2
_symmetry_space_group_name_H-M   'P 1'
_cell_length_a   9.15550000
_cell_length_b   11.74700000
_cell_length_c   11.53810000
_cell_angle_alpha   90.00000000
_cell_angle_beta   90.00000000
_cell_angle_gamma   90.00000000
_symmetry_Int_Tables_number   1
_chemical_formula_structural   CdC2(N2O)2
_chemical_formula_sum   'Cd8 C16 N32 O16'
_cell_volume   1240.91871474
_cell_formula_units_Z   8
loop_
 _symmetry_equiv_pos_site_id
 _symmetry_equiv_pos_as_xyz
  1  'x, y, z'
loop_
 _atom_site_type_symbol
 _atom_site_label
 _atom_site_symmetry_multiplicity
 _atom_site_fract_x
 _atom_site_fract_y
 _atom_site_fract_z
 _atom_site_occupancy
 _atom_site_charge
  Cd  Cd1  1  0.126490  0.940030  0.846800  1.0  1.0229
  Cd  Cd2  1  0.629720  0.968790  0.877400  1.0  0.8987
  Cd  Cd3  1  0.873510  0.059970  0.346800  1.0  1.0221
  Cd  Cd4  1  0.370280  0.031210  0.377400  1.0  0.8986
  Cd  Cd5  1  0.373510  0.440030  0.846800  1.0  1.0229
  Cd  Cd6  1  0.870280  0.468790  0.877400  1.0  0.8988
  Cd  Cd7  1  0.626490  0.559970  0.346800  1.0  1.0222
  Cd  Cd8  1  0.129720  0.531210  0.377400  1.0  0.8984
  C  C9  1  0.796300  0.206100  0.870200  1.0  0.1638
  C  C10  1  0.641900  0.244000  0.865900  1.0  0.6071
  C  C11  1  0.465200  0.003000  0.112000  1.0  0.167
  C  C12  1  0.621200  0.000400  0.150600  1.0  0.6274
  C  C13  1  0.203700  0.793900  0.370200  1.0  0.1645
  C  C14  1  0.358100  0.756000  0.365900  1.0  0.6074
  C  C15  1  0.534800  0.997000  0.612000  1.0  0.166
  C  C16  1  0.378800  0.999600  0.650600  1.0  0.6254
  C  C17  1  0.703700  0.706100  0.870200  1.0  0.1645
  C  C18  1  0.858100  0.744000  0.865900  1.0  0.6072
  C  C19  1  0.034800  0.503000  0.112000  1.0  0.1664
  C  C20  1  0.878800  0.500400  0.150600  1.0  0.6249
  C  C21  1  0.296300  0.293900  0.370200  1.0  0.1638
  C  C22  1  0.141900  0.256000  0.365900  1.0  0.6065
  C  C23  1  0.965200  0.497000  0.612000  1.0  0.1663
  C  C24  1  0.121200  0.499600  0.650600  1.0  0.6278
  N  N25  1  0.834800  0.096500  0.866900  1.0  -0.2002
  N  N26  1  0.980900  0.098400  0.872800  1.0  -0.0577
  N  N27  1  0.027800  0.205300  0.877300  1.0  -0.1205
  N  N28  1  0.914000  0.273800  0.877100  1.0  -0.1886
  N  N29  1  0.422800  0.987400  0.003600  1.0  -0.1981
  N  N30  1  0.282100  0.001200  0.003600  1.0  -0.0668
  N  N31  1  0.234800  0.025200  0.108500  1.0  -0.138
  N  N32  1  0.350400  0.028300  0.179200  1.0  -0.1991
  N  N33  1  0.165200  0.903500  0.366900  1.0  -0.2
  N  N34  1  0.019100  0.901600  0.372800  1.0  -0.0578
  N  N35  1  0.972200  0.794700  0.377300  1.0  -0.1206
  N  N36  1  0.086000  0.726200  0.377100  1.0  -0.1914
  N  N37  1  0.577200  0.012600  0.503600  1.0  -0.1983
  N  N38  1  0.717900  0.998800  0.503600  1.0  -0.0657
  N  N39  1  0.765200  0.974800  0.608500  1.0  -0.1371
  N  N40  1  0.649600  0.971700  0.679200  1.0  -0.1984
  N  N41  1  0.665200  0.596500  0.866900  1.0  -0.2
  N  N42  1  0.519100  0.598400  0.872800  1.0  -0.0575
  N  N43  1  0.472200  0.705300  0.877300  1.0  -0.1207
  N  N44  1  0.586000  0.773800  0.877100  1.0  -0.1892
  N  N45  1  0.077200  0.487400  0.003600  1.0  -0.1987
  N  N46  1  0.217900  0.501200  0.003600  1.0  -0.0661
  N  N47  1  0.265200  0.525200  0.108500  1.0  -0.1378
  N  N48  1  0.149600  0.528300  0.179200  1.0  -0.1987
  N  N49  1  0.334800  0.403500  0.366900  1.0  -0.1993
  N  N50  1  0.480900  0.401600  0.372800  1.0  -0.0589
  N  N51  1  0.527800  0.294700  0.377300  1.0  -0.12
  N  N52  1  0.414000  0.226200  0.377100  1.0  -0.1911
  N  N53  1  0.922800  0.512600  0.503600  1.0  -0.1973
  N  N54  1  0.782100  0.498800  0.503600  1.0  -0.0665
  N  N55  1  0.734800  0.474800  0.608500  1.0  -0.1384
  N  N56  1  0.850400  0.471700  0.679200  1.0  -0.1986
  O  O57  1  0.549800  0.164400  0.861800  1.0  -0.5806
  O  O58  1  0.618900  0.349700  0.870400  1.0  -0.5684
  O  O59  1  0.714100  0.980100  0.072000  1.0  -0.5731
  O  O60  1  0.646800  0.025100  0.254900  1.0  -0.5922
  O  O61  1  0.450200  0.835600  0.361800  1.0  -0.5804
  O  O62  1  0.381100  0.650300  0.370400  1.0  -0.5699
  O  O63  1  0.285900  0.019900  0.572000  1.0  -0.5722
  O  O64  1  0.353200  0.974900  0.754900  1.0  -0.5952
  O  O65  1  0.950200  0.664400  0.861800  1.0  -0.5805
  O  O66  1  0.881100  0.849700  0.870400  1.0  -0.5672
  O  O67  1  0.785900  0.480100  0.072000  1.0  -0.5724
  O  O68  1  0.853200  0.525100  0.254900  1.0  -0.5945
  O  O69  1  0.049800  0.335600  0.361800  1.0  -0.5795
  O  O70  1  0.118900  0.150300  0.370400  1.0  -0.5712
  O  O71  1  0.214100  0.519900  0.572000  1.0  -0.5731
  O  O72  1  0.146800  0.474900  0.754900  1.0  -0.593
