# generated using pymatgen
data_Nd6H20C54S9O37
_symmetry_space_group_name_H-M   'P 1'
_cell_length_a   50.82400000
_cell_length_b   11.36900000
_cell_length_c   17.60400000
_cell_angle_alpha   90.00000000
_cell_angle_beta   90.00000000
_cell_angle_gamma   90.00000000
_symmetry_Int_Tables_number   1
_chemical_formula_structural   Nd6H20C54S9O37
_chemical_formula_sum   'Nd24 H80 C216 S36 O148'
_cell_volume   10171.90905782
_cell_formula_units_Z   4
loop_
 _symmetry_equiv_pos_site_id
 _symmetry_equiv_pos_as_xyz
  1  'x, y, z'
loop_
 _atom_site_type_symbol
 _atom_site_label
 _atom_site_symmetry_multiplicity
 _atom_site_fract_x
 _atom_site_fract_y
 _atom_site_fract_z
 _atom_site_occupancy
 _atom_site_charge
  Nd  Nd1  1  0.488800  0.806970  0.532090  1.0  2.3074
  Nd  Nd2  1  0.562760  0.634700  0.526070  1.0  2.2964
  Nd  Nd3  1  0.655740  0.638340  0.527130  1.0  2.2959
  Nd  Nd4  1  0.726900  0.817750  0.523840  1.0  2.3193
  Nd  Nd5  1  0.606100  0.090010  0.022160  1.0  2.3155
  Nd  Nd6  1  0.676600  0.269590  0.027430  1.0  2.3163
  Nd  Nd7  1  0.511200  0.193030  0.032090  1.0  2.3077
  Nd  Nd8  1  0.437240  0.365300  0.026070  1.0  2.2968
  Nd  Nd9  1  0.344260  0.361660  0.027130  1.0  2.2966
  Nd  Nd10  1  0.273100  0.182250  0.023840  1.0  2.3197
  Nd  Nd11  1  0.393900  0.909990  0.522160  1.0  2.3124
  Nd  Nd12  1  0.323400  0.730410  0.527430  1.0  2.3165
  Nd  Nd13  1  0.988800  0.693030  0.532090  1.0  2.3076
  Nd  Nd14  1  0.062760  0.865300  0.526070  1.0  2.2956
  Nd  Nd15  1  0.155740  0.861660  0.527130  1.0  2.2963
  Nd  Nd16  1  0.226900  0.682250  0.523840  1.0  2.3177
  Nd  Nd17  1  0.106100  0.409990  0.022160  1.0  2.3129
  Nd  Nd18  1  0.176600  0.230410  0.027430  1.0  2.3161
  Nd  Nd19  1  0.011200  0.306970  0.032090  1.0  2.3074
  Nd  Nd20  1  0.937240  0.134700  0.026070  1.0  2.2972
  Nd  Nd21  1  0.844260  0.138340  0.027130  1.0  2.2961
  Nd  Nd22  1  0.773100  0.317750  0.023840  1.0  2.3175
  Nd  Nd23  1  0.893900  0.590010  0.522160  1.0  2.3151
  Nd  Nd24  1  0.823400  0.769590  0.527430  1.0  2.3169
  H  H25  1  0.461800  0.599800  0.348900  1.0  0.11
  H  H26  1  0.453200  0.511100  0.224700  1.0  0.0982
  H  H27  1  0.510900  0.985400  0.368900  1.0  0.0983
  H  H28  1  0.516100  0.095300  0.250700  1.0  0.1079
  H  H29  1  0.593500  0.859300  0.724200  1.0  0.0986
  H  H30  1  0.595000  0.947100  0.849400  1.0  0.1096
  H  H31  1  0.567900  0.407500  0.342200  1.0  0.1087
  H  H32  1  0.571400  0.307900  0.219700  1.0  0.0963
  H  H33  1  0.650000  0.544100  0.740100  1.0  0.109
  H  H34  1  0.655500  0.440600  0.859500  1.0  0.0969
  H  H35  1  0.625300  0.853300  0.328800  1.0  0.1001
  H  H36  1  0.620700  0.954600  0.205800  1.0  0.1033
  H  H37  1  0.761200  0.585700  0.711200  1.0  0.1052
  H  H38  1  0.765300  0.487900  0.834500  1.0  0.1013
  H  H39  1  0.675400  0.473900  0.358600  1.0  0.1001
  H  H40  1  0.680500  0.367500  0.239500  1.0  0.1081
  H  H41  1  0.706000  0.062600  0.823800  1.0  0.1019
  H  H42  1  0.711000  0.958800  0.703900  1.0  0.111
  H  H43  1  0.613500  0.778000  0.568000  1.0  0.4379
  H  H44  1  0.606300  0.802000  0.494000  1.0  0.4266
  H  H45  1  0.538200  0.400200  0.848900  1.0  0.1098
  H  H46  1  0.546800  0.488900  0.724700  1.0  0.0982
  H  H47  1  0.489100  0.014600  0.868900  1.0  0.0981
  H  H48  1  0.483900  0.904700  0.750700  1.0  0.108
  H  H49  1  0.406500  0.140700  0.224200  1.0  0.0993
  H  H50  1  0.405000  0.052900  0.349400  1.0  0.1089
  H  H51  1  0.432100  0.592500  0.842200  1.0  0.1088
  H  H52  1  0.428600  0.692100  0.719700  1.0  0.0967
  H  H53  1  0.350000  0.455900  0.240100  1.0  0.1088
  H  H54  1  0.344500  0.559400  0.359500  1.0  0.0973
  H  H55  1  0.374700  0.146700  0.828800  1.0  0.1003
  H  H56  1  0.379300  0.045400  0.705800  1.0  0.1034
  H  H57  1  0.238800  0.414300  0.211200  1.0  0.105
  H  H58  1  0.234700  0.512100  0.334500  1.0  0.1014
  H  H59  1  0.324600  0.526100  0.858600  1.0  0.0999
  H  H60  1  0.319500  0.632500  0.739500  1.0  0.1088
  H  H61  1  0.294000  0.937400  0.323800  1.0  0.1019
  H  H62  1  0.289000  0.041200  0.203900  1.0  0.1105
  H  H63  1  0.386500  0.222000  0.068000  1.0  0.4379
  H  H64  1  0.393700  0.198000  0.994000  1.0  0.4267
  H  H65  1  0.961800  0.900200  0.348900  1.0  0.1097
  H  H66  1  0.953200  0.988900  0.224700  1.0  0.098
  H  H67  1  0.010900  0.514600  0.368900  1.0  0.0981
  H  H68  1  0.016100  0.404700  0.250700  1.0  0.1077
  H  H69  1  0.093500  0.640700  0.724200  1.0  0.0988
  H  H70  1  0.095000  0.552900  0.849400  1.0  0.1094
  H  H71  1  0.067900  0.092500  0.342200  1.0  0.1083
  H  H72  1  0.071400  0.192100  0.219700  1.0  0.0964
  H  H73  1  0.150000  0.955900  0.740100  1.0  0.109
  H  H74  1  0.155500  0.059400  0.859500  1.0  0.0972
  H  H75  1  0.125300  0.646700  0.328800  1.0  0.1002
  H  H76  1  0.120700  0.545400  0.205800  1.0  0.104
  H  H77  1  0.261200  0.914300  0.711200  1.0  0.1053
  H  H78  1  0.265300  0.012100  0.834500  1.0  0.1015
  H  H79  1  0.175400  0.026100  0.358600  1.0  0.1001
  H  H80  1  0.180500  0.132500  0.239500  1.0  0.1085
  H  H81  1  0.206000  0.437400  0.823800  1.0  0.1019
  H  H82  1  0.211000  0.541200  0.703900  1.0  0.1107
  H  H83  1  0.113500  0.722000  0.568000  1.0  0.4385
  H  H84  1  0.106300  0.698000  0.494000  1.0  0.4268
  H  H85  1  0.038200  0.099800  0.848900  1.0  0.1099
  H  H86  1  0.046800  0.011100  0.724700  1.0  0.098
  H  H87  1  0.989100  0.485400  0.868900  1.0  0.0979
  H  H88  1  0.983900  0.595300  0.750700  1.0  0.1077
  H  H89  1  0.906500  0.359300  0.224200  1.0  0.099
  H  H90  1  0.905000  0.447100  0.349400  1.0  0.1091
  H  H91  1  0.932100  0.907500  0.842200  1.0  0.109
  H  H92  1  0.928600  0.807900  0.719700  1.0  0.0966
  H  H93  1  0.850000  0.044100  0.240100  1.0  0.109
  H  H94  1  0.844500  0.940600  0.359500  1.0  0.0971
  H  H95  1  0.874700  0.353300  0.828800  1.0  0.1004
  H  H96  1  0.879300  0.454600  0.705800  1.0  0.1035
  H  H97  1  0.738800  0.085700  0.211200  1.0  0.105
  H  H98  1  0.734700  0.987900  0.334500  1.0  0.1014
  H  H99  1  0.824600  0.973900  0.858600  1.0  0.1002
  H  H100  1  0.819500  0.867500  0.739500  1.0  0.1088
  H  H101  1  0.794000  0.562600  0.323800  1.0  0.1021
  H  H102  1  0.789000  0.458800  0.203900  1.0  0.1106
  H  H103  1  0.886500  0.278000  0.068000  1.0  0.4375
  H  H104  1  0.893700  0.302000  0.994000  1.0  0.4263
  C  C105  1  0.509400  0.570800  0.422800  1.0  0.7519
  C  C106  1  0.498200  0.530900  0.349600  1.0  -0.2104
  C  C107  1  0.474000  0.554700  0.322600  1.0  -0.0522
  C  C108  1  0.469000  0.504600  0.250600  1.0  -0.0566
  C  C109  1  0.490200  0.446600  0.224600  1.0  -0.2176
  C  C110  1  0.492200  0.384500  0.151300  1.0  0.7766
  C  C111  1  0.549400  0.820500  0.414500  1.0  0.7616
  C  C112  1  0.545400  0.903200  0.349800  1.0  -0.1748
  C  C113  1  0.525200  0.976800  0.336400  1.0  -0.0699
  C  C114  1  0.528100  0.039600  0.268000  1.0  -0.0777
  C  C115  1  0.550300  0.009500  0.230300  1.0  -0.2142
  C  C116  1  0.558700  0.056500  0.155400  1.0  0.7743
  C  C117  1  0.547100  0.860100  0.640400  1.0  0.7827
  C  C118  1  0.556000  0.913100  0.711700  1.0  -0.2178
  C  C119  1  0.579400  0.899500  0.745900  1.0  -0.083
  C  C120  1  0.580500  0.952100  0.817400  1.0  -0.0588
  C  C121  1  0.558200  0.011100  0.835600  1.0  -0.2139
  C  C122  1  0.551700  0.067400  0.909700  1.0  0.768
  C  C123  1  0.609900  0.530900  0.405700  1.0  0.7857
  C  C124  1  0.604500  0.470200  0.331700  1.0  -0.2145
  C  C125  1  0.582800  0.410800  0.311900  1.0  -0.0363
  C  C126  1  0.584700  0.353600  0.241100  1.0  -0.0774
  C  C127  1  0.608190  0.374000  0.208500  1.0  -0.1863
  C  C128  1  0.619300  0.323900  0.136600  1.0  0.6758
  C  C129  1  0.606700  0.519800  0.650200  1.0  0.7298
  C  C130  1  0.614400  0.471100  0.724800  1.0  -0.1905
  C  C131  1  0.637400  0.493500  0.759900  1.0  -0.0844
  C  C132  1  0.640600  0.433700  0.828900  1.0  -0.0843
  C  C133  1  0.619770  0.364900  0.845900  1.0  -0.2101
  C  C134  1  0.616800  0.288400  0.911400  1.0  0.7555
  C  C135  1  0.672200  0.869800  0.411700  1.0  0.7513
  C  C136  1  0.662200  0.921600  0.339400  1.0  -0.2029
  C  C137  1  0.638300  0.900000  0.307100  1.0  -0.0767
  C  C138  1  0.635800  0.958000  0.235800  1.0  -0.0566
  C  C139  1  0.657500  0.018400  0.216600  1.0  -0.2001
  C  C140  1  0.662500  0.087500  0.147300  1.0  0.7574
  C  C141  1  0.712800  0.581800  0.633300  1.0  0.8035
  C  C142  1  0.722900  0.534700  0.706100  1.0  -0.2203
  C  C143  1  0.747600  0.546200  0.735300  1.0  -0.0596
  C  C144  1  0.749800  0.491000  0.806700  1.0  -0.0594
  C  C145  1  0.727100  0.443300  0.830300  1.0  -0.2023
  C  C146  1  0.721500  0.388000  0.905900  1.0  0.7599
  C  C147  1  0.714800  0.625300  0.409200  1.0  0.7366
  C  C148  1  0.711420  0.545400  0.344400  1.0  -0.2046
  C  C149  1  0.690300  0.478500  0.328100  1.0  -0.076
  C  C150  1  0.693300  0.416800  0.259600  1.0  -0.0716
  C  C151  1  0.716800  0.436000  0.226100  1.0  -0.2122
  C  C152  1  0.725400  0.389500  0.150700  1.0  0.7347
  C  C153  1  0.659100  0.042800  0.908500  1.0  0.7474
  C  C154  1  0.669100  0.995800  0.833700  1.0  -0.202
  C  C155  1  0.693100  0.015600  0.802200  1.0  -0.0708
  C  C156  1  0.695700  0.956500  0.733100  1.0  -0.0529
  C  C157  1  0.673700  0.894700  0.712700  1.0  -0.2075
  C  C158  1  0.669400  0.824400  0.643700  1.0  0.7843
  C  C159  1  0.490600  0.429200  0.922800  1.0  0.7511
  C  C160  1  0.501800  0.469100  0.849600  1.0  -0.212
  C  C161  1  0.526000  0.445300  0.822600  1.0  -0.0528
  C  C162  1  0.531000  0.495400  0.750600  1.0  -0.0573
  C  C163  1  0.509800  0.553400  0.724600  1.0  -0.2178
  C  C164  1  0.507800  0.615500  0.651300  1.0  0.7751
  C  C165  1  0.450600  0.179500  0.914500  1.0  0.7617
  C  C166  1  0.454600  0.096800  0.849800  1.0  -0.1744
  C  C167  1  0.474800  0.023200  0.836400  1.0  -0.069
  C  C168  1  0.471900  0.960400  0.768000  1.0  -0.0775
  C  C169  1  0.449700  0.990500  0.730300  1.0  -0.2169
  C  C170  1  0.441300  0.943500  0.655400  1.0  0.7738
  C  C171  1  0.452900  0.139900  0.140400  1.0  0.7816
  C  C172  1  0.444000  0.086900  0.211700  1.0  -0.2155
  C  C173  1  0.420600  0.100500  0.245900  1.0  -0.0829
  C  C174  1  0.419500  0.047900  0.317400  1.0  -0.0583
  C  C175  1  0.441800  0.988900  0.335600  1.0  -0.2119
  C  C176  1  0.448300  0.932600  0.409700  1.0  0.7676
  C  C177  1  0.390100  0.469100  0.905700  1.0  0.7855
  C  C178  1  0.395500  0.529800  0.831700  1.0  -0.2162
  C  C179  1  0.417200  0.589200  0.811900  1.0  -0.0368
  C  C180  1  0.415300  0.646400  0.741100  1.0  -0.0779
  C  C181  1  0.391810  0.626000  0.708500  1.0  -0.1881
  C  C182  1  0.380700  0.676100  0.636600  1.0  0.6746
  C  C183  1  0.393300  0.480200  0.150200  1.0  0.7298
  C  C184  1  0.385600  0.528900  0.224800  1.0  -0.1893
  C  C185  1  0.362600  0.506500  0.259900  1.0  -0.084
  C  C186  1  0.359400  0.566300  0.328900  1.0  -0.084
  C  C187  1  0.380230  0.635100  0.345900  1.0  -0.21
  C  C188  1  0.383200  0.711600  0.411400  1.0  0.7559
  C  C189  1  0.327800  0.130200  0.911700  1.0  0.7521
  C  C190  1  0.337800  0.078400  0.839400  1.0  -0.2046
  C  C191  1  0.361700  0.100000  0.807100  1.0  -0.0771
  C  C192  1  0.364200  0.042000  0.735800  1.0  -0.0574
  C  C193  1  0.342500  0.981600  0.716600  1.0  -0.2005
  C  C194  1  0.337500  0.912500  0.647300  1.0  0.7586
  C  C195  1  0.287200  0.418200  0.133300  1.0  0.8023
  C  C196  1  0.277100  0.465300  0.206100  1.0  -0.2177
  C  C197  1  0.252400  0.453800  0.235300  1.0  -0.0591
  C  C198  1  0.250200  0.509000  0.306700  1.0  -0.059
  C  C199  1  0.272900  0.556700  0.330300  1.0  -0.202
  C  C200  1  0.278500  0.612000  0.405900  1.0  0.7595
  C  C201  1  0.285200  0.374700  0.909200  1.0  0.7361
  C  C202  1  0.288580  0.454600  0.844400  1.0  -0.2054
  C  C203  1  0.309700  0.521500  0.828100  1.0  -0.0764
  C  C204  1  0.306700  0.583200  0.759600  1.0  -0.0718
  C  C205  1  0.283200  0.564000  0.726100  1.0  -0.2128
  C  C206  1  0.274600  0.610500  0.650700  1.0  0.7345
  C  C207  1  0.340900  0.957200  0.408500  1.0  0.746
  C  C208  1  0.330900  0.004200  0.333700  1.0  -0.1999
  C  C209  1  0.306900  0.984400  0.302200  1.0  -0.0696
  C  C210  1  0.304300  0.043500  0.233100  1.0  -0.0518
  C  C211  1  0.326300  0.105300  0.212700  1.0  -0.2038
  C  C212  1  0.330600  0.175600  0.143700  1.0  0.7849
  C  C213  1  0.009400  0.929200  0.422800  1.0  0.7515
  C  C214  1  0.998200  0.969100  0.349600  1.0  -0.2111
  C  C215  1  0.974000  0.945300  0.322600  1.0  -0.0518
  C  C216  1  0.969000  0.995400  0.250600  1.0  -0.0564
  C  C217  1  0.990200  0.053400  0.224600  1.0  -0.2167
  C  C218  1  0.992200  0.115500  0.151300  1.0  0.7761
  C  C219  1  0.049400  0.679500  0.414500  1.0  0.7618
  C  C220  1  0.045400  0.596800  0.349800  1.0  -0.1742
  C  C221  1  0.025200  0.523200  0.336400  1.0  -0.0698
  C  C222  1  0.028100  0.460400  0.268000  1.0  -0.0774
  C  C223  1  0.050300  0.490500  0.230300  1.0  -0.2146
  C  C224  1  0.058700  0.443500  0.155400  1.0  0.7744
  C  C225  1  0.047100  0.639900  0.640400  1.0  0.7824
  C  C226  1  0.056000  0.586900  0.711700  1.0  -0.2167
  C  C227  1  0.079400  0.600500  0.745900  1.0  -0.0827
  C  C228  1  0.080500  0.547900  0.817400  1.0  -0.0588
  C  C229  1  0.058200  0.488900  0.835600  1.0  -0.214
  C  C230  1  0.051700  0.432600  0.909700  1.0  0.7679
  C  C231  1  0.109900  0.969100  0.405700  1.0  0.785
  C  C232  1  0.104500  0.029800  0.331700  1.0  -0.2146
  C  C233  1  0.082800  0.089200  0.311900  1.0  -0.0366
  C  C234  1  0.084700  0.146400  0.241100  1.0  -0.0778
  C  C235  1  0.108190  0.126000  0.208500  1.0  -0.187
  C  C236  1  0.119300  0.176100  0.136600  1.0  0.676
  C  C237  1  0.106700  0.980200  0.650200  1.0  0.7297
  C  C238  1  0.114400  0.028900  0.724800  1.0  -0.1897
  C  C239  1  0.137400  0.006500  0.759900  1.0  -0.084
  C  C240  1  0.140600  0.066300  0.828900  1.0  -0.0843
  C  C241  1  0.119770  0.135100  0.845900  1.0  -0.21
  C  C242  1  0.116800  0.211600  0.911400  1.0  0.755
  C  C243  1  0.172200  0.630200  0.411700  1.0  0.7517
  C  C244  1  0.162200  0.578400  0.339400  1.0  -0.2026
  C  C245  1  0.138300  0.600000  0.307100  1.0  -0.0767
  C  C246  1  0.135800  0.542000  0.235800  1.0  -0.0567
  C  C247  1  0.157500  0.481600  0.216600  1.0  -0.2
  C  C248  1  0.162500  0.412500  0.147300  1.0  0.7582
  C  C249  1  0.212800  0.918200  0.633300  1.0  0.8033
  C  C250  1  0.222900  0.965300  0.706100  1.0  -0.2203
  C  C251  1  0.247600  0.953800  0.735300  1.0  -0.0596
  C  C252  1  0.249800  0.009000  0.806700  1.0  -0.0591
  C  C253  1  0.227100  0.056700  0.830300  1.0  -0.2021
  C  C254  1  0.221500  0.112000  0.905900  1.0  0.7597
  C  C255  1  0.214800  0.874700  0.409200  1.0  0.7365
  C  C256  1  0.211420  0.954600  0.344400  1.0  -0.2045
  C  C257  1  0.190300  0.021500  0.328100  1.0  -0.0762
  C  C258  1  0.193300  0.083200  0.259600  1.0  -0.0717
  C  C259  1  0.216800  0.064000  0.226100  1.0  -0.2122
  C  C260  1  0.225400  0.110500  0.150700  1.0  0.7347
  C  C261  1  0.159100  0.457200  0.908500  1.0  0.7468
  C  C262  1  0.169100  0.504200  0.833700  1.0  -0.2016
  C  C263  1  0.193100  0.484400  0.802200  1.0  -0.0708
  C  C264  1  0.195700  0.543500  0.733100  1.0  -0.0529
  C  C265  1  0.173700  0.605300  0.712700  1.0  -0.2068
  C  C266  1  0.169400  0.675600  0.643700  1.0  0.7849
  C  C267  1  0.990600  0.070800  0.922800  1.0  0.7518
  C  C268  1  0.001800  0.030900  0.849600  1.0  -0.2116
  C  C269  1  0.026000  0.054700  0.822600  1.0  -0.0531
  C  C270  1  0.031000  0.004600  0.750600  1.0  -0.057
  C  C271  1  0.009800  0.946600  0.724600  1.0  -0.2182
  C  C272  1  0.007800  0.884500  0.651300  1.0  0.7754
  C  C273  1  0.950600  0.320500  0.914500  1.0  0.7615
  C  C274  1  0.954600  0.403200  0.849800  1.0  -0.1745
  C  C275  1  0.974800  0.476800  0.836400  1.0  -0.069
  C  C276  1  0.971900  0.539600  0.768000  1.0  -0.0775
  C  C277  1  0.949700  0.509500  0.730300  1.0  -0.2162
  C  C278  1  0.941300  0.556500  0.655400  1.0  0.7731
  C  C279  1  0.952900  0.360100  0.140400  1.0  0.7819
  C  C280  1  0.944000  0.413100  0.211700  1.0  -0.2166
  C  C281  1  0.920600  0.399500  0.245900  1.0  -0.083
  C  C282  1  0.919500  0.452100  0.317400  1.0  -0.0582
  C  C283  1  0.941800  0.511100  0.335600  1.0  -0.2118
  C  C284  1  0.948300  0.567400  0.409700  1.0  0.7676
  C  C285  1  0.890100  0.030900  0.905700  1.0  0.7862
  C  C286  1  0.895500  0.970200  0.831700  1.0  -0.2159
  C  C287  1  0.917200  0.910800  0.811900  1.0  -0.0367
  C  C288  1  0.915300  0.853600  0.741100  1.0  -0.0772
  C  C289  1  0.891810  0.874000  0.708500  1.0  -0.1867
  C  C290  1  0.880700  0.823900  0.636600  1.0  0.6745
  C  C291  1  0.893300  0.019800  0.150200  1.0  0.73
  C  C292  1  0.885600  0.971100  0.224800  1.0  -0.1892
  C  C293  1  0.862600  0.993500  0.259900  1.0  -0.0845
  C  C294  1  0.859400  0.933700  0.328900  1.0  -0.0842
  C  C295  1  0.880230  0.864900  0.345900  1.0  -0.2101
  C  C296  1  0.883200  0.788400  0.411400  1.0  0.7562
  C  C297  1  0.827800  0.369800  0.911700  1.0  0.7516
  C  C298  1  0.837800  0.421600  0.839400  1.0  -0.2046
  C  C299  1  0.861700  0.400000  0.807100  1.0  -0.0773
  C  C300  1  0.864200  0.458000  0.735800  1.0  -0.0577
  C  C301  1  0.842500  0.518400  0.716600  1.0  -0.2006
  C  C302  1  0.837500  0.587500  0.647300  1.0  0.7577
  C  C303  1  0.787200  0.081800  0.133300  1.0  0.8026
  C  C304  1  0.777100  0.034700  0.206100  1.0  -0.218
  C  C305  1  0.752400  0.046200  0.235300  1.0  -0.0592
  C  C306  1  0.750200  0.991000  0.306700  1.0  -0.0593
  C  C307  1  0.772900  0.943300  0.330300  1.0  -0.2021
  C  C308  1  0.778500  0.888000  0.405900  1.0  0.7594
  C  C309  1  0.785200  0.125300  0.909200  1.0  0.736
  C  C310  1  0.788580  0.045400  0.844400  1.0  -0.2053
  C  C311  1  0.809700  0.978500  0.828100  1.0  -0.0764
  C  C312  1  0.806700  0.916800  0.759600  1.0  -0.0719
  C  C313  1  0.783200  0.936000  0.726100  1.0  -0.2125
  C  C314  1  0.774600  0.889500  0.650700  1.0  0.7342
  C  C315  1  0.840900  0.542800  0.408500  1.0  0.7468
  C  C316  1  0.830900  0.495800  0.333700  1.0  -0.2001
  C  C317  1  0.806900  0.515600  0.302200  1.0  -0.0696
  C  C318  1  0.804300  0.456500  0.233100  1.0  -0.0519
  C  C319  1  0.826300  0.394700  0.212700  1.0  -0.2047
  C  C320  1  0.830600  0.324400  0.143700  1.0  0.7845
  S  S321  1  0.515590  0.447800  0.286610  1.0  0.15
  S  S322  1  0.568310  0.909100  0.278720  1.0  0.1773
  S  S323  1  0.535910  0.999200  0.764960  1.0  0.15
  S  S324  1  0.628240  0.460600  0.263100  1.0  0.1536
  S  S325  1  0.595620  0.376300  0.777840  1.0  0.1613
  S  S326  1  0.681460  0.009700  0.284390  1.0  0.1658
  S  S327  1  0.702560  0.458300  0.765260  1.0  0.1706
  S  S328  1  0.735670  0.530500  0.277840  1.0  0.1664
  S  S329  1  0.649690  0.908500  0.779230  1.0  0.167
  S  S330  1  0.484410  0.552200  0.786610  1.0  0.15
  S  S331  1  0.431690  0.090900  0.778720  1.0  0.1774
  S  S332  1  0.464090  0.000800  0.264960  1.0  0.1487
  S  S333  1  0.371760  0.539400  0.763100  1.0  0.1542
  S  S334  1  0.404380  0.623700  0.277840  1.0  0.1591
  S  S335  1  0.318540  0.990300  0.784390  1.0  0.167
  S  S336  1  0.297440  0.541700  0.265260  1.0  0.17
  S  S337  1  0.264330  0.469500  0.777840  1.0  0.1675
  S  S338  1  0.350310  0.091500  0.279230  1.0  0.1647
  S  S339  1  0.015590  0.052200  0.286610  1.0  0.1501
  S  S340  1  0.068310  0.590900  0.278720  1.0  0.1761
  S  S341  1  0.035910  0.500800  0.764960  1.0  0.1497
  S  S342  1  0.128240  0.039400  0.263100  1.0  0.1536
  S  S343  1  0.095620  0.123700  0.777840  1.0  0.1607
  S  S344  1  0.181460  0.490300  0.284390  1.0  0.1661
  S  S345  1  0.202560  0.041700  0.765260  1.0  0.1707
  S  S346  1  0.235670  0.969500  0.277840  1.0  0.1662
  S  S347  1  0.149690  0.591500  0.779230  1.0  0.1668
  S  S348  1  0.984410  0.947800  0.786610  1.0  0.1499
  S  S349  1  0.931690  0.409100  0.778720  1.0  0.1784
  S  S350  1  0.964090  0.499200  0.264960  1.0  0.1486
  S  S351  1  0.871760  0.960600  0.763100  1.0  0.1544
  S  S352  1  0.904380  0.876300  0.277840  1.0  0.1595
  S  S353  1  0.818540  0.509700  0.784390  1.0  0.1669
  S  S354  1  0.797440  0.958300  0.265260  1.0  0.17
  S  S355  1  0.764330  0.030500  0.777840  1.0  0.1679
  S  S356  1  0.850310  0.408500  0.279230  1.0  0.1651
  O  O357  1  0.532840  0.541400  0.438100  1.0  -0.672
  O  O358  1  0.494570  0.630200  0.463100  1.0  -0.7605
  O  O359  1  0.512740  0.328600  0.138800  1.0  -0.6409
  O  O360  1  0.473290  0.391500  0.105500  1.0  -0.8005
  O  O361  1  0.531380  0.806800  0.461600  1.0  -0.7836
  O  O362  1  0.570680  0.765900  0.417900  1.0  -0.6342
  O  O363  1  0.542180  0.111500  0.118300  1.0  -0.7576
  O  O364  1  0.581550  0.034200  0.134000  1.0  -0.6986
  O  O365  1  0.523540  0.872700  0.622300  1.0  -0.7467
  O  O366  1  0.564350  0.804300  0.603200  1.0  -0.7003
  O  O367  1  0.531700  0.132200  0.912400  1.0  -0.6235
  O  O368  1  0.566380  0.042600  0.964700  1.0  -0.7337
  O  O369  1  0.592220  0.521900  0.454400  1.0  -0.7397
  O  O370  1  0.631320  0.581800  0.412800  1.0  -0.6748
  O  O371  1  0.602460  0.267500  0.095800  1.0  -0.6894
  O  O372  1  0.642880  0.336600  0.122400  1.0  -0.7014
  O  O373  1  0.582690  0.526800  0.632500  1.0  -0.7058
  O  O374  1  0.625010  0.549400  0.607900  1.0  -0.7596
  O  O375  1  0.609340  0.748100  0.525900  1.0  -0.8381
  O  O376  1  0.635800  0.271200  0.955900  1.0  -0.8479
  O  O377  1  0.656200  0.815600  0.451700  1.0  -0.6893
  O  O378  1  0.696000  0.889800  0.427100  1.0  -0.7288
  O  O379  1  0.645020  0.088200  0.095700  1.0  -0.8598
  O  O380  1  0.683500  0.142300  0.140100  1.0  -0.6474
  O  O381  1  0.688780  0.564900  0.618500  1.0  -0.7312
  O  O382  1  0.728830  0.636800  0.592900  1.0  -0.7075
  O  O383  1  0.700660  0.335400  0.915600  1.0  -0.667
  O  O384  1  0.739330  0.403200  0.954700  1.0  -0.7667
  O  O385  1  0.695940  0.638100  0.455500  1.0  -0.8532
  O  O386  1  0.736140  0.678300  0.417800  1.0  -0.6354
  O  O387  1  0.748650  0.378800  0.135600  1.0  -0.6542
  O  O388  1  0.706410  0.368600  0.106100  1.0  -0.7687
  O  O389  1  0.635840  0.020300  0.925700  1.0  -0.7117
  O  O390  1  0.675830  0.098300  0.947500  1.0  -0.7308
  O  O391  1  0.647510  0.775200  0.636100  1.0  -0.6318
  O  O392  1  0.687510  0.813700  0.596700  1.0  -0.8259
  O  O393  1  0.594960  0.237300  0.921500  1.0  -0.6518
  O  O394  1  0.467160  0.458600  0.938100  1.0  -0.6703
  O  O395  1  0.505430  0.369800  0.963100  1.0  -0.7623
  O  O396  1  0.487260  0.671400  0.638800  1.0  -0.6399
  O  O397  1  0.526710  0.608500  0.605500  1.0  -0.8002
  O  O398  1  0.468620  0.193200  0.961600  1.0  -0.7841
  O  O399  1  0.429320  0.234100  0.917900  1.0  -0.6333
  O  O400  1  0.457820  0.888500  0.618300  1.0  -0.7597
  O  O401  1  0.418450  0.965800  0.634000  1.0  -0.6972
  O  O402  1  0.476460  0.127300  0.122300  1.0  -0.7473
  O  O403  1  0.435650  0.195700  0.103200  1.0  -0.6997
  O  O404  1  0.468300  0.867800  0.412400  1.0  -0.6247
  O  O405  1  0.433620  0.957400  0.464700  1.0  -0.7342
  O  O406  1  0.407780  0.478100  0.954400  1.0  -0.7404
  O  O407  1  0.368680  0.418200  0.912800  1.0  -0.6756
  O  O408  1  0.397540  0.732500  0.595800  1.0  -0.6891
  O  O409  1  0.357120  0.663400  0.622400  1.0  -0.6989
  O  O410  1  0.417310  0.473200  0.132500  1.0  -0.7074
  O  O411  1  0.374990  0.450600  0.107900  1.0  -0.7616
  O  O412  1  0.390660  0.251900  0.025900  1.0  -0.8371
  O  O413  1  0.364200  0.728800  0.455900  1.0  -0.8473
  O  O414  1  0.343800  0.184400  0.951700  1.0  -0.6883
  O  O415  1  0.304000  0.110200  0.927100  1.0  -0.7275
  O  O416  1  0.354980  0.911800  0.595700  1.0  -0.8597
  O  O417  1  0.316500  0.857700  0.640100  1.0  -0.6465
  O  O418  1  0.311220  0.435100  0.118500  1.0  -0.7328
  O  O419  1  0.271170  0.363200  0.092900  1.0  -0.707
  O  O420  1  0.299340  0.664600  0.415600  1.0  -0.6674
  O  O421  1  0.260670  0.596800  0.454700  1.0  -0.7659
  O  O422  1  0.304060  0.361900  0.955500  1.0  -0.8538
  O  O423  1  0.263860  0.321700  0.917800  1.0  -0.6357
  O  O424  1  0.251350  0.621200  0.635600  1.0  -0.6517
  O  O425  1  0.293590  0.631400  0.606100  1.0  -0.7681
  O  O426  1  0.364160  0.979700  0.425700  1.0  -0.7134
  O  O427  1  0.324170  0.901700  0.447500  1.0  -0.7328
  O  O428  1  0.352490  0.224800  0.136100  1.0  -0.6316
  O  O429  1  0.312490  0.186300  0.096700  1.0  -0.8269
  O  O430  1  0.405040  0.762700  0.421500  1.0  -0.6516
  O  O431  1  0.032840  0.958600  0.438100  1.0  -0.6712
  O  O432  1  0.994570  0.869800  0.463100  1.0  -0.762
  O  O433  1  0.012740  0.171400  0.138800  1.0  -0.6417
  O  O434  1  0.973290  0.108500  0.105500  1.0  -0.8003
  O  O435  1  0.031380  0.693200  0.461600  1.0  -0.7836
  O  O436  1  0.070680  0.734100  0.417900  1.0  -0.6341
  O  O437  1  0.042180  0.388500  0.118300  1.0  -0.7587
  O  O438  1  0.081550  0.465800  0.134000  1.0  -0.6976
  O  O439  1  0.023540  0.627300  0.622300  1.0  -0.7467
  O  O440  1  0.064350  0.695700  0.603200  1.0  -0.7
  O  O441  1  0.031700  0.367800  0.912400  1.0  -0.6246
  O  O442  1  0.066380  0.457400  0.964700  1.0  -0.7338
  O  O443  1  0.092220  0.978100  0.454400  1.0  -0.7403
  O  O444  1  0.131320  0.918200  0.412800  1.0  -0.6752
  O  O445  1  0.102460  0.232500  0.095800  1.0  -0.6894
  O  O446  1  0.142880  0.163400  0.122400  1.0  -0.7002
  O  O447  1  0.082690  0.973200  0.632500  1.0  -0.7069
  O  O448  1  0.125010  0.950600  0.607900  1.0  -0.7607
  O  O449  1  0.109340  0.751900  0.525900  1.0  -0.8371
  O  O450  1  0.135800  0.228800  0.955900  1.0  -0.8482
  O  O451  1  0.156200  0.684400  0.451700  1.0  -0.6889
  O  O452  1  0.196000  0.610200  0.427100  1.0  -0.7288
  O  O453  1  0.145020  0.411800  0.095700  1.0  -0.8585
  O  O454  1  0.183500  0.357700  0.140100  1.0  -0.6476
  O  O455  1  0.188780  0.935100  0.618500  1.0  -0.7315
  O  O456  1  0.228830  0.863200  0.592900  1.0  -0.7075
  O  O457  1  0.200660  0.164600  0.915600  1.0  -0.6668
  O  O458  1  0.239330  0.096800  0.954700  1.0  -0.7655
  O  O459  1  0.195940  0.861900  0.455500  1.0  -0.8532
  O  O460  1  0.236140  0.821700  0.417800  1.0  -0.6355
  O  O461  1  0.248650  0.121200  0.135600  1.0  -0.6537
  O  O462  1  0.206410  0.131400  0.106100  1.0  -0.7685
  O  O463  1  0.135840  0.479700  0.925700  1.0  -0.7121
  O  O464  1  0.175830  0.401700  0.947500  1.0  -0.7321
  O  O465  1  0.147510  0.724800  0.636100  1.0  -0.6315
  O  O466  1  0.187510  0.686300  0.596700  1.0  -0.8262
  O  O467  1  0.094960  0.262700  0.921500  1.0  -0.6507
  O  O468  1  0.967160  0.041400  0.938100  1.0  -0.6719
  O  O469  1  0.005430  0.130200  0.963100  1.0  -0.761
  O  O470  1  0.987260  0.828600  0.638800  1.0  -0.6402
  O  O471  1  0.026710  0.891500  0.605500  1.0  -0.801
  O  O472  1  0.968620  0.306800  0.961600  1.0  -0.7839
  O  O473  1  0.929320  0.265900  0.917900  1.0  -0.6331
  O  O474  1  0.957820  0.611500  0.618300  1.0  -0.7587
  O  O475  1  0.918450  0.534200  0.634000  1.0  -0.6985
  O  O476  1  0.976460  0.372700  0.122300  1.0  -0.7477
  O  O477  1  0.935650  0.304300  0.103200  1.0  -0.6997
  O  O478  1  0.968300  0.632200  0.412400  1.0  -0.6241
  O  O479  1  0.933620  0.542600  0.464700  1.0  -0.734
  O  O480  1  0.907780  0.021900  0.954400  1.0  -0.7394
  O  O481  1  0.868680  0.081800  0.912800  1.0  -0.6746
  O  O482  1  0.897540  0.767500  0.595800  1.0  -0.6891
  O  O483  1  0.857120  0.836600  0.622400  1.0  -0.7
  O  O484  1  0.917310  0.026800  0.132500  1.0  -0.706
  O  O485  1  0.874990  0.049400  0.107900  1.0  -0.7603
  O  O486  1  0.890660  0.248100  0.025900  1.0  -0.8381
  O  O487  1  0.864200  0.771200  0.455900  1.0  -0.8474
  O  O488  1  0.843800  0.315600  0.951700  1.0  -0.6887
  O  O489  1  0.804000  0.389800  0.927100  1.0  -0.727
  O  O490  1  0.854980  0.588200  0.595700  1.0  -0.8602
  O  O491  1  0.816500  0.642300  0.640100  1.0  -0.6457
  O  O492  1  0.811220  0.064900  0.118500  1.0  -0.7317
  O  O493  1  0.771170  0.136800  0.092900  1.0  -0.7066
  O  O494  1  0.799340  0.835400  0.415600  1.0  -0.6672
  O  O495  1  0.760670  0.903200  0.454700  1.0  -0.7669
  O  O496  1  0.804060  0.138100  0.955500  1.0  -0.8538
  O  O497  1  0.763860  0.178300  0.917800  1.0  -0.6352
  O  O498  1  0.751350  0.878800  0.635600  1.0  -0.6523
  O  O499  1  0.793590  0.868600  0.606100  1.0  -0.7685
  O  O500  1  0.864160  0.520300  0.425700  1.0  -0.7116
  O  O501  1  0.824170  0.598300  0.447500  1.0  -0.7314
  O  O502  1  0.852490  0.275200  0.136100  1.0  -0.632
  O  O503  1  0.812490  0.313700  0.096700  1.0  -0.8265
  O  O504  1  0.905040  0.737300  0.421500  1.0  -0.6525
