# generated using pymatgen
data_Tb2H6C18(SO4)3
_symmetry_space_group_name_H-M   'P 1'
_cell_length_a   17.37780000
_cell_length_b   11.64040000
_cell_length_c   18.34750000
_cell_angle_alpha   90.00000000
_cell_angle_beta   110.41300000
_cell_angle_gamma   90.00000000
_symmetry_Int_Tables_number   1
_chemical_formula_structural   Tb2H6C18(SO4)3
_chemical_formula_sum   'Tb8 H24 C72 S12 O48'
_cell_volume   3478.34942906
_cell_formula_units_Z   4
loop_
 _symmetry_equiv_pos_site_id
 _symmetry_equiv_pos_as_xyz
  1  'x, y, z'
loop_
 _atom_site_type_symbol
 _atom_site_label
 _atom_site_symmetry_multiplicity
 _atom_site_fract_x
 _atom_site_fract_y
 _atom_site_fract_z
 _atom_site_occupancy
 _atom_site_charge
  Tb  Tb1  1  0.001030  0.916910  0.405410  1.0  2.2957
  Tb  Tb2  1  0.497660  0.569260  0.601140  1.0  2.278
  Tb  Tb3  1  0.998970  0.916910  0.094590  1.0  2.2959
  Tb  Tb4  1  0.502340  0.569260  0.898860  1.0  2.2786
  Tb  Tb5  1  0.998970  0.083090  0.594590  1.0  2.2957
  Tb  Tb6  1  0.502340  0.430740  0.398860  1.0  2.2768
  Tb  Tb7  1  0.001030  0.083090  0.905410  1.0  2.2952
  Tb  Tb8  1  0.497660  0.430740  0.101140  1.0  2.2781
  H  H9  1  0.162800  0.784200  0.751100  1.0  0.1176
  H  H10  1  0.283900  0.662500  0.807100  1.0  0.1152
  H  H11  1  0.200100  0.051800  0.424600  1.0  0.099
  H  H12  1  0.304500  0.618500  0.284400  1.0  0.109
  H  H13  1  0.320500  0.147300  0.414400  1.0  0.1268
  H  H14  1  0.181200  0.730500  0.213600  1.0  0.1126
  H  H15  1  0.837200  0.784200  0.748900  1.0  0.1176
  H  H16  1  0.716100  0.662500  0.692900  1.0  0.115
  H  H17  1  0.799900  0.051800  0.075400  1.0  0.0989
  H  H18  1  0.695500  0.618500  0.215600  1.0  0.1093
  H  H19  1  0.679500  0.147300  0.085600  1.0  0.1268
  H  H20  1  0.818800  0.730500  0.286400  1.0  0.1135
  H  H21  1  0.837200  0.215800  0.248900  1.0  0.1179
  H  H22  1  0.716100  0.337500  0.192900  1.0  0.1148
  H  H23  1  0.799900  0.948200  0.575400  1.0  0.0987
  H  H24  1  0.695500  0.381500  0.715600  1.0  0.1093
  H  H25  1  0.679500  0.852700  0.585600  1.0  0.1266
  H  H26  1  0.818800  0.269500  0.786400  1.0  0.1134
  H  H27  1  0.162800  0.215800  0.251100  1.0  0.1178
  H  H28  1  0.283900  0.337500  0.307100  1.0  0.115
  H  H29  1  0.200100  0.948200  0.924600  1.0  0.099
  H  H30  1  0.304500  0.381500  0.784400  1.0  0.1091
  H  H31  1  0.320500  0.852700  0.914400  1.0  0.1268
  H  H32  1  0.181200  0.269500  0.713600  1.0  0.113
  C  C33  1  0.116300  0.888200  0.294400  1.0  0.7489
  C  C34  1  0.374900  0.587400  0.716500  1.0  0.7942
  C  C35  1  0.186500  0.807300  0.315000  1.0  -0.2
  C  C36  1  0.389400  0.340100  0.505800  1.0  0.7943
  C  C37  1  0.298400  0.653600  0.701700  1.0  -0.2022
  C  C38  1  0.201400  0.161000  0.512400  1.0  -0.2
  C  C39  1  0.193000  0.753900  0.722600  1.0  -0.0723
  C  C40  1  0.263500  0.684600  0.755100  1.0  -0.0643
  C  C41  1  0.103600  0.838900  0.592100  1.0  0.7718
  C  C42  1  0.322800  0.258100  0.501400  1.0  -0.2088
  C  C43  1  0.174200  0.771400  0.644800  1.0  -0.1882
  C  C44  1  0.129100  0.131000  0.532500  1.0  0.7121
  C  C45  1  0.226300  0.113500  0.455500  1.0  -0.0406
  C  C46  1  0.380900  0.647000  0.448500  1.0  0.7532
  C  C47  1  0.280200  0.670900  0.307900  1.0  -0.0573
  C  C48  1  0.295500  0.168800  0.449700  1.0  -0.075
  C  C49  1  0.308900  0.693800  0.385800  1.0  -0.2035
  C  C50  1  0.209100  0.735900  0.266900  1.0  -0.0665
  C  C51  1  0.883700  0.888200  0.205600  1.0  0.7493
  C  C52  1  0.625100  0.587400  0.783500  1.0  0.7944
  C  C53  1  0.813500  0.807300  0.185000  1.0  -0.1992
  C  C54  1  0.610600  0.340100  0.994200  1.0  0.7936
  C  C55  1  0.701600  0.653600  0.798300  1.0  -0.1989
  C  C56  1  0.798600  0.161000  0.987600  1.0  -0.1986
  C  C57  1  0.807000  0.753900  0.777400  1.0  -0.0715
  C  C58  1  0.736500  0.684600  0.744900  1.0  -0.0652
  C  C59  1  0.896400  0.838900  0.907900  1.0  0.7717
  C  C60  1  0.677200  0.258100  0.998600  1.0  -0.2089
  C  C61  1  0.825800  0.771400  0.855200  1.0  -0.1859
  C  C62  1  0.870900  0.131000  0.967500  1.0  0.7135
  C  C63  1  0.773700  0.113500  0.044500  1.0  -0.0401
  C  C64  1  0.619100  0.647000  0.051500  1.0  0.7527
  C  C65  1  0.719800  0.670900  0.192100  1.0  -0.0566
  C  C66  1  0.704500  0.168800  0.050300  1.0  -0.075
  C  C67  1  0.691100  0.693800  0.114200  1.0  -0.2029
  C  C68  1  0.790900  0.735900  0.233100  1.0  -0.0675
  C  C69  1  0.883700  0.111800  0.705600  1.0  0.7486
  C  C70  1  0.625100  0.412600  0.283500  1.0  0.7948
  C  C71  1  0.813500  0.192700  0.685000  1.0  -0.1996
  C  C72  1  0.610600  0.659900  0.494200  1.0  0.7932
  C  C73  1  0.701600  0.346400  0.298300  1.0  -0.1991
  C  C74  1  0.798600  0.839000  0.487600  1.0  -0.1989
  C  C75  1  0.807000  0.246100  0.277400  1.0  -0.0719
  C  C76  1  0.736500  0.315400  0.244900  1.0  -0.0651
  C  C77  1  0.896400  0.161100  0.407900  1.0  0.7714
  C  C78  1  0.677200  0.741900  0.498600  1.0  -0.2097
  C  C79  1  0.825800  0.228600  0.355200  1.0  -0.1861
  C  C80  1  0.870900  0.869000  0.467500  1.0  0.7135
  C  C81  1  0.773700  0.886500  0.544500  1.0  -0.0404
  C  C82  1  0.619100  0.353000  0.551500  1.0  0.7529
  C  C83  1  0.719800  0.329100  0.692100  1.0  -0.0571
  C  C84  1  0.704500  0.831200  0.550300  1.0  -0.0752
  C  C85  1  0.691100  0.306200  0.614200  1.0  -0.2035
  C  C86  1  0.790900  0.264100  0.733100  1.0  -0.0681
  C  C87  1  0.116300  0.111800  0.794400  1.0  0.7483
  C  C88  1  0.374900  0.412600  0.216500  1.0  0.7943
  C  C89  1  0.186500  0.192700  0.815000  1.0  -0.1995
  C  C90  1  0.389400  0.659900  0.005800  1.0  0.7936
  C  C91  1  0.298400  0.346400  0.201700  1.0  -0.2022
  C  C92  1  0.201400  0.839000  0.012400  1.0  -0.1989
  C  C93  1  0.193000  0.246100  0.222600  1.0  -0.0724
  C  C94  1  0.263500  0.315400  0.255100  1.0  -0.0642
  C  C95  1  0.103600  0.161100  0.092100  1.0  0.7712
  C  C96  1  0.322800  0.741900  0.001400  1.0  -0.209
  C  C97  1  0.174200  0.228600  0.144800  1.0  -0.1877
  C  C98  1  0.129100  0.869000  0.032500  1.0  0.7122
  C  C99  1  0.226300  0.886500  0.955500  1.0  -0.0409
  C  C100  1  0.380900  0.353000  0.948500  1.0  0.7536
  C  C101  1  0.280200  0.329100  0.807900  1.0  -0.0579
  C  C102  1  0.295500  0.831200  0.949700  1.0  -0.0754
  C  C103  1  0.308900  0.306200  0.885800  1.0  -0.2024
  C  C104  1  0.209100  0.264100  0.766900  1.0  -0.0667
  S  S105  1  0.250360  0.795230  0.410380  1.0  0.1681
  S  S106  1  0.244120  0.707010  0.610340  1.0  0.1582
  S  S107  1  0.263990  0.273630  0.559260  1.0  0.1518
  S  S108  1  0.749640  0.795230  0.089620  1.0  0.1675
  S  S109  1  0.755880  0.707010  0.889660  1.0  0.157
  S  S110  1  0.736010  0.273630  0.940740  1.0  0.1499
  S  S111  1  0.749640  0.204770  0.589620  1.0  0.167
  S  S112  1  0.755880  0.292990  0.389660  1.0  0.1569
  S  S113  1  0.736010  0.726370  0.440740  1.0  0.1503
  S  S114  1  0.250360  0.204770  0.910380  1.0  0.1677
  S  S115  1  0.244120  0.292990  0.110340  1.0  0.1582
  S  S116  1  0.263990  0.726370  0.059260  1.0  0.1514
  O  O117  1  0.101090  0.933900  0.351610  1.0  -0.6623
  O  O118  1  0.404810  0.583000  0.664020  1.0  -0.7025
  O  O119  1  0.407610  0.414000  0.558760  1.0  -0.7162
  O  O120  1  0.403910  0.537000  0.781630  1.0  -0.7092
  O  O121  1  0.078100  0.909600  0.225260  1.0  -0.738
  O  O122  1  0.080260  0.052700  0.494890  1.0  -0.8659
  O  O123  1  0.070640  0.908400  0.624620  1.0  -0.6964
  O  O124  1  0.424180  0.568600  0.433920  1.0  -0.7994
  O  O125  1  0.421040  0.328500  0.453940  1.0  -0.7682
  O  O126  1  0.082310  0.820600  0.519740  1.0  -0.7664
  O  O127  1  0.395920  0.686900  0.515910  1.0  -0.6192
  O  O128  1  0.116920  0.183200  0.587700  1.0  -0.6848
  O  O129  1  0.898910  0.933900  0.148390  1.0  -0.6634
  O  O130  1  0.595190  0.583000  0.835980  1.0  -0.703
  O  O131  1  0.592390  0.414000  0.941240  1.0  -0.7183
  O  O132  1  0.596090  0.537000  0.718370  1.0  -0.7087
  O  O133  1  0.921900  0.909600  0.274740  1.0  -0.7376
  O  O134  1  0.919740  0.052700  0.005110  1.0  -0.8667
  O  O135  1  0.929360  0.908400  0.875380  1.0  -0.6977
  O  O136  1  0.575820  0.568600  0.066080  1.0  -0.7986
  O  O137  1  0.578960  0.328500  0.046060  1.0  -0.769
  O  O138  1  0.917690  0.820600  0.980260  1.0  -0.7662
  O  O139  1  0.604080  0.686900  0.984090  1.0  -0.6189
  O  O140  1  0.883080  0.183200  0.912300  1.0  -0.6849
  O  O141  1  0.898910  0.066100  0.648390  1.0  -0.6632
  O  O142  1  0.595190  0.417000  0.335980  1.0  -0.7016
  O  O143  1  0.592390  0.586000  0.441240  1.0  -0.7173
  O  O144  1  0.596090  0.463000  0.218370  1.0  -0.71
  O  O145  1  0.921900  0.090400  0.774740  1.0  -0.7374
  O  O146  1  0.919740  0.947300  0.505110  1.0  -0.8655
  O  O147  1  0.929360  0.091600  0.375380  1.0  -0.6972
  O  O148  1  0.575820  0.431400  0.566080  1.0  -0.7975
  O  O149  1  0.578960  0.671500  0.546060  1.0  -0.7695
  O  O150  1  0.917690  0.179400  0.480260  1.0  -0.7665
  O  O151  1  0.604080  0.313100  0.484090  1.0  -0.6183
  O  O152  1  0.883080  0.816800  0.412300  1.0  -0.685
  O  O153  1  0.101090  0.066100  0.851610  1.0  -0.6622
  O  O154  1  0.404810  0.417000  0.164020  1.0  -0.7041
  O  O155  1  0.407610  0.586000  0.058760  1.0  -0.7158
  O  O156  1  0.403910  0.463000  0.281630  1.0  -0.7102
  O  O157  1  0.078100  0.090400  0.725260  1.0  -0.7378
  O  O158  1  0.080260  0.947300  0.994890  1.0  -0.8646
  O  O159  1  0.070640  0.091600  0.124620  1.0  -0.6967
  O  O160  1  0.424180  0.431400  0.933920  1.0  -0.7984
  O  O161  1  0.421040  0.671500  0.953940  1.0  -0.7676
  O  O162  1  0.082310  0.179400  0.019740  1.0  -0.7658
  O  O163  1  0.395920  0.313100  0.015910  1.0  -0.6178
  O  O164  1  0.116920  0.816800  0.087700  1.0  -0.6853
