# generated using pymatgen
data_Yb2H6C18(SO4)3
_symmetry_space_group_name_H-M   'P 1'
_cell_length_a   17.20530000
_cell_length_b   11.64620000
_cell_length_c   18.26290000
_cell_angle_alpha   90.00000000
_cell_angle_beta   110.46200000
_cell_angle_gamma   90.00000000
_symmetry_Int_Tables_number   1
_chemical_formula_structural   Yb2H6C18(SO4)3
_chemical_formula_sum   'Yb8 H24 C72 S12 O48'
_cell_volume   3428.55754814
_cell_formula_units_Z   4
loop_
 _symmetry_equiv_pos_site_id
 _symmetry_equiv_pos_as_xyz
  1  'x, y, z'
loop_
 _atom_site_type_symbol
 _atom_site_label
 _atom_site_symmetry_multiplicity
 _atom_site_fract_x
 _atom_site_fract_y
 _atom_site_fract_z
 _atom_site_occupancy
 _atom_site_charge
  Yb  Yb1  1  0.497240  0.071330  0.102040  1.0  1.5573
  Yb  Yb2  1  0.998390  0.416580  0.595690  1.0  1.5373
  Yb  Yb3  1  0.502760  0.071330  0.397960  1.0  1.5587
  Yb  Yb4  1  0.001610  0.416580  0.904310  1.0  1.5429
  Yb  Yb5  1  0.502760  0.928670  0.897960  1.0  1.5589
  Yb  Yb6  1  0.001610  0.583420  0.404310  1.0  1.5317
  Yb  Yb7  1  0.497240  0.928670  0.602040  1.0  1.5486
  Yb  Yb8  1  0.998390  0.583420  0.095690  1.0  1.5319
  H  H9  1  0.321600  0.345300  0.412800  1.0  0.1586
  H  H10  1  0.181600  0.239600  0.708000  1.0  0.1399
  H  H11  1  0.203300  0.446300  0.423000  1.0  0.1332
  H  H12  1  0.715700  0.168100  0.193100  1.0  0.1385
  H  H13  1  0.836500  0.290500  0.250600  1.0  0.1468
  H  H14  1  0.304300  0.123600  0.777200  1.0  0.1456
  H  H15  1  0.678400  0.345300  0.087200  1.0  0.1585
  H  H16  1  0.818400  0.239600  0.792000  1.0  0.1403
  H  H17  1  0.796700  0.446300  0.077000  1.0  0.133
  H  H18  1  0.284300  0.168100  0.306900  1.0  0.139
  H  H19  1  0.163500  0.290500  0.249400  1.0  0.1466
  H  H20  1  0.695700  0.123600  0.722800  1.0  0.1459
  H  H21  1  0.678400  0.654700  0.587200  1.0  0.1586
  H  H22  1  0.818400  0.760400  0.292000  1.0  0.1403
  H  H23  1  0.796700  0.553700  0.577000  1.0  0.1329
  H  H24  1  0.284300  0.831900  0.806900  1.0  0.1388
  H  H25  1  0.163500  0.709500  0.749400  1.0  0.1466
  H  H26  1  0.695700  0.876400  0.222800  1.0  0.1457
  H  H27  1  0.321600  0.654700  0.912800  1.0  0.1583
  H  H28  1  0.181600  0.760400  0.208000  1.0  0.1401
  H  H29  1  0.203300  0.553700  0.923000  1.0  0.133
  H  H30  1  0.715700  0.831900  0.693100  1.0  0.1383
  H  H31  1  0.836500  0.709500  0.750600  1.0  0.147
  H  H32  1  0.304300  0.876400  0.277200  1.0  0.1455
  C  C33  1  0.622900  0.092600  0.284800  1.0  0.7951
  C  C34  1  0.382800  0.141700  0.943200  1.0  0.8004
  C  C35  1  0.296500  0.325300  0.448600  1.0  -0.0473
  C  C36  1  0.114800  0.388500  0.793200  1.0  0.7672
  C  C37  1  0.825200  0.277300  0.357500  1.0  -0.1626
  C  C38  1  0.390300  0.151700  0.504600  1.0  0.7853
  C  C39  1  0.126900  0.372000  0.527200  1.0  0.7915
  C  C40  1  0.209200  0.241300  0.761800  1.0  -0.0339
  C  C41  1  0.895500  0.346500  0.410500  1.0  0.8338
  C  C42  1  0.700100  0.159500  0.299400  1.0  -0.1724
  C  C43  1  0.186700  0.307600  0.812100  1.0  -0.1747
  C  C44  1  0.228000  0.383500  0.453800  1.0  -0.0245
  C  C45  1  0.323900  0.236800  0.500100  1.0  -0.1859
  C  C46  1  0.735700  0.190400  0.245300  1.0  -0.0527
  C  C47  1  0.310700  0.194300  0.880800  1.0  -0.1767
  C  C48  1  0.805900  0.259600  0.279000  1.0  -0.0382
  C  C49  1  0.280400  0.175200  0.802100  1.0  -0.0305
  C  C50  1  0.201300  0.337600  0.509400  1.0  -0.1696
  C  C51  1  0.377100  0.092600  0.215200  1.0  0.7959
  C  C52  1  0.617200  0.141700  0.556800  1.0  0.7992
  C  C53  1  0.703500  0.325300  0.051400  1.0  -0.0475
  C  C54  1  0.885200  0.388500  0.706800  1.0  0.7669
  C  C55  1  0.174800  0.277300  0.142500  1.0  -0.1646
  C  C56  1  0.609700  0.151700  0.995400  1.0  0.7862
  C  C57  1  0.873100  0.372000  0.972800  1.0  0.7919
  C  C58  1  0.790800  0.241300  0.738200  1.0  -0.0343
  C  C59  1  0.104500  0.346500  0.089500  1.0  0.8337
  C  C60  1  0.299900  0.159500  0.200600  1.0  -0.1757
  C  C61  1  0.813300  0.307600  0.687900  1.0  -0.1729
  C  C62  1  0.772000  0.383500  0.046200  1.0  -0.0247
  C  C63  1  0.676100  0.236800  0.999900  1.0  -0.1873
  C  C64  1  0.264300  0.190400  0.254700  1.0  -0.0512
  C  C65  1  0.689300  0.194300  0.619200  1.0  -0.1763
  C  C66  1  0.194100  0.259600  0.221000  1.0  -0.038
  C  C67  1  0.719600  0.175200  0.697900  1.0  -0.0296
  C  C68  1  0.798700  0.337600  0.990600  1.0  -0.1686
  C  C69  1  0.377100  0.907400  0.715200  1.0  0.7963
  C  C70  1  0.617200  0.858300  0.056800  1.0  0.8003
  C  C71  1  0.703500  0.674700  0.551400  1.0  -0.0473
  C  C72  1  0.885200  0.611500  0.206800  1.0  0.7665
  C  C73  1  0.174800  0.722700  0.642500  1.0  -0.1643
  C  C74  1  0.609700  0.848300  0.495400  1.0  0.7861
  C  C75  1  0.873100  0.628000  0.472800  1.0  0.7867
  C  C76  1  0.790800  0.758700  0.238200  1.0  -0.0343
  C  C77  1  0.104500  0.653500  0.589500  1.0  0.8282
  C  C78  1  0.299900  0.840500  0.700600  1.0  -0.1758
  C  C79  1  0.813300  0.692400  0.187900  1.0  -0.1728
  C  C80  1  0.772000  0.616500  0.546200  1.0  -0.0246
  C  C81  1  0.676100  0.763200  0.499900  1.0  -0.1867
  C  C82  1  0.264300  0.809600  0.754700  1.0  -0.0518
  C  C83  1  0.689300  0.805700  0.119200  1.0  -0.1773
  C  C84  1  0.194100  0.740400  0.721000  1.0  -0.0382
  C  C85  1  0.719600  0.824800  0.197900  1.0  -0.0298
  C  C86  1  0.798700  0.662400  0.490600  1.0  -0.168
  C  C87  1  0.622900  0.907400  0.784800  1.0  0.7957
  C  C88  1  0.382800  0.858300  0.443200  1.0  0.8013
  C  C89  1  0.296500  0.674700  0.948600  1.0  -0.0472
  C  C90  1  0.114800  0.611500  0.293200  1.0  0.7667
  C  C91  1  0.825200  0.722700  0.857500  1.0  -0.163
  C  C92  1  0.390300  0.848300  0.004600  1.0  0.7852
  C  C93  1  0.126900  0.628000  0.027200  1.0  0.7856
  C  C94  1  0.209200  0.758700  0.261800  1.0  -0.0337
  C  C95  1  0.895500  0.653500  0.910500  1.0  0.8281
  C  C96  1  0.700100  0.840500  0.799400  1.0  -0.1727
  C  C97  1  0.186700  0.692400  0.312100  1.0  -0.1736
  C  C98  1  0.228000  0.616500  0.953800  1.0  -0.0246
  C  C99  1  0.323900  0.763200  0.000100  1.0  -0.1863
  C  C100  1  0.735700  0.809600  0.745300  1.0  -0.0532
  C  C101  1  0.310700  0.805700  0.380800  1.0  -0.1759
  C  C102  1  0.805900  0.740400  0.779000  1.0  -0.0383
  C  C103  1  0.280400  0.824800  0.302100  1.0  -0.0307
  C  C104  1  0.201300  0.662400  0.009400  1.0  -0.1702
  S  S105  1  0.755210  0.210800  0.391120  1.0  0.1866
  S  S106  1  0.262880  0.224610  0.557610  1.0  0.182
  S  S107  1  0.251170  0.291180  0.907900  1.0  0.1954
  S  S108  1  0.244790  0.210800  0.108880  1.0  0.1878
  S  S109  1  0.737120  0.224610  0.942390  1.0  0.183
  S  S110  1  0.748830  0.291180  0.592100  1.0  0.195
  S  S111  1  0.244790  0.789200  0.608880  1.0  0.1876
  S  S112  1  0.737120  0.775390  0.442390  1.0  0.1827
  S  S113  1  0.748830  0.708820  0.092100  1.0  0.1948
  S  S114  1  0.755210  0.789200  0.891120  1.0  0.1866
  S  S115  1  0.262880  0.775390  0.057610  1.0  0.1821
  S  S116  1  0.251170  0.708820  0.407900  1.0  0.1954
  O  O117  1  0.076400  0.411200  0.723700  1.0  -0.6861
  O  O118  1  0.594400  0.084600  0.338300  1.0  -0.675
  O  O119  1  0.406300  0.078800  0.556900  1.0  -0.6574
  O  O120  1  0.918700  0.325700  0.482800  1.0  -0.7027
  O  O121  1  0.397400  0.175000  0.011500  1.0  -0.5332
  O  O122  1  0.425400  0.067900  0.923500  1.0  -0.7138
  O  O123  1  0.100900  0.430600  0.852000  1.0  -0.6331
  O  O124  1  0.080500  0.448900  0.487300  1.0  -0.7614
  O  O125  1  0.422200  0.165500  0.453200  1.0  -0.7175
  O  O126  1  0.113500  0.326200  0.583600  1.0  -0.6548
  O  O127  1  0.592000  0.044400  0.218500  1.0  -0.662
  O  O128  1  0.926500  0.418100  0.377700  1.0  -0.6235
  O  O129  1  0.923600  0.411200  0.776300  1.0  -0.6865
  O  O130  1  0.405600  0.084600  0.161700  1.0  -0.6738
  O  O131  1  0.593700  0.078800  0.943100  1.0  -0.6557
  O  O132  1  0.081300  0.325700  0.017200  1.0  -0.7005
  O  O133  1  0.602600  0.175000  0.488500  1.0  -0.5343
  O  O134  1  0.574600  0.067900  0.576500  1.0  -0.7149
  O  O135  1  0.899100  0.430600  0.648000  1.0  -0.6326
  O  O136  1  0.919500  0.448900  0.012700  1.0  -0.761
  O  O137  1  0.577800  0.165500  0.046800  1.0  -0.7179
  O  O138  1  0.886500  0.326200  0.916400  1.0  -0.6544
  O  O139  1  0.408000  0.044400  0.281500  1.0  -0.6628
  O  O140  1  0.073500  0.418100  0.122300  1.0  -0.6219
  O  O141  1  0.923600  0.588800  0.276300  1.0  -0.6864
  O  O142  1  0.405600  0.915400  0.661700  1.0  -0.674
  O  O143  1  0.593700  0.921200  0.443100  1.0  -0.6556
  O  O144  1  0.081300  0.674300  0.517200  1.0  -0.7013
  O  O145  1  0.602600  0.825000  0.988500  1.0  -0.5341
  O  O146  1  0.574600  0.932100  0.076500  1.0  -0.7118
  O  O147  1  0.899100  0.569400  0.148000  1.0  -0.6321
  O  O148  1  0.919500  0.551100  0.512700  1.0  -0.7619
  O  O149  1  0.577800  0.834500  0.546800  1.0  -0.718
  O  O150  1  0.886500  0.673800  0.416400  1.0  -0.6551
  O  O151  1  0.408000  0.955600  0.781500  1.0  -0.6629
  O  O152  1  0.073500  0.581900  0.622300  1.0  -0.6221
  O  O153  1  0.076400  0.588800  0.223700  1.0  -0.6859
  O  O154  1  0.594400  0.915400  0.838300  1.0  -0.6748
  O  O155  1  0.406300  0.921200  0.056900  1.0  -0.6568
  O  O156  1  0.918700  0.674300  0.982800  1.0  -0.7029
  O  O157  1  0.397400  0.825000  0.511500  1.0  -0.5324
  O  O158  1  0.425400  0.932100  0.423500  1.0  -0.7135
  O  O159  1  0.100900  0.569400  0.352000  1.0  -0.6315
  O  O160  1  0.080500  0.551100  0.987300  1.0  -0.762
  O  O161  1  0.422200  0.834500  0.953200  1.0  -0.7181
  O  O162  1  0.113500  0.673800  0.083600  1.0  -0.655
  O  O163  1  0.592000  0.955600  0.718500  1.0  -0.6626
  O  O164  1  0.926500  0.581900  0.877700  1.0  -0.6234
