# generated using pymatgen
data_Gd2H6C18(SO4)3
_symmetry_space_group_name_H-M   'P 1'
_cell_length_a   17.39740000
_cell_length_b   11.64530000
_cell_length_c   18.37500000
_cell_angle_alpha   90.00000000
_cell_angle_beta   110.31900000
_cell_angle_gamma   90.00000000
_symmetry_Int_Tables_number   1
_chemical_formula_structural   Gd2H6C18(SO4)3
_chemical_formula_sum   'Gd8 H24 C72 S12 O48'
_cell_volume   3491.08552912
_cell_formula_units_Z   4
loop_
 _symmetry_equiv_pos_site_id
 _symmetry_equiv_pos_as_xyz
  1  'x, y, z'
loop_
 _atom_site_type_symbol
 _atom_site_label
 _atom_site_symmetry_multiplicity
 _atom_site_fract_x
 _atom_site_fract_y
 _atom_site_fract_z
 _atom_site_occupancy
 _atom_site_charge
  Gd  Gd1  1  0.998770  0.583560  0.594250  1.0  2.2359
  Gd  Gd2  1  0.502530  0.931230  0.399470  1.0  2.2261
  Gd  Gd3  1  0.001230  0.583560  0.905750  1.0  2.2361
  Gd  Gd4  1  0.497470  0.931230  0.100530  1.0  2.2262
  Gd  Gd5  1  0.001230  0.416440  0.405740  1.0  2.2372
  Gd  Gd6  1  0.497470  0.068770  0.600530  1.0  2.225
  Gd  Gd7  1  0.998770  0.416440  0.094250  1.0  2.2374
  Gd  Gd8  1  0.502530  0.068770  0.899470  1.0  2.2256
  H  H9  1  0.836300  0.714600  0.248200  1.0  0.1235
  H  H10  1  0.817300  0.770000  0.785700  1.0  0.1163
  H  H11  1  0.799700  0.450200  0.572700  1.0  0.0993
  H  H12  1  0.715300  0.834700  0.191800  1.0  0.1154
  H  H13  1  0.679400  0.354400  0.584600  1.0  0.1312
  H  H14  1  0.695900  0.884000  0.714600  1.0  0.118
  H  H15  1  0.163700  0.714600  0.251800  1.0  0.123
  H  H16  1  0.182700  0.770000  0.714300  1.0  0.1156
  H  H17  1  0.200300  0.450200  0.927300  1.0  0.0997
  H  H18  1  0.284700  0.834700  0.308200  1.0  0.1159
  H  H19  1  0.320600  0.354400  0.915400  1.0  0.1313
  H  H20  1  0.304100  0.884000  0.785400  1.0  0.1181
  H  H21  1  0.163700  0.285400  0.751800  1.0  0.1226
  H  H22  1  0.182700  0.230000  0.214300  1.0  0.1151
  H  H23  1  0.200300  0.549800  0.427300  1.0  0.0997
  H  H24  1  0.284700  0.165300  0.808200  1.0  0.1161
  H  H25  1  0.320600  0.645600  0.415400  1.0  0.131
  H  H26  1  0.304100  0.116000  0.285400  1.0  0.118
  H  H27  1  0.836300  0.285400  0.748200  1.0  0.123
  H  H28  1  0.817300  0.230000  0.285700  1.0  0.1163
  H  H29  1  0.799700  0.549800  0.072700  1.0  0.0997
  H  H30  1  0.715300  0.165300  0.691800  1.0  0.1157
  H  H31  1  0.679400  0.645600  0.084600  1.0  0.1312
  H  H32  1  0.695900  0.116000  0.214600  1.0  0.1178
  C  C33  1  0.883300  0.611700  0.705700  1.0  0.7567
  C  C34  1  0.798100  0.339000  0.487400  1.0  -0.1864
  C  C35  1  0.813000  0.692800  0.684500  1.0  -0.2082
  C  C36  1  0.608800  0.163300  0.493200  1.0  0.8108
  C  C37  1  0.806100  0.745000  0.276600  1.0  -0.0657
  C  C38  1  0.789900  0.764900  0.732500  1.0  -0.0514
  C  C39  1  0.620200  0.853000  0.550000  1.0  0.7147
  C  C40  1  0.691000  0.806100  0.613400  1.0  -0.1943
  C  C41  1  0.675900  0.244500  0.497800  1.0  -0.1989
  C  C42  1  0.773700  0.387900  0.542600  1.0  -0.0497
  C  C43  1  0.896200  0.661600  0.407900  1.0  0.7854
  C  C44  1  0.825400  0.727600  0.355000  1.0  -0.1906
  C  C45  1  0.702000  0.846100  0.297500  1.0  -0.1958
  C  C46  1  0.736100  0.813700  0.243800  1.0  -0.0551
  C  C47  1  0.703800  0.332600  0.549000  1.0  -0.0657
  C  C48  1  0.719800  0.830500  0.691400  1.0  -0.0568
  C  C49  1  0.625800  0.913700  0.283200  1.0  0.7824
  C  C50  1  0.870100  0.368400  0.466600  1.0  0.7132
  C  C51  1  0.116700  0.611700  0.794300  1.0  0.7564
  C  C52  1  0.201900  0.339000  0.012600  1.0  -0.186
  C  C53  1  0.187000  0.692800  0.815500  1.0  -0.2076
  C  C54  1  0.391200  0.163300  0.006800  1.0  0.8104
  C  C55  1  0.193900  0.745000  0.223400  1.0  -0.0657
  C  C56  1  0.210100  0.764900  0.767500  1.0  -0.0507
  C  C57  1  0.379800  0.853000  0.950000  1.0  0.7157
  C  C58  1  0.309000  0.806100  0.886600  1.0  -0.1945
  C  C59  1  0.324100  0.244500  0.002200  1.0  -0.1976
  C  C60  1  0.226300  0.387900  0.957400  1.0  -0.0502
  C  C61  1  0.103800  0.661600  0.092100  1.0  0.7857
  C  C62  1  0.174600  0.727600  0.145000  1.0  -0.1921
  C  C63  1  0.298000  0.846100  0.202500  1.0  -0.1988
  C  C64  1  0.263900  0.813700  0.256200  1.0  -0.0549
  C  C65  1  0.296200  0.332600  0.951000  1.0  -0.0655
  C  C66  1  0.280200  0.830500  0.808600  1.0  -0.0576
  C  C67  1  0.374200  0.913700  0.216800  1.0  0.7842
  C  C68  1  0.129900  0.368400  0.033400  1.0  0.7114
  C  C69  1  0.116700  0.388300  0.294300  1.0  0.7572
  C  C70  1  0.201900  0.661000  0.512600  1.0  -0.187
  C  C71  1  0.187000  0.307200  0.315500  1.0  -0.2082
  C  C72  1  0.391200  0.836700  0.506800  1.0  0.8112
  C  C73  1  0.193900  0.255000  0.723400  1.0  -0.066
  C  C74  1  0.210100  0.235100  0.267500  1.0  -0.0505
  C  C75  1  0.379800  0.147000  0.450000  1.0  0.7157
  C  C76  1  0.309000  0.193900  0.386600  1.0  -0.1954
  C  C77  1  0.324100  0.755500  0.502200  1.0  -0.1981
  C  C78  1  0.226300  0.612100  0.457400  1.0  -0.0506
  C  C79  1  0.103800  0.338400  0.592100  1.0  0.7869
  C  C80  1  0.174600  0.272400  0.645000  1.0  -0.1924
  C  C81  1  0.298000  0.153900  0.702500  1.0  -0.1992
  C  C82  1  0.263900  0.186300  0.756200  1.0  -0.0543
  C  C83  1  0.296200  0.667400  0.451000  1.0  -0.0655
  C  C84  1  0.280200  0.169500  0.308600  1.0  -0.0569
  C  C85  1  0.374200  0.086300  0.716800  1.0  0.784
  C  C86  1  0.129900  0.631600  0.533400  1.0  0.7116
  C  C87  1  0.883300  0.388300  0.205700  1.0  0.7574
  C  C88  1  0.798100  0.661000  0.987400  1.0  -0.1864
  C  C89  1  0.813000  0.307200  0.184500  1.0  -0.2084
  C  C90  1  0.608800  0.836700  0.993200  1.0  0.811
  C  C91  1  0.806100  0.255000  0.776600  1.0  -0.0657
  C  C92  1  0.789900  0.235100  0.232500  1.0  -0.051
  C  C93  1  0.620200  0.147000  0.050000  1.0  0.7145
  C  C94  1  0.691000  0.193900  0.113400  1.0  -0.1938
  C  C95  1  0.675900  0.755500  0.997800  1.0  -0.1981
  C  C96  1  0.773700  0.612100  0.042600  1.0  -0.0497
  C  C97  1  0.896200  0.338400  0.907900  1.0  0.7869
  C  C98  1  0.825400  0.272400  0.855000  1.0  -0.1904
  C  C99  1  0.702000  0.153900  0.797500  1.0  -0.1962
  C  C100  1  0.736100  0.186300  0.743800  1.0  -0.0547
  C  C101  1  0.703800  0.667400  0.049000  1.0  -0.0655
  C  C102  1  0.719800  0.169500  0.191400  1.0  -0.0564
  C  C103  1  0.625800  0.086300  0.783200  1.0  0.7823
  C  C104  1  0.870100  0.631600  0.966600  1.0  0.7135
  S  S105  1  0.755790  0.793960  0.388990  1.0  0.1597
  S  S106  1  0.749860  0.704120  0.589340  1.0  0.1716
  S  S107  1  0.735070  0.227550  0.440190  1.0  0.1581
  S  S108  1  0.244210  0.793960  0.111010  1.0  0.1592
  S  S109  1  0.250140  0.704120  0.910660  1.0  0.1721
  S  S110  1  0.264930  0.227550  0.059810  1.0  0.158
  S  S111  1  0.244210  0.206040  0.611010  1.0  0.1594
  S  S112  1  0.250140  0.295880  0.410660  1.0  0.1725
  S  S113  1  0.264930  0.772450  0.559810  1.0  0.1588
  S  S114  1  0.755790  0.206040  0.888990  1.0  0.1597
  S  S115  1  0.749860  0.295880  0.089340  1.0  0.1718
  S  S116  1  0.735070  0.772450  0.940190  1.0  0.1577
  O  O117  1  0.595780  0.919400  0.335960  1.0  -0.7108
  O  O118  1  0.882710  0.314800  0.412340  1.0  -0.6842
  O  O119  1  0.605500  0.811800  0.483120  1.0  -0.6126
  O  O120  1  0.916530  0.680100  0.479100  1.0  -0.7658
  O  O121  1  0.596830  0.963700  0.218250  1.0  -0.7106
  O  O122  1  0.576890  0.932500  0.562890  1.0  -0.821
  O  O123  1  0.590300  0.090900  0.439500  1.0  -0.7093
  O  O124  1  0.919520  0.446300  0.503940  1.0  -0.8556
  O  O125  1  0.577570  0.174400  0.544780  1.0  -0.7526
  O  O126  1  0.898510  0.565300  0.648980  1.0  -0.6702
  O  O127  1  0.921250  0.592000  0.774930  1.0  -0.72
  O  O128  1  0.929300  0.592500  0.375040  1.0  -0.6849
  O  O129  1  0.404220  0.919400  0.164040  1.0  -0.7116
  O  O130  1  0.117290  0.314800  0.087660  1.0  -0.6849
  O  O131  1  0.394500  0.811800  0.016880  1.0  -0.6114
  O  O132  1  0.083470  0.680100  0.020900  1.0  -0.7642
  O  O133  1  0.403170  0.963700  0.281750  1.0  -0.7095
  O  O134  1  0.423110  0.932500  0.937110  1.0  -0.8216
  O  O135  1  0.409700  0.090900  0.060500  1.0  -0.7105
  O  O136  1  0.080480  0.446300  0.996060  1.0  -0.8539
  O  O137  1  0.422430  0.174400  0.955220  1.0  -0.7515
  O  O138  1  0.101490  0.565300  0.851020  1.0  -0.6704
  O  O139  1  0.078750  0.592000  0.725070  1.0  -0.721
  O  O140  1  0.070700  0.592500  0.124960  1.0  -0.685
  O  O141  1  0.404220  0.080600  0.664040  1.0  -0.711
  O  O142  1  0.117290  0.685200  0.587660  1.0  -0.6857
  O  O143  1  0.394500  0.188200  0.516880  1.0  -0.6134
  O  O144  1  0.083470  0.319900  0.520900  1.0  -0.7643
  O  O145  1  0.403170  0.036300  0.781750  1.0  -0.7092
  O  O146  1  0.423110  0.067500  0.437110  1.0  -0.8233
  O  O147  1  0.409700  0.909100  0.560500  1.0  -0.7109
  O  O148  1  0.080480  0.553700  0.496060  1.0  -0.8548
  O  O149  1  0.422430  0.825600  0.455220  1.0  -0.752
  O  O150  1  0.101490  0.434700  0.351020  1.0  -0.6707
  O  O151  1  0.078750  0.408000  0.225070  1.0  -0.7213
  O  O152  1  0.070700  0.407500  0.624960  1.0  -0.6844
  O  O153  1  0.595780  0.080600  0.835960  1.0  -0.7116
  O  O154  1  0.882710  0.685200  0.912340  1.0  -0.6856
  O  O155  1  0.605500  0.188200  0.983120  1.0  -0.6137
  O  O156  1  0.916530  0.319900  0.979100  1.0  -0.7662
  O  O157  1  0.596830  0.036300  0.718250  1.0  -0.71
  O  O158  1  0.576890  0.067500  0.062890  1.0  -0.8237
  O  O159  1  0.590300  0.909100  0.939500  1.0  -0.711
  O  O160  1  0.919520  0.553700  0.003940  1.0  -0.8569
  O  O161  1  0.577570  0.825600  0.044780  1.0  -0.7519
  O  O162  1  0.898510  0.434700  0.148980  1.0  -0.6704
  O  O163  1  0.921250  0.408000  0.274930  1.0  -0.7196
  O  O164  1  0.929300  0.407500  0.875040  1.0  -0.6855
