# generated using pymatgen
data_Zn2P3(HO4)3
_symmetry_space_group_name_H-M   'P 1'
_cell_length_a   15.48600000
_cell_length_b   9.81500000
_cell_length_c   9.83650000
_cell_angle_alpha   90.00000000
_cell_angle_beta   105.99000000
_cell_angle_gamma   90.00000000
_symmetry_Int_Tables_number   1
_chemical_formula_structural   Zn2P3(HO4)3
_chemical_formula_sum   'Zn8 P12 H12 O48'
_cell_volume   1437.25397995
_cell_formula_units_Z   4
loop_
 _symmetry_equiv_pos_site_id
 _symmetry_equiv_pos_as_xyz
  1  'x, y, z'
loop_
 _atom_site_type_symbol
 _atom_site_label
 _atom_site_symmetry_multiplicity
 _atom_site_fract_x
 _atom_site_fract_y
 _atom_site_fract_z
 _atom_site_occupancy
 _atom_site_charge
  Zn  Zn1  1  0.552380  0.179450  0.448400  1.0  1.0735
  Zn  Zn2  1  0.945690  0.084850  0.678250  1.0  1.1377
  Zn  Zn3  1  0.447620  0.679450  0.051600  1.0  1.0726
  Zn  Zn4  1  0.054310  0.584850  0.821750  1.0  1.1373
  Zn  Zn5  1  0.447620  0.820550  0.551600  1.0  1.0773
  Zn  Zn6  1  0.054310  0.915150  0.321750  1.0  1.1371
  Zn  Zn7  1  0.552380  0.320550  0.948400  1.0  1.0776
  Zn  Zn8  1  0.945690  0.415150  0.178250  1.0  1.1375
  P  P9  1  0.733780  0.018000  0.598080  1.0  1.8305
  P  P10  1  0.483990  0.395130  0.208390  1.0  1.8332
  P  P11  1  0.985310  0.790780  0.561320  1.0  1.8113
  P  P12  1  0.266220  0.518000  0.901920  1.0  1.8301
  P  P13  1  0.516010  0.895130  0.291610  1.0  1.8332
  P  P14  1  0.014690  0.290780  0.938680  1.0  1.8192
  P  P15  1  0.266220  0.982000  0.401920  1.0  1.8302
  P  P16  1  0.516010  0.604870  0.791610  1.0  1.8335
  P  P17  1  0.014690  0.209220  0.438680  1.0  1.8081
  P  P18  1  0.733780  0.482000  0.098080  1.0  1.8318
  P  P19  1  0.483990  0.104870  0.708390  1.0  1.8333
  P  P20  1  0.985310  0.709220  0.061320  1.0  1.8105
  H  H21  1  0.338000  0.412000  0.130000  1.0  0.4213
  H  H22  1  0.638000  0.945000  0.682000  1.0  0.4056
  H  H23  1  0.856000  0.825000  0.465000  1.0  0.4022
  H  H24  1  0.662000  0.912000  0.370000  1.0  0.4226
  H  H25  1  0.362000  0.445000  0.818000  1.0  0.405
  H  H26  1  0.144000  0.325000  0.035000  1.0  0.4016
  H  H27  1  0.662000  0.588000  0.870000  1.0  0.423
  H  H28  1  0.362000  0.055000  0.318000  1.0  0.4043
  H  H29  1  0.144000  0.175000  0.535000  1.0  0.401
  H  H30  1  0.338000  0.088000  0.630000  1.0  0.4217
  H  H31  1  0.638000  0.555000  0.182000  1.0  0.4054
  H  H32  1  0.856000  0.675000  0.965000  1.0  0.4018
  O  O33  1  0.676270  0.138800  0.537100  1.0  -0.8171
  O  O34  1  0.545660  0.353400  0.352700  1.0  -0.7662
  O  O35  1  0.823690  0.056100  0.696400  1.0  -0.8021
  O  O36  1  0.994150  0.907000  0.664300  1.0  -0.8715
  O  O37  1  0.747340  0.925000  0.479600  1.0  -0.4803
  O  O38  1  0.686130  0.929500  0.688500  1.0  -0.7272
  O  O39  1  0.487330  0.293800  0.092100  1.0  -0.7927
  O  O40  1  0.515860  0.536800  0.174000  1.0  -0.8376
  O  O41  1  0.387240  0.402100  0.221000  1.0  -0.5405
  O  O42  1  0.055630  0.795000  0.478500  1.0  -0.7636
  O  O43  1  0.990890  0.653100  0.635000  1.0  -0.7932
  O  O44  1  0.892130  0.796200  0.445200  1.0  -0.7254
  O  O45  1  0.323730  0.638800  0.962900  1.0  -0.8202
  O  O46  1  0.454340  0.853400  0.147300  1.0  -0.768
  O  O47  1  0.176310  0.556100  0.803600  1.0  -0.8032
  O  O48  1  0.005850  0.407000  0.835700  1.0  -0.8714
  O  O49  1  0.252660  0.425000  0.020400  1.0  -0.4779
  O  O50  1  0.313870  0.429500  0.811500  1.0  -0.7285
  O  O51  1  0.512670  0.793800  0.407900  1.0  -0.7931
  O  O52  1  0.484140  0.036800  0.326000  1.0  -0.8367
  O  O53  1  0.612760  0.902100  0.279000  1.0  -0.5415
  O  O54  1  0.944370  0.295000  0.021500  1.0  -0.7626
  O  O55  1  0.009110  0.153100  0.865000  1.0  -0.792
  O  O56  1  0.107870  0.296200  0.054800  1.0  -0.7255
  O  O57  1  0.323730  0.861200  0.462900  1.0  -0.8151
  O  O58  1  0.454340  0.646600  0.647300  1.0  -0.7684
  O  O59  1  0.176310  0.943900  0.303600  1.0  -0.8029
  O  O60  1  0.005850  0.093000  0.335700  1.0  -0.8719
  O  O61  1  0.252660  0.075000  0.520400  1.0  -0.4781
  O  O62  1  0.313870  0.070500  0.311500  1.0  -0.7297
  O  O63  1  0.512670  0.706200  0.907900  1.0  -0.7937
  O  O64  1  0.484140  0.463200  0.826000  1.0  -0.8358
  O  O65  1  0.612760  0.597900  0.779000  1.0  -0.5417
  O  O66  1  0.944370  0.205000  0.521500  1.0  -0.7625
  O  O67  1  0.009110  0.346900  0.365000  1.0  -0.7913
  O  O68  1  0.107870  0.203800  0.554800  1.0  -0.7264
  O  O69  1  0.676270  0.361200  0.037100  1.0  -0.8136
  O  O70  1  0.545660  0.146600  0.852700  1.0  -0.7662
  O  O71  1  0.823690  0.443900  0.196400  1.0  -0.802
  O  O72  1  0.994150  0.593000  0.164300  1.0  -0.8716
  O  O73  1  0.747340  0.575000  0.979600  1.0  -0.4798
  O  O74  1  0.686130  0.570500  0.188500  1.0  -0.7283
  O  O75  1  0.487330  0.206200  0.592100  1.0  -0.7945
  O  O76  1  0.515860  0.963200  0.674000  1.0  -0.8361
  O  O77  1  0.387240  0.097900  0.721000  1.0  -0.5409
  O  O78  1  0.055630  0.705000  0.978500  1.0  -0.7632
  O  O79  1  0.990890  0.846900  0.135000  1.0  -0.7926
  O  O80  1  0.892130  0.703800  0.945200  1.0  -0.7264
