# generated using pymatgen
data_Zn5H6(C10O9)2
_symmetry_space_group_name_H-M   'P 1'
_cell_length_a   7.40870000
_cell_length_b   14.53470000
_cell_length_c   16.42360000
_cell_angle_alpha   90.00000000
_cell_angle_beta   90.00000000
_cell_angle_gamma   94.99300000
_symmetry_Int_Tables_number   1
_chemical_formula_structural   Zn5H6(C10O9)2
_chemical_formula_sum   'Zn10 H12 C40 O36'
_cell_volume   1761.83529303
_cell_formula_units_Z   2
loop_
 _symmetry_equiv_pos_site_id
 _symmetry_equiv_pos_as_xyz
  1  'x, y, z'
loop_
 _atom_site_type_symbol
 _atom_site_label
 _atom_site_symmetry_multiplicity
 _atom_site_fract_x
 _atom_site_fract_y
 _atom_site_fract_z
 _atom_site_occupancy
 _atom_site_charge
  Zn  Zn1  1  0.221600  0.680870  0.481920  1.0  1.1459
  Zn  Zn2  1  0.191300  0.479100  0.372770  1.0  1.1224
  Zn  Zn3  1  0.278400  0.819130  0.981920  1.0  1.146
  Zn  Zn4  1  0.308700  0.020900  0.872770  1.0  1.1225
  Zn  Zn5  1  0.778400  0.319130  0.518080  1.0  1.1451
  Zn  Zn6  1  0.808700  0.520900  0.627230  1.0  1.1207
  Zn  Zn7  1  0.721600  0.180870  0.018080  1.0  1.1463
  Zn  Zn8  1  0.691300  0.979100  0.127230  1.0  1.1204
  Zn  Zn9  1  0.500000  0.500000  0.500000  1.0  1.1286
  Zn  Zn10  1  0.000000  0.000000  0.000000  1.0  1.1286
  H  H11  1  0.836200  0.482000  0.476000  1.0  0.4311
  H  H12  1  0.428800  0.674200  0.205400  1.0  0.1153
  H  H13  1  0.048600  0.729200  0.224400  1.0  0.1135
  H  H14  1  0.663800  0.018000  0.976000  1.0  0.4321
  H  H15  1  0.071200  0.825800  0.705400  1.0  0.1148
  H  H16  1  0.451400  0.770800  0.724400  1.0  0.1145
  H  H17  1  0.163800  0.518000  0.524000  1.0  0.432
  H  H18  1  0.571200  0.325800  0.794600  1.0  0.1147
  H  H19  1  0.951400  0.270800  0.775600  1.0  0.1145
  H  H20  1  0.336200  0.982000  0.024000  1.0  0.431
  H  H21  1  0.928800  0.174200  0.294600  1.0  0.1156
  H  H22  1  0.548600  0.229200  0.275600  1.0  0.1135
  C  C23  1  0.830700  0.664400  0.280300  1.0  -0.0355
  C  C24  1  0.643100  0.647600  0.274700  1.0  -0.1362
  C  C25  1  0.553500  0.687200  0.210500  1.0  -0.0184
  C  C26  1  0.643900  0.744800  0.154500  1.0  -0.1196
  C  C27  1  0.832700  0.759900  0.159700  1.0  -0.0892
  C  C28  1  0.923000  0.719500  0.221600  1.0  -0.0636
  C  C29  1  0.945900  0.625900  0.345700  1.0  0.726
  C  C30  1  0.534400  0.592000  0.336300  1.0  0.7022
  C  C31  1  0.528100  0.786300  0.092100  1.0  0.7057
  C  C32  1  0.945600  0.819000  0.099300  1.0  0.7456
  C  C33  1  0.669300  0.835600  0.780300  1.0  -0.0357
  C  C34  1  0.856900  0.852400  0.774700  1.0  -0.1365
  C  C35  1  0.946500  0.812800  0.710500  1.0  -0.0164
  C  C36  1  0.856100  0.755200  0.654500  1.0  -0.1208
  C  C37  1  0.667300  0.740100  0.659700  1.0  -0.0886
  C  C38  1  0.577000  0.780500  0.721600  1.0  -0.0653
  C  C39  1  0.554100  0.874100  0.845700  1.0  0.7266
  C  C40  1  0.965600  0.908000  0.836300  1.0  0.7029
  C  C41  1  0.971900  0.713700  0.592100  1.0  0.706
  C  C42  1  0.554400  0.681000  0.599300  1.0  0.7446
  C  C43  1  0.169300  0.335600  0.719700  1.0  -0.0355
  C  C44  1  0.356900  0.352400  0.725300  1.0  -0.1363
  C  C45  1  0.446500  0.312800  0.789500  1.0  -0.0159
  C  C46  1  0.356100  0.255200  0.845500  1.0  -0.1198
  C  C47  1  0.167300  0.240100  0.840300  1.0  -0.0889
  C  C48  1  0.077000  0.280500  0.778400  1.0  -0.0655
  C  C49  1  0.054100  0.374100  0.654300  1.0  0.7264
  C  C50  1  0.465600  0.408000  0.663700  1.0  0.7031
  C  C51  1  0.471900  0.213700  0.907900  1.0  0.7068
  C  C52  1  0.054400  0.181000  0.900700  1.0  0.7445
  C  C53  1  0.330700  0.164400  0.219700  1.0  -0.0353
  C  C54  1  0.143100  0.147600  0.225300  1.0  -0.1362
  C  C55  1  0.053500  0.187200  0.289500  1.0  -0.0181
  C  C56  1  0.143900  0.244800  0.345500  1.0  -0.1186
  C  C57  1  0.332700  0.259900  0.340300  1.0  -0.0897
  C  C58  1  0.423000  0.219500  0.278400  1.0  -0.0636
  C  C59  1  0.445900  0.125900  0.154300  1.0  0.7259
  C  C60  1  0.034400  0.092000  0.163700  1.0  0.7022
  C  C61  1  0.028100  0.286300  0.407900  1.0  0.7061
  C  C62  1  0.445600  0.319000  0.400700  1.0  0.7458
  O  O63  1  0.970000  0.542600  0.341000  1.0  -0.6215
  O  O64  1  0.017400  0.683300  0.394700  1.0  -0.6223
  O  O65  1  0.377800  0.560300  0.313800  1.0  -0.6313
  O  O66  1  0.603800  0.580900  0.404100  1.0  -0.5876
  O  O67  1  0.523700  0.871600  0.087000  1.0  -0.6389
  O  O68  1  0.427200  0.732900  0.049600  1.0  -0.5652
  O  O69  1  0.078300  0.783100  0.070500  1.0  -0.611
  O  O70  1  0.901400  0.897300  0.084300  1.0  -0.6437
  O  O71  1  0.754000  0.453500  0.517400  1.0  -0.9869
  O  O72  1  0.530000  0.957400  0.841000  1.0  -0.6211
  O  O73  1  0.482600  0.816700  0.894700  1.0  -0.6228
  O  O74  1  0.122200  0.939700  0.813800  1.0  -0.6317
  O  O75  1  0.896200  0.919100  0.904100  1.0  -0.5869
  O  O76  1  0.976300  0.628400  0.587000  1.0  -0.6383
  O  O77  1  0.072800  0.767100  0.549600  1.0  -0.5662
  O  O78  1  0.421700  0.716900  0.570500  1.0  -0.6099
  O  O79  1  0.598600  0.602700  0.584300  1.0  -0.6453
  O  O80  1  0.746000  0.046500  0.017400  1.0  -0.988
  O  O81  1  0.030000  0.457400  0.659000  1.0  -0.6213
  O  O82  1  0.982600  0.316700  0.605300  1.0  -0.623
  O  O83  1  0.622200  0.439700  0.686200  1.0  -0.6311
  O  O84  1  0.396200  0.419100  0.595900  1.0  -0.5869
  O  O85  1  0.476300  0.128400  0.913000  1.0  -0.6385
  O  O86  1  0.572800  0.267100  0.950400  1.0  -0.5658
  O  O87  1  0.921700  0.216900  0.929500  1.0  -0.6103
  O  O88  1  0.098600  0.102700  0.915700  1.0  -0.644
  O  O89  1  0.246000  0.546500  0.482600  1.0  -0.9897
  O  O90  1  0.470000  0.042600  0.159000  1.0  -0.621
  O  O91  1  0.517400  0.183300  0.105300  1.0  -0.6224
  O  O92  1  0.877800  0.060300  0.186200  1.0  -0.6315
  O  O93  1  0.103800  0.080900  0.095900  1.0  -0.5874
  O  O94  1  0.023700  0.371600  0.413000  1.0  -0.639
  O  O95  1  0.927200  0.232900  0.450400  1.0  -0.566
  O  O96  1  0.578300  0.283100  0.429500  1.0  -0.6116
  O  O97  1  0.401400  0.397300  0.415700  1.0  -0.6431
  O  O98  1  0.254000  0.953500  0.982600  1.0  -0.9888
