# generated using pymatgen
data_Zn5H6(C10O9)2
_symmetry_space_group_name_H-M   'P 1'
_cell_length_a   7.41960000
_cell_length_b   16.72760000
_cell_length_c   15.49050000
_cell_angle_alpha   90.00000000
_cell_angle_beta   113.20700000
_cell_angle_gamma   90.00000000
_symmetry_Int_Tables_number   1
_chemical_formula_structural   Zn5H6(C10O9)2
_chemical_formula_sum   'Zn10 H12 C40 O36'
_cell_volume   1766.99891490
_cell_formula_units_Z   2
loop_
 _symmetry_equiv_pos_site_id
 _symmetry_equiv_pos_as_xyz
  1  'x, y, z'
loop_
 _atom_site_type_symbol
 _atom_site_label
 _atom_site_symmetry_multiplicity
 _atom_site_fract_x
 _atom_site_fract_y
 _atom_site_fract_z
 _atom_site_occupancy
 _atom_site_charge
  Zn  Zn1  1  0.463180  0.983020  0.183700  1.0  1.0715
  Zn  Zn2  1  0.289950  0.875590  0.977640  1.0  1.0444
  Zn  Zn3  1  0.536820  0.483020  0.316300  1.0  1.075
  Zn  Zn4  1  0.710050  0.375590  0.522360  1.0  1.0438
  Zn  Zn5  1  0.536820  0.016980  0.816300  1.0  1.0757
  Zn  Zn6  1  0.710050  0.124410  0.022360  1.0  1.0464
  Zn  Zn7  1  0.463180  0.516980  0.683700  1.0  1.0715
  Zn  Zn8  1  0.289950  0.624410  0.477640  1.0  1.047
  Zn  Zn9  1  0.000000  0.000000  0.000000  1.0  1.0909
  Zn  Zn10  1  0.000000  0.500000  0.500000  1.0  1.0909
  H  H11  1  0.242800  0.707900  0.170200  1.0  0.123
  H  H12  1  0.680900  0.726700  0.227100  1.0  0.1226
  H  H13  1  0.340100  0.030200  0.022700  1.0  0.3232
  H  H14  1  0.757200  0.207900  0.329800  1.0  0.1227
  H  H15  1  0.319100  0.226700  0.272900  1.0  0.1235
  H  H16  1  0.659900  0.530200  0.477300  1.0  0.3208
  H  H17  1  0.757200  0.292100  0.829800  1.0  0.1226
  H  H18  1  0.319100  0.273300  0.772900  1.0  0.1235
  H  H19  1  0.659900  0.969800  0.977300  1.0  0.3211
  H  H20  1  0.242800  0.792100  0.670200  1.0  0.1228
  H  H21  1  0.680900  0.773300  0.727100  1.0  0.1228
  H  H22  1  0.340100  0.469800  0.522700  1.0  0.3215
  C  C23  1  0.066300  0.840100  0.094800  1.0  0.7304
  C  C24  1  0.008200  0.777600  0.148000  1.0  -0.1277
  C  C25  1  0.132600  0.713100  0.184200  1.0  -0.0164
  C  C26  1  0.837700  0.783500  0.165200  1.0  0.0013
  C  C27  1  0.097600  0.656100  0.241100  1.0  -0.0574
  C  C28  1  0.926600  0.661400  0.258300  1.0  -0.0852
  C  C29  1  0.797600  0.724200  0.218200  1.0  -0.0643
  C  C30  1  0.687300  0.848300  0.128200  1.0  0.7403
  C  C31  1  0.869700  0.601400  0.314900  1.0  0.7624
  C  C32  1  0.250900  0.592800  0.280100  1.0  0.7253
  C  C33  1  0.933700  0.340100  0.405200  1.0  0.7303
  C  C34  1  0.991800  0.277600  0.352000  1.0  -0.1276
  C  C35  1  0.867400  0.213100  0.315800  1.0  -0.015
  C  C36  1  0.162300  0.283500  0.334800  1.0  0.0014
  C  C37  1  0.902400  0.156100  0.258900  1.0  -0.0562
  C  C38  1  0.073400  0.161400  0.241700  1.0  -0.0851
  C  C39  1  0.202400  0.224200  0.281800  1.0  -0.0643
  C  C40  1  0.312700  0.348300  0.371800  1.0  0.7395
  C  C41  1  0.130300  0.101400  0.185100  1.0  0.7623
  C  C42  1  0.749100  0.092800  0.219900  1.0  0.7243
  C  C43  1  0.933700  0.159900  0.905200  1.0  0.7302
  C  C44  1  0.991800  0.222400  0.852000  1.0  -0.1275
  C  C45  1  0.867400  0.286900  0.815800  1.0  -0.0152
  C  C46  1  0.162300  0.216500  0.834800  1.0  0.0009
  C  C47  1  0.902400  0.343900  0.758900  1.0  -0.0559
  C  C48  1  0.073400  0.338600  0.741700  1.0  -0.0845
  C  C49  1  0.202400  0.275800  0.781800  1.0  -0.0644
  C  C50  1  0.312700  0.151700  0.871800  1.0  0.7395
  C  C51  1  0.130300  0.398600  0.685100  1.0  0.7627
  C  C52  1  0.749100  0.407200  0.719900  1.0  0.724
  C  C53  1  0.066300  0.659900  0.594800  1.0  0.7303
  C  C54  1  0.008200  0.722400  0.648000  1.0  -0.1276
  C  C55  1  0.132600  0.786900  0.684200  1.0  -0.0162
  C  C56  1  0.837700  0.716500  0.665200  1.0  0.0007
  C  C57  1  0.097600  0.843900  0.741100  1.0  -0.057
  C  C58  1  0.926600  0.838600  0.758300  1.0  -0.0847
  C  C59  1  0.797600  0.775800  0.718200  1.0  -0.0645
  C  C60  1  0.687300  0.651700  0.628200  1.0  0.7406
  C  C61  1  0.869700  0.898600  0.814900  1.0  0.7627
  C  C62  1  0.250900  0.907200  0.780100  1.0  0.7253
  O  O63  1  0.193800  0.819000  0.064500  1.0  -0.6132
  O  O64  1  0.985100  0.906300  0.084100  1.0  -0.5789
  O  O65  1  0.579000  0.846700  0.042100  1.0  -0.6061
  O  O66  1  0.674400  0.896100  0.187100  1.0  -0.6073
  O  O67  1  0.992600  0.584600  0.395000  1.0  -0.6229
  O  O68  1  0.700500  0.573900  0.279000  1.0  -0.632
  O  O69  1  0.343900  0.585000  0.366800  1.0  -0.6154
  O  O70  1  0.293400  0.550800  0.223900  1.0  -0.585
  O  O71  1  0.299100  0.984400  0.043900  1.0  -0.981
  O  O72  1  0.806200  0.319000  0.435500  1.0  -0.6126
  O  O73  1  0.014900  0.406300  0.415900  1.0  -0.5795
  O  O74  1  0.421000  0.346700  0.457900  1.0  -0.6051
  O  O75  1  0.325600  0.396100  0.312900  1.0  -0.6076
  O  O76  1  0.007400  0.084600  0.105000  1.0  -0.622
  O  O77  1  0.299500  0.073900  0.221000  1.0  -0.6315
  O  O78  1  0.656100  0.085000  0.133200  1.0  -0.6154
  O  O79  1  0.706600  0.050800  0.276100  1.0  -0.583
  O  O80  1  0.700900  0.484400  0.456100  1.0  -0.983
  O  O81  1  0.806200  0.181000  0.935500  1.0  -0.6121
  O  O82  1  0.014900  0.093700  0.915900  1.0  -0.5799
  O  O83  1  0.421000  0.153300  0.957900  1.0  -0.6052
  O  O84  1  0.325600  0.103900  0.812900  1.0  -0.6071
  O  O85  1  0.007400  0.415400  0.605000  1.0  -0.6217
  O  O86  1  0.299500  0.426100  0.721000  1.0  -0.6319
  O  O87  1  0.656100  0.415000  0.633200  1.0  -0.6162
  O  O88  1  0.706600  0.449200  0.776100  1.0  -0.5835
  O  O89  1  0.700900  0.015600  0.956100  1.0  -0.9836
  O  O90  1  0.193800  0.681000  0.564500  1.0  -0.6137
  O  O91  1  0.985100  0.593700  0.584100  1.0  -0.5797
  O  O92  1  0.579000  0.653300  0.542100  1.0  -0.6055
  O  O93  1  0.674400  0.603900  0.687100  1.0  -0.6074
  O  O94  1  0.992600  0.915400  0.895000  1.0  -0.6225
  O  O95  1  0.700500  0.926100  0.779000  1.0  -0.6312
  O  O96  1  0.343900  0.915000  0.866800  1.0  -0.6162
  O  O97  1  0.293400  0.949200  0.723900  1.0  -0.5844
  O  O98  1  0.299100  0.515600  0.543900  1.0  -0.9821
