# generated using pymatgen
data_Zn2CoH6C18O13
_symmetry_space_group_name_H-M   'P 1'
_cell_length_a   20.50800000
_cell_length_b   20.50800000
_cell_length_c   17.79200000
_cell_angle_alpha   90.00000000
_cell_angle_beta   90.00000000
_cell_angle_gamma   90.00000000
_symmetry_Int_Tables_number   1
_chemical_formula_structural   Zn2CoH6C18O13
_chemical_formula_sum   'Zn16 Co8 H48 C144 O104'
_cell_volume   7482.92491469
_cell_formula_units_Z   8
loop_
 _symmetry_equiv_pos_site_id
 _symmetry_equiv_pos_as_xyz
  1  'x, y, z'
loop_
 _atom_site_type_symbol
 _atom_site_label
 _atom_site_symmetry_multiplicity
 _atom_site_fract_x
 _atom_site_fract_y
 _atom_site_fract_z
 _atom_site_occupancy
 _atom_site_charge
  Zn  Zn1  1  0.742910  0.880780  0.789770  1.0  1.0336
  Zn  Zn2  1  0.242910  0.380780  0.289770  1.0  1.0336
  Zn  Zn3  1  0.257090  0.119220  0.789770  1.0  1.0357
  Zn  Zn4  1  0.757090  0.619220  0.289770  1.0  1.0357
  Zn  Zn5  1  0.119220  0.742910  0.789770  1.0  1.0348
  Zn  Zn6  1  0.619220  0.242910  0.289770  1.0  1.0348
  Zn  Zn7  1  0.880780  0.257090  0.789770  1.0  1.0349
  Zn  Zn8  1  0.380780  0.757090  0.289770  1.0  1.0349
  Zn  Zn9  1  0.742910  0.119220  0.289770  1.0  1.0344
  Zn  Zn10  1  0.242910  0.619220  0.789770  1.0  1.0344
  Zn  Zn11  1  0.257090  0.880780  0.289770  1.0  1.035
  Zn  Zn12  1  0.757090  0.380780  0.789770  1.0  1.035
  Zn  Zn13  1  0.119220  0.257090  0.289770  1.0  1.0351
  Zn  Zn14  1  0.619220  0.757090  0.789770  1.0  1.0351
  Zn  Zn15  1  0.880780  0.742910  0.289770  1.0  1.0343
  Zn  Zn16  1  0.380780  0.242910  0.789770  1.0  1.0343
  Co  Co17  1  0.658180  0.841820  0.938560  1.0  1.0632
  Co  Co18  1  0.341820  0.158180  0.938560  1.0  1.0632
  Co  Co19  1  0.158180  0.658180  0.938560  1.0  1.0634
  Co  Co20  1  0.841820  0.341820  0.938560  1.0  1.0629
  Co  Co21  1  0.658180  0.158180  0.438560  1.0  1.0634
  Co  Co22  1  0.341820  0.841820  0.438560  1.0  1.0629
  Co  Co23  1  0.158180  0.341820  0.438560  1.0  1.0632
  Co  Co24  1  0.841820  0.658180  0.438560  1.0  1.0632
  H  H25  1  0.684900  0.989700  0.543100  1.0  0.1388
  H  H26  1  0.790700  0.822100  0.554200  1.0  0.1264
  H  H27  1  0.767500  0.912900  0.357300  1.0  0.1293
  H  H28  1  0.184900  0.489700  0.043100  1.0  0.1388
  H  H29  1  0.290700  0.322100  0.054200  1.0  0.1264
  H  H30  1  0.267500  0.412900  0.857300  1.0  0.1293
  H  H31  1  0.315100  0.010300  0.543100  1.0  0.1383
  H  H32  1  0.209300  0.177900  0.554200  1.0  0.126
  H  H33  1  0.232500  0.087100  0.357300  1.0  0.1291
  H  H34  1  0.815100  0.510300  0.043100  1.0  0.1383
  H  H35  1  0.709300  0.677900  0.054200  1.0  0.126
  H  H36  1  0.732500  0.587100  0.857300  1.0  0.1291
  H  H37  1  0.010300  0.684900  0.543100  1.0  0.1386
  H  H38  1  0.177900  0.790700  0.554200  1.0  0.1269
  H  H39  1  0.087100  0.767500  0.357300  1.0  0.1294
  H  H40  1  0.510300  0.184900  0.043100  1.0  0.1386
  H  H41  1  0.677900  0.290700  0.054200  1.0  0.1269
  H  H42  1  0.587100  0.267500  0.857300  1.0  0.1294
  H  H43  1  0.989700  0.315100  0.543100  1.0  0.1379
  H  H44  1  0.822100  0.209300  0.554200  1.0  0.1272
  H  H45  1  0.912900  0.232500  0.357300  1.0  0.1293
  H  H46  1  0.489700  0.815100  0.043100  1.0  0.1379
  H  H47  1  0.322100  0.709300  0.054200  1.0  0.1272
  H  H48  1  0.412900  0.732500  0.857300  1.0  0.1293
  H  H49  1  0.684900  0.010300  0.043100  1.0  0.1388
  H  H50  1  0.790700  0.177900  0.054200  1.0  0.1259
  H  H51  1  0.767500  0.087100  0.857300  1.0  0.1292
  H  H52  1  0.184900  0.510300  0.543100  1.0  0.1388
  H  H53  1  0.290700  0.677900  0.554200  1.0  0.1259
  H  H54  1  0.267500  0.587100  0.357300  1.0  0.1292
  H  H55  1  0.315100  0.989700  0.043100  1.0  0.1381
  H  H56  1  0.209300  0.822100  0.054200  1.0  0.1264
  H  H57  1  0.232500  0.912900  0.857300  1.0  0.1292
  H  H58  1  0.815100  0.489700  0.543100  1.0  0.1381
  H  H59  1  0.709300  0.322100  0.554200  1.0  0.1264
  H  H60  1  0.732500  0.412900  0.357300  1.0  0.1292
  H  H61  1  0.010300  0.315100  0.043100  1.0  0.1382
  H  H62  1  0.177900  0.209300  0.054200  1.0  0.1275
  H  H63  1  0.087100  0.232500  0.857300  1.0  0.1296
  H  H64  1  0.510300  0.815100  0.543100  1.0  0.1382
  H  H65  1  0.677900  0.709300  0.554200  1.0  0.1275
  H  H66  1  0.587100  0.732500  0.357300  1.0  0.1296
  H  H67  1  0.989700  0.684900  0.043100  1.0  0.138
  H  H68  1  0.822100  0.790700  0.054200  1.0  0.1269
  H  H69  1  0.912900  0.767500  0.857300  1.0  0.1293
  H  H70  1  0.489700  0.184900  0.543100  1.0  0.138
  H  H71  1  0.322100  0.290700  0.554200  1.0  0.1269
  H  H72  1  0.412900  0.267500  0.357300  1.0  0.1293
  C  C73  1  0.725600  0.961300  0.444000  1.0  -0.1165
  C  C74  1  0.727200  0.904600  0.645500  1.0  0.715
  C  C75  1  0.711400  0.957500  0.519800  1.0  -0.002
  C  C76  1  0.737000  0.905100  0.562200  1.0  -0.1308
  C  C77  1  0.782500  0.857400  0.448700  1.0  -0.132
  C  C78  1  0.772600  0.856700  0.525500  1.0  0.0005
  C  C79  1  0.818700  0.804200  0.411200  1.0  0.7196
  C  C80  1  0.759700  0.910600  0.409800  1.0  0.0098
  C  C81  1  0.706900  0.022200  0.402700  1.0  0.7445
  C  C82  1  0.225600  0.461300  0.944000  1.0  -0.1165
  C  C83  1  0.227200  0.404600  0.145500  1.0  0.715
  C  C84  1  0.211400  0.457500  0.019800  1.0  -0.002
  C  C85  1  0.237000  0.405100  0.062200  1.0  -0.1308
  C  C86  1  0.282500  0.357400  0.948700  1.0  -0.132
  C  C87  1  0.272600  0.356700  0.025500  1.0  0.0005
  C  C88  1  0.318700  0.304200  0.911200  1.0  0.7196
  C  C89  1  0.259700  0.410600  0.909800  1.0  0.0098
  C  C90  1  0.206900  0.522200  0.902700  1.0  0.7445
  C  C91  1  0.274400  0.038700  0.444000  1.0  -0.1175
  C  C92  1  0.272800  0.095400  0.645500  1.0  0.7153
  C  C93  1  0.288600  0.042500  0.519800  1.0  -0.0
  C  C94  1  0.263000  0.094900  0.562200  1.0  -0.1321
  C  C95  1  0.217500  0.142600  0.448700  1.0  -0.1323
  C  C96  1  0.227400  0.143300  0.525500  1.0  0.0011
  C  C97  1  0.181300  0.195800  0.411200  1.0  0.72
  C  C98  1  0.240300  0.089400  0.409800  1.0  0.0121
  C  C99  1  0.293100  0.977800  0.402700  1.0  0.7443
  C  C100  1  0.774400  0.538700  0.944000  1.0  -0.1175
  C  C101  1  0.772800  0.595400  0.145500  1.0  0.7153
  C  C102  1  0.788600  0.542500  0.019800  1.0  -0.0
  C  C103  1  0.763000  0.594900  0.062200  1.0  -0.1321
  C  C104  1  0.717500  0.642600  0.948700  1.0  -0.1323
  C  C105  1  0.727400  0.643300  0.025500  1.0  0.0011
  C  C106  1  0.681300  0.695800  0.911200  1.0  0.72
  C  C107  1  0.740300  0.589400  0.909800  1.0  0.0121
  C  C108  1  0.793100  0.477800  0.902700  1.0  0.7443
  C  C109  1  0.038700  0.725600  0.444000  1.0  -0.1176
  C  C110  1  0.095400  0.727200  0.645500  1.0  0.7162
  C  C111  1  0.042500  0.711400  0.519800  1.0  0.001
  C  C112  1  0.094900  0.737000  0.562200  1.0  -0.1315
  C  C113  1  0.142600  0.782500  0.448700  1.0  -0.1334
  C  C114  1  0.143300  0.772600  0.525500  1.0  -0.0014
  C  C115  1  0.195800  0.818700  0.411200  1.0  0.7178
  C  C116  1  0.089400  0.759700  0.409800  1.0  0.0107
  C  C117  1  0.977800  0.706900  0.402700  1.0  0.7438
  C  C118  1  0.538700  0.225600  0.944000  1.0  -0.1176
  C  C119  1  0.595400  0.227200  0.145500  1.0  0.7162
  C  C120  1  0.542500  0.211400  0.019800  1.0  0.001
  C  C121  1  0.594900  0.237000  0.062200  1.0  -0.1315
  C  C122  1  0.642600  0.282500  0.948700  1.0  -0.1334
  C  C123  1  0.643300  0.272600  0.025500  1.0  -0.0014
  C  C124  1  0.695800  0.318700  0.911200  1.0  0.7178
  C  C125  1  0.589400  0.259700  0.909800  1.0  0.0107
  C  C126  1  0.477800  0.206900  0.902700  1.0  0.7438
  C  C127  1  0.961300  0.274400  0.444000  1.0  -0.1175
  C  C128  1  0.904600  0.272800  0.645500  1.0  0.7169
  C  C129  1  0.957500  0.288600  0.519800  1.0  0.0017
  C  C130  1  0.905100  0.263000  0.562200  1.0  -0.1327
  C  C131  1  0.857400  0.217500  0.448700  1.0  -0.1331
  C  C132  1  0.856700  0.227400  0.525500  1.0  -0.0009
  C  C133  1  0.804200  0.181300  0.411200  1.0  0.7186
  C  C134  1  0.910600  0.240300  0.409800  1.0  0.0104
  C  C135  1  0.022200  0.293100  0.402700  1.0  0.744
  C  C136  1  0.461300  0.774400  0.944000  1.0  -0.1175
  C  C137  1  0.404600  0.772800  0.145500  1.0  0.7169
  C  C138  1  0.457500  0.788600  0.019800  1.0  0.0017
  C  C139  1  0.405100  0.763000  0.062200  1.0  -0.1327
  C  C140  1  0.357400  0.717500  0.948700  1.0  -0.1331
  C  C141  1  0.356700  0.727400  0.025500  1.0  -0.0009
  C  C142  1  0.304200  0.681300  0.911200  1.0  0.7186
  C  C143  1  0.410600  0.740300  0.909800  1.0  0.0104
  C  C144  1  0.522200  0.793100  0.902700  1.0  0.744
  C  C145  1  0.725600  0.038700  0.944000  1.0  -0.1173
  C  C146  1  0.727200  0.095400  0.145500  1.0  0.7159
  C  C147  1  0.711400  0.042500  0.019800  1.0  -0.0007
  C  C148  1  0.737000  0.094900  0.062200  1.0  -0.132
  C  C149  1  0.782500  0.142600  0.948700  1.0  -0.1328
  C  C150  1  0.772600  0.143300  0.025500  1.0  0.0004
  C  C151  1  0.818700  0.195800  0.911200  1.0  0.7201
  C  C152  1  0.759700  0.089400  0.909800  1.0  0.0098
  C  C153  1  0.706900  0.977800  0.902700  1.0  0.744
  C  C154  1  0.225600  0.538700  0.444000  1.0  -0.1173
  C  C155  1  0.227200  0.595400  0.645500  1.0  0.7159
  C  C156  1  0.211400  0.542500  0.519800  1.0  -0.0007
  C  C157  1  0.237000  0.594900  0.562200  1.0  -0.132
  C  C158  1  0.282500  0.642600  0.448700  1.0  -0.1328
  C  C159  1  0.272600  0.643300  0.525500  1.0  0.0004
  C  C160  1  0.318700  0.695800  0.411200  1.0  0.7201
  C  C161  1  0.259700  0.589400  0.409800  1.0  0.0098
  C  C162  1  0.206900  0.477800  0.402700  1.0  0.744
  C  C163  1  0.274400  0.961300  0.944000  1.0  -0.1169
  C  C164  1  0.272800  0.904600  0.145500  1.0  0.7147
  C  C165  1  0.288600  0.957500  0.019800  1.0  -0.0009
  C  C166  1  0.263000  0.905100  0.062200  1.0  -0.1313
  C  C167  1  0.217500  0.857400  0.948700  1.0  -0.1324
  C  C168  1  0.227400  0.856700  0.025500  1.0  0.0016
  C  C169  1  0.181300  0.804200  0.911200  1.0  0.7194
  C  C170  1  0.240300  0.910600  0.909800  1.0  0.012
  C  C171  1  0.293100  0.022200  0.902700  1.0  0.7449
  C  C172  1  0.774400  0.461300  0.444000  1.0  -0.1169
  C  C173  1  0.772800  0.404600  0.645500  1.0  0.7147
  C  C174  1  0.788600  0.457500  0.519800  1.0  -0.0009
  C  C175  1  0.763000  0.405100  0.562200  1.0  -0.1313
  C  C176  1  0.717500  0.357400  0.448700  1.0  -0.1324
  C  C177  1  0.727400  0.356700  0.525500  1.0  0.0016
  C  C178  1  0.681300  0.304200  0.411200  1.0  0.7194
  C  C179  1  0.740300  0.410600  0.409800  1.0  0.012
  C  C180  1  0.793100  0.522200  0.402700  1.0  0.7449
  C  C181  1  0.038700  0.274400  0.944000  1.0  -0.1168
  C  C182  1  0.095400  0.272800  0.145500  1.0  0.7164
  C  C183  1  0.042500  0.288600  0.019800  1.0  0.0009
  C  C184  1  0.094900  0.263000  0.062200  1.0  -0.1321
  C  C185  1  0.142600  0.217500  0.948700  1.0  -0.134
  C  C186  1  0.143300  0.227400  0.025500  1.0  -0.0012
  C  C187  1  0.195800  0.181300  0.911200  1.0  0.7171
  C  C188  1  0.089400  0.240300  0.909800  1.0  0.0111
  C  C189  1  0.977800  0.293100  0.902700  1.0  0.7437
  C  C190  1  0.538700  0.774400  0.444000  1.0  -0.1168
  C  C191  1  0.595400  0.772800  0.645500  1.0  0.7164
  C  C192  1  0.542500  0.788600  0.519800  1.0  0.0009
  C  C193  1  0.594900  0.763000  0.562200  1.0  -0.1321
  C  C194  1  0.642600  0.717500  0.448700  1.0  -0.134
  C  C195  1  0.643300  0.727400  0.525500  1.0  -0.0012
  C  C196  1  0.695800  0.681300  0.411200  1.0  0.7171
  C  C197  1  0.589400  0.740300  0.409800  1.0  0.0111
  C  C198  1  0.477800  0.793100  0.402700  1.0  0.7437
  C  C199  1  0.961300  0.725600  0.944000  1.0  -0.1176
  C  C200  1  0.904600  0.727200  0.145500  1.0  0.7166
  C  C201  1  0.957500  0.711400  0.019800  1.0  0.0019
  C  C202  1  0.905100  0.737000  0.062200  1.0  -0.1317
  C  C203  1  0.857400  0.782500  0.948700  1.0  -0.1325
  C  C204  1  0.856700  0.772600  0.025500  1.0  -0.0012
  C  C205  1  0.804200  0.818700  0.911200  1.0  0.7192
  C  C206  1  0.910600  0.759700  0.909800  1.0  0.01
  C  C207  1  0.022200  0.706900  0.902700  1.0  0.7439
  C  C208  1  0.461300  0.225600  0.444000  1.0  -0.1176
  C  C209  1  0.404600  0.227200  0.645500  1.0  0.7166
  C  C210  1  0.457500  0.211400  0.519800  1.0  0.0019
  C  C211  1  0.405100  0.237000  0.562200  1.0  -0.1317
  C  C212  1  0.357400  0.282500  0.448700  1.0  -0.1325
  C  C213  1  0.356700  0.272600  0.525500  1.0  -0.0012
  C  C214  1  0.304200  0.318700  0.411200  1.0  0.7192
  C  C215  1  0.410600  0.259700  0.409800  1.0  0.01
  C  C216  1  0.522200  0.206900  0.402700  1.0  0.7439
  O  O217  1  0.663490  0.056930  0.430900  1.0  -0.5878
  O  O218  1  0.840100  0.759900  0.450900  1.0  -0.577
  O  O219  1  0.765100  0.867700  0.684500  1.0  -0.574
  O  O220  1  0.828100  0.811200  0.339700  1.0  -0.561
  O  O221  1  0.684700  0.941000  0.673600  1.0  -0.5212
  O  O222  1  0.739300  0.034700  0.342800  1.0  -0.5623
  O  O223  1  0.163490  0.556930  0.930900  1.0  -0.5878
  O  O224  1  0.340100  0.259900  0.950900  1.0  -0.577
  O  O225  1  0.265100  0.367700  0.184500  1.0  -0.574
  O  O226  1  0.328100  0.311200  0.839700  1.0  -0.561
  O  O227  1  0.184700  0.441000  0.173600  1.0  -0.5212
  O  O228  1  0.239300  0.534700  0.842800  1.0  -0.5623
  O  O229  1  0.336510  0.943070  0.430900  1.0  -0.5881
  O  O230  1  0.159900  0.240100  0.450900  1.0  -0.5785
  O  O231  1  0.234900  0.132300  0.684500  1.0  -0.5726
  O  O232  1  0.171900  0.188800  0.339700  1.0  -0.5616
  O  O233  1  0.315300  0.059000  0.673600  1.0  -0.5213
  O  O234  1  0.260700  0.965300  0.342800  1.0  -0.5632
  O  O235  1  0.836510  0.443070  0.930900  1.0  -0.5881
  O  O236  1  0.659900  0.740100  0.950900  1.0  -0.5785
  O  O237  1  0.734900  0.632300  0.184500  1.0  -0.5726
  O  O238  1  0.671900  0.688800  0.839700  1.0  -0.5616
  O  O239  1  0.815300  0.559000  0.173600  1.0  -0.5213
  O  O240  1  0.760700  0.465300  0.842800  1.0  -0.5632
  O  O241  1  0.943070  0.663490  0.430900  1.0  -0.5878
  O  O242  1  0.240100  0.840100  0.450900  1.0  -0.5763
  O  O243  1  0.132300  0.765100  0.684500  1.0  -0.5722
  O  O244  1  0.188800  0.828100  0.339700  1.0  -0.5618
  O  O245  1  0.059000  0.684700  0.673600  1.0  -0.5186
  O  O246  1  0.965300  0.739300  0.342800  1.0  -0.5651
  O  O247  1  0.443070  0.163490  0.930900  1.0  -0.5878
  O  O248  1  0.740100  0.340100  0.950900  1.0  -0.5763
  O  O249  1  0.632300  0.265100  0.184500  1.0  -0.5722
  O  O250  1  0.688800  0.328100  0.839700  1.0  -0.5618
  O  O251  1  0.559000  0.184700  0.173600  1.0  -0.5186
  O  O252  1  0.465300  0.239300  0.842800  1.0  -0.5651
  O  O253  1  0.056930  0.336510  0.430900  1.0  -0.5869
  O  O254  1  0.759900  0.159900  0.450900  1.0  -0.5759
  O  O255  1  0.867700  0.234900  0.684500  1.0  -0.5745
  O  O256  1  0.811200  0.171900  0.339700  1.0  -0.5623
  O  O257  1  0.941000  0.315300  0.673600  1.0  -0.5236
  O  O258  1  0.034700  0.260700  0.342800  1.0  -0.5638
  O  O259  1  0.556930  0.836510  0.930900  1.0  -0.5869
  O  O260  1  0.259900  0.659900  0.950900  1.0  -0.5759
  O  O261  1  0.367700  0.734900  0.184500  1.0  -0.5745
  O  O262  1  0.311200  0.671900  0.839700  1.0  -0.5623
  O  O263  1  0.441000  0.815300  0.173600  1.0  -0.5236
  O  O264  1  0.534700  0.760700  0.842800  1.0  -0.5638
  O  O265  1  0.663490  0.943070  0.930900  1.0  -0.5886
  O  O266  1  0.840100  0.240100  0.950900  1.0  -0.5777
  O  O267  1  0.765100  0.132300  0.184500  1.0  -0.5738
  O  O268  1  0.828100  0.188800  0.839700  1.0  -0.561
  O  O269  1  0.684700  0.059000  0.173600  1.0  -0.5216
  O  O270  1  0.739300  0.965300  0.842800  1.0  -0.5636
  O  O271  1  0.163490  0.443070  0.430900  1.0  -0.5886
  O  O272  1  0.340100  0.740100  0.450900  1.0  -0.5777
  O  O273  1  0.265100  0.632300  0.684500  1.0  -0.5738
  O  O274  1  0.328100  0.688800  0.339700  1.0  -0.561
  O  O275  1  0.184700  0.559000  0.673600  1.0  -0.5216
  O  O276  1  0.239300  0.465300  0.342800  1.0  -0.5636
  O  O277  1  0.336510  0.056930  0.930900  1.0  -0.5871
  O  O278  1  0.159900  0.759900  0.950900  1.0  -0.5773
  O  O279  1  0.234900  0.867700  0.184500  1.0  -0.5725
  O  O280  1  0.171900  0.811200  0.839700  1.0  -0.5615
  O  O281  1  0.315300  0.941000  0.173600  1.0  -0.5222
  O  O282  1  0.260700  0.034700  0.842800  1.0  -0.5626
  O  O283  1  0.836510  0.556930  0.430900  1.0  -0.5871
  O  O284  1  0.659900  0.259900  0.450900  1.0  -0.5773
  O  O285  1  0.734900  0.367700  0.684500  1.0  -0.5725
  O  O286  1  0.671900  0.311200  0.339700  1.0  -0.5615
  O  O287  1  0.815300  0.441000  0.673600  1.0  -0.5222
  O  O288  1  0.760700  0.534700  0.342800  1.0  -0.5626
  O  O289  1  0.943070  0.336510  0.930900  1.0  -0.5863
  O  O290  1  0.240100  0.159900  0.950900  1.0  -0.5767
  O  O291  1  0.132300  0.234900  0.184500  1.0  -0.5721
  O  O292  1  0.188800  0.171900  0.839700  1.0  -0.5621
  O  O293  1  0.059000  0.315300  0.173600  1.0  -0.521
  O  O294  1  0.965300  0.260700  0.842800  1.0  -0.5639
  O  O295  1  0.443070  0.836510  0.430900  1.0  -0.5863
  O  O296  1  0.740100  0.659900  0.450900  1.0  -0.5767
  O  O297  1  0.632300  0.734900  0.684500  1.0  -0.5721
  O  O298  1  0.688800  0.671900  0.339700  1.0  -0.5621
  O  O299  1  0.559000  0.815300  0.673600  1.0  -0.521
  O  O300  1  0.465300  0.760700  0.342800  1.0  -0.5639
  O  O301  1  0.056930  0.663490  0.930900  1.0  -0.588
  O  O302  1  0.759900  0.840100  0.950900  1.0  -0.5756
  O  O303  1  0.867700  0.765100  0.184500  1.0  -0.5739
  O  O304  1  0.811200  0.828100  0.839700  1.0  -0.5618
  O  O305  1  0.941000  0.684700  0.173600  1.0  -0.5228
  O  O306  1  0.034700  0.739300  0.842800  1.0  -0.5653
  O  O307  1  0.556930  0.163490  0.430900  1.0  -0.588
  O  O308  1  0.259900  0.340100  0.450900  1.0  -0.5756
  O  O309  1  0.367700  0.265100  0.684500  1.0  -0.5739
  O  O310  1  0.311200  0.328100  0.339700  1.0  -0.5618
  O  O311  1  0.441000  0.184700  0.673600  1.0  -0.5228
  O  O312  1  0.534700  0.239300  0.342800  1.0  -0.5653
  O  O313  1  0.662370  0.837630  0.819500  1.0  -0.7686
  O  O314  1  0.337630  0.162370  0.819500  1.0  -0.7681
  O  O315  1  0.162370  0.662370  0.819500  1.0  -0.768
  O  O316  1  0.837630  0.337630  0.819500  1.0  -0.7682
  O  O317  1  0.662370  0.162370  0.319500  1.0  -0.768
  O  O318  1  0.337630  0.837630  0.319500  1.0  -0.7682
  O  O319  1  0.162370  0.337630  0.319500  1.0  -0.7686
  O  O320  1  0.837630  0.662370  0.319500  1.0  -0.7681
