# generated using pymatgen
data_Zn3H36C58(NO)16
_symmetry_space_group_name_H-M   'P 1'
_cell_length_a   12.11500000
_cell_length_b   25.75100000
_cell_length_c   35.58800000
_cell_angle_alpha   90.00000000
_cell_angle_beta   90.63900000
_cell_angle_gamma   90.00000000
_symmetry_Int_Tables_number   1
_chemical_formula_structural   Zn3H36C58(NO)16
_chemical_formula_sum   'Zn12 H144 C232 N64 O64'
_cell_volume   11101.81764642
_cell_formula_units_Z   4
loop_
 _symmetry_equiv_pos_site_id
 _symmetry_equiv_pos_as_xyz
  1  'x, y, z'
loop_
 _atom_site_type_symbol
 _atom_site_label
 _atom_site_symmetry_multiplicity
 _atom_site_fract_x
 _atom_site_fract_y
 _atom_site_fract_z
 _atom_site_occupancy
 _atom_site_charge
  Zn  Zn1  1  0.782990  0.791480  0.334740  1.0  0.8534
  Zn  Zn2  1  0.774650  0.826460  0.193030  1.0  0.8857
  Zn  Zn3  1  0.100250  0.712890  0.481660  1.0  0.7813
  Zn  Zn4  1  0.217010  0.291480  0.165260  1.0  0.852
  Zn  Zn5  1  0.225350  0.326460  0.306970  1.0  0.8852
  Zn  Zn6  1  0.899750  0.212890  0.018340  1.0  0.779
  Zn  Zn7  1  0.217010  0.208520  0.665260  1.0  0.8521
  Zn  Zn8  1  0.225350  0.173540  0.806970  1.0  0.8853
  Zn  Zn9  1  0.899750  0.287110  0.518340  1.0  0.778
  Zn  Zn10  1  0.782990  0.708520  0.834740  1.0  0.8532
  Zn  Zn11  1  0.774650  0.673540  0.693030  1.0  0.8855
  Zn  Zn12  1  0.100250  0.787110  0.981660  1.0  0.7813
  H  H13  1  0.550800  0.724600  0.452900  1.0  0.1277
  H  H14  1  0.824600  0.749700  0.515500  1.0  0.1168
  H  H15  1  0.562000  0.679000  0.561200  1.0  0.125
  H  H16  1  0.673000  0.733300  0.403000  1.0  0.0989
  H  H17  1  0.906000  0.837500  0.407400  1.0  0.1092
  H  H18  1  0.862600  0.813100  0.471700  1.0  0.1213
  H  H19  1  0.650000  0.676600  0.613600  1.0  0.1015
  H  H20  1  0.947300  0.723500  0.636900  1.0  0.0933
  H  H21  1  0.912000  0.745300  0.571000  1.0  0.1284
  H  H22  1  0.351200  0.741900  0.478300  1.0  0.1069
  H  H23  1  0.224900  0.615600  0.520700  1.0  0.1097
  H  H24  1  0.423700  0.611000  0.531700  1.0  0.1265
  H  H25  1  0.300500  0.824100  0.251600  1.0  0.1324
  H  H26  1  0.340300  0.762500  0.355100  1.0  0.1301
  H  H27  1  0.040300  0.762500  0.305000  1.0  0.1158
  H  H28  1  0.524000  0.755900  0.337900  1.0  0.1006
  H  H29  1  0.661000  0.865500  0.278900  1.0  0.1054
  H  H30  1  0.466200  0.867500  0.264100  1.0  0.1245
  H  H31  1  0.220700  0.763500  0.410500  1.0  0.1019
  H  H32  1  0.970300  0.667900  0.410200  1.0  0.1074
  H  H33  1  0.012500  0.687100  0.345100  1.0  0.1252
  H  H34  1  0.943500  0.776300  0.254100  1.0  0.1052
  H  H35  1  0.009600  0.880000  0.177300  1.0  0.1042
  H  H36  1  0.179500  0.865000  0.213600  1.0  0.1347
  H  H37  1  0.730300  0.594500  0.323400  1.0  0.1176
  H  H38  1  0.001000  0.595900  0.233500  1.0  0.1067
  H  H39  1  0.955800  0.671200  0.263400  1.0  0.1032
  H  H40  1  0.083300  0.502600  0.259100  1.0  0.1071
  H  H41  1  0.148800  0.431900  0.227300  1.0  0.0916
  H  H42  1  0.855700  0.412900  0.177600  1.0  0.1193
  H  H43  1  0.678300  0.678300  0.244600  1.0  0.1033
  H  H44  1  0.588400  0.605600  0.265100  1.0  0.096
  H  H45  1  0.393100  0.737300  0.207400  1.0  0.114
  H  H46  1  0.477300  0.530300  0.231500  1.0  0.1061
  H  H47  1  0.409200  0.452500  0.252500  1.0  0.0991
  H  H48  1  0.221800  0.526300  0.326400  1.0  0.1216
  H  H49  1  0.449200  0.224600  0.047100  1.0  0.1279
  H  H50  1  0.175400  0.249700  0.984500  1.0  0.1168
  H  H51  1  0.438000  0.179000  0.938800  1.0  0.125
  H  H52  1  0.327000  0.233300  0.097000  1.0  0.0988
  H  H53  1  0.094000  0.337500  0.092600  1.0  0.1094
  H  H54  1  0.137400  0.313100  0.028300  1.0  0.1222
  H  H55  1  0.350000  0.176600  0.886400  1.0  0.102
  H  H56  1  0.052700  0.223500  0.863100  1.0  0.0943
  H  H57  1  0.088000  0.245300  0.929000  1.0  0.1277
  H  H58  1  0.648800  0.241900  0.021700  1.0  0.1062
  H  H59  1  0.775100  0.115600  0.979300  1.0  0.1092
  H  H60  1  0.576300  0.111000  0.968300  1.0  0.1257
  H  H61  1  0.699500  0.324100  0.248400  1.0  0.1324
  H  H62  1  0.659700  0.262500  0.144900  1.0  0.1314
  H  H63  1  0.959700  0.262500  0.195000  1.0  0.1171
  H  H64  1  0.476000  0.255900  0.162100  1.0  0.1001
  H  H65  1  0.339000  0.365500  0.221100  1.0  0.106
  H  H66  1  0.533800  0.367500  0.235900  1.0  0.1239
  H  H67  1  0.779300  0.263500  0.089500  1.0  0.1023
  H  H68  1  0.029700  0.167900  0.089800  1.0  0.1069
  H  H69  1  0.987500  0.187100  0.154900  1.0  0.1248
  H  H70  1  0.056500  0.276300  0.245900  1.0  0.1055
  H  H71  1  0.990400  0.380000  0.322700  1.0  0.1054
  H  H72  1  0.820500  0.365000  0.286400  1.0  0.1342
  H  H73  1  0.269700  0.094500  0.176600  1.0  0.1164
  H  H74  1  0.999000  0.095900  0.266500  1.0  0.1078
  H  H75  1  0.044200  0.171200  0.236600  1.0  0.1029
  H  H76  1  0.916700  0.002600  0.240900  1.0  0.1075
  H  H77  1  0.851200  0.931900  0.272700  1.0  0.0916
  H  H78  1  0.144300  0.912900  0.322400  1.0  0.1196
  H  H79  1  0.321700  0.178300  0.255400  1.0  0.105
  H  H80  1  0.411600  0.105600  0.234900  1.0  0.0951
  H  H81  1  0.606900  0.237300  0.292600  1.0  0.1132
  H  H82  1  0.522700  0.030300  0.268500  1.0  0.1069
  H  H83  1  0.590800  0.952500  0.247500  1.0  0.0991
  H  H84  1  0.778200  0.026300  0.173600  1.0  0.1217
  H  H85  1  0.449200  0.275400  0.547100  1.0  0.1279
  H  H86  1  0.175400  0.250300  0.484500  1.0  0.1169
  H  H87  1  0.438000  0.321000  0.438800  1.0  0.1243
  H  H88  1  0.327000  0.266700  0.597000  1.0  0.0983
  H  H89  1  0.094000  0.162500  0.592600  1.0  0.1092
  H  H90  1  0.137400  0.186900  0.528300  1.0  0.1216
  H  H91  1  0.350000  0.323400  0.386400  1.0  0.1023
  H  H92  1  0.052700  0.276500  0.363100  1.0  0.094
  H  H93  1  0.088000  0.254700  0.429000  1.0  0.1281
  H  H94  1  0.648800  0.258100  0.521700  1.0  0.1065
  H  H95  1  0.775100  0.384400  0.479300  1.0  0.1093
  H  H96  1  0.576300  0.389000  0.468300  1.0  0.1268
  H  H97  1  0.699500  0.175900  0.748400  1.0  0.1329
  H  H98  1  0.659700  0.237500  0.644900  1.0  0.1312
  H  H99  1  0.959700  0.237500  0.695000  1.0  0.1172
  H  H100  1  0.476000  0.244100  0.662100  1.0  0.1006
  H  H101  1  0.339000  0.134500  0.721100  1.0  0.1062
  H  H102  1  0.533800  0.132500  0.735900  1.0  0.1242
  H  H103  1  0.779300  0.236500  0.589500  1.0  0.1016
  H  H104  1  0.029700  0.332100  0.589800  1.0  0.1067
  H  H105  1  0.987500  0.312900  0.654900  1.0  0.1246
  H  H106  1  0.056500  0.223700  0.745900  1.0  0.1052
  H  H107  1  0.990400  0.120000  0.822700  1.0  0.1058
  H  H108  1  0.820500  0.135000  0.786400  1.0  0.1349
  H  H109  1  0.269700  0.405500  0.676600  1.0  0.1164
  H  H110  1  0.999000  0.404100  0.766500  1.0  0.1079
  H  H111  1  0.044200  0.328800  0.736600  1.0  0.1031
  H  H112  1  0.916700  0.497400  0.740900  1.0  0.1074
  H  H113  1  0.851200  0.568100  0.772700  1.0  0.0918
  H  H114  1  0.144300  0.587100  0.822400  1.0  0.1204
  H  H115  1  0.321700  0.321700  0.755400  1.0  0.1051
  H  H116  1  0.411600  0.394400  0.734900  1.0  0.0952
  H  H117  1  0.606900  0.262700  0.792600  1.0  0.1134
  H  H118  1  0.522700  0.469700  0.768500  1.0  0.1068
  H  H119  1  0.590800  0.547500  0.747500  1.0  0.0992
  H  H120  1  0.778200  0.473700  0.673600  1.0  0.1217
  H  H121  1  0.550800  0.775400  0.952900  1.0  0.1277
  H  H122  1  0.824600  0.750300  0.015500  1.0  0.1166
  H  H123  1  0.562000  0.821000  0.061200  1.0  0.1244
  H  H124  1  0.673000  0.766700  0.903000  1.0  0.0989
  H  H125  1  0.906000  0.662500  0.907400  1.0  0.1099
  H  H126  1  0.862600  0.686900  0.971700  1.0  0.1225
  H  H127  1  0.650000  0.823400  0.113600  1.0  0.1012
  H  H128  1  0.947300  0.776500  0.136900  1.0  0.0932
  H  H129  1  0.912000  0.754700  0.071000  1.0  0.1281
  H  H130  1  0.351200  0.758100  0.978300  1.0  0.1061
  H  H131  1  0.224900  0.884400  0.020700  1.0  0.11
  H  H132  1  0.423700  0.889000  0.031700  1.0  0.1268
  H  H133  1  0.300500  0.675900  0.751600  1.0  0.1326
  H  H134  1  0.340300  0.737500  0.855100  1.0  0.1302
  H  H135  1  0.040300  0.737500  0.805000  1.0  0.116
  H  H136  1  0.524000  0.744100  0.837900  1.0  0.1008
  H  H137  1  0.661000  0.634500  0.778900  1.0  0.1056
  H  H138  1  0.466200  0.632500  0.764100  1.0  0.1239
  H  H139  1  0.220700  0.736500  0.910500  1.0  0.1018
  H  H140  1  0.970300  0.832100  0.910200  1.0  0.1074
  H  H141  1  0.012500  0.812900  0.845100  1.0  0.125
  H  H142  1  0.943500  0.723700  0.754100  1.0  0.105
  H  H143  1  0.009600  0.620000  0.677300  1.0  0.1042
  H  H144  1  0.179500  0.635000  0.713600  1.0  0.1349
  H  H145  1  0.730300  0.905500  0.823400  1.0  0.1176
  H  H146  1  0.001000  0.904100  0.733500  1.0  0.1069
  H  H147  1  0.955800  0.828800  0.763400  1.0  0.1032
  H  H148  1  0.083300  0.997400  0.759100  1.0  0.1075
  H  H149  1  0.148800  0.068100  0.727300  1.0  0.0917
  H  H150  1  0.855700  0.087100  0.677600  1.0  0.1197
  H  H151  1  0.678300  0.821700  0.744600  1.0  0.1032
  H  H152  1  0.588400  0.894400  0.765100  1.0  0.0956
  H  H153  1  0.393100  0.762700  0.707400  1.0  0.1139
  H  H154  1  0.477300  0.969700  0.731500  1.0  0.1061
  H  H155  1  0.409200  0.047500  0.752500  1.0  0.0992
  H  H156  1  0.221800  0.973700  0.826400  1.0  0.1216
  C  C157  1  0.306800  0.481340  0.291630  1.0  -0.1617
  C  C158  1  0.588800  0.721910  0.475640  1.0  -0.2076
  C  C159  1  0.695500  0.740460  0.479750  1.0  0.1658
  C  C160  1  0.753000  0.736940  0.513360  1.0  -0.18
  C  C161  1  0.702500  0.714250  0.543650  1.0  0.1321
  C  C162  1  0.595600  0.694710  0.540800  1.0  -0.1737
  C  C163  1  0.541000  0.699320  0.506650  1.0  0.1579
  C  C164  1  0.725600  0.756680  0.412000  1.0  0.1294
  C  C165  1  0.853000  0.813400  0.414390  1.0  -0.0151
  C  C166  1  0.829000  0.800100  0.450020  1.0  -0.1231
  C  C167  1  0.720000  0.691000  0.611300  1.0  0.0933
  C  C168  1  0.881900  0.716800  0.623920  1.0  0.0295
  C  C169  1  0.863700  0.728800  0.587200  1.0  -0.1375
  C  C170  1  0.344300  0.709960  0.490180  1.0  0.1373
  C  C171  1  0.276000  0.640500  0.513550  1.0  -0.0073
  C  C172  1  0.385200  0.637610  0.519660  1.0  -0.1048
  C  C173  1  0.271000  0.807890  0.272640  1.0  -0.1733
  C  C174  1  0.337100  0.794930  0.303370  1.0  0.1259
  C  C175  1  0.295300  0.770380  0.334590  1.0  -0.2325
  C  C176  1  0.184300  0.757970  0.334340  1.0  0.1783
  C  C177  1  0.115000  0.770810  0.304500  1.0  -0.2012
  C  C178  1  0.158800  0.795840  0.274340  1.0  0.1204
  C  C179  1  0.534000  0.783750  0.321700  1.0  0.1454
  C  C180  1  0.608100  0.843700  0.289130  1.0  0.0595
  C  C181  1  0.501500  0.845210  0.280900  1.0  -0.1576
  C  C182  1  0.163800  0.741900  0.402320  1.0  0.137
  C  C183  1  0.026600  0.689600  0.402030  1.0  -0.0048
  C  C184  1  0.049300  0.700000  0.366200  1.0  -0.148
  C  C185  1  0.980800  0.800360  0.239430  1.0  0.1471
  C  C186  1  0.017400  0.857110  0.197370  1.0  0.0083
  C  C187  1  0.111500  0.849100  0.217340  1.0  -0.1652
  C  C188  1  0.798500  0.691300  0.314430  1.0  0.6766
  C  C189  1  0.834900  0.641770  0.296360  1.0  -0.0708
  C  C190  1  0.784400  0.595330  0.305060  1.0  -0.1082
  C  C191  1  0.813000  0.550670  0.286980  1.0  0.0022
  C  C192  1  0.893900  0.548890  0.259120  1.0  0.0282
  C  C193  1  0.945700  0.595350  0.251400  1.0  -0.1528
  C  C194  1  0.918400  0.640720  0.269300  1.0  -0.091
  C  C195  1  0.928300  0.501400  0.238010  1.0  0.0169
  C  C196  1  0.036600  0.484800  0.242650  1.0  -0.1603
  C  C197  1  0.076200  0.442400  0.223250  1.0  -0.0254
  C  C198  1  0.011200  0.415480  0.198210  1.0  -0.1919
  C  C199  1  0.902400  0.430870  0.193960  1.0  -0.0822
  C  C200  1  0.863600  0.472410  0.213700  1.0  0.0309
  C  C201  1  0.053300  0.369940  0.175840  1.0  0.6956
  C  C202  1  0.606000  0.761980  0.207430  1.0  0.6792
  C  C203  1  0.545900  0.714890  0.222670  1.0  -0.1295
  C  C204  1  0.602400  0.675460  0.240880  1.0  -0.0274
  C  C205  1  0.548000  0.632000  0.253520  1.0  -0.1778
  C  C206  1  0.434500  0.626570  0.249480  1.0  0.0107
  C  C207  1  0.379500  0.666390  0.231070  1.0  0.0163
  C  C208  1  0.433300  0.710580  0.218560  1.0  -0.0477
  C  C209  1  0.386100  0.577290  0.264290  1.0  0.0633
  C  C210  1  0.424000  0.530200  0.250110  1.0  -0.1335
  C  C211  1  0.384000  0.483220  0.263040  1.0  -0.0644
  C  C212  1  0.271900  0.526790  0.306790  1.0  -0.0755
  C  C213  1  0.310300  0.573800  0.293370  1.0  0.0295
  C  C214  1  0.260800  0.430820  0.305960  1.0  0.6983
  C  C215  1  0.693200  0.981340  0.208370  1.0  -0.1627
  C  C216  1  0.411200  0.221910  0.024360  1.0  -0.2068
  C  C217  1  0.304500  0.240460  0.020250  1.0  0.1658
  C  C218  1  0.247000  0.236940  0.986640  1.0  -0.1814
  C  C219  1  0.297500  0.214250  0.956350  1.0  0.1322
  C  C220  1  0.404400  0.194710  0.959200  1.0  -0.1742
  C  C221  1  0.459000  0.199320  0.993350  1.0  0.1589
  C  C222  1  0.274400  0.256680  0.088000  1.0  0.1274
  C  C223  1  0.147000  0.313400  0.085610  1.0  -0.015
  C  C224  1  0.171000  0.300100  0.049980  1.0  -0.124
  C  C225  1  0.280000  0.191000  0.888700  1.0  0.0925
  C  C226  1  0.118100  0.216800  0.876080  1.0  0.0306
  C  C227  1  0.136300  0.228800  0.912800  1.0  -0.1365
  C  C228  1  0.655700  0.209960  0.009820  1.0  0.138
  C  C229  1  0.724000  0.140500  0.986450  1.0  -0.0063
  C  C230  1  0.614800  0.137610  0.980340  1.0  -0.1072
  C  C231  1  0.729000  0.307890  0.227360  1.0  -0.1761
  C  C232  1  0.662900  0.294930  0.196630  1.0  0.1248
  C  C233  1  0.704700  0.270380  0.165410  1.0  -0.2349
  C  C234  1  0.815700  0.257970  0.165660  1.0  0.1776
  C  C235  1  0.885000  0.270810  0.195500  1.0  -0.2019
  C  C236  1  0.841200  0.295840  0.225660  1.0  0.1196
  C  C237  1  0.466000  0.283750  0.178300  1.0  0.1445
  C  C238  1  0.391900  0.343700  0.210870  1.0  0.0585
  C  C239  1  0.498500  0.345210  0.219100  1.0  -0.1552
  C  C240  1  0.836200  0.241900  0.097680  1.0  0.1376
  C  C241  1  0.973400  0.189600  0.097970  1.0  -0.0065
  C  C242  1  0.950700  0.200000  0.133800  1.0  -0.1478
  C  C243  1  0.019200  0.300360  0.260570  1.0  0.1477
  C  C244  1  0.982600  0.357110  0.302630  1.0  0.0094
  C  C245  1  0.888500  0.349100  0.282660  1.0  -0.1674
  C  C246  1  0.201500  0.191300  0.185570  1.0  0.6761
  C  C247  1  0.165100  0.141770  0.203640  1.0  -0.0711
  C  C248  1  0.215600  0.095330  0.194940  1.0  -0.1069
  C  C249  1  0.187000  0.050670  0.213020  1.0  0.0017
  C  C250  1  0.106100  0.048890  0.240880  1.0  0.0287
  C  C251  1  0.054300  0.095350  0.248600  1.0  -0.1519
  C  C252  1  0.081600  0.140720  0.230700  1.0  -0.0909
  C  C253  1  0.071700  0.001400  0.261990  1.0  0.0151
  C  C254  1  0.963400  0.984800  0.257350  1.0  -0.1601
  C  C255  1  0.923800  0.942400  0.276750  1.0  -0.0267
  C  C256  1  0.988800  0.915480  0.301790  1.0  -0.183
  C  C257  1  0.097600  0.930870  0.306040  1.0  -0.084
  C  C258  1  0.136400  0.972410  0.286300  1.0  0.0363
  C  C259  1  0.946700  0.869940  0.324160  1.0  0.6931
  C  C260  1  0.394000  0.261980  0.292570  1.0  0.6803
  C  C261  1  0.454100  0.214890  0.277330  1.0  -0.1268
  C  C262  1  0.397600  0.175460  0.259120  1.0  -0.0293
  C  C263  1  0.452000  0.132000  0.246480  1.0  -0.1768
  C  C264  1  0.565500  0.126570  0.250520  1.0  0.011
  C  C265  1  0.620500  0.166390  0.268930  1.0  0.0231
  C  C266  1  0.566700  0.210580  0.281440  1.0  -0.0484
  C  C267  1  0.613900  0.077290  0.235710  1.0  0.0628
  C  C268  1  0.576000  0.030200  0.249890  1.0  -0.1327
  C  C269  1  0.616000  0.983220  0.236960  1.0  -0.0637
  C  C270  1  0.728100  0.026790  0.193210  1.0  -0.0704
  C  C271  1  0.689700  0.073800  0.206630  1.0  0.0297
  C  C272  1  0.739200  0.930820  0.194040  1.0  0.6959
  C  C273  1  0.693200  0.518660  0.708370  1.0  -0.1618
  C  C274  1  0.411200  0.278090  0.524360  1.0  -0.2067
  C  C275  1  0.304500  0.259540  0.520250  1.0  0.1658
  C  C276  1  0.247000  0.263060  0.486640  1.0  -0.1814
  C  C277  1  0.297500  0.285750  0.456350  1.0  0.1323
  C  C278  1  0.404400  0.305290  0.459200  1.0  -0.1746
  C  C279  1  0.459000  0.300680  0.493350  1.0  0.159
  C  C280  1  0.274400  0.243320  0.588000  1.0  0.1273
  C  C281  1  0.147000  0.186600  0.585610  1.0  -0.0141
  C  C282  1  0.171000  0.199900  0.549980  1.0  -0.1211
  C  C283  1  0.280000  0.309000  0.388700  1.0  0.0938
  C  C284  1  0.118100  0.283200  0.376080  1.0  0.0304
  C  C285  1  0.136300  0.271200  0.412800  1.0  -0.1358
  C  C286  1  0.655700  0.290040  0.509820  1.0  0.1381
  C  C287  1  0.724000  0.359500  0.486450  1.0  -0.0066
  C  C288  1  0.614800  0.362390  0.480340  1.0  -0.1052
  C  C289  1  0.729000  0.192110  0.727360  1.0  -0.1761
  C  C290  1  0.662900  0.205070  0.696630  1.0  0.1246
  C  C291  1  0.704700  0.229620  0.665410  1.0  -0.2346
  C  C292  1  0.815700  0.242030  0.665660  1.0  0.1776
  C  C293  1  0.885000  0.229190  0.695500  1.0  -0.2014
  C  C294  1  0.841200  0.204160  0.725660  1.0  0.1196
  C  C295  1  0.466000  0.216250  0.678300  1.0  0.1449
  C  C296  1  0.391900  0.156300  0.710870  1.0  0.0573
  C  C297  1  0.498500  0.154790  0.719100  1.0  -0.1557
  C  C298  1  0.836200  0.258100  0.597680  1.0  0.1373
  C  C299  1  0.973400  0.310400  0.597970  1.0  -0.0054
  C  C300  1  0.950700  0.300000  0.633800  1.0  -0.1471
  C  C301  1  0.019200  0.199640  0.760570  1.0  0.1477
  C  C302  1  0.982600  0.142890  0.802630  1.0  0.0096
  C  C303  1  0.888500  0.150900  0.782660  1.0  -0.1666
  C  C304  1  0.201500  0.308700  0.685570  1.0  0.6766
  C  C305  1  0.165100  0.358230  0.703640  1.0  -0.0721
  C  C306  1  0.215600  0.404670  0.694940  1.0  -0.1072
  C  C307  1  0.187000  0.449330  0.713020  1.0  0.0032
  C  C308  1  0.106100  0.451110  0.740880  1.0  0.0283
  C  C309  1  0.054300  0.404650  0.748600  1.0  -0.1512
  C  C310  1  0.081600  0.359280  0.730700  1.0  -0.091
  C  C311  1  0.071700  0.498600  0.761990  1.0  0.0151
  C  C312  1  0.963400  0.515200  0.757350  1.0  -0.1611
  C  C313  1  0.923800  0.557600  0.776750  1.0  -0.0266
  C  C314  1  0.988800  0.584520  0.801790  1.0  -0.1847
  C  C315  1  0.097600  0.569130  0.806040  1.0  -0.0826
  C  C316  1  0.136400  0.527590  0.786300  1.0  0.0371
  C  C317  1  0.946700  0.630060  0.824160  1.0  0.6934
  C  C318  1  0.394000  0.238020  0.792570  1.0  0.6802
  C  C319  1  0.454100  0.285110  0.777330  1.0  -0.1257
  C  C320  1  0.397600  0.324540  0.759120  1.0  -0.0291
  C  C321  1  0.452000  0.368000  0.746480  1.0  -0.1762
  C  C322  1  0.565500  0.373430  0.750520  1.0  0.0113
  C  C323  1  0.620500  0.333610  0.768930  1.0  0.0222
  C  C324  1  0.566700  0.289420  0.781440  1.0  -0.0492
  C  C325  1  0.613900  0.422710  0.735710  1.0  0.0621
  C  C326  1  0.576000  0.469800  0.749890  1.0  -0.133
  C  C327  1  0.616000  0.516780  0.736960  1.0  -0.0631
  C  C328  1  0.728100  0.473210  0.693210  1.0  -0.0703
  C  C329  1  0.689700  0.426200  0.706630  1.0  0.0296
  C  C330  1  0.739200  0.569180  0.694040  1.0  0.6959
  C  C331  1  0.306800  0.018660  0.791630  1.0  -0.163
  C  C332  1  0.588800  0.778090  0.975640  1.0  -0.2076
  C  C333  1  0.695500  0.759540  0.979750  1.0  0.1658
  C  C334  1  0.753000  0.763060  0.013360  1.0  -0.1802
  C  C335  1  0.702500  0.785750  0.043650  1.0  0.1321
  C  C336  1  0.595600  0.805290  0.040800  1.0  -0.174
  C  C337  1  0.541000  0.800680  0.006650  1.0  0.1582
  C  C338  1  0.725600  0.743320  0.912000  1.0  0.1297
  C  C339  1  0.853000  0.686600  0.914390  1.0  -0.0149
  C  C340  1  0.829000  0.699900  0.950020  1.0  -0.1216
  C  C341  1  0.720000  0.809000  0.111300  1.0  0.0929
  C  C342  1  0.881900  0.783200  0.123920  1.0  0.0296
  C  C343  1  0.863700  0.771200  0.087200  1.0  -0.1373
  C  C344  1  0.344300  0.790040  0.990180  1.0  0.1373
  C  C345  1  0.276000  0.859500  0.013550  1.0  -0.0067
  C  C346  1  0.385200  0.862390  0.019660  1.0  -0.1039
  C  C347  1  0.271000  0.692110  0.772640  1.0  -0.173
  C  C348  1  0.337100  0.705070  0.803370  1.0  0.1261
  C  C349  1  0.295300  0.729620  0.834590  1.0  -0.2322
  C  C350  1  0.184300  0.742030  0.834340  1.0  0.178
  C  C351  1  0.115000  0.729190  0.804500  1.0  -0.2011
  C  C352  1  0.158800  0.704160  0.774340  1.0  0.1205
  C  C353  1  0.534000  0.716250  0.821700  1.0  0.1464
  C  C354  1  0.608100  0.656300  0.789130  1.0  0.058
  C  C355  1  0.501500  0.654790  0.780900  1.0  -0.1587
  C  C356  1  0.163800  0.758100  0.902320  1.0  0.1371
  C  C357  1  0.026600  0.810400  0.902030  1.0  -0.0055
  C  C358  1  0.049300  0.800000  0.866200  1.0  -0.1478
  C  C359  1  0.980800  0.699640  0.739430  1.0  0.147
  C  C360  1  0.017400  0.642890  0.697370  1.0  0.0089
  C  C361  1  0.111500  0.650900  0.717340  1.0  -0.1654
  C  C362  1  0.798500  0.808700  0.814430  1.0  0.6771
  C  C363  1  0.834900  0.858230  0.796360  1.0  -0.0708
  C  C364  1  0.784400  0.904670  0.805060  1.0  -0.1084
  C  C365  1  0.813000  0.949330  0.786980  1.0  0.0019
  C  C366  1  0.893900  0.951110  0.759120  1.0  0.0278
  C  C367  1  0.945700  0.904650  0.751400  1.0  -0.1525
  C  C368  1  0.918400  0.859280  0.769300  1.0  -0.0911
  C  C369  1  0.928300  0.998600  0.738010  1.0  0.0166
  C  C370  1  0.036600  0.015200  0.742650  1.0  -0.161
  C  C371  1  0.076200  0.057600  0.723250  1.0  -0.0259
  C  C372  1  0.011200  0.084520  0.698210  1.0  -0.1912
  C  C373  1  0.902400  0.069130  0.693960  1.0  -0.0806
  C  C374  1  0.863600  0.027590  0.713700  1.0  0.0292
  C  C375  1  0.053300  0.130060  0.675840  1.0  0.6954
  C  C376  1  0.606000  0.738020  0.707430  1.0  0.6793
  C  C377  1  0.545900  0.785110  0.722670  1.0  -0.131
  C  C378  1  0.602400  0.824540  0.740880  1.0  -0.0276
  C  C379  1  0.548000  0.868000  0.753520  1.0  -0.1772
  C  C380  1  0.434500  0.873430  0.749480  1.0  0.0114
  C  C381  1  0.379500  0.833610  0.731070  1.0  0.018
  C  C382  1  0.433300  0.789420  0.718560  1.0  -0.0475
  C  C383  1  0.386100  0.922710  0.764290  1.0  0.0626
  C  C384  1  0.424000  0.969800  0.750110  1.0  -0.1334
  C  C385  1  0.384000  0.016780  0.763040  1.0  -0.0643
  C  C386  1  0.271900  0.973210  0.806790  1.0  -0.0751
  C  C387  1  0.310300  0.926200  0.793370  1.0  0.0301
  C  C388  1  0.260800  0.069180  0.805960  1.0  0.6985
  N  N389  1  0.788200  0.786070  0.390550  1.0  -0.3867
  N  N390  1  0.748000  0.765010  0.448430  1.0  0.0445
  N  N391  1  0.793100  0.693910  0.638950  1.0  -0.3648
  N  N392  1  0.759500  0.711530  0.579150  1.0  0.034
  N  N393  1  0.251200  0.685890  0.495210  1.0  -0.305
  N  N394  1  0.428800  0.682460  0.504410  1.0  0.0459
  N  N395  1  0.629600  0.805430  0.314850  1.0  -0.3855
  N  N396  1  0.453000  0.806860  0.302390  1.0  0.0394
  N  N397  1  0.098800  0.715530  0.424810  1.0  -0.3522
  N  N398  1  0.137500  0.733640  0.366410  1.0  0.0474
  N  N399  1  0.935700  0.826330  0.211280  1.0  -0.3606
  N  N400  1  0.086700  0.812960  0.244200  1.0  0.0568
  N  N401  1  0.754800  0.502500  0.298160  1.0  0.6472
  N  N402  1  0.745300  0.485700  0.208110  1.0  0.544
  N  N403  1  0.259300  0.664400  0.225240  1.0  0.6296
  N  N404  1  0.267500  0.620340  0.310990  1.0  0.4592
  N  N405  1  0.211800  0.286070  0.109450  1.0  -0.3872
  N  N406  1  0.252000  0.265010  0.051570  1.0  0.0435
  N  N407  1  0.206900  0.193910  0.861050  1.0  -0.364
  N  N408  1  0.240500  0.211530  0.920850  1.0  0.0338
  N  N409  1  0.748800  0.185890  0.004790  1.0  -0.3094
  N  N410  1  0.571200  0.182460  0.995590  1.0  0.0465
  N  N411  1  0.370400  0.305430  0.185150  1.0  -0.3873
  N  N412  1  0.547000  0.306860  0.197610  1.0  0.0398
  N  N413  1  0.901200  0.215530  0.075190  1.0  -0.3512
  N  N414  1  0.862500  0.233640  0.133590  1.0  0.049
  N  N415  1  0.064300  0.326330  0.288720  1.0  -0.361
  N  N416  1  0.913300  0.312960  0.255800  1.0  0.0572
  N  N417  1  0.245200  0.002500  0.201840  1.0  0.6469
  N  N418  1  0.254700  0.985700  0.291890  1.0  0.5442
  N  N419  1  0.740700  0.164400  0.274760  1.0  0.6342
  N  N420  1  0.732500  0.120340  0.189010  1.0  0.4579
  N  N421  1  0.211800  0.213930  0.609450  1.0  -0.3863
  N  N422  1  0.252000  0.234990  0.551570  1.0  0.0435
  N  N423  1  0.206900  0.306090  0.361050  1.0  -0.3638
  N  N424  1  0.240500  0.288470  0.420850  1.0  0.0338
  N  N425  1  0.748800  0.314110  0.504790  1.0  -0.3098
  N  N426  1  0.571200  0.317540  0.495590  1.0  0.0466
  N  N427  1  0.370400  0.194570  0.685150  1.0  -0.3867
  N  N428  1  0.547000  0.193140  0.697610  1.0  0.0396
  N  N429  1  0.901200  0.284470  0.575190  1.0  -0.351
  N  N430  1  0.862500  0.266360  0.633590  1.0  0.0488
  N  N431  1  0.064300  0.173670  0.788720  1.0  -0.3613
  N  N432  1  0.913300  0.187040  0.755800  1.0  0.0561
  N  N433  1  0.245200  0.497500  0.701840  1.0  0.6472
  N  N434  1  0.254700  0.514300  0.791890  1.0  0.5435
  N  N435  1  0.740700  0.335600  0.774760  1.0  0.6343
  N  N436  1  0.732500  0.379660  0.689010  1.0  0.4579
  N  N437  1  0.788200  0.713930  0.890550  1.0  -0.3879
  N  N438  1  0.748000  0.734990  0.948430  1.0  0.0442
  N  N439  1  0.793100  0.806090  0.138950  1.0  -0.3648
  N  N440  1  0.759500  0.788470  0.079150  1.0  0.034
  N  N441  1  0.251200  0.814110  0.995210  1.0  -0.306
  N  N442  1  0.428800  0.817540  0.004410  1.0  0.0457
  N  N443  1  0.629600  0.694570  0.814850  1.0  -0.3854
  N  N444  1  0.453000  0.693140  0.802390  1.0  0.0388
  N  N445  1  0.098800  0.784470  0.924810  1.0  -0.3517
  N  N446  1  0.137500  0.766360  0.866410  1.0  0.0469
  N  N447  1  0.935700  0.673670  0.711280  1.0  -0.3603
  N  N448  1  0.086700  0.687040  0.744200  1.0  0.0571
  N  N449  1  0.754800  0.997500  0.798160  1.0  0.6472
  N  N450  1  0.745300  0.014300  0.708110  1.0  0.5441
  N  N451  1  0.259300  0.835600  0.725240  1.0  0.6297
  N  N452  1  0.267500  0.879660  0.810990  1.0  0.4596
  O  O453  1  0.660900  0.506890  0.309470  1.0  -0.3746
  O  O454  1  0.802600  0.462100  0.296680  1.0  -0.4825
  O  O455  1  0.712000  0.528500  0.214090  1.0  -0.3633
  O  O456  1  0.683400  0.451400  0.197800  1.0  -0.4036
  O  O457  1  0.707300  0.766140  0.217210  1.0  -0.6057
  O  O458  1  0.557800  0.792280  0.186520  1.0  -0.5154
  O  O459  1  0.292200  0.390050  0.289220  1.0  -0.6053
  O  O460  1  0.193600  0.431260  0.331330  1.0  -0.507
  O  O461  1  0.209100  0.703300  0.215860  1.0  -0.4264
  O  O462  1  0.214500  0.623600  0.226300  1.0  -0.4417
  O  O463  1  0.329600  0.657500  0.314170  1.0  -0.4935
  O  O464  1  0.184900  0.619100  0.324800  1.0  -0.4075
  O  O465  1  0.851900  0.732500  0.306870  1.0  -0.5776
  O  O466  1  0.719000  0.691300  0.336050  1.0  -0.5949
  O  O467  1  0.145800  0.352050  0.187080  1.0  -0.5962
  O  O468  1  0.998500  0.353380  0.149240  1.0  -0.5462
  O  O469  1  0.339100  0.006890  0.190530  1.0  -0.3777
  O  O470  1  0.197400  0.962100  0.203320  1.0  -0.4828
  O  O471  1  0.288000  0.028500  0.285910  1.0  -0.3613
  O  O472  1  0.316600  0.951400  0.302200  1.0  -0.3988
  O  O473  1  0.292700  0.266140  0.282790  1.0  -0.6066
  O  O474  1  0.442200  0.292280  0.313480  1.0  -0.5143
  O  O475  1  0.707800  0.890050  0.210780  1.0  -0.6044
  O  O476  1  0.806400  0.931260  0.168670  1.0  -0.5063
  O  O477  1  0.790900  0.203300  0.284140  1.0  -0.4267
  O  O478  1  0.785500  0.123600  0.273700  1.0  -0.4437
  O  O479  1  0.670400  0.157500  0.185830  1.0  -0.4944
  O  O480  1  0.815100  0.119100  0.175200  1.0  -0.4087
  O  O481  1  0.148100  0.232500  0.193130  1.0  -0.5769
  O  O482  1  0.281000  0.191300  0.163950  1.0  -0.5963
  O  O483  1  0.854200  0.852050  0.312920  1.0  -0.5968
  O  O484  1  0.001500  0.853380  0.350760  1.0  -0.5459
  O  O485  1  0.339100  0.493110  0.690530  1.0  -0.378
  O  O486  1  0.197400  0.537900  0.703320  1.0  -0.4835
  O  O487  1  0.288000  0.471500  0.785910  1.0  -0.3611
  O  O488  1  0.316600  0.548600  0.802200  1.0  -0.4036
  O  O489  1  0.292700  0.233860  0.782790  1.0  -0.6065
  O  O490  1  0.442200  0.207720  0.813480  1.0  -0.514
  O  O491  1  0.707800  0.609950  0.710780  1.0  -0.6054
  O  O492  1  0.806400  0.568740  0.668670  1.0  -0.5061
  O  O493  1  0.790900  0.296700  0.784140  1.0  -0.4247
  O  O494  1  0.785500  0.376400  0.773700  1.0  -0.4441
  O  O495  1  0.670400  0.342500  0.685830  1.0  -0.4942
  O  O496  1  0.815100  0.380900  0.675200  1.0  -0.4085
  O  O497  1  0.148100  0.267500  0.693130  1.0  -0.5773
  O  O498  1  0.281000  0.308700  0.663950  1.0  -0.5963
  O  O499  1  0.854200  0.647950  0.812920  1.0  -0.5971
  O  O500  1  0.001500  0.646620  0.850760  1.0  -0.546
  O  O501  1  0.660900  0.993110  0.809470  1.0  -0.3765
  O  O502  1  0.802600  0.037900  0.796680  1.0  -0.483
  O  O503  1  0.712000  0.971500  0.714090  1.0  -0.3623
  O  O504  1  0.683400  0.048600  0.697800  1.0  -0.3987
  O  O505  1  0.707300  0.733860  0.717210  1.0  -0.6061
  O  O506  1  0.557800  0.707720  0.686520  1.0  -0.5153
  O  O507  1  0.292200  0.109950  0.789220  1.0  -0.6042
  O  O508  1  0.193600  0.068740  0.831330  1.0  -0.5065
  O  O509  1  0.209100  0.796700  0.715860  1.0  -0.4261
  O  O510  1  0.214500  0.876400  0.726300  1.0  -0.4435
  O  O511  1  0.329600  0.842500  0.814170  1.0  -0.4945
  O  O512  1  0.184900  0.880900  0.824800  1.0  -0.4075
  O  O513  1  0.851900  0.767500  0.806870  1.0  -0.5779
  O  O514  1  0.719000  0.808700  0.836050  1.0  -0.5957
  O  O515  1  0.145800  0.147950  0.687080  1.0  -0.5968
  O  O516  1  0.998500  0.146620  0.649240  1.0  -0.5452
