# generated using pymatgen
data_CdC2(N2O)2
_symmetry_space_group_name_H-M   'P 1'
_cell_length_a   8.82160000
_cell_length_b   8.82160000
_cell_length_c   10.07550000
_cell_angle_alpha   102.67000000
_cell_angle_beta   102.67000000
_cell_angle_gamma   119.93200000
_symmetry_Int_Tables_number   1
_chemical_formula_structural   CdC2(N2O)2
_chemical_formula_sum   'Cd4 C8 N16 O8'
_cell_volume   610.78003810
_cell_formula_units_Z   4
loop_
 _symmetry_equiv_pos_site_id
 _symmetry_equiv_pos_as_xyz
  1  'x, y, z'
loop_
 _atom_site_type_symbol
 _atom_site_label
 _atom_site_symmetry_multiplicity
 _atom_site_fract_x
 _atom_site_fract_y
 _atom_site_fract_z
 _atom_site_occupancy
 _atom_site_charge
  Cd  Cd1  1  0.472110  0.972110  0.944220  1.0  0.8699
  Cd  Cd2  1  0.722110  0.722110  0.444220  1.0  0.8701
  Cd  Cd3  1  0.240810  0.240810  0.481620  1.0  1.0517
  Cd  Cd4  1  0.990810  0.490810  0.981620  1.0  1.0517
  C  C5  1  0.628000  0.887600  0.706200  1.0  0.1762
  C  C6  1  0.498400  0.687200  0.689600  1.0  0.6192
  C  C7  1  0.078200  0.818600  0.706200  1.0  0.1762
  C  C8  1  0.191200  0.002400  0.689600  1.0  0.6177
  C  C9  1  0.637600  0.878000  0.206200  1.0  0.1735
  C  C10  1  0.437200  0.748400  0.189600  1.0  0.6208
  C  C11  1  0.568600  0.328200  0.206200  1.0  0.1765
  C  C12  1  0.752400  0.441200  0.189600  1.0  0.6191
  N  N13  1  0.654200  0.033400  0.805000  1.0  -0.2064
  N  N14  1  0.774900  0.185500  0.782600  1.0  -0.0772
  N  N15  1  0.817100  0.129700  0.672800  1.0  -0.1114
  N  N16  1  0.725200  0.940600  0.621600  1.0  -0.1874
  N  N17  1  0.150800  0.771600  0.805000  1.0  -0.2056
  N  N18  1  0.007700  0.597100  0.782600  1.0  -0.0777
  N  N19  1  0.855700  0.543100  0.672800  1.0  -0.1099
  N  N20  1  0.896400  0.681000  0.621600  1.0  -0.1892
  N  N21  1  0.783400  0.904200  0.305000  1.0  -0.2071
  N  N22  1  0.935500  0.024900  0.282600  1.0  -0.0779
  N  N23  1  0.879700  0.067100  0.172800  1.0  -0.1125
  N  N24  1  0.690600  0.975200  0.121600  1.0  -0.1876
  N  N25  1  0.521600  0.400800  0.305000  1.0  -0.2075
  N  N26  1  0.347100  0.257700  0.282600  1.0  -0.0788
  N  N27  1  0.293100  0.105700  0.172800  1.0  -0.1106
  N  N28  1  0.431000  0.146400  0.121600  1.0  -0.1892
  O  O29  1  0.424300  0.663100  0.780600  1.0  -0.5673
  O  O30  1  0.478400  0.562600  0.582800  1.0  -0.6044
  O  O31  1  0.356300  0.117500  0.780600  1.0  -0.5654
  O  O32  1  0.104400  0.020200  0.582800  1.0  -0.6045
  O  O33  1  0.413100  0.674300  0.280600  1.0  -0.5687
  O  O34  1  0.312600  0.728400  0.082800  1.0  -0.6065
  O  O35  1  0.867500  0.606300  0.280600  1.0  -0.5652
  O  O36  1  0.770200  0.354400  0.082800  1.0  -0.6047
