# generated using pymatgen
data_EuH2C8NO6
_symmetry_space_group_name_H-M   'P 1'
_cell_length_a   9.36690000
_cell_length_b   14.15430000
_cell_length_c   21.78970000
_cell_angle_alpha   95.07500000
_cell_angle_beta   94.31500000
_cell_angle_gamma   104.72300000
_symmetry_Int_Tables_number   1
_chemical_formula_structural   EuH2C8NO6
_chemical_formula_sum   'Eu10 H20 C80 N10 O60'
_cell_volume   2768.75604813
_cell_formula_units_Z   10
loop_
 _symmetry_equiv_pos_site_id
 _symmetry_equiv_pos_as_xyz
  1  'x, y, z'
loop_
 _atom_site_type_symbol
 _atom_site_label
 _atom_site_symmetry_multiplicity
 _atom_site_fract_x
 _atom_site_fract_y
 _atom_site_fract_z
 _atom_site_occupancy
 _atom_site_charge
  Eu  Eu1  1  0.431860  0.712140  0.903180  1.0  2.1338
  Eu  Eu2  1  0.849270  0.068850  0.779280  1.0  2.1404
  Eu  Eu3  1  0.238570  0.829140  0.618120  1.0  2.1412
  Eu  Eu4  1  0.788520  0.387250  0.560130  1.0  2.1371
  Eu  Eu5  1  0.076890  0.308510  0.937080  1.0  2.1405
  Eu  Eu6  1  0.568140  0.287860  0.096820  1.0  2.133
  Eu  Eu7  1  0.150730  0.931150  0.220720  1.0  2.1396
  Eu  Eu8  1  0.761430  0.170860  0.381880  1.0  2.1402
  Eu  Eu9  1  0.211480  0.612750  0.439870  1.0  2.1407
  Eu  Eu10  1  0.923110  0.691490  0.062920  1.0  2.1417
  H  H11  1  0.532400  0.109900  0.922100  1.0  0.1101
  H  H12  1  0.147600  0.981100  0.984700  1.0  0.12
  H  H13  1  0.450900  0.660300  0.654800  1.0  0.1098
  H  H14  1  0.678500  0.499300  0.744800  1.0  0.1114
  H  H15  1  0.504900  0.299700  0.867300  1.0  0.1172
  H  H16  1  0.286500  0.092200  0.729900  1.0  0.1125
  H  H17  1  0.687800  0.880100  0.624300  1.0  0.1166
  H  H18  1  0.705700  0.684700  0.480600  1.0  0.1209
  H  H19  1  0.991600  0.327900  0.786500  1.0  0.1069
  H  H20  1  0.138700  0.610500  0.754000  1.0  0.1153
  H  H21  1  0.467600  0.890100  0.077900  1.0  0.1094
  H  H22  1  0.852400  0.018900  0.015300  1.0  0.1209
  H  H23  1  0.549100  0.339700  0.345200  1.0  0.1101
  H  H24  1  0.321500  0.500700  0.255200  1.0  0.1112
  H  H25  1  0.495100  0.700300  0.132700  1.0  0.1171
  H  H26  1  0.713500  0.907800  0.270100  1.0  0.1132
  H  H27  1  0.312200  0.119900  0.375700  1.0  0.1164
  H  H28  1  0.294300  0.315300  0.519400  1.0  0.1205
  H  H29  1  0.008400  0.672100  0.213500  1.0  0.1075
  H  H30  1  0.861300  0.389500  0.246000  1.0  0.1157
  C  C31  1  0.481600  0.960700  0.914800  1.0  0.1415
  C  C32  1  0.461400  0.054100  0.929500  1.0  -0.0621
  C  C33  1  0.335000  0.062400  0.955100  1.0  -0.0772
  C  C34  1  0.234500  0.977900  0.967500  1.0  -0.0824
  C  C35  1  0.265800  0.888900  0.953900  1.0  0.1441
  C  C36  1  0.612800  0.942600  0.882300  1.0  0.6676
  C  C37  1  0.311800  0.163000  0.972000  1.0  0.7387
  C  C38  1  0.165300  0.792800  0.966800  1.0  0.6745
  C  C39  1  0.467600  0.682700  0.748800  1.0  0.1422
  C  C40  1  0.487600  0.640700  0.691000  1.0  -0.0361
  C  C41  1  0.564800  0.568000  0.689100  1.0  -0.0813
  C  C42  1  0.623600  0.545600  0.744600  1.0  -0.0289
  C  C43  1  0.600000  0.592500  0.799600  1.0  0.1417
  C  C44  1  0.376100  0.757200  0.756700  1.0  0.6595
  C  C45  1  0.583100  0.517300  0.627100  1.0  0.6522
  C  C46  1  0.657900  0.572500  0.863200  1.0  0.6842
  C  C47  1  0.629000  0.215700  0.828200  1.0  0.1192
  C  C48  1  0.501400  0.247800  0.837400  1.0  -0.0715
  C  C49  1  0.369200  0.200600  0.801000  1.0  -0.1238
  C  C50  1  0.371900  0.124900  0.755500  1.0  0.0044
  C  C51  1  0.504500  0.099200  0.749100  1.0  0.1477
  C  C52  1  0.775200  0.252100  0.869100  1.0  0.6735
  C  C53  1  0.222000  0.219900  0.813000  1.0  0.7437
  C  C54  1  0.517400  0.013700  0.704500  1.0  0.6862
  C  C55  1  0.891600  0.861000  0.612800  1.0  0.1258
  C  C56  1  0.740600  0.846400  0.600100  1.0  -0.0347
  C  C57  1  0.670400  0.779600  0.549700  1.0  -0.1558
  C  C58  1  0.751500  0.729700  0.514500  1.0  -0.0403
  C  C59  1  0.901900  0.749000  0.531200  1.0  0.1512
  C  C60  1  0.982200  0.929200  0.667000  1.0  0.7177
  C  C61  1  0.503900  0.757300  0.534800  1.0  0.748
  C  C62  1  0.004000  0.701300  0.498200  1.0  0.6815
  C  C63  1  0.930700  0.356500  0.700700  1.0  0.1391
  C  C64  1  0.997600  0.377300  0.760600  1.0  -0.0419
  C  C65  1  0.074500  0.474300  0.781500  1.0  -0.1304
  C  C66  1  0.085800  0.545700  0.741500  1.0  -0.0486
  C  C67  1  0.015500  0.517300  0.681900  1.0  0.1353
  C  C68  1  0.842700  0.254900  0.673000  1.0  0.6901
  C  C69  1  0.146000  0.499000  0.847700  1.0  0.7356
  C  C70  1  0.020600  0.588100  0.632500  1.0  0.6415
  C  C71  1  0.518400  0.039300  0.085200  1.0  0.1416
  C  C72  1  0.538600  0.945900  0.070500  1.0  -0.0613
  C  C73  1  0.665000  0.937600  0.044900  1.0  -0.0767
  C  C74  1  0.765500  0.022100  0.032500  1.0  -0.0854
  C  C75  1  0.734200  0.111100  0.046100  1.0  0.1436
  C  C76  1  0.387200  0.057400  0.117700  1.0  0.6676
  C  C77  1  0.688200  0.837000  0.028000  1.0  0.7369
  C  C78  1  0.834700  0.207200  0.033200  1.0  0.6766
  C  C79  1  0.532400  0.317300  0.251200  1.0  0.1434
  C  C80  1  0.512400  0.359300  0.309000  1.0  -0.0346
  C  C81  1  0.435200  0.432000  0.310900  1.0  -0.0808
  C  C82  1  0.376400  0.454400  0.255400  1.0  -0.0282
  C  C83  1  0.400000  0.407500  0.200400  1.0  0.1411
  C  C84  1  0.623900  0.242800  0.243300  1.0  0.6607
  C  C85  1  0.416900  0.482700  0.372900  1.0  0.6503
  C  C86  1  0.342100  0.427500  0.136800  1.0  0.6843
  C  C87  1  0.371000  0.784300  0.171800  1.0  0.1187
  C  C88  1  0.498600  0.752200  0.162600  1.0  -0.0705
  C  C89  1  0.630800  0.799400  0.199000  1.0  -0.1253
  C  C90  1  0.628100  0.875100  0.244500  1.0  0.0064
  C  C91  1  0.495500  0.900800  0.250900  1.0  0.1453
  C  C92  1  0.224800  0.747900  0.130900  1.0  0.6729
  C  C93  1  0.778000  0.780100  0.187000  1.0  0.7415
  C  C94  1  0.482600  0.986300  0.295500  1.0  0.6834
  C  C95  1  0.108400  0.139000  0.387200  1.0  0.1262
  C  C96  1  0.259400  0.153600  0.399900  1.0  -0.0347
  C  C97  1  0.329600  0.220400  0.450300  1.0  -0.1559
  C  C98  1  0.248500  0.270300  0.485500  1.0  -0.0422
  C  C99  1  0.098100  0.251000  0.468800  1.0  0.1486
  C  C100  1  0.017800  0.070800  0.333000  1.0  0.719
  C  C101  1  0.496100  0.242700  0.465200  1.0  0.7466
  C  C102  1  0.996000  0.298700  0.501800  1.0  0.6821
  C  C103  1  0.069300  0.643500  0.299300  1.0  0.1402
  C  C104  1  0.002400  0.622700  0.239400  1.0  -0.0428
  C  C105  1  0.925500  0.525700  0.218500  1.0  -0.1309
  C  C106  1  0.914200  0.454300  0.258500  1.0  -0.0501
  C  C107  1  0.984500  0.482700  0.318100  1.0  0.1339
  C  C108  1  0.157300  0.745100  0.327000  1.0  0.6898
  C  C109  1  0.854000  0.501000  0.152300  1.0  0.7376
  C  C110  1  0.979400  0.411900  0.367500  1.0  0.6411
  N  N111  1  0.385800  0.879800  0.927800  1.0  -0.4006
  N  N112  1  0.519600  0.658800  0.802000  1.0  -0.4079
  N  N113  1  0.628200  0.142200  0.785700  1.0  -0.4139
  N  N114  1  0.971000  0.813200  0.580300  1.0  -0.4277
  N  N115  1  0.938800  0.425500  0.661900  1.0  -0.3894
  N  N116  1  0.614200  0.120200  0.072200  1.0  -0.4028
  N  N117  1  0.480400  0.341200  0.198000  1.0  -0.41
  N  N118  1  0.371800  0.857800  0.214300  1.0  -0.4152
  N  N119  1  0.029000  0.186800  0.419700  1.0  -0.4255
  N  N120  1  0.061200  0.574500  0.338100  1.0  -0.3882
  O  O121  1  0.625200  0.855900  0.878600  1.0  -0.6701
  O  O122  1  0.694100  0.014200  0.861900  1.0  -0.7042
  O  O123  1  0.419200  0.226200  0.000700  1.0  -0.724
  O  O124  1  0.187200  0.174900  0.956500  1.0  -0.7263
  O  O125  1  0.064300  0.796000  0.999900  1.0  -0.7091
  O  O126  1  0.195000  0.716200  0.943100  1.0  -0.6901
  O  O127  1  0.335100  0.769700  0.810000  1.0  -0.6844
  O  O128  1  0.346400  0.798000  0.712000  1.0  -0.6962
  O  O129  1  0.531800  0.541900  0.579700  1.0  -0.5215
  O  O130  1  0.650100  0.449800  0.629800  1.0  -0.671
  O  O131  1  0.747600  0.523500  0.867700  1.0  -0.4824
  O  O132  1  0.607600  0.613900  0.908200  1.0  -0.7083
  O  O133  1  0.879400  0.213600  0.855300  1.0  -0.718
  O  O134  1  0.791000  0.314700  0.915300  1.0  -0.6303
  O  O135  1  0.222700  0.285100  0.855300  1.0  -0.6966
  O  O136  1  0.109700  0.169000  0.780200  1.0  -0.6732
  O  O137  1  0.413000  0.979500  0.662300  1.0  -0.7178
  O  O138  1  0.630600  0.984400  0.713600  1.0  -0.6497
  O  O139  1  0.107900  0.917200  0.682400  1.0  -0.6389
  O  O140  1  0.930900  0.994300  0.692800  1.0  -0.7436
  O  O141  1  0.434600  0.787000  0.576200  1.0  -0.7252
  O  O142  1  0.448000  0.711200  0.483300  1.0  -0.7266
  O  O143  1  0.956000  0.634800  0.454300  1.0  -0.6114
  O  O144  1  0.142600  0.731200  0.517000  1.0  -0.7149
  O  O145  1  0.772800  0.250000  0.620300  1.0  -0.6907
  O  O146  1  0.845200  0.184100  0.702400  1.0  -0.776
  O  O147  1  0.089700  0.445500  0.887000  1.0  -0.7378
  O  O148  1  0.257800  0.570400  0.856800  1.0  -0.7275
  O  O149  1  0.099900  0.673400  0.645400  1.0  -0.7254
  O  O150  1  0.943200  0.552800  0.581800  1.0  -0.6691
  O  O151  1  0.374800  0.144100  0.121400  1.0  -0.6715
  O  O152  1  0.305900  0.985800  0.138100  1.0  -0.704
  O  O153  1  0.580800  0.773800  0.999300  1.0  -0.7238
  O  O154  1  0.812800  0.825100  0.043500  1.0  -0.7284
  O  O155  1  0.935700  0.204000  0.000100  1.0  -0.707
  O  O156  1  0.805000  0.283800  0.056900  1.0  -0.6896
  O  O157  1  0.664900  0.230300  0.190000  1.0  -0.6848
  O  O158  1  0.653600  0.202000  0.288000  1.0  -0.6949
  O  O159  1  0.468200  0.458100  0.420300  1.0  -0.5239
  O  O160  1  0.349900  0.550200  0.370200  1.0  -0.6714
  O  O161  1  0.252400  0.476500  0.132300  1.0  -0.4823
  O  O162  1  0.392400  0.386100  0.091800  1.0  -0.7103
  O  O163  1  0.120600  0.786400  0.144700  1.0  -0.7193
  O  O164  1  0.209000  0.685300  0.084700  1.0  -0.6289
  O  O165  1  0.777300  0.714900  0.144700  1.0  -0.6968
  O  O166  1  0.890300  0.831000  0.219800  1.0  -0.6723
  O  O167  1  0.587000  0.020500  0.337700  1.0  -0.7167
  O  O168  1  0.369400  0.015600  0.286400  1.0  -0.6503
  O  O169  1  0.892100  0.082800  0.317600  1.0  -0.6373
  O  O170  1  0.069100  0.005700  0.307200  1.0  -0.7457
  O  O171  1  0.565400  0.213000  0.423800  1.0  -0.7256
  O  O172  1  0.552000  0.288800  0.516700  1.0  -0.727
  O  O173  1  0.044000  0.365200  0.545700  1.0  -0.6111
  O  O174  1  0.857400  0.268800  0.483000  1.0  -0.7131
  O  O175  1  0.227200  0.750000  0.379700  1.0  -0.6922
  O  O176  1  0.154800  0.815900  0.297600  1.0  -0.7765
  O  O177  1  0.910300  0.554500  0.113000  1.0  -0.7348
  O  O178  1  0.742200  0.429600  0.143200  1.0  -0.7285
  O  O179  1  0.900100  0.326600  0.354600  1.0  -0.7246
  O  O180  1  0.056800  0.447200  0.418200  1.0  -0.6675
