# generated using pymatgen
data_Eu2H2C11NO12
_symmetry_space_group_name_H-M   'P 1'
_cell_length_a   8.40150000
_cell_length_b   9.49040000
_cell_length_c   28.28000000
_cell_angle_alpha   90.00000000
_cell_angle_beta   97.51400000
_cell_angle_gamma   90.00000000
_symmetry_Int_Tables_number   1
_chemical_formula_structural   Eu2H2C11NO12
_chemical_formula_sum   'Eu8 H8 C44 N4 O48'
_cell_volume   2235.50340918
_cell_formula_units_Z   4
loop_
 _symmetry_equiv_pos_site_id
 _symmetry_equiv_pos_as_xyz
  1  'x, y, z'
loop_
 _atom_site_type_symbol
 _atom_site_label
 _atom_site_symmetry_multiplicity
 _atom_site_fract_x
 _atom_site_fract_y
 _atom_site_fract_z
 _atom_site_occupancy
 _atom_site_charge
  Eu  Eu1  1  0.854890  0.178470  0.804490  1.0  2.1201
  Eu  Eu2  1  0.543720  0.261110  0.925910  1.0  2.0869
  Eu  Eu3  1  0.145110  0.678470  0.695510  1.0  2.1207
  Eu  Eu4  1  0.456280  0.761110  0.574090  1.0  2.0869
  Eu  Eu5  1  0.145110  0.821530  0.195510  1.0  2.1212
  Eu  Eu6  1  0.456280  0.738890  0.074090  1.0  2.0871
  Eu  Eu7  1  0.854890  0.321530  0.304490  1.0  2.1204
  Eu  Eu8  1  0.543720  0.238890  0.425910  1.0  2.0864
  H  H9  1  0.610300  0.723500  0.889400  1.0  0.1072
  H  H10  1  0.954500  0.613500  0.809300  1.0  0.1047
  H  H11  1  0.389700  0.223500  0.610600  1.0  0.1067
  H  H12  1  0.045500  0.113500  0.690700  1.0  0.1033
  H  H13  1  0.389700  0.276500  0.110600  1.0  0.1069
  H  H14  1  0.045500  0.386500  0.190700  1.0  0.1048
  H  H15  1  0.610300  0.776500  0.389400  1.0  0.1071
  H  H16  1  0.954500  0.886500  0.309300  1.0  0.1033
  C  C17  1  0.715900  0.885300  0.858600  1.0  0.1088
  C  C18  1  0.687200  0.746200  0.869800  1.0  -0.0069
  C  C19  1  0.776500  0.640700  0.850900  1.0  -0.1245
  C  C20  1  0.892500  0.681000  0.822300  1.0  -0.0434
  C  C21  1  0.913400  0.822100  0.813700  1.0  0.1192
  C  C22  1  0.634600  0.011000  0.877400  1.0  0.7011
  C  C23  1  0.751000  0.485500  0.860700  1.0  0.7626
  C  C24  1  0.039900  0.879000  0.785250  1.0  0.6774
  C  C25  1  0.228100  0.267000  0.844400  1.0  0.6053
  C  C26  1  0.166800  0.183600  0.886100  1.0  0.5436
  C  C27  1  0.411500  0.508700  0.989300  1.0  0.5437
  C  C28  1  0.284100  0.385300  0.641400  1.0  0.1085
  C  C29  1  0.312800  0.246200  0.630200  1.0  -0.008
  C  C30  1  0.223500  0.140700  0.649100  1.0  -0.1255
  C  C31  1  0.107500  0.181000  0.677700  1.0  -0.0429
  C  C32  1  0.086600  0.322100  0.686300  1.0  0.1196
  C  C33  1  0.365400  0.511000  0.622600  1.0  0.7009
  C  C34  1  0.249000  0.985500  0.639300  1.0  0.7626
  C  C35  1  0.960100  0.379000  0.714750  1.0  0.6759
  C  C36  1  0.771900  0.767000  0.655600  1.0  0.6054
  C  C37  1  0.833200  0.683600  0.613900  1.0  0.5436
  C  C38  1  0.588500  0.008700  0.510700  1.0  0.5434
  C  C39  1  0.284100  0.114700  0.141400  1.0  0.1089
  C  C40  1  0.312800  0.253800  0.130200  1.0  -0.0083
  C  C41  1  0.223500  0.359300  0.149100  1.0  -0.125
  C  C42  1  0.107500  0.319000  0.177700  1.0  -0.043
  C  C43  1  0.086600  0.177900  0.186300  1.0  0.1197
  C  C44  1  0.365400  0.989000  0.122600  1.0  0.7009
  C  C45  1  0.249000  0.514500  0.139300  1.0  0.7623
  C  C46  1  0.960100  0.121000  0.214750  1.0  0.6758
  C  C47  1  0.771900  0.733000  0.155600  1.0  0.6058
  C  C48  1  0.833200  0.816400  0.113900  1.0  0.5439
  C  C49  1  0.588500  0.491300  0.010700  1.0  0.5431
  C  C50  1  0.715900  0.614700  0.358600  1.0  0.1089
  C  C51  1  0.687200  0.753800  0.369800  1.0  -0.0073
  C  C52  1  0.776500  0.859300  0.350900  1.0  -0.1247
  C  C53  1  0.892500  0.819000  0.322300  1.0  -0.0435
  C  C54  1  0.913400  0.677900  0.313700  1.0  0.1195
  C  C55  1  0.634600  0.489000  0.377400  1.0  0.7019
  C  C56  1  0.751000  0.014500  0.360700  1.0  0.7625
  C  C57  1  0.039900  0.621000  0.285250  1.0  0.6772
  C  C58  1  0.228100  0.233000  0.344400  1.0  0.6053
  C  C59  1  0.166800  0.316400  0.386100  1.0  0.5431
  C  C60  1  0.411500  0.991300  0.489300  1.0  0.5429
  N  N61  1  0.824800  0.922600  0.830470  1.0  -0.4527
  N  N62  1  0.175200  0.422600  0.669530  1.0  -0.4522
  N  N63  1  0.175200  0.077400  0.169530  1.0  -0.4499
  N  N64  1  0.824800  0.577400  0.330470  1.0  -0.4508
  O  O65  1  0.667700  0.130600  0.861360  1.0  -0.7204
  O  O66  1  0.546400  0.997500  0.909360  1.0  -0.6551
  O  O67  1  0.649500  0.456800  0.887720  1.0  -0.7445
  O  O68  1  0.835600  0.400900  0.842110  1.0  -0.7077
  O  O69  1  0.124400  0.790600  0.767510  1.0  -0.7356
  O  O70  1  0.052400  0.009000  0.782790  1.0  -0.6573
  O  O71  1  0.373000  0.302300  0.851040  1.0  -0.6416
  O  O72  1  0.129600  0.289900  0.808900  1.0  -0.5702
  O  O73  1  0.268500  0.160900  0.921880  1.0  -0.6123
  O  O74  1  0.024200  0.145800  0.880830  1.0  -0.595
  O  O75  1  0.368100  0.437500  0.951920  1.0  -0.5935
  O  O76  1  0.325700  0.588000  0.009710  1.0  -0.6216
  O  O77  1  0.332300  0.630600  0.638640  1.0  -0.7197
  O  O78  1  0.453600  0.497500  0.590640  1.0  -0.6532
  O  O79  1  0.350500  0.956800  0.612280  1.0  -0.7446
  O  O80  1  0.164400  0.900900  0.657890  1.0  -0.7067
  O  O81  1  0.875600  0.290600  0.732490  1.0  -0.7369
  O  O82  1  0.947600  0.509000  0.717210  1.0  -0.6571
  O  O83  1  0.627000  0.802300  0.648960  1.0  -0.6432
  O  O84  1  0.870400  0.789900  0.691100  1.0  -0.5729
  O  O85  1  0.731500  0.660900  0.578120  1.0  -0.6108
  O  O86  1  0.975800  0.645800  0.619170  1.0  -0.5962
  O  O87  1  0.631900  0.937500  0.548080  1.0  -0.5924
  O  O88  1  0.674300  0.088000  0.490290  1.0  -0.6206
  O  O89  1  0.332300  0.869400  0.138640  1.0  -0.7184
  O  O90  1  0.453600  0.002500  0.090640  1.0  -0.6531
  O  O91  1  0.350500  0.543200  0.112280  1.0  -0.7447
  O  O92  1  0.164400  0.599100  0.157890  1.0  -0.7072
  O  O93  1  0.875600  0.209400  0.232490  1.0  -0.7369
  O  O94  1  0.947600  0.991000  0.217210  1.0  -0.6573
  O  O95  1  0.627000  0.697700  0.148960  1.0  -0.6418
  O  O96  1  0.870400  0.710100  0.191100  1.0  -0.5722
  O  O97  1  0.731500  0.839100  0.078120  1.0  -0.6103
  O  O98  1  0.975800  0.854200  0.119170  1.0  -0.5964
  O  O99  1  0.631900  0.562500  0.048080  1.0  -0.5887
  O  O100  1  0.674300  0.412000  0.990290  1.0  -0.6196
  O  O101  1  0.667700  0.369400  0.361360  1.0  -0.7187
  O  O102  1  0.546400  0.502500  0.409360  1.0  -0.6552
  O  O103  1  0.649500  0.043200  0.387720  1.0  -0.7444
  O  O104  1  0.835600  0.099100  0.342110  1.0  -0.7087
  O  O105  1  0.124400  0.709400  0.267510  1.0  -0.7355
  O  O106  1  0.052400  0.491000  0.282790  1.0  -0.6576
  O  O107  1  0.373000  0.197700  0.351040  1.0  -0.6417
  O  O108  1  0.129600  0.210100  0.308900  1.0  -0.5706
  O  O109  1  0.268500  0.339100  0.421880  1.0  -0.6135
  O  O110  1  0.024200  0.354200  0.380830  1.0  -0.5952
  O  O111  1  0.368100  0.062500  0.451920  1.0  -0.5905
  O  O112  1  0.325700  0.912000  0.509710  1.0  -0.6211
