# generated using pymatgen
data_Cu4C19I3N4
_symmetry_space_group_name_H-M   'P 1'
_cell_length_a   15.22290000
_cell_length_b   15.22290000
_cell_length_c   6.88620000
_cell_angle_alpha   90.00000000
_cell_angle_beta   90.00000000
_cell_angle_gamma   120.00000000
_symmetry_Int_Tables_number   1
_chemical_formula_structural   Cu4C19I3N4
_chemical_formula_sum   'Cu8 C38 I6 N8'
_cell_volume   1381.99048424
_cell_formula_units_Z   2
loop_
 _symmetry_equiv_pos_site_id
 _symmetry_equiv_pos_as_xyz
  1  'x, y, z'
loop_
 _atom_site_type_symbol
 _atom_site_label
 _atom_site_symmetry_multiplicity
 _atom_site_fract_x
 _atom_site_fract_y
 _atom_site_fract_z
 _atom_site_occupancy
 _atom_site_charge
  Cu  Cu1  1  0.220460  0.610230  0.247200  1.0  0.188
  Cu  Cu2  1  0.389770  0.610230  0.247200  1.0  0.1881
  Cu  Cu3  1  0.389770  0.779540  0.247200  1.0  0.1881
  Cu  Cu4  1  0.610230  0.220460  0.752800  1.0  0.187
  Cu  Cu5  1  0.610230  0.389770  0.752800  1.0  0.1868
  Cu  Cu6  1  0.779540  0.389770  0.752800  1.0  0.1871
  Cu  Cu7  1  0.333333  0.666667  0.580600  1.0  0.131
  Cu  Cu8  1  0.666667  0.333333  0.419400  1.0  0.1313
  C  C9  1  0.085600  0.460600  0.965000  1.0  0.0529
  C  C10  1  0.020000  0.428000  0.145000  1.0  0.0185
  C  C11  1  0.539400  0.625000  0.965000  1.0  0.0478
  C  C12  1  0.572000  0.592000  0.145000  1.0  0.0192
  C  C13  1  0.375000  0.914400  0.965000  1.0  0.0513
  C  C14  1  0.408000  0.980000  0.145000  1.0  0.0202
  C  C15  1  0.460600  0.085600  0.035000  1.0  0.0505
  C  C16  1  0.428000  0.020000  0.855000  1.0  0.025
  C  C17  1  0.625000  0.539400  0.035000  1.0  0.052
  C  C18  1  0.592000  0.572000  0.855000  1.0  0.0182
  C  C19  1  0.914400  0.375000  0.035000  1.0  0.0534
  C  C20  1  0.980000  0.408000  0.855000  1.0  0.0274
  C  C21  1  0.914400  0.539400  0.035000  1.0  0.0482
  C  C22  1  0.980000  0.572000  0.855000  1.0  0.0265
  C  C23  1  0.460600  0.375000  0.035000  1.0  0.0484
  C  C24  1  0.428000  0.408000  0.855000  1.0  0.0376
  C  C25  1  0.625000  0.085600  0.035000  1.0  0.0478
  C  C26  1  0.592000  0.020000  0.855000  1.0  0.0282
  C  C27  1  0.539400  0.914400  0.965000  1.0  0.0538
  C  C28  1  0.572000  0.980000  0.145000  1.0  0.0266
  C  C29  1  0.375000  0.460600  0.965000  1.0  0.0518
  C  C30  1  0.408000  0.428000  0.145000  1.0  0.0313
  C  C31  1  0.085600  0.625000  0.965000  1.0  0.0504
  C  C32  1  0.020000  0.592000  0.145000  1.0  0.0266
  C  C33  1  0.108000  0.554000  0.887000  1.0  0.1251
  C  C34  1  0.995000  0.497500  0.765000  1.0  0.0593
  C  C35  1  0.446000  0.554000  0.887000  1.0  0.1279
  C  C36  1  0.502500  0.497500  0.765000  1.0  0.0594
  C  C37  1  0.446000  0.892000  0.887000  1.0  0.1261
  C  C38  1  0.502500  0.005000  0.765000  1.0  0.0601
  C  C39  1  0.554000  0.108000  0.113000  1.0  0.1206
  C  C40  1  0.497500  0.995000  0.235000  1.0  0.0495
  C  C41  1  0.554000  0.446000  0.113000  1.0  0.1252
  C  C42  1  0.497500  0.502500  0.235000  1.0  0.0499
  C  C43  1  0.892000  0.446000  0.113000  1.0  0.1237
  C  C44  1  0.005000  0.502500  0.235000  1.0  0.0496
  C  C45  1  0.333333  0.666667  0.860000  1.0  0.0861
  C  C46  1  0.666667  0.333333  0.140000  1.0  0.0879
  I  I47  1  0.235080  0.470170  0.463090  1.0  -0.2989
  I  I48  1  0.529830  0.764910  0.463090  1.0  -0.2995
  I  I49  1  0.235090  0.764920  0.463090  1.0  -0.2983
  I  I50  1  0.470170  0.235080  0.536910  1.0  -0.2991
  I  I51  1  0.764910  0.529830  0.536910  1.0  -0.2997
  I  I52  1  0.764920  0.235090  0.536910  1.0  -0.2999
  N  N53  1  0.085700  0.542850  0.095700  1.0  -0.1737
  N  N54  1  0.457150  0.542850  0.095700  1.0  -0.1729
  N  N55  1  0.457150  0.914300  0.095700  1.0  -0.172
  N  N56  1  0.542850  0.085700  0.904300  1.0  -0.1753
  N  N57  1  0.542850  0.457150  0.904300  1.0  -0.1757
  N  N58  1  0.914300  0.457150  0.904300  1.0  -0.1742
  N  N59  1  0.333333  0.666667  0.018000  1.0  -0.3565
  N  N60  1  0.666667  0.333333  0.982000  1.0  -0.3555
