# generated using pymatgen
data_CuH8C14N2O5
_symmetry_space_group_name_H-M   'P 1'
_cell_length_a   8.40500000
_cell_length_b   10.29300000
_cell_length_c   17.67850000
_cell_angle_alpha   90.00000000
_cell_angle_beta   102.81300000
_cell_angle_gamma   90.00000000
_symmetry_Int_Tables_number   1
_chemical_formula_structural   CuH8C14N2O5
_chemical_formula_sum   'Cu4 H32 C56 N8 O20'
_cell_volume   1491.33030047
_cell_formula_units_Z   4
loop_
 _symmetry_equiv_pos_site_id
 _symmetry_equiv_pos_as_xyz
  1  'x, y, z'
loop_
 _atom_site_type_symbol
 _atom_site_label
 _atom_site_symmetry_multiplicity
 _atom_site_fract_x
 _atom_site_fract_y
 _atom_site_fract_z
 _atom_site_occupancy
 _atom_site_charge
  Cu  Cu1  1  0.326340  0.442450  0.931980  1.0  0.8559
  Cu  Cu2  1  0.826340  0.057550  0.431980  1.0  0.8559
  Cu  Cu3  1  0.173660  0.942450  0.568020  1.0  0.8566
  Cu  Cu4  1  0.673660  0.557550  0.068020  1.0  0.8567
  H  H5  1  0.360000  0.662900  0.594600  1.0  0.287
  H  H6  1  0.313300  0.550000  0.700000  1.0  0.1244
  H  H7  1  0.036300  0.227700  0.669200  1.0  0.1121
  H  H8  1  0.143800  0.410500  0.484500  1.0  0.1233
  H  H9  1  0.735300  0.935500  0.564500  1.0  0.1027
  H  H10  1  0.568700  0.772400  0.591700  1.0  0.1406
  H  H11  1  0.392300  0.728400  0.363100  1.0  0.1385
  H  H12  1  0.563900  0.891100  0.341300  1.0  0.0946
  H  H13  1  0.860000  0.837100  0.094600  1.0  0.2874
  H  H14  1  0.813300  0.950000  0.200000  1.0  0.1247
  H  H15  1  0.536300  0.272300  0.169200  1.0  0.1121
  H  H16  1  0.643800  0.089500  0.984500  1.0  0.1232
  H  H17  1  0.235300  0.564500  0.064500  1.0  0.1027
  H  H18  1  0.068700  0.727600  0.091700  1.0  0.1405
  H  H19  1  0.892300  0.771600  0.863100  1.0  0.1387
  H  H20  1  0.063900  0.608900  0.841300  1.0  0.095
  H  H21  1  0.140000  0.162900  0.905400  1.0  0.2869
  H  H22  1  0.186700  0.050000  0.800000  1.0  0.1242
  H  H23  1  0.463700  0.727700  0.830800  1.0  0.1122
  H  H24  1  0.356200  0.910500  0.015500  1.0  0.1226
  H  H25  1  0.764700  0.435500  0.935500  1.0  0.1021
  H  H26  1  0.931300  0.272400  0.908300  1.0  0.1419
  H  H27  1  0.107700  0.228400  0.136900  1.0  0.1392
  H  H28  1  0.936100  0.391100  0.158700  1.0  0.094
  H  H29  1  0.640000  0.337100  0.405400  1.0  0.2865
  H  H30  1  0.686700  0.450000  0.300000  1.0  0.1241
  H  H31  1  0.963700  0.772300  0.330800  1.0  0.1123
  H  H32  1  0.856200  0.589500  0.515500  1.0  0.1225
  H  H33  1  0.264700  0.064500  0.435500  1.0  0.1019
  H  H34  1  0.431300  0.227600  0.408300  1.0  0.1417
  H  H35  1  0.607700  0.271600  0.636900  1.0  0.1391
  H  H36  1  0.436100  0.108900  0.658700  1.0  0.0944
  C  C37  1  0.244160  0.497100  0.587860  1.0  0.2116
  C  C38  1  0.254100  0.488100  0.667000  1.0  -0.1052
  C  C39  1  0.177080  0.388000  0.697880  1.0  -0.1247
  C  C40  1  0.087880  0.295200  0.649080  1.0  -0.0076
  C  C41  1  0.077160  0.305100  0.569460  1.0  -0.1197
  C  C42  1  0.153180  0.405000  0.537780  1.0  -0.1117
  C  C43  1  0.359470  0.615200  0.490970  1.0  0.494
  C  C44  1  0.666200  0.892700  0.523800  1.0  0.1671
  C  C45  1  0.566350  0.794900  0.540550  1.0  -0.1487
  C  C46  1  0.463160  0.731000  0.480260  1.0  -0.0198
  C  C47  1  0.461780  0.768700  0.404680  1.0  -0.1139
  C  C48  1  0.564760  0.866600  0.392060  1.0  0.162
  C  C49  1  0.194620  0.379200  0.784220  1.0  0.6573
  C  C50  1  0.985480  0.206900  0.516480  1.0  0.586
  C  C51  1  0.744160  0.002900  0.087860  1.0  0.2114
  C  C52  1  0.754100  0.011900  0.167000  1.0  -0.1056
  C  C53  1  0.677080  0.112000  0.197880  1.0  -0.1247
  C  C54  1  0.587880  0.204800  0.149080  1.0  -0.008
  C  C55  1  0.577160  0.194900  0.069460  1.0  -0.1195
  C  C56  1  0.653180  0.095000  0.037780  1.0  -0.1115
  C  C57  1  0.859470  0.884800  0.990970  1.0  0.4939
  C  C58  1  0.166200  0.607300  0.023800  1.0  0.1668
  C  C59  1  0.066350  0.705100  0.040550  1.0  -0.1487
  C  C60  1  0.963160  0.769000  0.980260  1.0  -0.0194
  C  C61  1  0.961780  0.731300  0.904680  1.0  -0.1137
  C  C62  1  0.064760  0.633400  0.892060  1.0  0.1625
  C  C63  1  0.694620  0.120800  0.284220  1.0  0.6572
  C  C64  1  0.485480  0.293100  0.016480  1.0  0.5857
  C  C65  1  0.255840  0.997100  0.912140  1.0  0.2117
  C  C66  1  0.245900  0.988100  0.833000  1.0  -0.105
  C  C67  1  0.322920  0.888000  0.802120  1.0  -0.1243
  C  C68  1  0.412120  0.795200  0.850920  1.0  -0.0067
  C  C69  1  0.422840  0.805100  0.930540  1.0  -0.12
  C  C70  1  0.346820  0.905000  0.962220  1.0  -0.1124
  C  C71  1  0.140530  0.115200  0.009030  1.0  0.4939
  C  C72  1  0.833800  0.392700  0.976200  1.0  0.167
  C  C73  1  0.933650  0.294900  0.959450  1.0  -0.1497
  C  C74  1  0.036840  0.231000  0.019740  1.0  -0.0209
  C  C75  1  0.038220  0.268700  0.095320  1.0  -0.1151
  C  C76  1  0.935240  0.366600  0.107940  1.0  0.1621
  C  C77  1  0.305380  0.879200  0.715780  1.0  0.657
  C  C78  1  0.514520  0.706900  0.983520  1.0  0.5861
  C  C79  1  0.755840  0.502900  0.412140  1.0  0.2115
  C  C80  1  0.745900  0.511900  0.333000  1.0  -0.1049
  C  C81  1  0.822920  0.612000  0.302120  1.0  -0.1244
  C  C82  1  0.912120  0.704800  0.350920  1.0  -0.0076
  C  C83  1  0.922840  0.694900  0.430540  1.0  -0.1196
  C  C84  1  0.846820  0.595000  0.462220  1.0  -0.1123
  C  C85  1  0.640530  0.384800  0.509030  1.0  0.4939
  C  C86  1  0.333800  0.107300  0.476200  1.0  0.1667
  C  C87  1  0.433650  0.205100  0.459450  1.0  -0.1501
  C  C88  1  0.536840  0.269000  0.519740  1.0  -0.0207
  C  C89  1  0.538220  0.231300  0.595320  1.0  -0.1143
  C  C90  1  0.435240  0.133400  0.607940  1.0  0.1624
  C  C91  1  0.805380  0.620800  0.215780  1.0  0.6571
  C  C92  1  0.014520  0.793100  0.483520  1.0  0.5856
  N  N93  1  0.326920  0.601600  0.561820  1.0  -0.3813
  N  N94  1  0.666380  0.927800  0.450680  1.0  -0.3918
  N  N95  1  0.826920  0.898400  0.061820  1.0  -0.3815
  N  N96  1  0.166380  0.572200  0.950680  1.0  -0.39
  N  N97  1  0.173080  0.101600  0.938180  1.0  -0.3819
  N  N98  1  0.833620  0.427800  0.049320  1.0  -0.3927
  N  N99  1  0.673080  0.398400  0.438180  1.0  -0.382
  N  N100  1  0.333620  0.072200  0.549320  1.0  -0.3916
  O  O101  1  0.312340  0.540900  0.436740  1.0  -0.4823
  O  O102  1  0.292850  0.462500  0.823750  1.0  -0.5703
  O  O103  1  0.119320  0.297400  0.812920  1.0  -0.5975
  O  O104  1  0.919780  0.109200  0.541780  1.0  -0.5808
  O  O105  1  0.970950  0.215300  0.443850  1.0  -0.5007
  O  O106  1  0.812340  0.959100  0.936740  1.0  -0.4825
  O  O107  1  0.792850  0.037500  0.323750  1.0  -0.57
  O  O108  1  0.619320  0.202600  0.312920  1.0  -0.5976
  O  O109  1  0.419780  0.390800  0.041780  1.0  -0.5806
  O  O110  1  0.470950  0.284700  0.943850  1.0  -0.501
  O  O111  1  0.187660  0.040900  0.063260  1.0  -0.4816
  O  O112  1  0.207150  0.962500  0.676250  1.0  -0.5714
  O  O113  1  0.380680  0.797400  0.687080  1.0  -0.5977
  O  O114  1  0.580220  0.609200  0.958220  1.0  -0.5798
  O  O115  1  0.529050  0.715300  0.056150  1.0  -0.5008
  O  O116  1  0.687660  0.459100  0.563260  1.0  -0.4824
  O  O117  1  0.707150  0.537500  0.176250  1.0  -0.5706
  O  O118  1  0.880680  0.702600  0.187080  1.0  -0.5976
  O  O119  1  0.080220  0.890800  0.458220  1.0  -0.5796
  O  O120  1  0.029050  0.784700  0.556150  1.0  -0.5005
