# generated using pymatgen
data_Cu3MoH16C22S3N5O
_symmetry_space_group_name_H-M   'P 1'
_cell_length_a   13.76190000
_cell_length_b   15.39490000
_cell_length_c   17.35000000
_cell_angle_alpha   98.34770000
_cell_angle_beta   90.00000000
_cell_angle_gamma   116.54900000
_symmetry_Int_Tables_number   1
_chemical_formula_structural   Cu3MoH16C22S3N5O
_chemical_formula_sum   'Cu12 Mo4 H64 C88 S12 N20 O4'
_cell_volume   3244.62424409
_cell_formula_units_Z   4
loop_
 _symmetry_equiv_pos_site_id
 _symmetry_equiv_pos_as_xyz
  1  'x, y, z'
loop_
 _atom_site_type_symbol
 _atom_site_label
 _atom_site_symmetry_multiplicity
 _atom_site_fract_x
 _atom_site_fract_y
 _atom_site_fract_z
 _atom_site_occupancy
 _atom_site_charge
  Cu  Cu1  1  0.476220  0.179180  0.734280  1.0  0.3402
  Cu  Cu2  1  0.470050  0.377980  0.622120  1.0  0.359
  Cu  Cu3  1  0.723570  0.421400  0.735750  1.0  0.3408
  Cu  Cu4  1  0.297040  0.820820  0.765720  1.0  0.3409
  Cu  Cu5  1  0.092070  0.622020  0.877880  1.0  0.3589
  Cu  Cu6  1  0.302170  0.578600  0.764250  1.0  0.3399
  Cu  Cu7  1  0.523780  0.820820  0.265720  1.0  0.3428
  Cu  Cu8  1  0.529950  0.622020  0.377880  1.0  0.3589
  Cu  Cu9  1  0.276430  0.578600  0.264250  1.0  0.3392
  Cu  Cu10  1  0.702960  0.179180  0.234280  1.0  0.3413
  Cu  Cu11  1  0.907930  0.377980  0.122120  1.0  0.3588
  Cu  Cu12  1  0.697830  0.421400  0.235750  1.0  0.3398
  Mo  Mo13  1  0.590050  0.279540  0.621660  1.0  0.862
  Mo  Mo14  1  0.310510  0.720460  0.878340  1.0  0.8614
  Mo  Mo15  1  0.409950  0.720460  0.378340  1.0  0.8619
  Mo  Mo16  1  0.689490  0.279540  0.121660  1.0  0.8623
  H  H17  1  0.261600  0.344600  0.537200  1.0  0.0721
  H  H18  1  0.172700  0.294200  0.415700  1.0  0.1085
  H  H19  1  0.449200  0.316400  0.325800  1.0  0.1165
  H  H20  1  0.531400  0.371400  0.448800  1.0  0.067
  H  H21  1  0.140100  0.322800  0.294700  1.0  0.1032
  H  H22  1  0.051900  0.267000  0.171100  1.0  0.0749
  H  H23  1  0.233800  0.141200  0.106800  1.0  0.0755
  H  H24  1  0.325100  0.190600  0.227800  1.0  0.1272
  H  H25  1  0.391300  0.328800  0.778900  1.0  0.0643
  H  H26  1  0.362400  0.418200  0.883600  1.0  0.1118
  H  H27  1  0.429200  0.261400  0.020800  1.0  0.1201
  H  H28  1  0.462800  0.179400  0.910500  1.0  0.0837
  H  H29  1  0.399600  0.450600  0.224000  1.0  0.0633
  H  H30  1  0.427700  0.358200  0.119800  1.0  0.1186
  H  H31  1  0.315300  0.485000  0.980500  1.0  0.1241
  H  H32  1  0.295600  0.575200  0.090800  1.0  0.0651
  H  H33  1  0.917000  0.655400  0.962800  1.0  0.072
  H  H34  1  0.878500  0.705800  0.084300  1.0  0.1088
  H  H35  1  0.132800  0.683600  0.174200  1.0  0.1162
  H  H36  1  0.160000  0.628600  0.051200  1.0  0.0669
  H  H37  1  0.817300  0.677200  0.205300  1.0  0.1036
  H  H38  1  0.784900  0.733000  0.328900  1.0  0.0751
  H  H39  1  0.092600  0.858800  0.393200  1.0  0.0758
  H  H40  1  0.134500  0.809400  0.272200  1.0  0.1275
  H  H41  1  0.062500  0.671200  0.721100  1.0  0.0634
  H  H42  1  0.944200  0.581800  0.616400  1.0  0.1116
  H  H43  1  0.167800  0.738600  0.479200  1.0  0.1197
  H  H44  1  0.283400  0.820600  0.589500  1.0  0.0835
  H  H45  1  0.949000  0.549400  0.276000  1.0  0.0638
  H  H46  1  0.069500  0.641800  0.380200  1.0  0.1188
  H  H47  1  0.830300  0.515000  0.519500  1.0  0.123
  H  H48  1  0.720400  0.424800  0.409200  1.0  0.0648
  H  H49  1  0.738400  0.655400  0.462800  1.0  0.0714
  H  H50  1  0.827300  0.705800  0.584300  1.0  0.1087
  H  H51  1  0.550800  0.683600  0.674200  1.0  0.116
  H  H52  1  0.468600  0.628600  0.551200  1.0  0.0673
  H  H53  1  0.859900  0.677200  0.705300  1.0  0.1036
  H  H54  1  0.948100  0.733000  0.828900  1.0  0.0754
  H  H55  1  0.766200  0.858800  0.893200  1.0  0.0757
  H  H56  1  0.674900  0.809400  0.772200  1.0  0.1288
  H  H57  1  0.608700  0.671200  0.221100  1.0  0.0633
  H  H58  1  0.637600  0.581800  0.116400  1.0  0.1121
  H  H59  1  0.570800  0.738600  0.979200  1.0  0.1201
  H  H60  1  0.537200  0.820600  0.089500  1.0  0.0836
  H  H61  1  0.600400  0.549400  0.776000  1.0  0.0643
  H  H62  1  0.572300  0.641800  0.880200  1.0  0.1193
  H  H63  1  0.684700  0.515000  0.019500  1.0  0.1229
  H  H64  1  0.704400  0.424800  0.909200  1.0  0.065
  H  H65  1  0.083000  0.344600  0.037200  1.0  0.0719
  H  H66  1  0.121500  0.294200  0.915700  1.0  0.1084
  H  H67  1  0.867200  0.316400  0.825800  1.0  0.1162
  H  H68  1  0.840000  0.371400  0.948800  1.0  0.0668
  H  H69  1  0.182700  0.322800  0.794700  1.0  0.1034
  H  H70  1  0.215100  0.267000  0.671100  1.0  0.0749
  H  H71  1  0.907400  0.141200  0.606800  1.0  0.0755
  H  H72  1  0.865500  0.190600  0.727800  1.0  0.1283
  H  H73  1  0.937500  0.328800  0.278900  1.0  0.0639
  H  H74  1  0.055800  0.418200  0.383600  1.0  0.1114
  H  H75  1  0.832200  0.261400  0.520800  1.0  0.1197
  H  H76  1  0.716600  0.179400  0.410500  1.0  0.0833
  H  H77  1  0.051000  0.450600  0.724000  1.0  0.0636
  H  H78  1  0.930500  0.358200  0.619800  1.0  0.1187
  H  H79  1  0.169700  0.485000  0.480500  1.0  0.1238
  H  H80  1  0.279600  0.575200  0.590800  1.0  0.0652
  C  C81  1  0.300200  0.339400  0.494200  1.0  0.1724
  C  C82  1  0.245800  0.308600  0.421000  1.0  -0.1971
  C  C83  1  0.300200  0.298600  0.354600  1.0  0.1025
  C  C84  1  0.408900  0.322200  0.367500  1.0  -0.2191
  C  C85  1  0.457700  0.354400  0.442400  1.0  0.1609
  C  C86  1  0.243300  0.263600  0.276300  1.0  0.1028
  C  C87  1  0.160700  0.285400  0.257600  1.0  -0.2059
  C  C88  1  0.107400  0.251200  0.182700  1.0  0.1681
  C  C89  1  0.213500  0.177400  0.145200  1.0  0.1521
  C  C90  1  0.269900  0.207600  0.218100  1.0  -0.2173
  C  C91  1  0.401300  0.316000  0.828300  1.0  0.1502
  C  C92  1  0.382100  0.369400  0.891100  1.0  -0.2017
  C  C93  1  0.391700  0.351000  0.966000  1.0  0.0781
  C  C94  1  0.422200  0.277600  0.972200  1.0  -0.2006
  C  C95  1  0.442100  0.228200  0.905100  1.0  0.1518
  C  C96  1  0.382100  0.457200  0.174100  1.0  0.1754
  C  C97  1  0.399700  0.401400  0.111800  1.0  -0.2019
  C  C98  1  0.333800  0.476600  0.029500  1.0  -0.2052
  C  C99  1  0.321000  0.529600  0.096500  1.0  0.1823
  C  C100  1  0.375100  0.410400  0.036800  1.0  0.0701
  C  C101  1  0.406900  0.035800  0.743000  1.0  0.1208
  C  C102  1  0.407100  0.450800  0.684800  1.0  0.108
  C  C103  1  0.960800  0.660600  0.005800  1.0  0.172
  C  C104  1  0.937200  0.691400  0.079000  1.0  -0.1963
  C  C105  1  0.001600  0.701400  0.145400  1.0  0.1026
  C  C106  1  0.086700  0.677800  0.132500  1.0  -0.2196
  C  C107  1  0.103300  0.645600  0.057600  1.0  0.1616
  C  C108  1  0.979700  0.736400  0.223700  1.0  0.1033
  C  C109  1  0.875300  0.714600  0.242400  1.0  -0.2068
  C  C110  1  0.856200  0.748800  0.317300  1.0  0.1681
  C  C111  1  0.036100  0.822600  0.354800  1.0  0.1513
  C  C112  1  0.062300  0.792400  0.281900  1.0  -0.2168
  C  C113  1  0.085300  0.684000  0.671700  1.0  0.1503
  C  C114  1  0.012700  0.630600  0.608900  1.0  -0.2023
  C  C115  1  0.040700  0.649000  0.534000  1.0  0.0795
  C  C116  1  0.144600  0.722400  0.527800  1.0  -0.2001
  C  C117  1  0.213900  0.771800  0.594900  1.0  0.1536
  C  C118  1  0.924900  0.542800  0.325900  1.0  0.1745
  C  C119  1  0.998300  0.598600  0.388200  1.0  -0.2016
  C  C120  1  0.857200  0.523400  0.470500  1.0  -0.2058
  C  C121  1  0.791400  0.470400  0.403500  1.0  0.1822
  C  C122  1  0.964700  0.589600  0.463200  1.0  0.0701
  C  C123  1  0.371100  0.964200  0.757000  1.0  0.1216
  C  C124  1  0.956300  0.549200  0.815200  1.0  0.1079
  C  C125  1  0.699800  0.660600  0.505800  1.0  0.1718
  C  C126  1  0.754200  0.691400  0.579000  1.0  -0.1962
  C  C127  1  0.699800  0.701400  0.645400  1.0  0.1021
  C  C128  1  0.591100  0.677800  0.632500  1.0  -0.2206
  C  C129  1  0.542300  0.645600  0.557600  1.0  0.1603
  C  C130  1  0.756700  0.736400  0.723700  1.0  0.1031
  C  C131  1  0.839300  0.714600  0.742400  1.0  -0.2076
  C  C132  1  0.892600  0.748800  0.817300  1.0  0.1702
  C  C133  1  0.786500  0.822600  0.854800  1.0  0.1511
  C  C134  1  0.730100  0.792400  0.781900  1.0  -0.216
  C  C135  1  0.598700  0.684000  0.171700  1.0  0.1504
  C  C136  1  0.617900  0.630600  0.108900  1.0  -0.2014
  C  C137  1  0.608300  0.649000  0.034000  1.0  0.0796
  C  C138  1  0.577800  0.722400  0.027800  1.0  -0.201
  C  C139  1  0.557900  0.771800  0.094900  1.0  0.1547
  C  C140  1  0.617900  0.542800  0.825900  1.0  0.1746
  C  C141  1  0.600300  0.598600  0.888200  1.0  -0.2022
  C  C142  1  0.666200  0.523400  0.970500  1.0  -0.2054
  C  C143  1  0.679000  0.470400  0.903500  1.0  0.1822
  C  C144  1  0.624900  0.589600  0.963200  1.0  0.0698
  C  C145  1  0.593100  0.964200  0.257000  1.0  0.1209
  C  C146  1  0.592900  0.549200  0.315200  1.0  0.109
  C  C147  1  0.039200  0.339400  0.994200  1.0  0.1722
  C  C148  1  0.062800  0.308600  0.921000  1.0  -0.1965
  C  C149  1  0.998400  0.298600  0.854600  1.0  0.1021
  C  C150  1  0.913300  0.322200  0.867500  1.0  -0.2196
  C  C151  1  0.896700  0.354400  0.942400  1.0  0.1598
  C  C152  1  0.020300  0.263600  0.776300  1.0  0.1024
  C  C153  1  0.124700  0.285400  0.757600  1.0  -0.208
  C  C154  1  0.143800  0.251200  0.682700  1.0  0.1693
  C  C155  1  0.963900  0.177400  0.645200  1.0  0.1524
  C  C156  1  0.937700  0.207600  0.718100  1.0  -0.2146
  C  C157  1  0.914700  0.316000  0.328300  1.0  0.1498
  C  C158  1  0.987300  0.369400  0.391100  1.0  -0.2013
  C  C159  1  0.959300  0.351000  0.466000  1.0  0.0781
  C  C160  1  0.855400  0.277600  0.472200  1.0  -0.1999
  C  C161  1  0.786100  0.228200  0.405100  1.0  0.1536
  C  C162  1  0.075100  0.457200  0.674100  1.0  0.1752
  C  C163  1  0.001700  0.401400  0.611800  1.0  -0.2019
  C  C164  1  0.142800  0.476600  0.529500  1.0  -0.2053
  C  C165  1  0.208600  0.529600  0.596500  1.0  0.1821
  C  C166  1  0.035300  0.410400  0.536800  1.0  0.0696
  C  C167  1  0.628900  0.035800  0.243000  1.0  0.12
  C  C168  1  0.043700  0.450800  0.184800  1.0  0.1104
  S  S169  1  0.655780  0.444140  0.624770  1.0  -0.3358
  S  S170  1  0.407400  0.212360  0.628230  1.0  -0.394
  S  S171  1  0.661940  0.255380  0.729220  1.0  -0.4871
  S  S172  1  0.211640  0.555860  0.875230  1.0  -0.3376
  S  S173  1  0.195040  0.787640  0.871770  1.0  -0.3933
  S  S174  1  0.406560  0.744620  0.770780  1.0  -0.4866
  S  S175  1  0.344220  0.555860  0.375230  1.0  -0.3378
  S  S176  1  0.592600  0.787640  0.371770  1.0  -0.3947
  S  S177  1  0.338060  0.744620  0.270780  1.0  -0.4863
  S  S178  1  0.788360  0.444140  0.124770  1.0  -0.3361
  S  S179  1  0.804960  0.212360  0.128230  1.0  -0.3954
  S  S180  1  0.593440  0.255380  0.229220  1.0  -0.4865
  N  N181  1  0.341900  0.520200  0.168100  1.0  -0.3443
  N  N182  1  0.433100  0.247200  0.832700  1.0  -0.3335
  N  N183  1  0.406400  0.362600  0.506600  1.0  -0.3265
  N  N184  1  0.133400  0.196600  0.127200  1.0  -0.4296
  N  N185  1  0.371400  0.498000  0.721400  1.0  -0.3723
  N  N186  1  0.821700  0.479800  0.331900  1.0  -0.3455
  N  N187  1  0.185900  0.752800  0.667300  1.0  -0.3347
  N  N188  1  0.043800  0.637400  0.993400  1.0  -0.3274
  N  N189  1  0.936800  0.803400  0.372800  1.0  -0.4286
  N  N190  1  0.873400  0.502000  0.778600  1.0  -0.3714
  N  N191  1  0.658100  0.479800  0.831900  1.0  -0.3439
  N  N192  1  0.566900  0.752800  0.167300  1.0  -0.3344
  N  N193  1  0.593600  0.637400  0.493400  1.0  -0.3277
  N  N194  1  0.866600  0.803400  0.872800  1.0  -0.4285
  N  N195  1  0.628600  0.502000  0.278600  1.0  -0.3725
  N  N196  1  0.178300  0.520200  0.668100  1.0  -0.3421
  N  N197  1  0.814100  0.247200  0.332700  1.0  -0.335
  N  N198  1  0.956200  0.362600  0.006600  1.0  -0.3268
  N  N199  1  0.063200  0.196600  0.627200  1.0  -0.4285
  N  N200  1  0.126600  0.498000  0.221400  1.0  -0.3734
  O  O201  1  0.623300  0.227600  0.538300  1.0  -0.6213
  O  O202  1  0.395700  0.772400  0.961700  1.0  -0.6221
  O  O203  1  0.376700  0.772400  0.461700  1.0  -0.6231
  O  O204  1  0.604300  0.227600  0.038300  1.0  -0.6219
