# generated using pymatgen
data_CuH8C14N2O5
_symmetry_space_group_name_H-M   'P 1'
_cell_length_a   8.40480000
_cell_length_b   10.23790000
_cell_length_c   17.66710000
_cell_angle_alpha   90.00000000
_cell_angle_beta   103.03200000
_cell_angle_gamma   90.00000000
_symmetry_Int_Tables_number   1
_chemical_formula_structural   CuH8C14N2O5
_chemical_formula_sum   'Cu4 H32 C56 N8 O20'
_cell_volume   1481.05571729
_cell_formula_units_Z   4
loop_
 _symmetry_equiv_pos_site_id
 _symmetry_equiv_pos_as_xyz
  1  'x, y, z'
loop_
 _atom_site_type_symbol
 _atom_site_label
 _atom_site_symmetry_multiplicity
 _atom_site_fract_x
 _atom_site_fract_y
 _atom_site_fract_z
 _atom_site_occupancy
 _atom_site_charge
  Cu  Cu1  1  0.826290  0.557740  0.432040  1.0  0.8553
  Cu  Cu2  1  0.326290  0.942260  0.932040  1.0  0.8552
  Cu  Cu3  1  0.673710  0.057740  0.067960  1.0  0.8556
  Cu  Cu4  1  0.173710  0.442260  0.567960  1.0  0.8555
  H  H5  1  0.536900  0.770300  0.169600  1.0  0.1115
  H  H6  1  0.645600  0.589200  0.984800  1.0  0.1256
  H  H7  1  0.814200  0.448800  0.199800  1.0  0.1258
  H  H8  1  0.894200  0.271100  0.863700  1.0  0.1357
  H  H9  1  0.063400  0.109000  0.841800  1.0  0.0958
  H  H10  1  0.235500  0.064400  0.064500  1.0  0.0973
  H  H11  1  0.069300  0.225800  0.092100  1.0  0.1386
  H  H12  1  0.864900  0.338100  0.096100  1.0  0.2882
  H  H13  1  0.036900  0.729700  0.669600  1.0  0.1115
  H  H14  1  0.145600  0.910800  0.484800  1.0  0.1255
  H  H15  1  0.314200  0.051200  0.699800  1.0  0.1242
  H  H16  1  0.394200  0.228900  0.363700  1.0  0.1358
  H  H17  1  0.563400  0.391000  0.341800  1.0  0.0955
  H  H18  1  0.735500  0.435600  0.564500  1.0  0.0974
  H  H19  1  0.569300  0.274200  0.592100  1.0  0.1385
  H  H20  1  0.364900  0.161900  0.596100  1.0  0.2878
  H  H21  1  0.963100  0.270300  0.330400  1.0  0.1118
  H  H22  1  0.854400  0.089200  0.515200  1.0  0.125
  H  H23  1  0.685800  0.948800  0.300200  1.0  0.1245
  H  H24  1  0.605800  0.771100  0.636300  1.0  0.1363
  H  H25  1  0.436600  0.609000  0.658200  1.0  0.0953
  H  H26  1  0.264500  0.564400  0.435500  1.0  0.0967
  H  H27  1  0.430700  0.725800  0.407900  1.0  0.1398
  H  H28  1  0.635100  0.838100  0.403900  1.0  0.2878
  H  H29  1  0.463100  0.229700  0.830400  1.0  0.1116
  H  H30  1  0.354400  0.410800  0.015200  1.0  0.125
  H  H31  1  0.185800  0.551200  0.800200  1.0  0.1257
  H  H32  1  0.105800  0.728900  0.136300  1.0  0.1364
  H  H33  1  0.936600  0.891000  0.158200  1.0  0.095
  H  H34  1  0.764500  0.935600  0.935500  1.0  0.0969
  H  H35  1  0.930700  0.774200  0.907900  1.0  0.14
  H  H36  1  0.135100  0.661900  0.903900  1.0  0.2881
  C  C37  1  0.677500  0.610800  0.197600  1.0  -0.1263
  C  C38  1  0.588700  0.702800  0.149300  1.0  -0.0114
  C  C39  1  0.577000  0.694100  0.069700  1.0  -0.1246
  C  C40  1  0.654400  0.594400  0.038100  1.0  -0.1216
  C  C41  1  0.745500  0.502700  0.088200  1.0  0.2125
  C  C42  1  0.754800  0.511100  0.166700  1.0  -0.1111
  C  C43  1  0.694700  0.619100  0.283900  1.0  0.6623
  C  C44  1  0.486200  0.792900  0.016600  1.0  0.5899
  C  C45  1  0.859200  0.382900  0.991200  1.0  0.506
  C  C46  1  0.964200  0.268300  0.981100  1.0  -0.0059
  C  C47  1  0.963700  0.230300  0.905400  1.0  -0.1247
  C  C48  1  0.065000  0.133500  0.892600  1.0  0.1607
  C  C49  1  0.166000  0.107400  0.023700  1.0  0.176
  C  C50  1  0.066800  0.204100  0.040700  1.0  -0.1501
  C  C51  1  0.177500  0.889200  0.697600  1.0  -0.1279
  C  C52  1  0.088700  0.797200  0.649300  1.0  -0.0121
  C  C53  1  0.077000  0.805900  0.569700  1.0  -0.1247
  C  C54  1  0.154400  0.905600  0.538100  1.0  -0.1213
  C  C55  1  0.245500  0.997300  0.588200  1.0  0.2128
  C  C56  1  0.254800  0.988900  0.666667  1.0  -0.119
  C  C57  1  0.194700  0.880900  0.783900  1.0  0.6623
  C  C58  1  0.986200  0.707100  0.516600  1.0  0.59
  C  C59  1  0.359200  0.117100  0.491200  1.0  0.5054
  C  C60  1  0.464200  0.231700  0.481100  1.0  -0.0066
  C  C61  1  0.463700  0.269700  0.405400  1.0  -0.1244
  C  C62  1  0.565000  0.366500  0.392600  1.0  0.1606
  C  C63  1  0.666000  0.392600  0.523700  1.0  0.1762
  C  C64  1  0.566800  0.295900  0.540700  1.0  -0.1501
  C  C65  1  0.822500  0.110800  0.302400  1.0  -0.1277
  C  C66  1  0.911300  0.202800  0.350700  1.0  -0.0125
  C  C67  1  0.923000  0.194100  0.430300  1.0  -0.1244
  C  C68  1  0.845600  0.094400  0.461900  1.0  -0.1218
  C  C69  1  0.754500  0.002700  0.411800  1.0  0.2132
  C  C70  1  0.745200  0.011100  0.333333  1.0  -0.1191
  C  C71  1  0.805300  0.119100  0.216100  1.0  0.6622
  C  C72  1  0.013800  0.292900  0.483400  1.0  0.5899
  C  C73  1  0.640800  0.882900  0.508800  1.0  0.506
  C  C74  1  0.535800  0.768300  0.518900  1.0  -0.0058
  C  C75  1  0.536300  0.730300  0.594600  1.0  -0.1275
  C  C76  1  0.435000  0.633500  0.607400  1.0  0.1581
  C  C77  1  0.334000  0.607400  0.476300  1.0  0.177
  C  C78  1  0.433200  0.704100  0.459300  1.0  -0.1528
  C  C79  1  0.322500  0.389200  0.802400  1.0  -0.1262
  C  C80  1  0.411300  0.297200  0.850700  1.0  -0.0117
  C  C81  1  0.423000  0.305900  0.930300  1.0  -0.1247
  C  C82  1  0.345600  0.405600  0.961900  1.0  -0.1223
  C  C83  1  0.254500  0.497300  0.911800  1.0  0.2126
  C  C84  1  0.245200  0.488900  0.833300  1.0  -0.1104
  C  C85  1  0.305300  0.380900  0.716100  1.0  0.6622
  C  C86  1  0.513800  0.207100  0.983400  1.0  0.5901
  C  C87  1  0.140800  0.617100  0.008800  1.0  0.506
  C  C88  1  0.035800  0.731700  0.018900  1.0  -0.0063
  C  C89  1  0.036300  0.769700  0.094600  1.0  -0.1272
  C  C90  1  0.935000  0.866500  0.107400  1.0  0.1576
  C  C91  1  0.834000  0.892600  0.976300  1.0  0.1772
  C  C92  1  0.933200  0.795900  0.959300  1.0  -0.1524
  N  N93  1  0.167100  0.072200  0.951000  1.0  -0.3881
  N  N94  1  0.829200  0.398400  0.062700  1.0  -0.3873
  N  N95  1  0.667100  0.427800  0.451000  1.0  -0.3894
  N  N96  1  0.329200  0.101600  0.562700  1.0  -0.3872
  N  N97  1  0.332900  0.572200  0.549000  1.0  -0.3893
  N  N98  1  0.670800  0.898400  0.437300  1.0  -0.3885
  N  N99  1  0.832900  0.927800  0.049000  1.0  -0.3902
  N  N100  1  0.170800  0.601600  0.937300  1.0  -0.3882
  O  O101  1  0.793120  0.536200  0.323620  1.0  -0.5697
  O  O102  1  0.618900  0.700700  0.312500  1.0  -0.5921
  O  O103  1  0.469680  0.784000  0.944180  1.0  -0.5004
  O  O104  1  0.420920  0.890600  0.041720  1.0  -0.5791
  O  O105  1  0.810350  0.457300  0.937450  1.0  -0.4767
  O  O106  1  0.293120  0.963800  0.823620  1.0  -0.57
  O  O107  1  0.118900  0.799300  0.812500  1.0  -0.5918
  O  O108  1  0.969680  0.716000  0.444180  1.0  -0.5001
  O  O109  1  0.920920  0.609400  0.541720  1.0  -0.5783
  O  O110  1  0.310350  0.042700  0.437450  1.0  -0.4777
  O  O111  1  0.706880  0.036200  0.176380  1.0  -0.5703
  O  O112  1  0.881100  0.200700  0.187500  1.0  -0.5928
  O  O113  1  0.030320  0.284000  0.555820  1.0  -0.5017
  O  O114  1  0.079080  0.390600  0.458280  1.0  -0.5777
  O  O115  1  0.689650  0.957300  0.562550  1.0  -0.4772
  O  O116  1  0.206880  0.463800  0.676380  1.0  -0.5711
  O  O117  1  0.381100  0.299300  0.687500  1.0  -0.5929
  O  O118  1  0.530320  0.216000  0.055820  1.0  -0.502
  O  O119  1  0.579080  0.109400  0.958280  1.0  -0.5778
  O  O120  1  0.189650  0.542700  0.062550  1.0  -0.4765
