# generated using pymatgen
data_Cu3MoH36C15(SN2)3
_symmetry_space_group_name_H-M   'P 1'
_cell_length_a   13.57150000
_cell_length_b   13.57150000
_cell_length_c   8.71250000
_cell_angle_alpha   90.00000000
_cell_angle_beta   90.00000000
_cell_angle_gamma   120.00000000
_symmetry_Int_Tables_number   1
_chemical_formula_structural   Cu3MoH36C15(SN2)3
_chemical_formula_sum   'Cu6 Mo2 H72 C30 S6 N12'
_cell_volume   1389.72581496
_cell_formula_units_Z   2
loop_
 _symmetry_equiv_pos_site_id
 _symmetry_equiv_pos_as_xyz
  1  'x, y, z'
loop_
 _atom_site_type_symbol
 _atom_site_label
 _atom_site_symmetry_multiplicity
 _atom_site_fract_x
 _atom_site_fract_y
 _atom_site_fract_z
 _atom_site_occupancy
 _atom_site_charge
  Cu  Cu1  1  0.561300  0.438710  0.478140  1.0  0.3642
  Cu  Cu2  1  0.561300  0.122590  0.478140  1.0  0.3657
  Cu  Cu3  1  0.877410  0.438710  0.478140  1.0  0.366
  Cu  Cu4  1  0.438700  0.561300  0.978140  1.0  0.3661
  Cu  Cu5  1  0.438700  0.877410  0.978140  1.0  0.3656
  Cu  Cu6  1  0.122590  0.561300  0.978140  1.0  0.3639
  Mo  Mo7  1  0.666667  0.333333  0.343800  1.0  0.3452
  Mo  Mo8  1  0.333333  0.666667  0.843800  1.0  0.3452
  H  H9  1  0.134000  0.383900  0.632600  1.0  0.0844
  H  H10  1  0.313000  0.508900  0.421100  1.0  0.0855
  H  H11  1  0.191600  0.210700  0.416000  1.0  0.0914
  H  H12  1  0.242700  0.292000  0.271900  1.0  0.0896
  H  H13  1  0.309400  0.325800  0.429900  1.0  0.0999
  H  H14  1  0.249900  0.383900  0.632600  1.0  0.0852
  H  H15  1  0.195900  0.508900  0.421100  1.0  0.0845
  H  H16  1  0.019100  0.210700  0.416000  1.0  0.0922
  H  H17  1  0.049300  0.292000  0.271900  1.0  0.0893
  H  H18  1  0.016400  0.325800  0.429900  1.0  0.0937
  H  H19  1  0.133150  0.266300  0.627300  1.0  0.0766
  H  H20  1  0.238650  0.477300  0.270200  1.0  0.0959
  H  H21  1  0.616100  0.750100  0.632600  1.0  0.0891
  H  H22  1  0.491100  0.804100  0.421100  1.0  0.0839
  H  H23  1  0.789300  0.980900  0.416000  1.0  0.0943
  H  H24  1  0.708000  0.950700  0.271900  1.0  0.0896
  H  H25  1  0.674200  0.983600  0.429900  1.0  0.095
  H  H26  1  0.616100  0.866000  0.632600  1.0  0.0827
  H  H27  1  0.491100  0.687000  0.421100  1.0  0.0849
  H  H28  1  0.789300  0.808400  0.416000  1.0  0.093
  H  H29  1  0.708000  0.757300  0.271900  1.0  0.0887
  H  H30  1  0.674200  0.690600  0.429900  1.0  0.1
  H  H31  1  0.733700  0.866850  0.627300  1.0  0.0731
  H  H32  1  0.522700  0.761350  0.270200  1.0  0.0965
  H  H33  1  0.249900  0.866000  0.632600  1.0  0.0844
  H  H34  1  0.195900  0.687000  0.421100  1.0  0.0867
  H  H35  1  0.019100  0.808400  0.416000  1.0  0.0902
  H  H36  1  0.049300  0.757300  0.271900  1.0  0.0893
  H  H37  1  0.016400  0.690600  0.429900  1.0  0.0981
  H  H38  1  0.134000  0.750100  0.632600  1.0  0.0893
  H  H39  1  0.313000  0.804100  0.421100  1.0  0.088
  H  H40  1  0.191600  0.980900  0.416000  1.0  0.0905
  H  H41  1  0.242700  0.950700  0.271900  1.0  0.0891
  H  H42  1  0.309400  0.983600  0.429900  1.0  0.0966
  H  H43  1  0.133150  0.866850  0.627300  1.0  0.0726
  H  H44  1  0.238650  0.761350  0.270200  1.0  0.0973
  H  H45  1  0.866000  0.616100  0.132600  1.0  0.0859
  H  H46  1  0.687000  0.491100  0.921100  1.0  0.0849
  H  H47  1  0.808400  0.789300  0.916000  1.0  0.0894
  H  H48  1  0.757300  0.708000  0.771900  1.0  0.0895
  H  H49  1  0.690600  0.674200  0.929900  1.0  0.0934
  H  H50  1  0.750100  0.616100  0.132600  1.0  0.085
  H  H51  1  0.804100  0.491100  0.921100  1.0  0.0858
  H  H52  1  0.980900  0.789300  0.916000  1.0  0.0895
  H  H53  1  0.950700  0.708000  0.771900  1.0  0.0895
  H  H54  1  0.983600  0.674200  0.929900  1.0  0.0995
  H  H55  1  0.866850  0.733700  0.127300  1.0  0.0732
  H  H56  1  0.761350  0.522700  0.770200  1.0  0.096
  H  H57  1  0.383900  0.249900  0.132600  1.0  0.0883
  H  H58  1  0.508900  0.195900  0.921100  1.0  0.0879
  H  H59  1  0.210700  0.019100  0.916000  1.0  0.0912
  H  H60  1  0.292000  0.049300  0.771900  1.0  0.0895
  H  H61  1  0.325800  0.016400  0.929900  1.0  0.0971
  H  H62  1  0.383900  0.134000  0.132600  1.0  0.0847
  H  H63  1  0.508900  0.313000  0.921100  1.0  0.0863
  H  H64  1  0.210700  0.191600  0.916000  1.0  0.091
  H  H65  1  0.292000  0.242700  0.771900  1.0  0.0891
  H  H66  1  0.325800  0.309400  0.929900  1.0  0.0982
  H  H67  1  0.266300  0.133150  0.127300  1.0  0.0729
  H  H68  1  0.477300  0.238650  0.770200  1.0  0.0965
  H  H69  1  0.750100  0.134000  0.132600  1.0  0.0831
  H  H70  1  0.804100  0.313000  0.921100  1.0  0.0861
  H  H71  1  0.980900  0.191600  0.916000  1.0  0.0934
  H  H72  1  0.950700  0.242700  0.771900  1.0  0.0885
  H  H73  1  0.983600  0.309400  0.929900  1.0  0.0968
  H  H74  1  0.866000  0.249900  0.132600  1.0  0.0881
  H  H75  1  0.687000  0.195900  0.921100  1.0  0.0836
  H  H76  1  0.808400  0.019100  0.916000  1.0  0.0944
  H  H77  1  0.757300  0.049300  0.771900  1.0  0.09
  H  H78  1  0.690600  0.016400  0.929900  1.0  0.0955
  H  H79  1  0.866850  0.133150  0.127300  1.0  0.073
  H  H80  1  0.761350  0.238650  0.770200  1.0  0.096
  C  C81  1  0.486000  0.514000  0.159800  1.0  0.0886
  C  C82  1  0.486000  0.972000  0.159800  1.0  0.0888
  C  C83  1  0.028000  0.514000  0.159800  1.0  0.0878
  C  C84  1  0.514000  0.486000  0.659800  1.0  0.0881
  C  C85  1  0.514000  0.028000  0.659800  1.0  0.0892
  C  C86  1  0.972000  0.486000  0.659800  1.0  0.0888
  C  C87  1  0.234700  0.289400  0.383000  1.0  -0.2397
  C  C88  1  0.054700  0.289400  0.383000  1.0  -0.2402
  C  C89  1  0.172500  0.345000  0.593700  1.0  -0.2217
  C  C90  1  0.236000  0.472000  0.381300  1.0  -0.23
  C  C91  1  0.710600  0.945300  0.383000  1.0  -0.2356
  C  C92  1  0.710600  0.765300  0.383000  1.0  -0.239
  C  C93  1  0.655000  0.827500  0.593700  1.0  -0.2217
  C  C94  1  0.528000  0.764000  0.381300  1.0  -0.2328
  C  C95  1  0.054700  0.765300  0.383000  1.0  -0.24
  C  C96  1  0.234700  0.945300  0.383000  1.0  -0.2362
  C  C97  1  0.172500  0.827500  0.593700  1.0  -0.2216
  C  C98  1  0.236000  0.764000  0.381300  1.0  -0.2315
  C  C99  1  0.765300  0.710600  0.883000  1.0  -0.2402
  C  C100  1  0.945300  0.710600  0.883000  1.0  -0.2395
  C  C101  1  0.827500  0.655000  0.093700  1.0  -0.2216
  C  C102  1  0.764000  0.528000  0.881300  1.0  -0.2288
  C  C103  1  0.289400  0.054700  0.883000  1.0  -0.2357
  C  C104  1  0.289400  0.234700  0.883000  1.0  -0.2396
  C  C105  1  0.345000  0.172500  0.093700  1.0  -0.2217
  C  C106  1  0.472000  0.236000  0.881300  1.0  -0.2307
  C  C107  1  0.945300  0.234700  0.883000  1.0  -0.2391
  C  C108  1  0.765300  0.054700  0.883000  1.0  -0.2352
  C  C109  1  0.827500  0.172500  0.093700  1.0  -0.2217
  C  C110  1  0.764000  0.236000  0.881300  1.0  -0.2316
  S  S111  1  0.756280  0.512560  0.436820  1.0  -0.2586
  S  S112  1  0.487440  0.243720  0.436820  1.0  -0.2611
  S  S113  1  0.756280  0.243720  0.436820  1.0  -0.2609
  S  S114  1  0.243720  0.487440  0.936820  1.0  -0.2591
  S  S115  1  0.512560  0.756280  0.936820  1.0  -0.2604
  S  S116  1  0.243720  0.756280  0.936820  1.0  -0.2607
  N  N117  1  0.512400  0.487600  0.271400  1.0  -0.4747
  N  N118  1  0.512400  0.024800  0.271400  1.0  -0.4756
  N  N119  1  0.975200  0.487600  0.271400  1.0  -0.4735
  N  N120  1  0.487600  0.512400  0.771400  1.0  -0.4743
  N  N121  1  0.487600  0.975200  0.771400  1.0  -0.4735
  N  N122  1  0.024800  0.512400  0.771400  1.0  -0.4754
  N  N123  1  0.174550  0.349100  0.428200  1.0  0.0255
  N  N124  1  0.650900  0.825450  0.428200  1.0  0.0254
  N  N125  1  0.174550  0.825450  0.428200  1.0  0.0275
  N  N126  1  0.825450  0.650900  0.928200  1.0  0.0255
  N  N127  1  0.349100  0.174550  0.928200  1.0  0.0272
  N  N128  1  0.825450  0.174550  0.928200  1.0  0.0251
