# generated using pymatgen
data_CuH8C14N2O5
_symmetry_space_group_name_H-M   'P 1'
_cell_length_a   8.42830000
_cell_length_b   10.25530000
_cell_length_c   17.71200000
_cell_angle_alpha   90.00000000
_cell_angle_beta   103.03600000
_cell_angle_gamma   90.00000000
_symmetry_Int_Tables_number   1
_chemical_formula_structural   CuH8C14N2O5
_chemical_formula_sum   'Cu4 H32 C56 N8 O20'
_cell_volume   1491.47783228
_cell_formula_units_Z   4
loop_
 _symmetry_equiv_pos_site_id
 _symmetry_equiv_pos_as_xyz
  1  'x, y, z'
loop_
 _atom_site_type_symbol
 _atom_site_label
 _atom_site_symmetry_multiplicity
 _atom_site_fract_x
 _atom_site_fract_y
 _atom_site_fract_z
 _atom_site_occupancy
 _atom_site_charge
  Cu  Cu1  1  0.326050  0.442240  0.932080  1.0  0.8598
  Cu  Cu2  1  0.826050  0.057760  0.432080  1.0  0.8598
  Cu  Cu3  1  0.173950  0.942240  0.567920  1.0  0.8596
  Cu  Cu4  1  0.673950  0.557760  0.067920  1.0  0.8596
  H  H5  1  0.363000  0.661700  0.595600  1.0  0.2912
  H  H6  1  0.033400  0.230900  0.669200  1.0  0.1147
  H  H7  1  0.314900  0.550200  0.699800  1.0  0.1233
  H  H8  1  0.141900  0.412300  0.485200  1.0  0.1241
  H  H9  1  0.394400  0.727600  0.363500  1.0  0.138
  H  H10  1  0.564600  0.892100  0.342000  1.0  0.0921
  H  H11  1  0.568700  0.773400  0.591500  1.0  0.1352
  H  H12  1  0.733900  0.935900  0.565100  1.0  0.1017
  H  H13  1  0.863000  0.838300  0.095600  1.0  0.2917
  H  H14  1  0.533400  0.269100  0.169200  1.0  0.1147
  H  H15  1  0.814900  0.949800  0.199800  1.0  0.1237
  H  H16  1  0.641900  0.087700  0.985200  1.0  0.124
  H  H17  1  0.894400  0.772400  0.863500  1.0  0.138
  H  H18  1  0.064600  0.607900  0.842000  1.0  0.0923
  H  H19  1  0.068700  0.726600  0.091500  1.0  0.1351
  H  H20  1  0.233900  0.564100  0.065100  1.0  0.1017
  H  H21  1  0.137000  0.161700  0.904400  1.0  0.2912
  H  H22  1  0.466600  0.730900  0.830800  1.0  0.1145
  H  H23  1  0.185100  0.050200  0.800200  1.0  0.1231
  H  H24  1  0.358100  0.912300  0.014800  1.0  0.1235
  H  H25  1  0.105600  0.227600  0.136500  1.0  0.1386
  H  H26  1  0.935400  0.392100  0.158000  1.0  0.0912
  H  H27  1  0.931300  0.273400  0.908500  1.0  0.1373
  H  H28  1  0.766100  0.435900  0.934900  1.0  0.1013
  H  H29  1  0.637000  0.338300  0.404400  1.0  0.2913
  H  H30  1  0.966600  0.769100  0.330800  1.0  0.1147
  H  H31  1  0.685100  0.449800  0.300200  1.0  0.1231
  H  H32  1  0.858100  0.587700  0.514800  1.0  0.1235
  H  H33  1  0.605600  0.272400  0.636500  1.0  0.1384
  H  H34  1  0.435400  0.107900  0.658000  1.0  0.0914
  H  H35  1  0.431300  0.226600  0.408500  1.0  0.1372
  H  H36  1  0.266100  0.064100  0.434900  1.0  0.1011
  C  C37  1  0.985300  0.206300  0.516400  1.0  0.5821
  C  C38  1  0.078000  0.305900  0.569700  1.0  -0.123
  C  C39  1  0.087200  0.297100  0.649200  1.0  -0.0147
  C  C40  1  0.178300  0.389300  0.697600  1.0  -0.119
  C  C41  1  0.255100  0.488200  0.666900  1.0  -0.1063
  C  C42  1  0.244800  0.496700  0.587800  1.0  0.2155
  C  C43  1  0.153000  0.406000  0.538500  1.0  -0.1173
  C  C44  1  0.193700  0.380600  0.783400  1.0  0.6585
  C  C45  1  0.359000  0.616600  0.491400  1.0  0.4958
  C  C46  1  0.463100  0.732100  0.480900  1.0  -0.0095
  C  C47  1  0.463000  0.768700  0.405100  1.0  -0.1195
  C  C48  1  0.566200  0.866800  0.392600  1.0  0.1615
  C  C49  1  0.566200  0.795700  0.540300  1.0  -0.1392
  C  C50  1  0.665900  0.892500  0.524200  1.0  0.1635
  C  C51  1  0.485300  0.293700  0.016400  1.0  0.5821
  C  C52  1  0.578000  0.194100  0.069700  1.0  -0.1227
  C  C53  1  0.587200  0.202900  0.149200  1.0  -0.0147
  C  C54  1  0.678300  0.110700  0.197600  1.0  -0.1189
  C  C55  1  0.755100  0.011800  0.166900  1.0  -0.1059
  C  C56  1  0.744800  0.003300  0.087800  1.0  0.2152
  C  C57  1  0.653000  0.094000  0.038500  1.0  -0.1173
  C  C58  1  0.693700  0.119400  0.283400  1.0  0.6584
  C  C59  1  0.859000  0.883400  0.991400  1.0  0.4962
  C  C60  1  0.963100  0.767900  0.980900  1.0  -0.0091
  C  C61  1  0.963000  0.731300  0.905100  1.0  -0.1193
  C  C62  1  0.066200  0.633200  0.892600  1.0  0.1618
  C  C63  1  0.066200  0.704300  0.040300  1.0  -0.1393
  C  C64  1  0.165900  0.607500  0.024200  1.0  0.1629
  C  C65  1  0.514700  0.706300  0.983600  1.0  0.583
  C  C66  1  0.422000  0.805900  0.930300  1.0  -0.1238
  C  C67  1  0.412800  0.797100  0.850800  1.0  -0.0146
  C  C68  1  0.321700  0.889300  0.802400  1.0  -0.1182
  C  C69  1  0.244900  0.988200  0.833100  1.0  -0.106
  C  C70  1  0.255200  0.996700  0.912200  1.0  0.2152
  C  C71  1  0.347000  0.906000  0.961500  1.0  -0.1185
  C  C72  1  0.306300  0.880600  0.716600  1.0  0.6587
  C  C73  1  0.141000  0.116600  0.008600  1.0  0.4962
  C  C74  1  0.036900  0.232100  0.019100  1.0  -0.0101
  C  C75  1  0.037000  0.268700  0.094900  1.0  -0.1209
  C  C76  1  0.933800  0.366800  0.107400  1.0  0.1606
  C  C77  1  0.933800  0.295700  0.959700  1.0  -0.1402
  C  C78  1  0.834100  0.392500  0.975800  1.0  0.1644
  C  C79  1  0.014700  0.793700  0.483600  1.0  0.5828
  C  C80  1  0.922000  0.694100  0.430300  1.0  -0.1233
  C  C81  1  0.912800  0.702900  0.350800  1.0  -0.0149
  C  C82  1  0.821700  0.610700  0.302400  1.0  -0.1181
  C  C83  1  0.744900  0.511800  0.333100  1.0  -0.1055
  C  C84  1  0.755200  0.503300  0.412200  1.0  0.2149
  C  C85  1  0.847000  0.594000  0.461500  1.0  -0.1188
  C  C86  1  0.806300  0.619400  0.216600  1.0  0.6587
  C  C87  1  0.641000  0.383400  0.508600  1.0  0.4963
  C  C88  1  0.536900  0.267900  0.519100  1.0  -0.0098
  C  C89  1  0.537000  0.231300  0.594900  1.0  -0.1206
  C  C90  1  0.433800  0.133200  0.607400  1.0  0.1609
  C  C91  1  0.433800  0.204300  0.459700  1.0  -0.1402
  C  C92  1  0.334100  0.107500  0.475800  1.0  0.1642
  N  N93  1  0.328200  0.601300  0.562400  1.0  -0.3847
  N  N94  1  0.668700  0.926800  0.451100  1.0  -0.3902
  N  N95  1  0.828200  0.898700  0.062400  1.0  -0.3848
  N  N96  1  0.168700  0.573200  0.951100  1.0  -0.3879
  N  N97  1  0.171800  0.101300  0.937600  1.0  -0.3854
  N  N98  1  0.831300  0.426800  0.048900  1.0  -0.3903
  N  N99  1  0.671800  0.398700  0.437600  1.0  -0.3853
  N  N100  1  0.331300  0.073200  0.548900  1.0  -0.3889
  O  O101  1  0.969600  0.215000  0.444300  1.0  -0.5008
  O  O102  1  0.920600  0.108700  0.541500  1.0  -0.5757
  O  O103  1  0.119000  0.299400  0.812600  1.0  -0.5954
  O  O104  1  0.292900  0.463700  0.823600  1.0  -0.5765
  O  O105  1  0.310600  0.541500  0.437900  1.0  -0.485
  O  O106  1  0.469600  0.285000  0.944300  1.0  -0.5012
  O  O107  1  0.420600  0.391300  0.041500  1.0  -0.5757
  O  O108  1  0.619000  0.200600  0.312600  1.0  -0.5956
  O  O109  1  0.792900  0.036300  0.323600  1.0  -0.5768
  O  O110  1  0.810600  0.958500  0.937900  1.0  -0.4847
  O  O111  1  0.530400  0.715000  0.055700  1.0  -0.5014
  O  O112  1  0.579400  0.608700  0.958500  1.0  -0.5752
  O  O113  1  0.381000  0.799400  0.687400  1.0  -0.5955
  O  O114  1  0.207100  0.963700  0.676400  1.0  -0.5766
  O  O115  1  0.189400  0.041500  0.062100  1.0  -0.4844
  O  O116  1  0.030400  0.785000  0.555700  1.0  -0.5015
  O  O117  1  0.079400  0.891300  0.458500  1.0  -0.5752
  O  O118  1  0.881000  0.700600  0.187400  1.0  -0.5954
  O  O119  1  0.707100  0.536300  0.176400  1.0  -0.5767
  O  O120  1  0.689400  0.458500  0.562100  1.0  -0.4853
