# generated using pymatgen
data_Zn3H4(C5O4)4
_symmetry_space_group_name_H-M   'P 1'
_cell_length_a   25.80700000
_cell_length_b   29.40500000
_cell_length_c   19.63700000
_cell_angle_alpha   90.00000000
_cell_angle_beta   90.00000000
_cell_angle_gamma   90.00000000
_symmetry_Int_Tables_number   1
_chemical_formula_structural   Zn3H4(C5O4)4
_chemical_formula_sum   'Zn48 H64 C320 O256'
_cell_volume   14901.63239489
_cell_formula_units_Z   16
loop_
 _symmetry_equiv_pos_site_id
 _symmetry_equiv_pos_as_xyz
  1  'x, y, z'
loop_
 _atom_site_type_symbol
 _atom_site_label
 _atom_site_symmetry_multiplicity
 _atom_site_fract_x
 _atom_site_fract_y
 _atom_site_fract_z
 _atom_site_occupancy
 _atom_site_charge
  Zn  Zn1  1  0.828210  0.451230  0.335730  1.0  1.0911
  Zn  Zn2  1  0.685660  0.435370  0.086140  1.0  1.0945
  Zn  Zn3  1  0.745420  0.503380  0.967050  1.0  1.072
  Zn  Zn4  1  0.828210  0.951230  0.835730  1.0  1.0911
  Zn  Zn5  1  0.685660  0.935370  0.586140  1.0  1.0945
  Zn  Zn6  1  0.745420  0.003380  0.467050  1.0  1.072
  Zn  Zn7  1  0.328210  0.451230  0.835730  1.0  1.0911
  Zn  Zn8  1  0.185660  0.435370  0.586140  1.0  1.0945
  Zn  Zn9  1  0.245420  0.503380  0.467050  1.0  1.072
  Zn  Zn10  1  0.328210  0.951230  0.335730  1.0  1.0911
  Zn  Zn11  1  0.185660  0.935370  0.086140  1.0  1.0945
  Zn  Zn12  1  0.245420  0.003380  0.967050  1.0  1.072
  Zn  Zn13  1  0.171790  0.548770  0.335730  1.0  1.0911
  Zn  Zn14  1  0.314340  0.564630  0.086140  1.0  1.0943
  Zn  Zn15  1  0.254580  0.496620  0.967050  1.0  1.0736
  Zn  Zn16  1  0.171790  0.048770  0.835730  1.0  1.0911
  Zn  Zn17  1  0.314340  0.064630  0.586140  1.0  1.0943
  Zn  Zn18  1  0.254580  0.996620  0.467050  1.0  1.0736
  Zn  Zn19  1  0.671790  0.548770  0.835730  1.0  1.0911
  Zn  Zn20  1  0.814340  0.564630  0.586140  1.0  1.0943
  Zn  Zn21  1  0.754580  0.496620  0.467050  1.0  1.0736
  Zn  Zn22  1  0.671790  0.048770  0.335730  1.0  1.0911
  Zn  Zn23  1  0.814340  0.064630  0.086140  1.0  1.0943
  Zn  Zn24  1  0.754580  0.996620  0.967050  1.0  1.0736
  Zn  Zn25  1  0.078210  0.798770  0.585730  1.0  1.0907
  Zn  Zn26  1  0.935660  0.814630  0.336140  1.0  1.0944
  Zn  Zn27  1  0.995420  0.746620  0.217050  1.0  1.072
  Zn  Zn28  1  0.078210  0.298770  0.085730  1.0  1.0907
  Zn  Zn29  1  0.935660  0.314630  0.836140  1.0  1.0944
  Zn  Zn30  1  0.995420  0.246620  0.717050  1.0  1.072
  Zn  Zn31  1  0.578210  0.798770  0.085730  1.0  1.0907
  Zn  Zn32  1  0.435660  0.814630  0.836140  1.0  1.0944
  Zn  Zn33  1  0.495420  0.746620  0.717050  1.0  1.072
  Zn  Zn34  1  0.578210  0.298770  0.585730  1.0  1.0907
  Zn  Zn35  1  0.435660  0.314630  0.336140  1.0  1.0944
  Zn  Zn36  1  0.495420  0.246620  0.217050  1.0  1.072
  Zn  Zn37  1  0.421790  0.701230  0.585730  1.0  1.0914
  Zn  Zn38  1  0.564340  0.685370  0.336140  1.0  1.0943
  Zn  Zn39  1  0.504580  0.753380  0.217050  1.0  1.0735
  Zn  Zn40  1  0.421790  0.201230  0.085730  1.0  1.0914
  Zn  Zn41  1  0.564340  0.185370  0.836140  1.0  1.0943
  Zn  Zn42  1  0.504580  0.253380  0.717050  1.0  1.0735
  Zn  Zn43  1  0.921790  0.701230  0.085730  1.0  1.0914
  Zn  Zn44  1  0.064340  0.685370  0.836140  1.0  1.0943
  Zn  Zn45  1  0.004580  0.753380  0.717050  1.0  1.0735
  Zn  Zn46  1  0.921790  0.201230  0.585730  1.0  1.0914
  Zn  Zn47  1  0.064340  0.185370  0.336140  1.0  1.0943
  Zn  Zn48  1  0.004580  0.253380  0.217050  1.0  1.0735
  H  H49  1  0.855200  0.579500  0.257200  1.0  0.1163
  H  H50  1  0.923300  0.375900  0.192400  1.0  0.1243
  H  H51  1  0.851200  0.392500  0.979000  1.0  0.1223
  H  H52  1  0.858100  0.696200  0.414500  1.0  0.1318
  H  H53  1  0.855200  0.079500  0.757200  1.0  0.1163
  H  H54  1  0.923300  0.875900  0.692400  1.0  0.1243
  H  H55  1  0.851200  0.892500  0.479000  1.0  0.1223
  H  H56  1  0.858100  0.196200  0.914500  1.0  0.1318
  H  H57  1  0.355200  0.579500  0.757200  1.0  0.1163
  H  H58  1  0.423300  0.375900  0.692400  1.0  0.1243
  H  H59  1  0.351200  0.392500  0.479000  1.0  0.1223
  H  H60  1  0.358100  0.696200  0.914500  1.0  0.1318
  H  H61  1  0.355200  0.079500  0.257200  1.0  0.1163
  H  H62  1  0.423300  0.875900  0.192400  1.0  0.1243
  H  H63  1  0.351200  0.892500  0.979000  1.0  0.1223
  H  H64  1  0.358100  0.196200  0.414500  1.0  0.1318
  H  H65  1  0.144800  0.420500  0.257200  1.0  0.1163
  H  H66  1  0.076700  0.624100  0.192400  1.0  0.1243
  H  H67  1  0.148800  0.607500  0.979000  1.0  0.1225
  H  H68  1  0.141900  0.303800  0.414500  1.0  0.132
  H  H69  1  0.144800  0.920500  0.757200  1.0  0.1163
  H  H70  1  0.076700  0.124100  0.692400  1.0  0.1243
  H  H71  1  0.148800  0.107500  0.479000  1.0  0.1225
  H  H72  1  0.141900  0.803800  0.914500  1.0  0.132
  H  H73  1  0.644800  0.420500  0.757200  1.0  0.1163
  H  H74  1  0.576700  0.624100  0.692400  1.0  0.1243
  H  H75  1  0.648800  0.607500  0.479000  1.0  0.1225
  H  H76  1  0.641900  0.303800  0.914500  1.0  0.132
  H  H77  1  0.644800  0.920500  0.257200  1.0  0.1163
  H  H78  1  0.576700  0.124100  0.192400  1.0  0.1243
  H  H79  1  0.648800  0.107500  0.979000  1.0  0.1225
  H  H80  1  0.641900  0.803800  0.414500  1.0  0.132
  H  H81  1  0.105200  0.670500  0.507200  1.0  0.1164
  H  H82  1  0.173300  0.874100  0.442400  1.0  0.1242
  H  H83  1  0.101200  0.857500  0.229000  1.0  0.1223
  H  H84  1  0.108100  0.553800  0.664500  1.0  0.132
  H  H85  1  0.105200  0.170500  0.007200  1.0  0.1164
  H  H86  1  0.173300  0.374100  0.942400  1.0  0.1242
  H  H87  1  0.101200  0.357500  0.729000  1.0  0.1223
  H  H88  1  0.108100  0.053800  0.164500  1.0  0.132
  H  H89  1  0.605200  0.670500  0.007200  1.0  0.1164
  H  H90  1  0.673300  0.874100  0.942400  1.0  0.1242
  H  H91  1  0.601200  0.857500  0.729000  1.0  0.1223
  H  H92  1  0.608100  0.553800  0.164500  1.0  0.132
  H  H93  1  0.605200  0.170500  0.507200  1.0  0.1164
  H  H94  1  0.673300  0.374100  0.442400  1.0  0.1242
  H  H95  1  0.601200  0.357500  0.229000  1.0  0.1223
  H  H96  1  0.608100  0.053800  0.664500  1.0  0.132
  H  H97  1  0.394800  0.829500  0.507200  1.0  0.1163
  H  H98  1  0.326700  0.625900  0.442400  1.0  0.1245
  H  H99  1  0.398800  0.642500  0.229000  1.0  0.1224
  H  H100  1  0.391900  0.946200  0.664500  1.0  0.132
  H  H101  1  0.394800  0.329500  0.007200  1.0  0.1163
  H  H102  1  0.326700  0.125900  0.942400  1.0  0.1245
  H  H103  1  0.398800  0.142500  0.729000  1.0  0.1224
  H  H104  1  0.391900  0.446200  0.164500  1.0  0.132
  H  H105  1  0.894800  0.829500  0.007200  1.0  0.1163
  H  H106  1  0.826700  0.625900  0.942400  1.0  0.1245
  H  H107  1  0.898800  0.642500  0.729000  1.0  0.1224
  H  H108  1  0.891900  0.946200  0.164500  1.0  0.132
  H  H109  1  0.894800  0.329500  0.507200  1.0  0.1163
  H  H110  1  0.826700  0.125900  0.442400  1.0  0.1245
  H  H111  1  0.898800  0.142500  0.229000  1.0  0.1224
  H  H112  1  0.891900  0.446200  0.664500  1.0  0.132
  C  C113  1  0.896700  0.651800  0.197700  1.0  0.7046
  C  C114  1  0.817800  0.549000  0.369500  1.0  0.7136
  C  C115  1  0.856700  0.602900  0.289100  1.0  -0.0176
  C  C116  1  0.838400  0.595800  0.353900  1.0  -0.0893
  C  C117  1  0.837800  0.630600  0.401500  1.0  -0.0584
  C  C118  1  0.819300  0.624200  0.473900  1.0  0.7116
  C  C119  1  0.869100  0.412000  0.138800  1.0  -0.0862
  C  C120  1  0.854200  0.441900  0.198900  1.0  0.7432
  C  C121  1  0.902800  0.355900  0.032200  1.0  -0.0853
  C  C122  1  0.908500  0.379000  0.149400  1.0  -0.0172
  C  C123  1  0.864900  0.388600  0.022400  1.0  -0.0206
  C  C124  1  0.846600  0.415800  0.075400  1.0  -0.0527
  C  C125  1  0.916600  0.326600  0.972500  1.0  0.7396
  C  C126  1  0.858500  0.672300  0.383600  1.0  -0.0015
  C  C127  1  0.877700  0.645600  0.270900  1.0  0.0172
  C  C128  1  0.879800  0.678400  0.319500  1.0  0.116
  C  C129  1  0.798700  0.443900  0.060200  1.0  0.657
  C  C130  1  0.925000  0.351400  0.096500  1.0  -0.0826
  C  C131  1  0.968000  0.319100  0.113100  1.0  0.6858
  C  C132  1  0.913500  0.719300  0.304600  1.0  0.5188
  C  C133  1  0.896700  0.151800  0.697700  1.0  0.7046
  C  C134  1  0.817800  0.049000  0.869500  1.0  0.7136
  C  C135  1  0.856700  0.102900  0.789100  1.0  -0.0176
  C  C136  1  0.838400  0.095800  0.853900  1.0  -0.0893
  C  C137  1  0.837800  0.130600  0.901500  1.0  -0.0584
  C  C138  1  0.819300  0.124200  0.973900  1.0  0.7116
  C  C139  1  0.869100  0.912000  0.638800  1.0  -0.0862
  C  C140  1  0.854200  0.941900  0.698900  1.0  0.7432
  C  C141  1  0.902800  0.855900  0.532200  1.0  -0.0853
  C  C142  1  0.908500  0.879000  0.649400  1.0  -0.0172
  C  C143  1  0.864900  0.888600  0.522400  1.0  -0.0206
  C  C144  1  0.846600  0.915800  0.575400  1.0  -0.0527
  C  C145  1  0.916600  0.826600  0.472500  1.0  0.7396
  C  C146  1  0.858500  0.172300  0.883600  1.0  -0.0015
  C  C147  1  0.877700  0.145600  0.770900  1.0  0.0172
  C  C148  1  0.879800  0.178400  0.819500  1.0  0.116
  C  C149  1  0.798700  0.943900  0.560200  1.0  0.657
  C  C150  1  0.925000  0.851400  0.596500  1.0  -0.0826
  C  C151  1  0.968000  0.819100  0.613100  1.0  0.6858
  C  C152  1  0.913500  0.219300  0.804600  1.0  0.5188
  C  C153  1  0.396700  0.651800  0.697700  1.0  0.7046
  C  C154  1  0.317800  0.549000  0.869500  1.0  0.7136
  C  C155  1  0.356700  0.602900  0.789100  1.0  -0.0176
  C  C156  1  0.338400  0.595800  0.853900  1.0  -0.0893
  C  C157  1  0.337800  0.630600  0.901500  1.0  -0.0584
  C  C158  1  0.319300  0.624200  0.973900  1.0  0.7116
  C  C159  1  0.369100  0.412000  0.638800  1.0  -0.0862
  C  C160  1  0.354200  0.441900  0.698900  1.0  0.7432
  C  C161  1  0.402800  0.355900  0.532200  1.0  -0.0853
  C  C162  1  0.408500  0.379000  0.649400  1.0  -0.0172
  C  C163  1  0.364900  0.388600  0.522400  1.0  -0.0206
  C  C164  1  0.346600  0.415800  0.575400  1.0  -0.0527
  C  C165  1  0.416600  0.326600  0.472500  1.0  0.7396
  C  C166  1  0.358500  0.672300  0.883600  1.0  -0.0015
  C  C167  1  0.377700  0.645600  0.770900  1.0  0.0172
  C  C168  1  0.379800  0.678400  0.819500  1.0  0.116
  C  C169  1  0.298700  0.443900  0.560200  1.0  0.657
  C  C170  1  0.425000  0.351400  0.596500  1.0  -0.0826
  C  C171  1  0.468000  0.319100  0.613100  1.0  0.6858
  C  C172  1  0.413500  0.719300  0.804600  1.0  0.5188
  C  C173  1  0.396700  0.151800  0.197700  1.0  0.7046
  C  C174  1  0.317800  0.049000  0.369500  1.0  0.7136
  C  C175  1  0.356700  0.102900  0.289100  1.0  -0.0176
  C  C176  1  0.338400  0.095800  0.353900  1.0  -0.0893
  C  C177  1  0.337800  0.130600  0.401500  1.0  -0.0584
  C  C178  1  0.319300  0.124200  0.473900  1.0  0.7116
  C  C179  1  0.369100  0.912000  0.138800  1.0  -0.0862
  C  C180  1  0.354200  0.941900  0.198900  1.0  0.7432
  C  C181  1  0.402800  0.855900  0.032200  1.0  -0.0853
  C  C182  1  0.408500  0.879000  0.149400  1.0  -0.0172
  C  C183  1  0.364900  0.888600  0.022400  1.0  -0.0206
  C  C184  1  0.346600  0.915800  0.075400  1.0  -0.0527
  C  C185  1  0.416600  0.826600  0.972500  1.0  0.7396
  C  C186  1  0.358500  0.172300  0.383600  1.0  -0.0015
  C  C187  1  0.377700  0.145600  0.270900  1.0  0.0172
  C  C188  1  0.379800  0.178400  0.319500  1.0  0.116
  C  C189  1  0.298700  0.943900  0.060200  1.0  0.657
  C  C190  1  0.425000  0.851400  0.096500  1.0  -0.0826
  C  C191  1  0.468000  0.819100  0.113100  1.0  0.6858
  C  C192  1  0.413500  0.219300  0.304600  1.0  0.5188
  C  C193  1  0.103300  0.348200  0.197700  1.0  0.7062
  C  C194  1  0.182200  0.451000  0.369500  1.0  0.7122
  C  C195  1  0.143300  0.397100  0.289100  1.0  -0.0186
  C  C196  1  0.161600  0.404200  0.353900  1.0  -0.0894
  C  C197  1  0.162200  0.369400  0.401500  1.0  -0.0584
  C  C198  1  0.180700  0.375800  0.473900  1.0  0.7129
  C  C199  1  0.130900  0.588000  0.138800  1.0  -0.0852
  C  C200  1  0.145800  0.558100  0.198900  1.0  0.7453
  C  C201  1  0.097200  0.644100  0.032200  1.0  -0.0852
  C  C202  1  0.091500  0.621000  0.149400  1.0  -0.0185
  C  C203  1  0.135100  0.611400  0.022400  1.0  -0.02
  C  C204  1  0.153400  0.584200  0.075400  1.0  -0.0512
  C  C205  1  0.083400  0.673400  0.972500  1.0  0.7402
  C  C206  1  0.141500  0.327700  0.383600  1.0  -0.0012
  C  C207  1  0.122300  0.354400  0.270900  1.0  0.0176
  C  C208  1  0.120200  0.321600  0.319500  1.0  0.1164
  C  C209  1  0.201300  0.556100  0.060200  1.0  0.6565
  C  C210  1  0.075000  0.648600  0.096500  1.0  -0.0824
  C  C211  1  0.032000  0.680900  0.113100  1.0  0.6863
  C  C212  1  0.086500  0.280700  0.304600  1.0  0.52
  C  C213  1  0.103300  0.848200  0.697700  1.0  0.7062
  C  C214  1  0.182200  0.951000  0.869500  1.0  0.7122
  C  C215  1  0.143300  0.897100  0.789100  1.0  -0.0186
  C  C216  1  0.161600  0.904200  0.853900  1.0  -0.0894
  C  C217  1  0.162200  0.869400  0.901500  1.0  -0.0584
  C  C218  1  0.180700  0.875800  0.973900  1.0  0.7129
  C  C219  1  0.130900  0.088000  0.638800  1.0  -0.0852
  C  C220  1  0.145800  0.058100  0.698900  1.0  0.7453
  C  C221  1  0.097200  0.144100  0.532200  1.0  -0.0852
  C  C222  1  0.091500  0.121000  0.649400  1.0  -0.0185
  C  C223  1  0.135100  0.111400  0.522400  1.0  -0.02
  C  C224  1  0.153400  0.084200  0.575400  1.0  -0.0512
  C  C225  1  0.083400  0.173400  0.472500  1.0  0.7402
  C  C226  1  0.141500  0.827700  0.883600  1.0  -0.0012
  C  C227  1  0.122300  0.854400  0.770900  1.0  0.0176
  C  C228  1  0.120200  0.821600  0.819500  1.0  0.1164
  C  C229  1  0.201300  0.056100  0.560200  1.0  0.6565
  C  C230  1  0.075000  0.148600  0.596500  1.0  -0.0824
  C  C231  1  0.032000  0.180900  0.613100  1.0  0.6863
  C  C232  1  0.086500  0.780700  0.804600  1.0  0.52
  C  C233  1  0.603300  0.348200  0.697700  1.0  0.7062
  C  C234  1  0.682200  0.451000  0.869500  1.0  0.7122
  C  C235  1  0.643300  0.397100  0.789100  1.0  -0.0186
  C  C236  1  0.661600  0.404200  0.853900  1.0  -0.0894
  C  C237  1  0.662200  0.369400  0.901500  1.0  -0.0584
  C  C238  1  0.680700  0.375800  0.973900  1.0  0.7129
  C  C239  1  0.630900  0.588000  0.638800  1.0  -0.0852
  C  C240  1  0.645800  0.558100  0.698900  1.0  0.7453
  C  C241  1  0.597200  0.644100  0.532200  1.0  -0.0852
  C  C242  1  0.591500  0.621000  0.649400  1.0  -0.0185
  C  C243  1  0.635100  0.611400  0.522400  1.0  -0.02
  C  C244  1  0.653400  0.584200  0.575400  1.0  -0.0512
  C  C245  1  0.583400  0.673400  0.472500  1.0  0.7402
  C  C246  1  0.641500  0.327700  0.883600  1.0  -0.0012
  C  C247  1  0.622300  0.354400  0.770900  1.0  0.0176
  C  C248  1  0.620200  0.321600  0.819500  1.0  0.1164
  C  C249  1  0.701300  0.556100  0.560200  1.0  0.6565
  C  C250  1  0.575000  0.648600  0.596500  1.0  -0.0824
  C  C251  1  0.532000  0.680900  0.613100  1.0  0.6863
  C  C252  1  0.586500  0.280700  0.804600  1.0  0.52
  C  C253  1  0.603300  0.848200  0.197700  1.0  0.7062
  C  C254  1  0.682200  0.951000  0.369500  1.0  0.7122
  C  C255  1  0.643300  0.897100  0.289100  1.0  -0.0186
  C  C256  1  0.661600  0.904200  0.353900  1.0  -0.0894
  C  C257  1  0.662200  0.869400  0.401500  1.0  -0.0584
  C  C258  1  0.680700  0.875800  0.473900  1.0  0.7129
  C  C259  1  0.630900  0.088000  0.138800  1.0  -0.0852
  C  C260  1  0.645800  0.058100  0.198900  1.0  0.7453
  C  C261  1  0.597200  0.144100  0.032200  1.0  -0.0852
  C  C262  1  0.591500  0.121000  0.149400  1.0  -0.0185
  C  C263  1  0.635100  0.111400  0.022400  1.0  -0.02
  C  C264  1  0.653400  0.084200  0.075400  1.0  -0.0512
  C  C265  1  0.583400  0.173400  0.972500  1.0  0.7402
  C  C266  1  0.641500  0.827700  0.383600  1.0  -0.0012
  C  C267  1  0.622300  0.854400  0.270900  1.0  0.0176
  C  C268  1  0.620200  0.821600  0.319500  1.0  0.1164
  C  C269  1  0.701300  0.056100  0.060200  1.0  0.6565
  C  C270  1  0.575000  0.148600  0.096500  1.0  -0.0824
  C  C271  1  0.532000  0.180900  0.113100  1.0  0.6863
  C  C272  1  0.586500  0.780700  0.304600  1.0  0.52
  C  C273  1  0.146700  0.598200  0.447700  1.0  0.7051
  C  C274  1  0.067800  0.701000  0.619500  1.0  0.7127
  C  C275  1  0.106700  0.647100  0.539100  1.0  -0.0183
  C  C276  1  0.088400  0.654200  0.603900  1.0  -0.0892
  C  C277  1  0.087800  0.619400  0.651500  1.0  -0.0584
  C  C278  1  0.069300  0.625800  0.723900  1.0  0.7119
  C  C279  1  0.119100  0.838000  0.388800  1.0  -0.0857
  C  C280  1  0.104200  0.808100  0.448900  1.0  0.7454
  C  C281  1  0.152800  0.894100  0.282200  1.0  -0.0852
  C  C282  1  0.158500  0.871000  0.399400  1.0  -0.0173
  C  C283  1  0.114900  0.861400  0.272400  1.0  -0.0203
  C  C284  1  0.096600  0.834200  0.325400  1.0  -0.0535
  C  C285  1  0.166600  0.923400  0.222500  1.0  0.7402
  C  C286  1  0.108500  0.577700  0.633600  1.0  -0.0009
  C  C287  1  0.127700  0.604400  0.520900  1.0  0.0169
  C  C288  1  0.129800  0.571600  0.569500  1.0  0.116
  C  C289  1  0.048700  0.806100  0.310200  1.0  0.6573
  C  C290  1  0.175000  0.898600  0.346500  1.0  -0.0824
  C  C291  1  0.218000  0.930900  0.363100  1.0  0.6857
  C  C292  1  0.163500  0.530700  0.554600  1.0  0.5202
  C  C293  1  0.146700  0.098200  0.947700  1.0  0.7051
  C  C294  1  0.067800  0.201000  0.119500  1.0  0.7127
  C  C295  1  0.106700  0.147100  0.039100  1.0  -0.0183
  C  C296  1  0.088400  0.154200  0.103900  1.0  -0.0892
  C  C297  1  0.087800  0.119400  0.151500  1.0  -0.0584
  C  C298  1  0.069300  0.125800  0.223900  1.0  0.7119
  C  C299  1  0.119100  0.338000  0.888800  1.0  -0.0857
  C  C300  1  0.104200  0.308100  0.948900  1.0  0.7454
  C  C301  1  0.152800  0.394100  0.782200  1.0  -0.0852
  C  C302  1  0.158500  0.371000  0.899400  1.0  -0.0173
  C  C303  1  0.114900  0.361400  0.772400  1.0  -0.0203
  C  C304  1  0.096600  0.334200  0.825400  1.0  -0.0535
  C  C305  1  0.166600  0.423400  0.722500  1.0  0.7402
  C  C306  1  0.108500  0.077700  0.133600  1.0  -0.0009
  C  C307  1  0.127700  0.104400  0.020900  1.0  0.0169
  C  C308  1  0.129800  0.071600  0.069500  1.0  0.116
  C  C309  1  0.048700  0.306100  0.810200  1.0  0.6573
  C  C310  1  0.175000  0.398600  0.846500  1.0  -0.0824
  C  C311  1  0.218000  0.430900  0.863100  1.0  0.6857
  C  C312  1  0.163500  0.030700  0.054600  1.0  0.5202
  C  C313  1  0.646700  0.598200  0.947700  1.0  0.7051
  C  C314  1  0.567800  0.701000  0.119500  1.0  0.7127
  C  C315  1  0.606700  0.647100  0.039100  1.0  -0.0183
  C  C316  1  0.588400  0.654200  0.103900  1.0  -0.0892
  C  C317  1  0.587800  0.619400  0.151500  1.0  -0.0584
  C  C318  1  0.569300  0.625800  0.223900  1.0  0.7118
  C  C319  1  0.619100  0.838000  0.888800  1.0  -0.0857
  C  C320  1  0.604200  0.808100  0.948900  1.0  0.7454
  C  C321  1  0.652800  0.894100  0.782200  1.0  -0.0874
  C  C322  1  0.658500  0.871000  0.899400  1.0  -0.0173
  C  C323  1  0.614900  0.861400  0.772400  1.0  -0.0203
  C  C324  1  0.596600  0.834200  0.825400  1.0  -0.0535
  C  C325  1  0.666667  0.923400  0.722500  1.0  0.7387
  C  C326  1  0.608500  0.577700  0.133600  1.0  -0.0009
  C  C327  1  0.627700  0.604400  0.020900  1.0  0.0169
  C  C328  1  0.629800  0.571600  0.069500  1.0  0.116
  C  C329  1  0.548700  0.806100  0.810200  1.0  0.6573
  C  C330  1  0.675000  0.898600  0.846500  1.0  -0.0847
  C  C331  1  0.718000  0.930900  0.863100  1.0  0.6856
  C  C332  1  0.663500  0.530700  0.054600  1.0  0.5202
  C  C333  1  0.646700  0.098200  0.447700  1.0  0.7051
  C  C334  1  0.567800  0.201000  0.619500  1.0  0.7127
  C  C335  1  0.606700  0.147100  0.539100  1.0  -0.0183
  C  C336  1  0.588400  0.154200  0.603900  1.0  -0.0892
  C  C337  1  0.587800  0.119400  0.651500  1.0  -0.0584
  C  C338  1  0.569300  0.125800  0.723900  1.0  0.7118
  C  C339  1  0.619100  0.338000  0.388800  1.0  -0.0857
  C  C340  1  0.604200  0.308100  0.448900  1.0  0.7454
  C  C341  1  0.652800  0.394100  0.282200  1.0  -0.0874
  C  C342  1  0.658500  0.371000  0.399400  1.0  -0.0173
  C  C343  1  0.614900  0.361400  0.272400  1.0  -0.0203
  C  C344  1  0.596600  0.334200  0.325400  1.0  -0.0535
  C  C345  1  0.666667  0.423400  0.222500  1.0  0.7387
  C  C346  1  0.608500  0.077700  0.633600  1.0  -0.0009
  C  C347  1  0.627700  0.104400  0.520900  1.0  0.0169
  C  C348  1  0.629800  0.071600  0.569500  1.0  0.116
  C  C349  1  0.548700  0.306100  0.310200  1.0  0.6573
  C  C350  1  0.675000  0.398600  0.346500  1.0  -0.0847
  C  C351  1  0.718000  0.430900  0.363100  1.0  0.6856
  C  C352  1  0.663500  0.030700  0.554600  1.0  0.5202
  C  C353  1  0.353300  0.901800  0.447700  1.0  0.7058
  C  C354  1  0.432200  0.799000  0.619500  1.0  0.713
  C  C355  1  0.393300  0.852900  0.539100  1.0  -0.018
  C  C356  1  0.411600  0.845800  0.603900  1.0  -0.0892
  C  C357  1  0.412200  0.880600  0.651500  1.0  -0.0584
  C  C358  1  0.430700  0.874200  0.723900  1.0  0.7122
  C  C359  1  0.380900  0.662000  0.388800  1.0  -0.0858
  C  C360  1  0.395800  0.691900  0.448900  1.0  0.7432
  C  C361  1  0.347200  0.605900  0.282200  1.0  -0.0854
  C  C362  1  0.341500  0.629000  0.399400  1.0  -0.0183
  C  C363  1  0.385100  0.638600  0.272400  1.0  -0.0204
  C  C364  1  0.403400  0.665800  0.325400  1.0  -0.051
  C  C365  1  0.333400  0.576600  0.222500  1.0  0.7396
  C  C366  1  0.391500  0.922300  0.633600  1.0  -0.0012
  C  C367  1  0.372300  0.895600  0.520900  1.0  0.0176
  C  C368  1  0.370200  0.928400  0.569500  1.0  0.1162
  C  C369  1  0.451300  0.693900  0.310200  1.0  0.6564
  C  C370  1  0.325000  0.601400  0.346500  1.0  -0.0827
  C  C371  1  0.282000  0.569100  0.363100  1.0  0.6865
  C  C372  1  0.336500  0.969300  0.554600  1.0  0.5183
  C  C373  1  0.353300  0.401800  0.947700  1.0  0.7058
  C  C374  1  0.432200  0.299000  0.119500  1.0  0.713
  C  C375  1  0.393300  0.352900  0.039100  1.0  -0.018
  C  C376  1  0.411600  0.345800  0.103900  1.0  -0.0892
  C  C377  1  0.412200  0.380600  0.151500  1.0  -0.0584
  C  C378  1  0.430700  0.374200  0.223900  1.0  0.7122
  C  C379  1  0.380900  0.162000  0.888800  1.0  -0.0858
  C  C380  1  0.395800  0.191900  0.948900  1.0  0.7432
  C  C381  1  0.347200  0.105900  0.782200  1.0  -0.0854
  C  C382  1  0.341500  0.129000  0.899400  1.0  -0.0183
  C  C383  1  0.385100  0.138600  0.772400  1.0  -0.0204
  C  C384  1  0.403400  0.165800  0.825400  1.0  -0.051
  C  C385  1  0.333400  0.076600  0.722500  1.0  0.7396
  C  C386  1  0.391500  0.422300  0.133600  1.0  -0.0012
  C  C387  1  0.372300  0.395600  0.020900  1.0  0.0176
  C  C388  1  0.370200  0.428400  0.069500  1.0  0.1162
  C  C389  1  0.451300  0.193900  0.810200  1.0  0.6564
  C  C390  1  0.325000  0.101400  0.846500  1.0  -0.0827
  C  C391  1  0.282000  0.069100  0.863100  1.0  0.6865
  C  C392  1  0.336500  0.469300  0.054600  1.0  0.5183
  C  C393  1  0.853300  0.901800  0.947700  1.0  0.7058
  C  C394  1  0.932200  0.799000  0.119500  1.0  0.713
  C  C395  1  0.893300  0.852900  0.039100  1.0  -0.018
  C  C396  1  0.911600  0.845800  0.103900  1.0  -0.0892
  C  C397  1  0.912200  0.880600  0.151500  1.0  -0.0584
  C  C398  1  0.930700  0.874200  0.223900  1.0  0.7122
  C  C399  1  0.880900  0.662000  0.888800  1.0  -0.0858
  C  C400  1  0.895800  0.691900  0.948900  1.0  0.7432
  C  C401  1  0.847200  0.605900  0.782200  1.0  -0.0854
  C  C402  1  0.841500  0.629000  0.899400  1.0  -0.0183
  C  C403  1  0.885100  0.638600  0.772400  1.0  -0.0204
  C  C404  1  0.903400  0.665800  0.825400  1.0  -0.051
  C  C405  1  0.833400  0.576600  0.722500  1.0  0.7396
  C  C406  1  0.891500  0.922300  0.133600  1.0  -0.0012
  C  C407  1  0.872300  0.895600  0.020900  1.0  0.0176
  C  C408  1  0.870200  0.928400  0.069500  1.0  0.1162
  C  C409  1  0.951300  0.693900  0.810200  1.0  0.6564
  C  C410  1  0.825000  0.601400  0.846500  1.0  -0.0827
  C  C411  1  0.782000  0.569100  0.863100  1.0  0.6865
  C  C412  1  0.836500  0.969300  0.054600  1.0  0.5183
  C  C413  1  0.853300  0.401800  0.447700  1.0  0.7058
  C  C414  1  0.932200  0.299000  0.619500  1.0  0.713
  C  C415  1  0.893300  0.352900  0.539100  1.0  -0.018
  C  C416  1  0.911600  0.345800  0.603900  1.0  -0.0892
  C  C417  1  0.912200  0.380600  0.651500  1.0  -0.0584
  C  C418  1  0.930700  0.374200  0.723900  1.0  0.7122
  C  C419  1  0.880900  0.162000  0.388800  1.0  -0.0858
  C  C420  1  0.895800  0.191900  0.448900  1.0  0.7432
  C  C421  1  0.847200  0.105900  0.282200  1.0  -0.0854
  C  C422  1  0.841500  0.129000  0.399400  1.0  -0.0183
  C  C423  1  0.885100  0.138600  0.272400  1.0  -0.0204
  C  C424  1  0.903400  0.165800  0.325400  1.0  -0.051
  C  C425  1  0.833400  0.076600  0.222500  1.0  0.7396
  C  C426  1  0.891500  0.422300  0.633600  1.0  -0.0012
  C  C427  1  0.872300  0.395600  0.520900  1.0  0.0176
  C  C428  1  0.870200  0.428400  0.569500  1.0  0.1162
  C  C429  1  0.951300  0.193900  0.310200  1.0  0.6564
  C  C430  1  0.825000  0.101400  0.346500  1.0  -0.0827
  C  C431  1  0.782000  0.069100  0.363100  1.0  0.6865
  C  C432  1  0.836500  0.469300  0.554600  1.0  0.5183
  O  O433  1  0.760500  0.435200  0.097000  1.0  -0.5929
  O  O434  1  0.801400  0.470000  0.012500  1.0  -0.5679
  O  O435  1  0.926600  0.285900  0.982200  1.0  -0.4859
  O  O436  1  0.914700  0.347000  0.916200  1.0  -0.58
  O  O437  1  0.841600  0.593200  0.506400  1.0  -0.5658
  O  O438  1  0.783900  0.648500  0.495500  1.0  -0.4697
  O  O439  1  0.780600  0.545500  0.410800  1.0  -0.6121
  O  O440  1  0.839100  0.516000  0.339200  1.0  -0.609
  O  O441  1  0.893900  0.687800  0.173100  1.0  -0.5683
  O  O442  1  0.860900  0.424900  0.256700  1.0  -0.5936
  O  O443  1  0.007300  0.320800  0.073800  1.0  -0.5869
  O  O444  1  0.963200  0.295300  0.163700  1.0  -0.6078
  O  O445  1  0.903900  0.753400  0.326600  1.0  -0.5857
  O  O446  1  0.954100  0.713400  0.269500  1.0  -0.6119
  O  O447  1  0.838600  0.480600  0.186300  1.0  -0.481
  O  O448  1  0.914600  0.620400  0.167900  1.0  -0.3386
  O  O449  1  0.760500  0.935200  0.597000  1.0  -0.5929
  O  O450  1  0.801400  0.970000  0.512500  1.0  -0.5679
  O  O451  1  0.926600  0.785900  0.482200  1.0  -0.4838
  O  O452  1  0.914700  0.847000  0.416200  1.0  -0.58
  O  O453  1  0.841600  0.093200  0.006400  1.0  -0.5658
  O  O454  1  0.783900  0.148500  0.995500  1.0  -0.4697
  O  O455  1  0.780600  0.045500  0.910800  1.0  -0.6121
  O  O456  1  0.839100  0.016000  0.839200  1.0  -0.609
  O  O457  1  0.893900  0.187800  0.673100  1.0  -0.5683
  O  O458  1  0.860900  0.924900  0.756700  1.0  -0.5936
  O  O459  1  0.007300  0.820800  0.573800  1.0  -0.5869
  O  O460  1  0.963200  0.795300  0.663700  1.0  -0.6078
  O  O461  1  0.903900  0.253400  0.826600  1.0  -0.5857
  O  O462  1  0.954100  0.213400  0.769500  1.0  -0.6119
  O  O463  1  0.838600  0.980600  0.686300  1.0  -0.481
  O  O464  1  0.914600  0.120400  0.667900  1.0  -0.3386
  O  O465  1  0.260500  0.435200  0.597000  1.0  -0.5929
  O  O466  1  0.301400  0.470000  0.512500  1.0  -0.5679
  O  O467  1  0.426600  0.285900  0.482200  1.0  -0.4859
  O  O468  1  0.414700  0.347000  0.416200  1.0  -0.58
  O  O469  1  0.341600  0.593200  0.006400  1.0  -0.5658
  O  O470  1  0.283900  0.648500  0.995500  1.0  -0.4697
  O  O471  1  0.280600  0.545500  0.910800  1.0  -0.6121
  O  O472  1  0.339100  0.516000  0.839200  1.0  -0.609
  O  O473  1  0.393900  0.687800  0.673100  1.0  -0.5683
  O  O474  1  0.360900  0.424900  0.756700  1.0  -0.5936
  O  O475  1  0.507300  0.320800  0.573800  1.0  -0.5869
  O  O476  1  0.463200  0.295300  0.663700  1.0  -0.6078
  O  O477  1  0.403900  0.753400  0.826600  1.0  -0.5857
  O  O478  1  0.454100  0.713400  0.769500  1.0  -0.6119
  O  O479  1  0.338600  0.480600  0.686300  1.0  -0.4805
  O  O480  1  0.414600  0.620400  0.667900  1.0  -0.3386
  O  O481  1  0.260500  0.935200  0.097000  1.0  -0.5929
  O  O482  1  0.301400  0.970000  0.012500  1.0  -0.5679
  O  O483  1  0.426600  0.785900  0.982200  1.0  -0.4838
  O  O484  1  0.414700  0.847000  0.916200  1.0  -0.58
  O  O485  1  0.341600  0.093200  0.506400  1.0  -0.5658
  O  O486  1  0.283900  0.148500  0.495500  1.0  -0.4697
  O  O487  1  0.280600  0.045500  0.410800  1.0  -0.6121
  O  O488  1  0.339100  0.016000  0.339200  1.0  -0.609
  O  O489  1  0.393900  0.187800  0.173100  1.0  -0.5683
  O  O490  1  0.360900  0.924900  0.256700  1.0  -0.5936
  O  O491  1  0.507300  0.820800  0.073800  1.0  -0.5869
  O  O492  1  0.463200  0.795300  0.163700  1.0  -0.6078
  O  O493  1  0.403900  0.253400  0.326600  1.0  -0.5857
  O  O494  1  0.454100  0.213400  0.269500  1.0  -0.6119
  O  O495  1  0.338600  0.980600  0.186300  1.0  -0.4805
  O  O496  1  0.414600  0.120400  0.167900  1.0  -0.3386
  O  O497  1  0.239500  0.564800  0.097000  1.0  -0.5923
  O  O498  1  0.198600  0.530000  0.012500  1.0  -0.5682
  O  O499  1  0.073400  0.714100  0.982200  1.0  -0.4852
  O  O500  1  0.085300  0.653000  0.916200  1.0  -0.5793
  O  O501  1  0.158400  0.406800  0.506400  1.0  -0.5654
  O  O502  1  0.216100  0.351500  0.495500  1.0  -0.4692
  O  O503  1  0.219400  0.454500  0.410800  1.0  -0.6095
  O  O504  1  0.160900  0.484000  0.339200  1.0  -0.611
  O  O505  1  0.106100  0.312200  0.173100  1.0  -0.565
  O  O506  1  0.139100  0.575100  0.256700  1.0  -0.5944
  O  O507  1  0.992700  0.679200  0.073800  1.0  -0.5879
  O  O508  1  0.036800  0.704700  0.163700  1.0  -0.6084
  O  O509  1  0.096100  0.246600  0.326600  1.0  -0.5852
  O  O510  1  0.045900  0.286600  0.269500  1.0  -0.6122
  O  O511  1  0.161400  0.519400  0.186300  1.0  -0.4794
  O  O512  1  0.085400  0.379600  0.167900  1.0  -0.3375
  O  O513  1  0.239500  0.064800  0.597000  1.0  -0.5923
  O  O514  1  0.198600  0.030000  0.512500  1.0  -0.5682
  O  O515  1  0.073400  0.214100  0.482200  1.0  -0.4834
  O  O516  1  0.085300  0.153000  0.416200  1.0  -0.5793
  O  O517  1  0.158400  0.906800  0.006400  1.0  -0.5654
  O  O518  1  0.216100  0.851500  0.995500  1.0  -0.4692
  O  O519  1  0.219400  0.954500  0.910800  1.0  -0.6095
  O  O520  1  0.160900  0.984000  0.839200  1.0  -0.611
  O  O521  1  0.106100  0.812200  0.673100  1.0  -0.565
  O  O522  1  0.139100  0.075100  0.756700  1.0  -0.5944
  O  O523  1  0.992700  0.179200  0.573800  1.0  -0.5879
  O  O524  1  0.036800  0.204700  0.663700  1.0  -0.6084
  O  O525  1  0.096100  0.746600  0.826600  1.0  -0.5852
  O  O526  1  0.045900  0.786600  0.769500  1.0  -0.6122
  O  O527  1  0.161400  0.019400  0.686300  1.0  -0.4794
  O  O528  1  0.085400  0.879600  0.667900  1.0  -0.3375
  O  O529  1  0.739500  0.564800  0.597000  1.0  -0.5923
  O  O530  1  0.698600  0.530000  0.512500  1.0  -0.5682
  O  O531  1  0.573400  0.714100  0.482200  1.0  -0.4852
  O  O532  1  0.585300  0.653000  0.416200  1.0  -0.5793
  O  O533  1  0.658400  0.406800  0.006400  1.0  -0.5654
  O  O534  1  0.716100  0.351500  0.995500  1.0  -0.4692
  O  O535  1  0.719400  0.454500  0.910800  1.0  -0.6095
  O  O536  1  0.660900  0.484000  0.839200  1.0  -0.611
  O  O537  1  0.606100  0.312200  0.673100  1.0  -0.565
  O  O538  1  0.639100  0.575100  0.756700  1.0  -0.5944
  O  O539  1  0.492700  0.679200  0.573800  1.0  -0.5879
  O  O540  1  0.536800  0.704700  0.663700  1.0  -0.6084
  O  O541  1  0.596100  0.246600  0.826600  1.0  -0.5852
  O  O542  1  0.545900  0.286600  0.769500  1.0  -0.6122
  O  O543  1  0.661400  0.519400  0.686300  1.0  -0.4794
  O  O544  1  0.585400  0.379600  0.667900  1.0  -0.3375
  O  O545  1  0.739500  0.064800  0.097000  1.0  -0.5923
  O  O546  1  0.698600  0.030000  0.012500  1.0  -0.5682
  O  O547  1  0.573400  0.214100  0.982200  1.0  -0.4834
  O  O548  1  0.585300  0.153000  0.916200  1.0  -0.5793
  O  O549  1  0.658400  0.906800  0.506400  1.0  -0.5654
  O  O550  1  0.716100  0.851500  0.495500  1.0  -0.4692
  O  O551  1  0.719400  0.954500  0.410800  1.0  -0.6095
  O  O552  1  0.660900  0.984000  0.339200  1.0  -0.611
  O  O553  1  0.606100  0.812200  0.173100  1.0  -0.565
  O  O554  1  0.639100  0.075100  0.256700  1.0  -0.5944
  O  O555  1  0.492700  0.179200  0.073800  1.0  -0.5879
  O  O556  1  0.536800  0.204700  0.163700  1.0  -0.6084
  O  O557  1  0.596100  0.746600  0.326600  1.0  -0.5852
  O  O558  1  0.545900  0.786600  0.269500  1.0  -0.6122
  O  O559  1  0.661400  0.019400  0.186300  1.0  -0.4794
  O  O560  1  0.585400  0.879600  0.167900  1.0  -0.3375
  O  O561  1  0.010500  0.814800  0.347000  1.0  -0.5929
  O  O562  1  0.051400  0.780000  0.262500  1.0  -0.5683
  O  O563  1  0.176600  0.964100  0.232200  1.0  -0.4851
  O  O564  1  0.164700  0.903000  0.166200  1.0  -0.5793
  O  O565  1  0.091600  0.656800  0.756400  1.0  -0.5667
  O  O566  1  0.033900  0.601500  0.745500  1.0  -0.4695
  O  O567  1  0.030600  0.704500  0.660800  1.0  -0.6118
  O  O568  1  0.089100  0.734000  0.589200  1.0  -0.6101
  O  O569  1  0.143900  0.562200  0.423100  1.0  -0.5652
  O  O570  1  0.110900  0.825100  0.506700  1.0  -0.594
  O  O571  1  0.257300  0.929200  0.323800  1.0  -0.587
  O  O572  1  0.213200  0.954700  0.413700  1.0  -0.6088
  O  O573  1  0.153900  0.496600  0.576600  1.0  -0.5843
  O  O574  1  0.204100  0.536600  0.519500  1.0  -0.6119
  O  O575  1  0.088600  0.769400  0.436300  1.0  -0.479
  O  O576  1  0.164600  0.629600  0.417900  1.0  -0.3384
  O  O577  1  0.010500  0.314800  0.847000  1.0  -0.5929
  O  O578  1  0.051400  0.280000  0.762500  1.0  -0.5683
  O  O579  1  0.176600  0.464100  0.732200  1.0  -0.4832
  O  O580  1  0.164700  0.403000  0.666200  1.0  -0.5793
  O  O581  1  0.091600  0.156800  0.256400  1.0  -0.5667
  O  O582  1  0.033900  0.101500  0.245500  1.0  -0.4695
  O  O583  1  0.030600  0.204500  0.160800  1.0  -0.6118
  O  O584  1  0.089100  0.234000  0.089200  1.0  -0.6101
  O  O585  1  0.143900  0.062200  0.923100  1.0  -0.5652
  O  O586  1  0.110900  0.325100  0.006700  1.0  -0.594
  O  O587  1  0.257300  0.429200  0.823800  1.0  -0.587
  O  O588  1  0.213200  0.454700  0.913700  1.0  -0.6088
  O  O589  1  0.153900  0.996600  0.076600  1.0  -0.5843
  O  O590  1  0.204100  0.036600  0.019500  1.0  -0.6119
  O  O591  1  0.088600  0.269400  0.936300  1.0  -0.479
  O  O592  1  0.164600  0.129600  0.917900  1.0  -0.3384
  O  O593  1  0.510500  0.814800  0.847000  1.0  -0.5929
  O  O594  1  0.551400  0.780000  0.762500  1.0  -0.5682
  O  O595  1  0.676600  0.964100  0.732200  1.0  -0.4803
  O  O596  1  0.664700  0.903000  0.666200  1.0  -0.5797
  O  O597  1  0.591600  0.656800  0.256400  1.0  -0.5667
  O  O598  1  0.533900  0.601500  0.245500  1.0  -0.4695
  O  O599  1  0.530600  0.704500  0.160800  1.0  -0.6118
  O  O600  1  0.589100  0.734000  0.089200  1.0  -0.6101
  O  O601  1  0.643900  0.562200  0.923100  1.0  -0.5652
  O  O602  1  0.610900  0.825100  0.006700  1.0  -0.594
  O  O603  1  0.757300  0.929200  0.823800  1.0  -0.587
  O  O604  1  0.713200  0.954700  0.913700  1.0  -0.6088
  O  O605  1  0.653900  0.496600  0.076600  1.0  -0.5843
  O  O606  1  0.704100  0.536600  0.019500  1.0  -0.6119
  O  O607  1  0.588600  0.769400  0.936300  1.0  -0.479
  O  O608  1  0.664600  0.629600  0.917900  1.0  -0.3384
  O  O609  1  0.510500  0.314800  0.347000  1.0  -0.5929
  O  O610  1  0.551400  0.280000  0.262500  1.0  -0.5682
  O  O611  1  0.676600  0.464100  0.232200  1.0  -0.4784
  O  O612  1  0.664700  0.403000  0.166200  1.0  -0.5797
  O  O613  1  0.591600  0.156800  0.756400  1.0  -0.5667
  O  O614  1  0.533900  0.101500  0.745500  1.0  -0.4695
  O  O615  1  0.530600  0.204500  0.660800  1.0  -0.6118
  O  O616  1  0.589100  0.234000  0.589200  1.0  -0.6101
  O  O617  1  0.643900  0.062200  0.423100  1.0  -0.5652
  O  O618  1  0.610900  0.325100  0.506700  1.0  -0.594
  O  O619  1  0.757300  0.429200  0.323800  1.0  -0.587
  O  O620  1  0.713200  0.454700  0.413700  1.0  -0.6088
  O  O621  1  0.653900  0.996600  0.576600  1.0  -0.5843
  O  O622  1  0.704100  0.036600  0.519500  1.0  -0.6119
  O  O623  1  0.588600  0.269400  0.436300  1.0  -0.479
  O  O624  1  0.664600  0.129600  0.417900  1.0  -0.3384
  O  O625  1  0.489500  0.685200  0.347000  1.0  -0.5926
  O  O626  1  0.448600  0.720000  0.262500  1.0  -0.5676
  O  O627  1  0.323400  0.535900  0.232200  1.0  -0.4858
  O  O628  1  0.335300  0.597000  0.166200  1.0  -0.5794
  O  O629  1  0.408400  0.843200  0.756400  1.0  -0.5667
  O  O630  1  0.466100  0.898500  0.745500  1.0  -0.469
  O  O631  1  0.469400  0.795500  0.660800  1.0  -0.6099
  O  O632  1  0.410900  0.766000  0.589200  1.0  -0.6097
  O  O633  1  0.356100  0.937800  0.423100  1.0  -0.5664
  O  O634  1  0.389100  0.674900  0.506700  1.0  -0.5942
  O  O635  1  0.242700  0.570800  0.323800  1.0  -0.5876
  O  O636  1  0.286800  0.545300  0.413700  1.0  -0.608
  O  O637  1  0.346100  0.003400  0.576600  1.0  -0.5864
  O  O638  1  0.295900  0.963400  0.519500  1.0  -0.6123
  O  O639  1  0.411400  0.730600  0.436300  1.0  -0.48
  O  O640  1  0.335400  0.870400  0.417900  1.0  -0.3386
  O  O641  1  0.489500  0.185200  0.847000  1.0  -0.5926
  O  O642  1  0.448600  0.220000  0.762500  1.0  -0.5676
  O  O643  1  0.323400  0.035900  0.732200  1.0  -0.4838
  O  O644  1  0.335300  0.097000  0.666200  1.0  -0.5794
  O  O645  1  0.408400  0.343200  0.256400  1.0  -0.5667
  O  O646  1  0.466100  0.398500  0.245500  1.0  -0.469
  O  O647  1  0.469400  0.295500  0.160800  1.0  -0.6099
  O  O648  1  0.410900  0.266000  0.089200  1.0  -0.6097
  O  O649  1  0.356100  0.437800  0.923100  1.0  -0.5664
  O  O650  1  0.389100  0.174900  0.006700  1.0  -0.5942
  O  O651  1  0.242700  0.070800  0.823800  1.0  -0.5876
  O  O652  1  0.286800  0.045300  0.913700  1.0  -0.608
  O  O653  1  0.346100  0.503400  0.076600  1.0  -0.5864
  O  O654  1  0.295900  0.463400  0.019500  1.0  -0.6123
  O  O655  1  0.411400  0.230600  0.936300  1.0  -0.48
  O  O656  1  0.335400  0.370400  0.917900  1.0  -0.3386
  O  O657  1  0.989500  0.685200  0.847000  1.0  -0.5926
  O  O658  1  0.948600  0.720000  0.762500  1.0  -0.5676
  O  O659  1  0.823400  0.535900  0.732200  1.0  -0.4858
  O  O660  1  0.835300  0.597000  0.666200  1.0  -0.5794
  O  O661  1  0.908400  0.843200  0.256400  1.0  -0.5667
  O  O662  1  0.966100  0.898500  0.245500  1.0  -0.469
  O  O663  1  0.969400  0.795500  0.160800  1.0  -0.6099
  O  O664  1  0.910900  0.766000  0.089200  1.0  -0.6097
  O  O665  1  0.856100  0.937800  0.923100  1.0  -0.5664
  O  O666  1  0.889100  0.674900  0.006700  1.0  -0.5942
  O  O667  1  0.742700  0.570800  0.823800  1.0  -0.5876
  O  O668  1  0.786800  0.545300  0.913700  1.0  -0.608
  O  O669  1  0.846100  0.003400  0.076600  1.0  -0.5864
  O  O670  1  0.795900  0.963400  0.019500  1.0  -0.6123
  O  O671  1  0.911400  0.730600  0.936300  1.0  -0.48
  O  O672  1  0.835400  0.870400  0.917900  1.0  -0.3386
  O  O673  1  0.989500  0.185200  0.347000  1.0  -0.5926
  O  O674  1  0.948600  0.220000  0.262500  1.0  -0.5676
  O  O675  1  0.823400  0.035900  0.232200  1.0  -0.4838
  O  O676  1  0.835300  0.097000  0.166200  1.0  -0.5794
  O  O677  1  0.908400  0.343200  0.756400  1.0  -0.5667
  O  O678  1  0.966100  0.398500  0.745500  1.0  -0.469
  O  O679  1  0.969400  0.295500  0.660800  1.0  -0.6099
  O  O680  1  0.910900  0.266000  0.589200  1.0  -0.6097
  O  O681  1  0.856100  0.437800  0.423100  1.0  -0.5664
  O  O682  1  0.889100  0.174900  0.506700  1.0  -0.5942
  O  O683  1  0.742700  0.070800  0.323800  1.0  -0.5876
  O  O684  1  0.786800  0.045300  0.413700  1.0  -0.608
  O  O685  1  0.846100  0.503400  0.576600  1.0  -0.5864
  O  O686  1  0.795900  0.463400  0.519500  1.0  -0.6123
  O  O687  1  0.911400  0.230600  0.436300  1.0  -0.48
  O  O688  1  0.835400  0.370400  0.417900  1.0  -0.3386
