# generated using pymatgen
data_ZnH3(C3O2)3
_symmetry_space_group_name_H-M   'P 1'
_cell_length_a   9.16570000
_cell_length_b   15.58490000
_cell_length_c   13.53020000
_cell_angle_alpha   90.00000000
_cell_angle_beta   107.46900000
_cell_angle_gamma   90.00000000
_symmetry_Int_Tables_number   1
_chemical_formula_structural   ZnH3(C3O2)3
_chemical_formula_sum   'Zn4 H12 C36 O24'
_cell_volume   1843.60294817
_cell_formula_units_Z   4
loop_
 _symmetry_equiv_pos_site_id
 _symmetry_equiv_pos_as_xyz
  1  'x, y, z'
loop_
 _atom_site_type_symbol
 _atom_site_label
 _atom_site_symmetry_multiplicity
 _atom_site_fract_x
 _atom_site_fract_y
 _atom_site_fract_z
 _atom_site_occupancy
 _atom_site_charge
  Zn  Zn1  1  0.379080  0.551850  0.248140  1.0  1.0812
  Zn  Zn2  1  0.126680  0.745160  0.252150  1.0  1.0851
  Zn  Zn3  1  0.620920  0.051850  0.751860  1.0  1.0824
  Zn  Zn4  1  0.873320  0.245160  0.747850  1.0  1.085
  H  H5  1  0.025900  0.448400  0.998400  1.0  0.1392
  H  H6  1  0.601600  0.367000  0.982300  1.0  0.1396
  H  H7  1  0.792900  0.563600  0.171200  1.0  0.1339
  H  H8  1  0.483100  0.846400  0.506300  1.0  0.139
  H  H9  1  0.906100  0.929900  0.520500  1.0  0.1399
  H  H10  1  0.719100  0.731300  0.334700  1.0  0.1316
  H  H11  1  0.974100  0.948400  0.001600  1.0  0.1395
  H  H12  1  0.398400  0.867000  0.017700  1.0  0.1384
  H  H13  1  0.207100  0.063600  0.828800  1.0  0.1335
  H  H14  1  0.516900  0.346400  0.493700  1.0  0.1387
  H  H15  1  0.093900  0.429900  0.479500  1.0  0.1409
  H  H16  1  0.280900  0.231300  0.665300  1.0  0.1315
  C  C17  1  0.929300  0.513900  0.092400  1.0  -0.1303
  C  C18  1  0.937100  0.453000  0.019100  1.0  0.0514
  C  C19  1  0.813400  0.398700  0.976400  1.0  -0.1306
  C  C20  1  0.683900  0.404800  0.009600  1.0  0.0535
  C  C21  1  0.674200  0.465900  0.082600  1.0  -0.1315
  C  C22  1  0.798400  0.521200  0.123000  1.0  0.0417
  C  C23  1  0.060400  0.573900  0.141100  1.0  0.7669
  C  C24  1  0.816600  0.334400  0.894900  1.0  0.6947
  C  C25  1  0.534800  0.473600  0.118400  1.0  0.6771
  C  C26  1  0.580900  0.780300  0.412400  1.0  -0.1328
  C  C27  1  0.571600  0.842100  0.485100  1.0  0.0255
  C  C28  1  0.694600  0.897300  0.526100  1.0  -0.1157
  C  C29  1  0.824600  0.891500  0.493900  1.0  0.0253
  C  C30  1  0.835100  0.829500  0.422700  1.0  -0.1271
  C  C31  1  0.712400  0.773700  0.382500  1.0  0.0045
  C  C32  1  0.447800  0.724200  0.362200  1.0  0.7739
  C  C33  1  0.688500  0.963600  0.606500  1.0  0.7081
  C  C34  1  0.973700  0.823200  0.385000  1.0  0.6815
  C  C35  1  0.070700  0.013900  0.907600  1.0  -0.1302
  C  C36  1  0.062900  0.953000  0.980900  1.0  0.052
  C  C37  1  0.186600  0.898700  0.023600  1.0  -0.1301
  C  C38  1  0.316100  0.904800  0.990400  1.0  0.0535
  C  C39  1  0.325800  0.965900  0.917400  1.0  -0.1309
  C  C40  1  0.201600  0.021200  0.877000  1.0  0.0423
  C  C41  1  0.939600  0.073900  0.858900  1.0  0.7679
  C  C42  1  0.183400  0.834400  0.105100  1.0  0.696
  C  C43  1  0.465200  0.973600  0.881600  1.0  0.6782
  C  C44  1  0.419100  0.280300  0.587600  1.0  -0.1329
  C  C45  1  0.428400  0.342100  0.514900  1.0  0.0253
  C  C46  1  0.305400  0.397300  0.473900  1.0  -0.116
  C  C47  1  0.175400  0.391500  0.506100  1.0  0.0255
  C  C48  1  0.164900  0.329500  0.577300  1.0  -0.1272
  C  C49  1  0.287600  0.273700  0.617500  1.0  0.0057
  C  C50  1  0.552200  0.224200  0.637800  1.0  0.7729
  C  C51  1  0.311500  0.463600  0.393500  1.0  0.7075
  C  C52  1  0.026300  0.323200  0.615000  1.0  0.6812
  O  O53  1  0.029400  0.640200  0.182100  1.0  -0.5924
  O  O54  1  0.190000  0.551800  0.135100  1.0  -0.5867
  O  O55  1  0.937500  0.332100  0.864200  1.0  -0.5602
  O  O56  1  0.706200  0.286900  0.856300  1.0  -0.632
  O  O57  1  0.429900  0.419400  0.090900  1.0  -0.4451
  O  O58  1  0.536900  0.536600  0.178800  1.0  -0.5451
  O  O59  1  0.477400  0.656900  0.319000  1.0  -0.6294
  O  O60  1  0.317800  0.746100  0.365500  1.0  -0.5848
  O  O61  1  0.569400  0.964700  0.638100  1.0  -0.552
  O  O62  1  0.796700  0.013500  0.642200  1.0  -0.6089
  O  O63  1  0.076600  0.875700  0.410500  1.0  -0.4273
  O  O64  1  0.972200  0.758600  0.324400  1.0  -0.5661
  O  O65  1  0.970600  0.140200  0.817900  1.0  -0.5915
  O  O66  1  0.810000  0.051800  0.864900  1.0  -0.5868
  O  O67  1  0.062500  0.832100  0.135800  1.0  -0.5598
  O  O68  1  0.293800  0.786900  0.143700  1.0  -0.6326
  O  O69  1  0.570100  0.919400  0.909100  1.0  -0.4432
  O  O70  1  0.463100  0.036600  0.821200  1.0  -0.5455
  O  O71  1  0.522600  0.156900  0.681000  1.0  -0.6289
  O  O72  1  0.682200  0.246100  0.634500  1.0  -0.585
  O  O73  1  0.430600  0.464700  0.361900  1.0  -0.5529
  O  O74  1  0.203300  0.513500  0.357800  1.0  -0.6077
  O  O75  1  0.923400  0.375700  0.589500  1.0  -0.4268
  O  O76  1  0.027800  0.258600  0.675600  1.0  -0.5654
