# generated using pymatgen
data_ZnH3(C3O2)3
_symmetry_space_group_name_H-M   'P 1'
_cell_length_a   9.16990000
_cell_length_b   15.60550000
_cell_length_c   13.50260000
_cell_angle_alpha   90.00000000
_cell_angle_beta   107.16200000
_cell_angle_gamma   90.00000000
_symmetry_Int_Tables_number   1
_chemical_formula_structural   ZnH3(C3O2)3
_chemical_formula_sum   'Zn4 H12 C36 O24'
_cell_volume   1846.19974970
_cell_formula_units_Z   4
loop_
 _symmetry_equiv_pos_site_id
 _symmetry_equiv_pos_as_xyz
  1  'x, y, z'
loop_
 _atom_site_type_symbol
 _atom_site_label
 _atom_site_symmetry_multiplicity
 _atom_site_fract_x
 _atom_site_fract_y
 _atom_site_fract_z
 _atom_site_occupancy
 _atom_site_charge
  Zn  Zn1  1  0.619840  0.449000  0.750770  1.0  1.0771
  Zn  Zn2  1  0.872830  0.253820  0.748730  1.0  1.1018
  Zn  Zn3  1  0.380160  0.949000  0.249230  1.0  1.0768
  Zn  Zn4  1  0.127170  0.753820  0.251270  1.0  1.1024
  H  H5  1  0.971700  0.549400  0.001700  1.0  0.1355
  H  H6  1  0.394600  0.630700  0.018200  1.0  0.1286
  H  H7  1  0.207500  0.437100  0.828700  1.0  0.1281
  H  H8  1  0.518200  0.154800  0.495400  1.0  0.1288
  H  H9  1  0.096700  0.071600  0.480200  1.0  0.137
  H  H10  1  0.281300  0.269300  0.664800  1.0  0.1259
  H  H11  1  0.028300  0.049400  0.998300  1.0  0.1355
  H  H12  1  0.605400  0.130700  0.981800  1.0  0.129
  H  H13  1  0.792500  0.937100  0.171300  1.0  0.1286
  H  H14  1  0.481800  0.654800  0.504600  1.0  0.1288
  H  H15  1  0.903300  0.571600  0.519800  1.0  0.1358
  H  H16  1  0.718700  0.769300  0.335200  1.0  0.1256
  C  C17  1  0.069200  0.485400  0.907400  1.0  -0.135
  C  C18  1  0.059500  0.545300  0.980900  1.0  0.0521
  C  C19  1  0.183300  0.599600  0.023500  1.0  -0.1505
  C  C20  1  0.313400  0.593600  0.990700  1.0  0.0545
  C  C21  1  0.324100  0.533400  0.917800  1.0  -0.1382
  C  C22  1  0.201300  0.478600  0.876800  1.0  0.0444
  C  C23  1  0.938800  0.425870  0.858700  1.0  0.7803
  C  C24  1  0.177200  0.663500  0.105100  1.0  0.6868
  C  C25  1  0.464500  0.526400  0.882100  1.0  0.6811
  C  C26  1  0.420600  0.220900  0.588000  1.0  -0.1404
  C  C27  1  0.430100  0.159200  0.515800  1.0  0.0493
  C  C28  1  0.307700  0.104200  0.474000  1.0  -0.1365
  C  C29  1  0.176900  0.109700  0.506300  1.0  0.0513
  C  C30  1  0.166000  0.171900  0.577500  1.0  -0.141
  C  C31  1  0.288400  0.227300  0.617500  1.0  0.0494
  C  C32  1  0.553300  0.277250  0.638800  1.0  0.7672
  C  C33  1  0.314300  0.038100  0.394700  1.0  0.7218
  C  C34  1  0.027000  0.177600  0.615200  1.0  0.687
  C  C35  1  0.930800  0.985400  0.092600  1.0  -0.1349
  C  C36  1  0.940500  0.045300  0.019100  1.0  0.0521
  C  C37  1  0.816700  0.099600  0.976500  1.0  -0.15
  C  C38  1  0.686600  0.093600  0.009300  1.0  0.0548
  C  C39  1  0.675900  0.033400  0.082200  1.0  -0.1395
  C  C40  1  0.798700  0.978600  0.123200  1.0  0.0454
  C  C41  1  0.061200  0.925870  0.141300  1.0  0.7787
  C  C42  1  0.822800  0.163500  0.894900  1.0  0.6866
  C  C43  1  0.535500  0.026400  0.117900  1.0  0.6825
  C  C44  1  0.579400  0.720900  0.412000  1.0  -0.1405
  C  C45  1  0.569900  0.659200  0.484200  1.0  0.0491
  C  C46  1  0.692300  0.604200  0.526000  1.0  -0.1363
  C  C47  1  0.823100  0.609700  0.493700  1.0  0.0517
  C  C48  1  0.834000  0.671900  0.422500  1.0  -0.1403
  C  C49  1  0.711600  0.727300  0.382500  1.0  0.0495
  C  C50  1  0.446700  0.777250  0.361200  1.0  0.7674
  C  C51  1  0.685700  0.538100  0.605300  1.0  0.722
  C  C52  1  0.973000  0.677600  0.384800  1.0  0.6876
  O  O53  1  0.969500  0.359120  0.818190  1.0  -0.6004
  O  O54  1  0.808440  0.447400  0.863330  1.0  -0.5904
  O  O55  1  0.058300  0.666370  0.135100  1.0  -0.5595
  O  O56  1  0.288400  0.711320  0.143600  1.0  -0.658
  O  O57  1  0.568100  0.579400  0.910300  1.0  -0.4384
  O  O58  1  0.463200  0.463450  0.821160  1.0  -0.5595
  O  O59  1  0.522800  0.343900  0.681430  1.0  -0.6088
  O  O60  1  0.683210  0.254500  0.635650  1.0  -0.5879
  O  O61  1  0.434400  0.036770  0.362630  1.0  -0.5513
  O  O62  1  0.206500  0.989080  0.358300  1.0  -0.6095
  O  O63  1  0.924100  0.124580  0.589100  1.0  -0.4221
  O  O64  1  0.027500  0.240320  0.675820  1.0  -0.5644
  O  O65  1  0.030500  0.859120  0.181810  1.0  -0.6004
  O  O66  1  0.191560  0.947400  0.136670  1.0  -0.5898
  O  O67  1  0.941700  0.166370  0.864900  1.0  -0.5587
  O  O68  1  0.711600  0.211320  0.856400  1.0  -0.6565
  O  O69  1  0.431900  0.079400  0.089700  1.0  -0.438
  O  O70  1  0.536800  0.963450  0.178840  1.0  -0.5592
  O  O71  1  0.477200  0.843900  0.318570  1.0  -0.6079
  O  O72  1  0.316790  0.754500  0.364350  1.0  -0.5871
  O  O73  1  0.565600  0.536770  0.637370  1.0  -0.5508
  O  O74  1  0.793500  0.489080  0.641700  1.0  -0.61
  O  O75  1  0.075900  0.624580  0.410900  1.0  -0.4207
  O  O76  1  0.972500  0.740320  0.324180  1.0  -0.5653
