# generated using pymatgen
data_Mn3H68C60(NO3)4
_symmetry_space_group_name_H-M   'P 1'
_cell_length_a   13.66300000
_cell_length_b   18.32900000
_cell_length_c   22.17300000
_cell_angle_alpha   67.20400000
_cell_angle_beta   88.26000000
_cell_angle_gamma   86.71200000
_symmetry_Int_Tables_number   1
_chemical_formula_structural   Mn3H68C60(NO3)4
_chemical_formula_sum   'Mn9 H204 C180 N12 O36'
_cell_volume   5110.41300995
_cell_formula_units_Z   3
loop_
 _symmetry_equiv_pos_site_id
 _symmetry_equiv_pos_as_xyz
  1  'x, y, z'
loop_
 _atom_site_type_symbol
 _atom_site_label
 _atom_site_symmetry_multiplicity
 _atom_site_fract_x
 _atom_site_fract_y
 _atom_site_fract_z
 _atom_site_occupancy
 _atom_site_charge
  Mn  Mn1  1  0.423180  0.213570  0.139600  1.0  1.136
  Mn  Mn2  1  0.217010  0.292770  0.194670  1.0  1.2514
  Mn  Mn3  1  0.008920  0.370100  0.252230  1.0  1.1371
  Mn  Mn4  1  0.582310  0.740210  0.072750  1.0  0.9132
  Mn  Mn5  1  0.581740  0.998280  0.592110  1.0  0.8938
  Mn  Mn6  1  0.871510  0.246290  0.850240  1.0  0.8031
  Mn  Mn7  1  0.852570  0.842220  0.319610  1.0  0.9121
  Mn  Mn8  1  0.854420  0.583920  0.800340  1.0  0.8446
  Mn  Mn9  1  0.560470  0.337830  0.535730  1.0  0.8289
  H  H10  1  0.303600  0.483100  0.088900  1.0  0.1037
  H  H11  1  0.587200  0.439500  0.118400  1.0  0.1104
  H  H12  1  0.317600  0.696600  0.112200  1.0  0.1169
  H  H13  1  0.208300  0.713500  0.089400  1.0  0.1098
  H  H14  1  0.241500  0.631000  0.142600  1.0  0.1208
  H  H15  1  0.362900  0.737000  0.989700  1.0  0.122
  H  H16  1  0.314200  0.693000  0.951100  1.0  0.1237
  H  H17  1  0.250100  0.749800  0.975700  1.0  0.1112
  H  H18  1  0.174000  0.563600  0.076800  1.0  0.1087
  H  H19  1  0.138700  0.647500  0.026600  1.0  0.1101
  H  H20  1  0.202600  0.590000  0.002600  1.0  0.1152
  H  H21  1  0.690900  0.531900  0.123700  1.0  0.1093
  H  H22  1  0.768600  0.644300  0.164900  1.0  0.0973
  H  H23  1  0.838800  0.547000  0.136400  1.0  0.0895
  H  H24  1  0.851800  0.606000  0.063700  1.0  0.0891
  H  H25  1  0.002800  0.591800  0.109800  1.0  0.0821
  H  H26  1  0.958500  0.602500  0.172100  1.0  0.0773
  H  H27  1  0.029500  0.717300  0.113000  1.0  0.0885
  H  H28  1  0.982500  0.722500  0.047900  1.0  0.0933
  H  H29  1  0.898700  0.815800  0.078400  1.0  0.076
  H  H30  1  0.881400  0.753300  0.149600  1.0  0.0942
  H  H31  1  0.799000  0.749500  0.036300  1.0  0.1077
  H  H32  1  0.765200  0.871700  0.096900  1.0  0.1048
  H  H33  1  0.420200  0.055900  0.081000  1.0  0.1209
  H  H34  1  0.706900  0.989900  0.097500  1.0  0.137
  H  H35  1  0.352300  0.813000  0.137900  1.0  0.1194
  H  H36  1  0.309100  0.868100  0.172400  1.0  0.1277
  H  H37  1  0.242800  0.845300  0.126600  1.0  0.1243
  H  H38  1  0.366700  0.870000  0.013000  1.0  0.1163
  H  H39  1  0.257000  0.901200  0.010500  1.0  0.121
  H  H40  1  0.338700  0.960200  0.974900  1.0  0.1179
  H  H41  1  0.201200  0.986900  0.069100  1.0  0.1134
  H  H42  1  0.274800  0.013000  0.108900  1.0  0.1202
  H  H43  1  0.282400  0.045600  0.032400  1.0  0.1133
  H  H44  1  0.269500  0.151300  0.380100  1.0  0.1224
  H  H45  1  0.551400  0.118300  0.339400  1.0  0.1092
  H  H46  1  0.295900  0.183900  0.532300  1.0  0.1212
  H  H47  1  0.234600  0.121100  0.586800  1.0  0.1201
  H  H48  1  0.346500  0.103200  0.578000  1.0  0.12
  H  H49  1  0.176400  0.183800  0.448300  1.0  0.1254
  H  H50  1  0.156500  0.102400  0.444300  1.0  0.1114
  H  H51  1  0.116700  0.121200  0.504100  1.0  0.1116
  H  H52  1  0.200200  0.994900  0.580100  1.0  0.1173
  H  H53  1  0.238800  0.977500  0.519500  1.0  0.1236
  H  H54  1  0.312800  0.979500  0.571400  1.0  0.1124
  H  H55  1  0.660700  0.053500  0.418800  1.0  0.1329
  H  H56  1  0.738400  0.906600  0.532900  1.0  0.0944
  H  H57  1  0.835000  0.045200  0.453000  1.0  0.092
  H  H58  1  0.799900  0.980800  0.429200  1.0  0.0791
  H  H59  1  0.913100  0.888300  0.492800  1.0  0.0835
  H  H60  1  0.969300  0.964400  0.452000  1.0  0.0805
  H  H61  1  0.973900  0.998800  0.542700  1.0  0.0776
  H  H62  1  0.020500  0.912500  0.561600  1.0  0.0903
  H  H63  1  0.870700  0.859900  0.609800  1.0  0.0851
  H  H64  1  0.909600  0.913500  0.643800  1.0  0.0811
  H  H65  1  0.807200  0.021000  0.574700  1.0  0.1004
  H  H66  1  0.785300  0.887800  0.706300  1.0  0.0987
  H  H67  1  0.479900  0.856100  0.884300  1.0  0.1049
  H  H68  1  0.742300  0.821700  0.816400  1.0  0.1251
  H  H69  1  0.349100  0.949500  0.867400  1.0  0.1157
  H  H70  1  0.254300  0.951600  0.828500  1.0  0.1258
  H  H71  1  0.318500  0.872600  0.859500  1.0  0.1257
  H  H72  1  0.262500  0.937200  0.720700  1.0  0.1216
  H  H73  1  0.364800  0.928700  0.689300  1.0  0.1081
  H  H74  1  0.327800  0.858700  0.751400  1.0  0.1289
  H  H75  1  0.416400  0.059400  0.773600  1.0  0.1266
  H  H76  1  0.420200  0.055700  0.704100  1.0  0.1177
  H  H77  1  0.318900  0.064500  0.736400  1.0  0.1241
  H  H78  1  0.033000  0.267300  0.053800  1.0  0.1261
  H  H79  1  0.275100  0.206400  0.974700  1.0  0.1117
  H  H80  1  0.347400  0.241800  0.874400  1.0  0.1129
  H  H81  1  0.341800  0.150600  0.915300  1.0  0.1164
  H  H82  1  0.356300  0.182300  0.839200  1.0  0.1198
  H  H83  1  0.196600  0.078000  0.909700  1.0  0.1234
  H  H84  1  0.111600  0.122300  0.861200  1.0  0.1179
  H  H85  1  0.214500  0.106400  0.834100  1.0  0.1176
  H  H86  1  0.208300  0.316000  0.795400  1.0  0.1179
  H  H87  1  0.223900  0.253200  0.763700  1.0  0.117
  H  H88  1  0.120000  0.268100  0.790000  1.0  0.1155
  H  H89  1  0.880800  0.283300  0.005400  1.0  0.0988
  H  H90  1  0.713900  0.222600  0.970200  1.0  0.1002
  H  H91  1  0.732500  0.310200  0.019800  1.0  0.0857
  H  H92  1  0.722700  0.382200  0.952100  1.0  0.0779
  H  H93  1  0.572800  0.369900  0.003200  1.0  0.0844
  H  H94  1  0.573900  0.279500  0.016900  1.0  0.0922
  H  H95  1  0.467900  0.341500  0.935700  1.0  0.0959
  H  H96  1  0.543900  0.403800  0.896600  1.0  0.0863
  H  H97  1  0.551200  0.244300  0.911400  1.0  0.089
  H  H98  1  0.536200  0.318300  0.845200  1.0  0.087
  H  H99  1  0.694800  0.358300  0.853200  1.0  0.0984
  H  H100  1  0.612400  0.252100  0.795500  1.0  0.1059
  H  H101  1  0.799400  0.100500  0.651200  1.0  0.1173
  H  H102  1  0.587100  0.209600  0.714300  1.0  0.1227
  H  H103  1  0.006400  0.222600  0.647900  1.0  0.1253
  H  H104  1  0.017500  0.208600  0.721800  1.0  0.1119
  H  H105  1  0.091800  0.166200  0.689100  1.0  0.1225
  H  H106  1  0.979600  0.082700  0.806100  1.0  0.1166
  H  H107  1  0.953700  0.012400  0.786800  1.0  0.1161
  H  H108  1  0.059400  0.044500  0.773500  1.0  0.1213
  H  H109  1  0.961800  0.112500  0.617000  1.0  0.114
  H  H110  1  0.048200  0.060400  0.660300  1.0  0.1195
  H  H111  1  0.941600  0.029900  0.672200  1.0  0.1228
  H  H112  1  0.846200  0.145600  0.271100  1.0  0.1437
  H  H113  1  0.134900  0.096000  0.306600  1.0  0.1133
  H  H114  1  0.297600  0.943900  0.360300  1.0  0.1069
  H  H115  1  0.257100  0.022400  0.305100  1.0  0.1111
  H  H116  1  0.228600  0.003900  0.378400  1.0  0.1189
  H  H117  1  0.188500  0.837200  0.418700  1.0  0.1201
  H  H118  1  0.120700  0.897200  0.437500  1.0  0.1153
  H  H119  1  0.076500  0.847300  0.402200  1.0  0.1172
  H  H120  1  0.236200  0.864200  0.305600  1.0  0.11
  H  H121  1  0.126200  0.874000  0.284500  1.0  0.1145
  H  H122  1  0.197700  0.941700  0.248500  1.0  0.1214
  H  H123  1  0.743100  0.047700  0.279900  1.0  0.1043
  H  H124  1  0.645600  0.887100  0.352500  1.0  0.1061
  H  H125  1  0.598600  0.016700  0.234700  1.0  0.0824
  H  H126  1  0.592200  0.021000  0.304300  1.0  0.0848
  H  H127  1  0.439300  0.997100  0.274500  1.0  0.0863
  H  H128  1  0.476100  0.926800  0.337800  1.0  0.1031
  H  H129  1  0.408600  0.875300  0.271600  1.0  0.0879
  H  H130  1  0.474900  0.924800  0.212400  1.0  0.0813
  H  H131  1  0.547600  0.796400  0.255900  1.0  0.1252
  H  H132  1  0.543900  0.795800  0.326900  1.0  0.0936
  H  H133  1  0.662200  0.893500  0.223800  1.0  0.1005
  H  H134  1  0.673800  0.722600  0.279200  1.0  0.1247
  H  H135  1  0.008400  0.525700  0.313700  1.0  0.1157
  H  H136  1  0.727500  0.592900  0.291700  1.0  0.1235
  H  H137  1  0.155500  0.570500  0.280500  1.0  0.122
  H  H138  1  0.230000  0.592700  0.322400  1.0  0.1124
  H  H139  1  0.147100  0.534600  0.357000  1.0  0.1213
  H  H140  1  0.069100  0.708900  0.379700  1.0  0.1146
  H  H141  1  0.096700  0.618400  0.416900  1.0  0.1207
  H  H142  1  0.178400  0.677200  0.381200  1.0  0.1215
  H  H143  1  0.110100  0.708000  0.217800  1.0  0.1182
  H  H144  1  0.079500  0.766200  0.252200  1.0  0.1197
  H  H145  1  0.187900  0.731800  0.256500  1.0  0.1254
  H  H146  1  0.163600  0.437900  0.014200  1.0  0.1085
  H  H147  1  0.881600  0.467600  0.053900  1.0  0.1253
  H  H148  1  0.200600  0.607200  0.868400  1.0  0.1287
  H  H149  1  0.246900  0.580000  0.814500  1.0  0.1176
  H  H150  1  0.134600  0.603700  0.813100  1.0  0.1164
  H  H151  1  0.090000  0.463000  0.816300  1.0  0.1123
  H  H152  1  0.203500  0.449900  0.809400  1.0  0.1193
  H  H153  1  0.145800  0.388900  0.867600  1.0  0.1155
  H  H154  1  0.284900  0.483800  0.946300  1.0  0.113
  H  H155  1  0.263500  0.401800  0.944000  1.0  0.1153
  H  H156  1  0.319800  0.464200  0.886000  1.0  0.1295
  H  H157  1  0.765600  0.519800  0.973600  1.0  0.1179
  H  H158  1  0.645700  0.530700  0.851800  1.0  0.0963
  H  H159  1  0.611200  0.511900  0.960300  1.0  0.0945
  H  H160  1  0.625400  0.602100  0.944000  1.0  0.0826
  H  H161  1  0.455200  0.582600  0.940200  1.0  0.0851
  H  H162  1  0.476000  0.545100  0.888000  1.0  0.0798
  H  H163  1  0.418900  0.673700  0.836600  1.0  0.0944
  H  H164  1  0.501700  0.703000  0.868000  1.0  0.0818
  H  H165  1  0.550400  0.728400  0.759100  1.0  0.0865
  H  H166  1  0.534400  0.640200  0.768500  1.0  0.0887
  H  H167  1  0.680000  0.689100  0.831200  1.0  0.0975
  H  H168  1  0.660400  0.717100  0.689200  1.0  0.0999
  H  H169  1  0.955500  0.713600  0.509900  1.0  0.129
  H  H170  1  0.691600  0.751100  0.577900  1.0  0.1197
  H  H171  1  0.026600  0.533000  0.694800  1.0  0.1134
  H  H172  1  0.029500  0.525200  0.626900  1.0  0.1302
  H  H173  1  0.127500  0.526600  0.661300  1.0  0.1216
  H  H174  1  0.113700  0.729800  0.632800  1.0  0.1238
  H  H175  1  0.082400  0.661000  0.697600  1.0  0.1107
  H  H176  1  0.179100  0.651100  0.661000  1.0  0.1207
  H  H177  1  0.111700  0.719600  0.528500  1.0  0.1187
  H  H178  1  0.177500  0.641000  0.556100  1.0  0.1203
  H  H179  1  0.076800  0.642100  0.523500  1.0  0.1272
  H  H180  1  0.156500  0.380100  0.411700  1.0  0.1063
  H  H181  1  0.398000  0.315500  0.336600  1.0  0.1204
  H  H182  1  0.078300  0.409800  0.549300  1.0  0.1129
  H  H183  1  0.093300  0.440500  0.473300  1.0  0.1177
  H  H184  1  0.082300  0.349900  0.514400  1.0  0.1114
  H  H185  1  0.325700  0.456400  0.531600  1.0  0.1214
  H  H186  1  0.240100  0.503900  0.484700  1.0  0.1232
  H  H187  1  0.223800  0.470700  0.560700  1.0  0.1214
  H  H188  1  0.306800  0.309500  0.597400  1.0  0.1175
  H  H189  1  0.205500  0.332400  0.622100  1.0  0.1105
  H  H190  1  0.211200  0.272100  0.587500  1.0  0.1232
  H  H191  1  0.547700  0.289400  0.388300  1.0  0.0868
  H  H192  1  0.691100  0.218000  0.503200  1.0  0.0942
  H  H193  1  0.686400  0.217100  0.398800  1.0  0.0871
  H  H194  1  0.729200  0.301600  0.369200  1.0  0.0954
  H  H195  1  0.832100  0.163800  0.456900  1.0  0.0847
  H  H196  1  0.857800  0.206000  0.382200  1.0  0.0885
  H  H197  1  0.965500  0.243600  0.446000  1.0  0.0991
  H  H198  1  0.905400  0.318200  0.398300  1.0  0.0907
  H  H199  1  0.899600  0.324000  0.503700  1.0  0.104
  H  H200  1  0.860500  0.238200  0.535100  1.0  0.0879
  H  H201  1  0.755200  0.372300  0.445900  1.0  0.1015
  H  H202  1  0.821900  0.345400  0.577200  1.0  0.1281
  H  H203  1  0.635100  0.474200  0.744100  1.0  0.1147
  H  H204  1  0.848400  0.373400  0.669100  1.0  0.1281
  H  H205  1  0.342700  0.412900  0.702100  1.0  0.1195
  H  H206  1  0.417500  0.367300  0.672500  1.0  0.1191
  H  H207  1  0.429100  0.359900  0.744800  1.0  0.1239
  H  H208  1  0.381100  0.547400  0.610300  1.0  0.1222
  H  H209  1  0.489500  0.573800  0.599100  1.0  0.1269
  H  H210  1  0.457600  0.506800  0.577600  1.0  0.1199
  H  H211  1  0.395300  0.526200  0.726100  1.0  0.1222
  H  H212  1  0.481100  0.471900  0.768500  1.0  0.1194
  H  H213  1  0.503300  0.553300  0.712200  1.0  0.1265
  C  C214  1  0.431800  0.366100  0.120600  1.0  0.7306
  C  C215  1  0.443300  0.446900  0.106000  1.0  -0.0062
  C  C216  1  0.365400  0.501700  0.089400  1.0  -0.1034
  C  C217  1  0.371300  0.582700  0.073400  1.0  0.0215
  C  C218  1  0.466200  0.608800  0.081300  1.0  0.2681
  C  C219  1  0.548400  0.551800  0.099200  1.0  -0.1187
  C  C220  1  0.533100  0.475100  0.109000  1.0  -0.1103
  C  C221  1  0.285300  0.642600  0.050000  1.0  0.1929
  C  C222  1  0.260900  0.673800  0.103500  1.0  -0.3722
  C  C223  1  0.305000  0.712100  0.985600  1.0  -0.3746
  C  C224  1  0.191300  0.607600  0.037900  1.0  -0.376
  C  C225  1  0.643100  0.572900  0.108800  1.0  0.0248
  C  C226  1  0.771400  0.654600  0.118100  1.0  0.0236
  C  C227  1  0.851600  0.601400  0.108700  1.0  -0.1489
  C  C228  1  0.952700  0.620600  0.125000  1.0  -0.0978
  C  C229  1  0.970700  0.707700  0.094400  1.0  -0.1
  C  C230  1  0.886100  0.760600  0.103900  1.0  -0.1391
  C  C231  1  0.790600  0.740800  0.082700  1.0  0.0504
  C  C232  1  0.703900  0.855300  0.091700  1.0  0.1153
  C  C233  1  0.588500  0.109400  0.098000  1.0  0.6963
  C  C234  1  0.621500  0.907600  0.089500  1.0  -0.0094
  C  C235  1  0.525100  0.891600  0.082800  1.0  0.2309
  C  C236  1  0.449700  0.947200  0.079600  1.0  -0.0197
  C  C237  1  0.470600  0.018700  0.083100  1.0  -0.0984
  C  C238  1  0.567000  0.034800  0.089800  1.0  -0.1503
  C  C239  1  0.642400  0.979200  0.093000  1.0  -0.1082
  C  C240  1  0.339000  0.928900  0.075900  1.0  0.1674
  C  C241  1  0.308000  0.857400  0.133400  1.0  -0.3823
  C  C242  1  0.323900  0.913600  0.012500  1.0  -0.3711
  C  C243  1  0.267400  0.000500  0.071100  1.0  -0.3588
  C  C244  1  0.386500  0.167000  0.276800  1.0  0.6752
  C  C245  1  0.408400  0.137800  0.346900  1.0  -0.0898
  C  C246  1  0.332500  0.131800  0.394600  1.0  -0.1094
  C  C247  1  0.349300  0.098200  0.461300  1.0  0.0244
  C  C248  1  0.449600  0.070700  0.482200  1.0  0.3177
  C  C249  1  0.520900  0.080000  0.435100  1.0  0.0262
  C  C250  1  0.500500  0.112900  0.369400  1.0  -0.1716
  C  C251  1  0.263400  0.092800  0.509400  1.0  0.2216
  C  C252  1  0.287100  0.128300  0.555600  1.0  -0.3578
  C  C253  1  0.169800  0.128200  0.473200  1.0  -0.3551
  C  C254  1  0.252800  0.002500  0.548900  1.0  -0.3512
  C  C255  1  0.617500  0.046800  0.453500  1.0  0.0703
  C  C256  1  0.751400  0.962000  0.523400  1.0  0.0277
  C  C257  1  0.825300  0.989000  0.466300  1.0  -0.1625
  C  C258  1  0.921400  0.942900  0.486800  1.0  -0.1474
  C  C259  1  0.960100  0.944900  0.549400  1.0  -0.1196
  C  C260  1  0.884400  0.913900  0.603200  1.0  -0.1457
  C  C261  1  0.790500  0.966300  0.584700  1.0  0.0476
  C  C262  1  0.722000  0.908200  0.693500  1.0  0.0847
  C  C263  1  0.649200  0.892600  0.744200  1.0  -0.0713
  C  C264  1  0.551200  0.928000  0.732900  1.0  0.2595
  C  C265  1  0.485300  0.913900  0.786800  1.0  0.0099
  C  C266  1  0.522000  0.866200  0.848500  1.0  -0.0893
  C  C267  1  0.615600  0.833400  0.859800  1.0  -0.073
  C  C268  1  0.679200  0.845000  0.808800  1.0  -0.1175
  C  C269  1  0.647400  0.783000  0.929000  1.0  0.7212
  C  C270  1  0.379900  0.951200  0.776000  1.0  0.0947
  C  C271  1  0.320000  0.929200  0.838600  1.0  -0.366
  C  C272  1  0.328600  0.915300  0.729700  1.0  -0.356
  C  C273  1  0.384300  0.041000  0.744600  1.0  -0.3429
  C  C274  1  0.221400  0.229100  0.082600  1.0  0.6888
  C  C275  1  0.161100  0.234100  0.024700  1.0  -0.1285
  C  C276  1  0.063800  0.252900  0.021800  1.0  -0.0679
  C  C277  1  0.008300  0.250300  0.968300  1.0  -0.0765
  C  C278  1  0.054400  0.231300  0.919500  1.0  0.3311
  C  C279  1  0.156200  0.215800  0.921100  1.0  0.0197
  C  C280  1  0.207700  0.217100  0.973200  1.0  -0.1316
  C  C281  1  0.214700  0.200000  0.865800  1.0  0.129
  C  C282  1  0.325300  0.193000  0.874500  1.0  -0.3583
  C  C283  1  0.181100  0.118800  0.867900  1.0  -0.3581
  C  C284  1  0.189300  0.265700  0.797100  1.0  -0.3607
  C  C285  1  0.904100  0.270100  0.970900  1.0  0.0617
  C  C286  1  0.733800  0.276100  0.943100  1.0  0.0366
  C  C287  1  0.702000  0.329000  0.977200  1.0  -0.1725
  C  C288  1  0.592200  0.330600  0.985300  1.0  -0.1183
  C  C289  1  0.536900  0.348600  0.924700  1.0  -0.1136
  C  C290  1  0.568600  0.298700  0.887300  1.0  -0.1346
  C  C291  1  0.681400  0.302400  0.877300  1.0  0.0459
  C  C292  1  0.679500  0.239600  0.797800  1.0  0.1061
  C  C293  1  0.718300  0.202900  0.756000  1.0  -0.015
  C  C294  1  0.820500  0.184000  0.754600  1.0  0.4018
  C  C295  1  0.854500  0.143200  0.710900  1.0  -0.0064
  C  C296  1  0.781900  0.131600  0.674900  1.0  -0.1333
  C  C297  1  0.682700  0.161400  0.669500  1.0  -0.0384
  C  C298  1  0.652700  0.193500  0.713100  1.0  -0.1077
  C  C299  1  0.613200  0.156900  0.619700  1.0  0.6796
  C  C300  1  0.960400  0.116000  0.709300  1.0  0.1702
  C  C301  1  0.024700  0.184400  0.690300  1.0  -0.3647
  C  C302  1  0.990900  0.058900  0.774600  1.0  -0.361
  C  C303  1  0.979800  0.075900  0.660000  1.0  -0.3652
  C  C304  1  0.007000  0.222500  0.269200  1.0  0.6601
  C  C305  1  0.993800  0.133100  0.284900  1.0  -0.1294
  C  C306  1  0.899900  0.109500  0.281900  1.0  -0.1017
  C  C307  1  0.889600  0.027800  0.296100  1.0  -0.0651
  C  C308  1  0.971200  0.974400  0.311500  1.0  0.2576
  C  C309  1  0.064600  0.998700  0.317600  1.0  0.0149
  C  C310  1  0.073600  0.078300  0.303500  1.0  -0.1172
  C  C311  1  0.154300  0.939300  0.339600  1.0  0.1952
  C  C312  1  0.242400  0.981200  0.346500  1.0  -0.3837
  C  C313  1  0.133100  0.874300  0.405600  1.0  -0.3691
  C  C314  1  0.181100  0.901200  0.289800  1.0  -0.3723
  C  C315  1  0.791600  0.007100  0.291900  1.0  0.0647
  C  C316  1  0.661700  0.917200  0.306400  1.0  0.0592
  C  C317  1  0.587100  0.986400  0.280900  1.0  -0.1439
  C  C318  1  0.487700  0.953500  0.291100  1.0  -0.1518
  C  C319  1  0.472600  0.897200  0.259500  1.0  -0.1195
  C  C320  1  0.553100  0.829000  0.281100  1.0  -0.181
  C  C321  1  0.653400  0.862500  0.270700  1.0  0.0552
  C  C322  1  0.733800  0.735500  0.289900  1.0  0.0985
  C  C323  1  0.813000  0.677100  0.301300  1.0  -0.0268
  C  C324  1  0.912100  0.693100  0.308300  1.0  0.1965
  C  C325  1  0.991100  0.633700  0.310700  1.0  0.0137
  C  C326  1  0.960100  0.565300  0.309200  1.0  -0.1051
  C  C327  1  0.864100  0.547300  0.301700  1.0  -0.1263
  C  C328  1  0.791900  0.602800  0.297300  1.0  -0.1108
  C  C329  1  0.839400  0.473000  0.292000  1.0  0.6844
  C  C330  1  0.094800  0.651100  0.316800  1.0  0.2252
  C  C331  1  0.163300  0.580600  0.319400  1.0  -0.3723
  C  C332  1  0.111300  0.665200  0.379500  1.0  -0.3519
  C  C333  1  0.120400  0.720600  0.255200  1.0  -0.3714
  C  C334  1  0.048800  0.418400  0.117000  1.0  0.6723
  C  C335  1  0.026100  0.448300  0.044200  1.0  -0.1217
  C  C336  1  0.100300  0.454500  0.998800  1.0  -0.1239
  C  C337  1  0.086200  0.483900  0.932100  1.0  0.0216
  C  C338  1  0.990300  0.508600  0.909400  1.0  0.2931
  C  C339  1  0.910100  0.502400  0.955600  1.0  -0.0583
  C  C340  1  0.931600  0.471800  0.023500  1.0  -0.0904
  C  C341  1  0.168400  0.493400  0.883300  1.0  0.1424
  C  C342  1  0.189600  0.579000  0.840900  1.0  -0.356
  C  C343  1  0.150100  0.443900  0.839800  1.0  -0.3555
  C  C344  1  0.269000  0.457200  0.918300  1.0  -0.3341
  C  C345  1  0.809700  0.525200  0.939500  1.0  0.0295
  C  C346  1  0.668100  0.569200  0.868500  1.0  0.019
  C  C347  1  0.604900  0.564600  0.926300  1.0  -0.2121
  C  C348  1  0.496900  0.584400  0.903600  1.0  -0.1455
  C  C349  1  0.486600  0.663700  0.850800  1.0  -0.136
  C  C350  1  0.554700  0.673800  0.790100  1.0  -0.1656
  C  C351  1  0.659100  0.650500  0.814200  1.0  0.036
  C  C352  1  0.719700  0.687900  0.701400  1.0  0.1072
  C  C353  1  0.787800  0.692000  0.649900  1.0  -0.0688
  C  C354  1  0.885100  0.662600  0.660600  1.0  0.2068
  C  C355  1  0.950000  0.670500  0.606000  1.0  -0.0092
  C  C356  1  0.914500  0.708900  0.545300  1.0  -0.1276
  C  C357  1  0.816000  0.743300  0.532300  1.0  -0.0209
  C  C358  1  0.756500  0.731700  0.585100  1.0  -0.1024
  C  C359  1  0.779500  0.787700  0.464700  1.0  0.7196
  C  C360  1  0.058900  0.640400  0.618000  1.0  0.2212
  C  C361  1  0.060800  0.547100  0.653700  1.0  -0.3541
  C  C362  1  0.113000  0.673300  0.655400  1.0  -0.3582
  C  C363  1  0.111300  0.662900  0.550000  1.0  -0.3346
  C  C364  1  0.213800  0.359800  0.304600  1.0  0.6883
  C  C365  1  0.268400  0.354300  0.362500  1.0  -0.1709
  C  C366  1  0.223700  0.368100  0.414100  1.0  -0.0534
  C  C367  1  0.271600  0.365300  0.469400  1.0  0.0067
  C  C368  1  0.377300  0.348400  0.471100  1.0  0.2499
  C  C369  1  0.423700  0.327300  0.421600  1.0  -0.0978
  C  C370  1  0.368000  0.330200  0.368700  1.0  -0.0867
  C  C371  1  0.222600  0.385800  0.523800  1.0  0.1807
  C  C372  1  0.107900  0.397700  0.514300  1.0  -0.36
  C  C373  1  0.256000  0.460900  0.525400  1.0  -0.3575
  C  C374  1  0.237900  0.319000  0.588400  1.0  -0.3521
  C  C375  1  0.525100  0.304800  0.421800  1.0  0.1159
  C  C376  1  0.689500  0.269000  0.465900  1.0  0.0308
  C  C377  1  0.728900  0.252400  0.407500  1.0  -0.1288
  C  C378  1  0.833000  0.214700  0.420400  1.0  -0.1324
  C  C379  1  0.900300  0.268900  0.436100  1.0  -0.0952
  C  C380  1  0.858900  0.286800  0.496100  1.0  -0.1742
  C  C381  1  0.754100  0.321200  0.483200  1.0  0.0536
  C  C382  1  0.754000  0.351300  0.579500  1.0  0.108
  C  C383  1  0.820100  0.429700  0.763500  1.0  0.6708
  C  C384  1  0.715400  0.378700  0.629700  1.0  -0.0826
  C  C385  1  0.617600  0.403300  0.631700  1.0  0.2321
  C  C386  1  0.587600  0.439100  0.674600  1.0  -0.0034
  C  C387  1  0.655300  0.450300  0.715400  1.0  -0.1742
  C  C388  1  0.753000  0.425700  0.713300  1.0  -0.0982
  C  C389  1  0.783100  0.389900  0.670500  1.0  -0.1034
  C  C390  1  0.476000  0.467500  0.677100  1.0  0.1718
  C  C391  1  0.410000  0.395000  0.701400  1.0  -0.3545
  C  C392  1  0.448500  0.529600  0.609800  1.0  -0.3577
  C  C393  1  0.462700  0.508600  0.725500  1.0  -0.3417
  N  N394  1  0.670800  0.644200  0.098900  1.0  -0.3572
  N  N395  1  0.701500  0.787000  0.087200  1.0  -0.3169
  N  N396  1  0.655300  0.008200  0.511600  1.0  -0.3413
  N  N397  1  0.708500  0.947300  0.632800  1.0  -0.3383
  N  N398  1  0.841700  0.270500  0.927700  1.0  -0.3089
  N  N399  1  0.730500  0.257900  0.840300  1.0  -0.2708
  N  N400  1  0.765200  0.936700  0.303300  1.0  -0.3373
  N  N401  1  0.737100  0.803100  0.293000  1.0  -0.3272
  N  N402  1  0.777500  0.551800  0.882800  1.0  -0.3477
  N  N403  1  0.732500  0.648100  0.762200  1.0  -0.3491
  N  N404  1  0.587100  0.303700  0.462800  1.0  -0.2743
  N  N405  1  0.706900  0.334900  0.539300  1.0  -0.3389
  O  O406  1  0.347700  0.337500  0.129600  1.0  -0.6822
  O  O407  1  0.505300  0.319100  0.123000  1.0  -0.5917
  O  O408  1  0.472600  0.682400  0.074600  1.0  -0.5932
  O  O409  1  0.503100  0.822000  0.079600  1.0  -0.5991
  O  O410  1  0.299600  0.188000  0.256800  1.0  -0.6834
  O  O411  1  0.455000  0.169300  0.237100  1.0  -0.5824
  O  O412  1  0.465300  0.036600  0.545200  1.0  -0.599
  O  O413  1  0.521000  0.969700  0.675100  1.0  -0.5961
  O  O414  1  0.592200  0.785800  0.973900  1.0  -0.632
  O  O415  1  0.723100  0.743900  0.936600  1.0  -0.5584
  O  O416  1  0.176800  0.243800  0.126700  1.0  -0.5937
  O  O417  1  0.308500  0.207400  0.082800  1.0  -0.5856
  O  O418  1  0.005000  0.224500  0.872200  1.0  -0.6064
  O  O419  1  0.884200  0.201200  0.786500  1.0  -0.5889
  O  O420  1  0.549600  0.211200  0.600700  1.0  -0.6156
  O  O421  1  0.630400  0.106200  0.594100  1.0  -0.6074
  O  O422  1  0.089600  0.247900  0.257500  1.0  -0.6184
  O  O423  1  0.932300  0.264100  0.269800  1.0  -0.5651
  O  O424  1  0.960500  0.898700  0.322500  1.0  -0.614
  O  O425  1  0.933300  0.758400  0.310400  1.0  -0.5807
  O  O426  1  0.911000  0.431500  0.287900  1.0  -0.6394
  O  O427  1  0.756500  0.460400  0.285400  1.0  -0.5065
  O  O428  1  0.975700  0.417300  0.153400  1.0  -0.5752
  O  O429  1  0.135000  0.398900  0.134300  1.0  -0.6154
  O  O430  1  0.971500  0.538300  0.846300  1.0  -0.5941
  O  O431  1  0.921500  0.624400  0.721800  1.0  -0.5687
  O  O432  1  0.835500  0.784000  0.419600  1.0  -0.6376
  O  O433  1  0.700200  0.826800  0.455700  1.0  -0.5654
  O  O434  1  0.121600  0.380100  0.304500  1.0  -0.5993
  O  O435  1  0.258800  0.344200  0.260600  1.0  -0.5995
  O  O436  1  0.429200  0.351800  0.519300  1.0  -0.601
  O  O437  1  0.549600  0.387300  0.595700  1.0  -0.5975
  O  O438  1  0.887000  0.372100  0.789000  1.0  -0.6308
  O  O439  1  0.802800  0.485500  0.782500  1.0  -0.6338
  O  O440  1  0.518500  0.152700  0.103500  1.0  -0.6414
  O  O441  1  0.673700  0.126600  0.096700  1.0  -0.527
