# generated using pymatgen
data_ZnCo2H6C18O13
_symmetry_space_group_name_H-M   'P 1'
_cell_length_a   20.46100000
_cell_length_b   20.46100000
_cell_length_c   17.82790000
_cell_angle_alpha   90.00000000
_cell_angle_beta   90.00000000
_cell_angle_gamma   90.00000000
_symmetry_Int_Tables_number   1
_chemical_formula_structural   ZnCo2H6C18O13
_chemical_formula_sum   'Zn8 Co16 H48 C144 O104'
_cell_volume   7463.69527914
_cell_formula_units_Z   8
loop_
 _symmetry_equiv_pos_site_id
 _symmetry_equiv_pos_as_xyz
  1  'x, y, z'
loop_
 _atom_site_type_symbol
 _atom_site_label
 _atom_site_symmetry_multiplicity
 _atom_site_fract_x
 _atom_site_fract_y
 _atom_site_fract_z
 _atom_site_occupancy
 _atom_site_charge
  Zn  Zn1  1  0.344100  0.155900  0.504500  1.0  1.0868
  Zn  Zn2  1  0.655900  0.844100  0.504500  1.0  1.0878
  Zn  Zn3  1  0.155900  0.344100  0.004500  1.0  1.0878
  Zn  Zn4  1  0.844100  0.344100  0.504500  1.0  1.0862
  Zn  Zn5  1  0.155900  0.655900  0.504500  1.0  1.0883
  Zn  Zn6  1  0.344100  0.844100  0.004500  1.0  1.0862
  Zn  Zn7  1  0.655900  0.155900  0.004500  1.0  1.0883
  Zn  Zn8  1  0.844100  0.655900  0.004500  1.0  1.0868
  Co  Co9  1  0.257750  0.118940  0.650660  1.0  1.0821
  Co  Co10  1  0.757750  0.618940  0.150660  1.0  1.0821
  Co  Co11  1  0.742250  0.881060  0.650660  1.0  1.0787
  Co  Co12  1  0.242250  0.381060  0.150660  1.0  1.0787
  Co  Co13  1  0.881060  0.257750  0.650660  1.0  1.0783
  Co  Co14  1  0.381060  0.757750  0.150660  1.0  1.0783
  Co  Co15  1  0.118940  0.742250  0.650660  1.0  1.0815
  Co  Co16  1  0.618940  0.242250  0.150660  1.0  1.0815
  Co  Co17  1  0.257750  0.881060  0.150660  1.0  1.0821
  Co  Co18  1  0.757750  0.381060  0.650660  1.0  1.0821
  Co  Co19  1  0.742250  0.118940  0.150660  1.0  1.0788
  Co  Co20  1  0.242250  0.618940  0.650660  1.0  1.0788
  Co  Co21  1  0.881060  0.742250  0.150660  1.0  1.078
  Co  Co22  1  0.381060  0.242250  0.650660  1.0  1.078
  Co  Co23  1  0.118940  0.257750  0.150660  1.0  1.082
  Co  Co24  1  0.618940  0.757750  0.650660  1.0  1.082
  H  H25  1  0.213400  0.179700  0.885600  1.0  0.1222
  H  H26  1  0.228900  0.086200  0.082200  1.0  0.1273
  H  H27  1  0.307900  0.009000  0.896100  1.0  0.1218
  H  H28  1  0.713400  0.679700  0.385600  1.0  0.1222
  H  H29  1  0.728900  0.586200  0.582200  1.0  0.1273
  H  H30  1  0.807900  0.509000  0.396100  1.0  0.1218
  H  H31  1  0.786600  0.820300  0.885600  1.0  0.1214
  H  H32  1  0.771100  0.913800  0.082200  1.0  0.1268
  H  H33  1  0.692100  0.991000  0.896100  1.0  0.122
  H  H34  1  0.286600  0.320300  0.385600  1.0  0.1214
  H  H35  1  0.271100  0.413800  0.582200  1.0  0.1268
  H  H36  1  0.192100  0.491000  0.396100  1.0  0.122
  H  H37  1  0.820300  0.213400  0.885600  1.0  0.1221
  H  H38  1  0.913800  0.228900  0.082200  1.0  0.1271
  H  H39  1  0.991000  0.307900  0.896100  1.0  0.1217
  H  H40  1  0.320300  0.713400  0.385600  1.0  0.1221
  H  H41  1  0.413800  0.728900  0.582200  1.0  0.1271
  H  H42  1  0.491000  0.807900  0.396100  1.0  0.1217
  H  H43  1  0.179700  0.786600  0.885600  1.0  0.1225
  H  H44  1  0.086200  0.771100  0.082200  1.0  0.1268
  H  H45  1  0.009000  0.692100  0.896100  1.0  0.1218
  H  H46  1  0.679700  0.286600  0.385600  1.0  0.1225
  H  H47  1  0.586200  0.271100  0.582200  1.0  0.1268
  H  H48  1  0.509000  0.192100  0.396100  1.0  0.1218
  H  H49  1  0.213400  0.820300  0.385600  1.0  0.1214
  H  H50  1  0.228900  0.913800  0.582200  1.0  0.1271
  H  H51  1  0.307900  0.991000  0.396100  1.0  0.1219
  H  H52  1  0.713400  0.320300  0.885600  1.0  0.1214
  H  H53  1  0.728900  0.413800  0.082200  1.0  0.1271
  H  H54  1  0.807900  0.491000  0.896100  1.0  0.1219
  H  H55  1  0.786600  0.179700  0.385600  1.0  0.1216
  H  H56  1  0.771100  0.086200  0.582200  1.0  0.1268
  H  H57  1  0.692100  0.009000  0.396100  1.0  0.1216
  H  H58  1  0.286600  0.679700  0.885600  1.0  0.1216
  H  H59  1  0.271100  0.586200  0.082200  1.0  0.1268
  H  H60  1  0.192100  0.509000  0.896100  1.0  0.1216
  H  H61  1  0.820300  0.786600  0.385600  1.0  0.1228
  H  H62  1  0.913800  0.771100  0.582200  1.0  0.1268
  H  H63  1  0.991000  0.692100  0.396100  1.0  0.1216
  H  H64  1  0.320300  0.286600  0.885600  1.0  0.1228
  H  H65  1  0.413800  0.271100  0.082200  1.0  0.1268
  H  H66  1  0.491000  0.192100  0.896100  1.0  0.1216
  H  H67  1  0.179700  0.213400  0.385600  1.0  0.122
  H  H68  1  0.086200  0.228900  0.582200  1.0  0.1272
  H  H69  1  0.009000  0.307900  0.396100  1.0  0.1219
  H  H70  1  0.679700  0.713400  0.885600  1.0  0.122
  H  H71  1  0.586200  0.728900  0.082200  1.0  0.1272
  H  H72  1  0.509000  0.807900  0.896100  1.0  0.1219
  C  C73  1  0.271440  0.094000  0.794310  1.0  0.7211
  C  C74  1  0.262240  0.094210  0.878180  1.0  -0.1392
  C  C75  1  0.228040  0.144160  0.913520  1.0  0.0261
  C  C76  1  0.215580  0.141620  0.989560  1.0  -0.1556
  C  C77  1  0.237400  0.088300  0.031010  1.0  0.0321
  C  C78  1  0.271590  0.038560  0.996510  1.0  -0.1217
  C  C79  1  0.284320  0.042140  0.919460  1.0  0.03
  C  C80  1  0.180780  0.197400  0.027710  1.0  0.7318
  C  C81  1  0.291500  0.977180  0.038880  1.0  0.7399
  C  C82  1  0.771440  0.594000  0.294310  1.0  0.7211
  C  C83  1  0.762240  0.594210  0.378180  1.0  -0.1392
  C  C84  1  0.728040  0.644160  0.413520  1.0  0.0261
  C  C85  1  0.715580  0.641620  0.489560  1.0  -0.1556
  C  C86  1  0.737400  0.588300  0.531010  1.0  0.0321
  C  C87  1  0.771590  0.538560  0.496510  1.0  -0.1217
  C  C88  1  0.784320  0.542140  0.419460  1.0  0.03
  C  C89  1  0.680780  0.697400  0.527710  1.0  0.7318
  C  C90  1  0.791500  0.477180  0.538880  1.0  0.7399
  C  C91  1  0.728560  0.906000  0.794310  1.0  0.7216
  C  C92  1  0.737760  0.905790  0.878180  1.0  -0.139
  C  C93  1  0.771960  0.855840  0.913520  1.0  0.0279
  C  C94  1  0.784420  0.858380  0.989560  1.0  -0.1547
  C  C95  1  0.762600  0.911700  0.031010  1.0  0.0339
  C  C96  1  0.728410  0.961440  0.996510  1.0  -0.1213
  C  C97  1  0.715680  0.957860  0.919460  1.0  0.0294
  C  C98  1  0.819220  0.802600  0.027710  1.0  0.7313
  C  C99  1  0.708500  0.022820  0.038880  1.0  0.7402
  C  C100  1  0.228560  0.406000  0.294310  1.0  0.7216
  C  C101  1  0.237760  0.405790  0.378180  1.0  -0.139
  C  C102  1  0.271960  0.355840  0.413520  1.0  0.0279
  C  C103  1  0.284420  0.358380  0.489560  1.0  -0.1547
  C  C104  1  0.262600  0.411700  0.531010  1.0  0.0339
  C  C105  1  0.228410  0.461440  0.496510  1.0  -0.1213
  C  C106  1  0.215680  0.457860  0.419460  1.0  0.0294
  C  C107  1  0.319220  0.302600  0.527710  1.0  0.7313
  C  C108  1  0.208500  0.522820  0.538880  1.0  0.7402
  C  C109  1  0.906000  0.271440  0.794310  1.0  0.7217
  C  C110  1  0.905790  0.262240  0.878180  1.0  -0.14
  C  C111  1  0.855840  0.228040  0.913520  1.0  0.0245
  C  C112  1  0.858380  0.215580  0.989560  1.0  -0.1555
  C  C113  1  0.911700  0.237400  0.031010  1.0  0.0335
  C  C114  1  0.961440  0.271590  0.996510  1.0  -0.1226
  C  C115  1  0.957860  0.284320  0.919460  1.0  0.0312
  C  C116  1  0.802600  0.180780  0.027710  1.0  0.7312
  C  C117  1  0.022820  0.291500  0.038880  1.0  0.7382
  C  C118  1  0.406000  0.771440  0.294310  1.0  0.7217
  C  C119  1  0.405790  0.762240  0.378180  1.0  -0.14
  C  C120  1  0.355840  0.728040  0.413520  1.0  0.0245
  C  C121  1  0.358380  0.715580  0.489560  1.0  -0.1555
  C  C122  1  0.411700  0.737400  0.531010  1.0  0.0335
  C  C123  1  0.461440  0.771590  0.496510  1.0  -0.1226
  C  C124  1  0.457860  0.784320  0.419460  1.0  0.0312
  C  C125  1  0.302600  0.680780  0.527710  1.0  0.7312
  C  C126  1  0.522820  0.791500  0.538880  1.0  0.7382
  C  C127  1  0.094000  0.728560  0.794310  1.0  0.7223
  C  C128  1  0.094210  0.737760  0.878180  1.0  -0.139
  C  C129  1  0.144160  0.771960  0.913520  1.0  0.0246
  C  C130  1  0.141620  0.784420  0.989560  1.0  -0.1544
  C  C131  1  0.088300  0.762600  0.031010  1.0  0.0329
  C  C132  1  0.038560  0.728410  0.996510  1.0  -0.1218
  C  C133  1  0.042140  0.715680  0.919460  1.0  0.0308
  C  C134  1  0.197400  0.819220  0.027710  1.0  0.7304
  C  C135  1  0.977180  0.708500  0.038880  1.0  0.7384
  C  C136  1  0.594000  0.228560  0.294310  1.0  0.7223
  C  C137  1  0.594210  0.237760  0.378180  1.0  -0.139
  C  C138  1  0.644160  0.271960  0.413520  1.0  0.0246
  C  C139  1  0.641620  0.284420  0.489560  1.0  -0.1544
  C  C140  1  0.588300  0.262600  0.531010  1.0  0.0329
  C  C141  1  0.538560  0.228410  0.496510  1.0  -0.1218
  C  C142  1  0.542140  0.215680  0.419460  1.0  0.0308
  C  C143  1  0.697400  0.319220  0.527710  1.0  0.7304
  C  C144  1  0.477180  0.208500  0.538880  1.0  0.7384
  C  C145  1  0.271440  0.906000  0.294310  1.0  0.7216
  C  C146  1  0.262240  0.905790  0.378180  1.0  -0.1387
  C  C147  1  0.228040  0.855840  0.413520  1.0  0.0273
  C  C148  1  0.215580  0.858380  0.489560  1.0  -0.1555
  C  C149  1  0.237400  0.911700  0.531010  1.0  0.0323
  C  C150  1  0.271590  0.961440  0.496510  1.0  -0.1218
  C  C151  1  0.284320  0.957860  0.419460  1.0  0.0304
  C  C152  1  0.180780  0.802600  0.527710  1.0  0.731
  C  C153  1  0.291500  0.022820  0.538880  1.0  0.7402
  C  C154  1  0.771440  0.406000  0.794310  1.0  0.7216
  C  C155  1  0.762240  0.405790  0.878180  1.0  -0.1387
  C  C156  1  0.728040  0.355840  0.913520  1.0  0.0273
  C  C157  1  0.715580  0.358380  0.989560  1.0  -0.1555
  C  C158  1  0.737400  0.411700  0.031010  1.0  0.0323
  C  C159  1  0.771590  0.461440  0.996510  1.0  -0.1218
  C  C160  1  0.784320  0.457860  0.919460  1.0  0.0304
  C  C161  1  0.680780  0.302600  0.027710  1.0  0.731
  C  C162  1  0.791500  0.522820  0.038880  1.0  0.7402
  C  C163  1  0.728560  0.094000  0.294310  1.0  0.7212
  C  C164  1  0.737760  0.094210  0.378180  1.0  -0.1398
  C  C165  1  0.771960  0.144160  0.413520  1.0  0.0261
  C  C166  1  0.784420  0.141620  0.489560  1.0  -0.1554
  C  C167  1  0.762600  0.088300  0.531010  1.0  0.0335
  C  C168  1  0.728410  0.038560  0.496510  1.0  -0.1214
  C  C169  1  0.715680  0.042140  0.419460  1.0  0.0295
  C  C170  1  0.819220  0.197400  0.527710  1.0  0.7319
  C  C171  1  0.708500  0.977180  0.538880  1.0  0.7401
  C  C172  1  0.228560  0.594000  0.794310  1.0  0.7212
  C  C173  1  0.237760  0.594210  0.878180  1.0  -0.1398
  C  C174  1  0.271960  0.644160  0.913520  1.0  0.0261
  C  C175  1  0.284420  0.641620  0.989560  1.0  -0.1554
  C  C176  1  0.262600  0.588300  0.031010  1.0  0.0335
  C  C177  1  0.228410  0.538560  0.996510  1.0  -0.1214
  C  C178  1  0.215680  0.542140  0.919460  1.0  0.0295
  C  C179  1  0.319220  0.697400  0.027710  1.0  0.7319
  C  C180  1  0.208500  0.477180  0.038880  1.0  0.7401
  C  C181  1  0.906000  0.728560  0.294310  1.0  0.7218
  C  C182  1  0.905790  0.737760  0.378180  1.0  -0.1399
  C  C183  1  0.855840  0.771960  0.413520  1.0  0.0248
  C  C184  1  0.858380  0.784420  0.489560  1.0  -0.1545
  C  C185  1  0.911700  0.762600  0.531010  1.0  0.0336
  C  C186  1  0.961440  0.728410  0.496510  1.0  -0.1224
  C  C187  1  0.957860  0.715680  0.419460  1.0  0.031
  C  C188  1  0.802600  0.819220  0.527710  1.0  0.7314
  C  C189  1  0.022820  0.708500  0.538880  1.0  0.7384
  C  C190  1  0.406000  0.228560  0.794310  1.0  0.7218
  C  C191  1  0.405790  0.237760  0.878180  1.0  -0.1399
  C  C192  1  0.355840  0.271960  0.913520  1.0  0.0248
  C  C193  1  0.358380  0.284420  0.989560  1.0  -0.1545
  C  C194  1  0.411700  0.262600  0.031010  1.0  0.0336
  C  C195  1  0.461440  0.228410  0.996510  1.0  -0.1224
  C  C196  1  0.457860  0.215680  0.919460  1.0  0.031
  C  C197  1  0.302600  0.319220  0.027710  1.0  0.7314
  C  C198  1  0.522820  0.208500  0.038880  1.0  0.7384
  C  C199  1  0.094000  0.271440  0.294310  1.0  0.7221
  C  C200  1  0.094210  0.262240  0.378180  1.0  -0.1391
  C  C201  1  0.144160  0.228040  0.413520  1.0  0.0239
  C  C202  1  0.141620  0.215580  0.489560  1.0  -0.1553
  C  C203  1  0.088300  0.237400  0.531010  1.0  0.0329
  C  C204  1  0.038560  0.271590  0.496510  1.0  -0.1216
  C  C205  1  0.042140  0.284320  0.419460  1.0  0.031
  C  C206  1  0.197400  0.180780  0.527710  1.0  0.7299
  C  C207  1  0.977180  0.291500  0.538880  1.0  0.7382
  C  C208  1  0.594000  0.771440  0.794310  1.0  0.7221
  C  C209  1  0.594210  0.762240  0.878180  1.0  -0.1391
  C  C210  1  0.644160  0.728040  0.913520  1.0  0.0239
  C  C211  1  0.641620  0.715580  0.989560  1.0  -0.1553
  C  C212  1  0.588300  0.737400  0.031010  1.0  0.0329
  C  C213  1  0.538560  0.771590  0.996510  1.0  -0.1216
  C  C214  1  0.542140  0.784320  0.919460  1.0  0.031
  C  C215  1  0.697400  0.680780  0.027710  1.0  0.7299
  C  C216  1  0.477180  0.791500  0.038880  1.0  0.7382
  O  O217  1  0.235790  0.129010  0.755740  1.0  -0.5726
  O  O218  1  0.312720  0.058400  0.766750  1.0  -0.5608
  O  O219  1  0.258670  0.965010  0.097710  1.0  -0.5651
  O  O220  1  0.338610  0.945420  0.012770  1.0  -0.5888
  O  O221  1  0.173020  0.192790  0.097100  1.0  -0.5846
  O  O222  1  0.160410  0.242980  0.988410  1.0  -0.6014
  O  O223  1  0.735790  0.629010  0.255740  1.0  -0.5726
  O  O224  1  0.812720  0.558400  0.266750  1.0  -0.5608
  O  O225  1  0.758670  0.465010  0.597710  1.0  -0.5651
  O  O226  1  0.838610  0.445420  0.512770  1.0  -0.5888
  O  O227  1  0.673020  0.692790  0.597100  1.0  -0.5846
  O  O228  1  0.660410  0.742980  0.488410  1.0  -0.6014
  O  O229  1  0.764210  0.870990  0.755740  1.0  -0.5728
  O  O230  1  0.687280  0.941600  0.766750  1.0  -0.5608
  O  O231  1  0.741330  0.034990  0.097710  1.0  -0.5643
  O  O232  1  0.661390  0.054580  0.012770  1.0  -0.5883
  O  O233  1  0.826980  0.807210  0.097100  1.0  -0.5826
  O  O234  1  0.839590  0.757020  0.988410  1.0  -0.6013
  O  O235  1  0.264210  0.370990  0.255740  1.0  -0.5728
  O  O236  1  0.187280  0.441600  0.266750  1.0  -0.5608
  O  O237  1  0.241330  0.534990  0.597710  1.0  -0.5643
  O  O238  1  0.161390  0.554580  0.512770  1.0  -0.5883
  O  O239  1  0.326980  0.307210  0.597100  1.0  -0.5826
  O  O240  1  0.339590  0.257020  0.488410  1.0  -0.6013
  O  O241  1  0.870990  0.235790  0.755740  1.0  -0.5695
  O  O242  1  0.941600  0.312720  0.766750  1.0  -0.5595
  O  O243  1  0.034990  0.258670  0.097710  1.0  -0.5628
  O  O244  1  0.054580  0.338610  0.012770  1.0  -0.588
  O  O245  1  0.807210  0.173020  0.097100  1.0  -0.5827
  O  O246  1  0.757020  0.160410  0.988410  1.0  -0.5993
  O  O247  1  0.370990  0.735790  0.255740  1.0  -0.5695
  O  O248  1  0.441600  0.812720  0.266750  1.0  -0.5595
  O  O249  1  0.534990  0.758670  0.597710  1.0  -0.5628
  O  O250  1  0.554580  0.838610  0.512770  1.0  -0.588
  O  O251  1  0.307210  0.673020  0.597100  1.0  -0.5827
  O  O252  1  0.257020  0.660410  0.488410  1.0  -0.5993
  O  O253  1  0.129010  0.764210  0.755740  1.0  -0.5719
  O  O254  1  0.058400  0.687280  0.766750  1.0  -0.5607
  O  O255  1  0.965010  0.741330  0.097710  1.0  -0.5625
  O  O256  1  0.945420  0.661390  0.012770  1.0  -0.5882
  O  O257  1  0.192790  0.826980  0.097100  1.0  -0.5837
  O  O258  1  0.242980  0.839590  0.988410  1.0  -0.6004
  O  O259  1  0.629010  0.264210  0.255740  1.0  -0.5719
  O  O260  1  0.558400  0.187280  0.266750  1.0  -0.5607
  O  O261  1  0.465010  0.241330  0.597710  1.0  -0.5625
  O  O262  1  0.445420  0.161390  0.512770  1.0  -0.5882
  O  O263  1  0.692790  0.326980  0.597100  1.0  -0.5837
  O  O264  1  0.742980  0.339590  0.488410  1.0  -0.6004
  O  O265  1  0.235790  0.870990  0.255740  1.0  -0.5719
  O  O266  1  0.312720  0.941600  0.266750  1.0  -0.5606
  O  O267  1  0.258670  0.034990  0.597710  1.0  -0.5641
  O  O268  1  0.338610  0.054580  0.512770  1.0  -0.5885
  O  O269  1  0.173020  0.807210  0.597100  1.0  -0.5837
  O  O270  1  0.160410  0.757020  0.488410  1.0  -0.6014
  O  O271  1  0.735790  0.370990  0.755740  1.0  -0.5719
  O  O272  1  0.812720  0.441600  0.766750  1.0  -0.5606
  O  O273  1  0.758670  0.534990  0.097710  1.0  -0.5641
  O  O274  1  0.838610  0.554580  0.012770  1.0  -0.5885
  O  O275  1  0.673020  0.307210  0.097100  1.0  -0.5837
  O  O276  1  0.660410  0.257020  0.988410  1.0  -0.6014
  O  O277  1  0.764210  0.129010  0.255740  1.0  -0.5735
  O  O278  1  0.687280  0.058400  0.266750  1.0  -0.5615
  O  O279  1  0.741330  0.965010  0.597710  1.0  -0.5657
  O  O280  1  0.661390  0.945420  0.512770  1.0  -0.5885
  O  O281  1  0.826980  0.192790  0.597100  1.0  -0.584
  O  O282  1  0.839590  0.242980  0.488410  1.0  -0.601
  O  O283  1  0.264210  0.629010  0.755740  1.0  -0.5735
  O  O284  1  0.187280  0.558400  0.766750  1.0  -0.5615
  O  O285  1  0.241330  0.465010  0.097710  1.0  -0.5657
  O  O286  1  0.161390  0.445420  0.012770  1.0  -0.5885
  O  O287  1  0.326980  0.692790  0.097100  1.0  -0.584
  O  O288  1  0.339590  0.742980  0.988410  1.0  -0.601
  O  O289  1  0.870990  0.764210  0.255740  1.0  -0.5706
  O  O290  1  0.941600  0.687280  0.266750  1.0  -0.5601
  O  O291  1  0.034990  0.741330  0.597710  1.0  -0.5637
  O  O292  1  0.054580  0.661390  0.512770  1.0  -0.5878
  O  O293  1  0.807210  0.826980  0.597100  1.0  -0.5831
  O  O294  1  0.757020  0.839590  0.488410  1.0  -0.6
  O  O295  1  0.370990  0.264210  0.755740  1.0  -0.5706
  O  O296  1  0.441600  0.187280  0.766750  1.0  -0.5601
  O  O297  1  0.534990  0.241330  0.097710  1.0  -0.5637
  O  O298  1  0.554580  0.161390  0.012770  1.0  -0.5878
  O  O299  1  0.307210  0.326980  0.097100  1.0  -0.5831
  O  O300  1  0.257020  0.339590  0.988410  1.0  -0.6
  O  O301  1  0.129010  0.235790  0.255740  1.0  -0.5699
  O  O302  1  0.058400  0.312720  0.266750  1.0  -0.5612
  O  O303  1  0.965010  0.258670  0.597710  1.0  -0.5618
  O  O304  1  0.945420  0.338610  0.512770  1.0  -0.5876
  O  O305  1  0.192790  0.173020  0.597100  1.0  -0.5831
  O  O306  1  0.242980  0.160410  0.488410  1.0  -0.5995
  O  O307  1  0.629010  0.735790  0.755740  1.0  -0.5699
  O  O308  1  0.558400  0.812720  0.766750  1.0  -0.5612
  O  O309  1  0.465010  0.758670  0.097710  1.0  -0.5618
  O  O310  1  0.445420  0.838610  0.012770  1.0  -0.5876
  O  O311  1  0.692790  0.673020  0.097100  1.0  -0.5831
  O  O312  1  0.742980  0.660410  0.988410  1.0  -0.5995
  O  O313  1  0.340760  0.159240  0.623750  1.0  -0.7828
  O  O314  1  0.659240  0.840760  0.623750  1.0  -0.7825
  O  O315  1  0.159240  0.340760  0.123750  1.0  -0.7825
  O  O316  1  0.840760  0.340760  0.623750  1.0  -0.7818
  O  O317  1  0.159240  0.659240  0.623750  1.0  -0.7834
  O  O318  1  0.340760  0.840760  0.123750  1.0  -0.7818
  O  O319  1  0.659240  0.159240  0.123750  1.0  -0.7834
  O  O320  1  0.840760  0.659240  0.123750  1.0  -0.7828
