# generated using pymatgen
data_Zn2CdH6C18O13
_symmetry_space_group_name_H-M   'P 1'
_cell_length_a   20.60130000
_cell_length_b   20.60130000
_cell_length_c   17.81830000
_cell_angle_alpha   90.00000000
_cell_angle_beta   90.00000000
_cell_angle_gamma   90.00000000
_symmetry_Int_Tables_number   1
_chemical_formula_structural   Zn2CdH6C18O13
_chemical_formula_sum   'Zn16 Cd8 H48 C144 O104'
_cell_volume   7562.32816626
_cell_formula_units_Z   8
loop_
 _symmetry_equiv_pos_site_id
 _symmetry_equiv_pos_as_xyz
  1  'x, y, z'
loop_
 _atom_site_type_symbol
 _atom_site_label
 _atom_site_symmetry_multiplicity
 _atom_site_fract_x
 _atom_site_fract_y
 _atom_site_fract_z
 _atom_site_occupancy
 _atom_site_charge
  Zn  Zn1  1  0.258390  0.118940  0.464890  1.0  1.0687
  Zn  Zn2  1  0.758390  0.618940  0.964890  1.0  1.0687
  Zn  Zn3  1  0.741610  0.881060  0.464890  1.0  1.0679
  Zn  Zn4  1  0.241610  0.381060  0.964890  1.0  1.0679
  Zn  Zn5  1  0.881060  0.258390  0.464890  1.0  1.0686
  Zn  Zn6  1  0.381060  0.758390  0.964890  1.0  1.0686
  Zn  Zn7  1  0.118940  0.741610  0.464890  1.0  1.0681
  Zn  Zn8  1  0.618940  0.241610  0.964890  1.0  1.0681
  Zn  Zn9  1  0.258390  0.881060  0.964890  1.0  1.0684
  Zn  Zn10  1  0.758390  0.381060  0.464890  1.0  1.0684
  Zn  Zn11  1  0.741610  0.118940  0.964890  1.0  1.0682
  Zn  Zn12  1  0.241610  0.618940  0.464890  1.0  1.0682
  Zn  Zn13  1  0.881060  0.741610  0.964890  1.0  1.0676
  Zn  Zn14  1  0.381060  0.241610  0.464890  1.0  1.0676
  Zn  Zn15  1  0.118940  0.258390  0.964890  1.0  1.0688
  Zn  Zn16  1  0.618940  0.758390  0.464890  1.0  1.0688
  Cd  Cd17  1  0.345890  0.154110  0.315840  1.0  1.0432
  Cd  Cd18  1  0.654110  0.845890  0.315840  1.0  1.0432
  Cd  Cd19  1  0.154110  0.345890  0.815840  1.0  1.0432
  Cd  Cd20  1  0.845890  0.345890  0.315840  1.0  1.0434
  Cd  Cd21  1  0.154110  0.654110  0.315840  1.0  1.0429
  Cd  Cd22  1  0.345890  0.845890  0.815840  1.0  1.0434
  Cd  Cd23  1  0.654110  0.154110  0.815840  1.0  1.0429
  Cd  Cd24  1  0.845890  0.654110  0.815840  1.0  1.0432
  H  H25  1  0.179200  0.212700  0.201200  1.0  0.1209
  H  H26  1  0.007400  0.308500  0.213000  1.0  0.1322
  H  H27  1  0.085500  0.226400  0.398200  1.0  0.128
  H  H28  1  0.679200  0.712700  0.701200  1.0  0.1209
  H  H29  1  0.507400  0.808500  0.713000  1.0  0.1322
  H  H30  1  0.585500  0.726400  0.898200  1.0  0.128
  H  H31  1  0.820800  0.787300  0.201200  1.0  0.1214
  H  H32  1  0.992600  0.691500  0.213000  1.0  0.132
  H  H33  1  0.914500  0.773600  0.398200  1.0  0.128
  H  H34  1  0.320800  0.287300  0.701200  1.0  0.1214
  H  H35  1  0.492600  0.191500  0.713000  1.0  0.132
  H  H36  1  0.414500  0.273600  0.898200  1.0  0.128
  H  H37  1  0.787300  0.179200  0.201200  1.0  0.1209
  H  H38  1  0.691500  0.007400  0.213000  1.0  0.1327
  H  H39  1  0.773600  0.085500  0.398200  1.0  0.1281
  H  H40  1  0.287300  0.679200  0.701200  1.0  0.1209
  H  H41  1  0.191500  0.507400  0.713000  1.0  0.1327
  H  H42  1  0.273600  0.585500  0.898200  1.0  0.1281
  H  H43  1  0.212700  0.820800  0.201200  1.0  0.12
  H  H44  1  0.308500  0.992600  0.213000  1.0  0.133
  H  H45  1  0.226400  0.914500  0.398200  1.0  0.128
  H  H46  1  0.712700  0.320800  0.701200  1.0  0.12
  H  H47  1  0.808500  0.492600  0.713000  1.0  0.133
  H  H48  1  0.726400  0.414500  0.898200  1.0  0.128
  H  H49  1  0.179200  0.787300  0.701200  1.0  0.1216
  H  H50  1  0.007400  0.691500  0.713000  1.0  0.1321
  H  H51  1  0.085500  0.773600  0.898200  1.0  0.1277
  H  H52  1  0.679200  0.287300  0.201200  1.0  0.1216
  H  H53  1  0.507400  0.191500  0.213000  1.0  0.1321
  H  H54  1  0.585500  0.273600  0.398200  1.0  0.1277
  H  H55  1  0.820800  0.212700  0.701200  1.0  0.1207
  H  H56  1  0.992600  0.308500  0.713000  1.0  0.1323
  H  H57  1  0.914500  0.226400  0.898200  1.0  0.1282
  H  H58  1  0.320800  0.712700  0.201200  1.0  0.1207
  H  H59  1  0.492600  0.808500  0.213000  1.0  0.1323
  H  H60  1  0.414500  0.726400  0.398200  1.0  0.1282
  H  H61  1  0.787300  0.820800  0.701200  1.0  0.1208
  H  H62  1  0.691500  0.992600  0.713000  1.0  0.1332
  H  H63  1  0.773600  0.914500  0.898200  1.0  0.1281
  H  H64  1  0.287300  0.320800  0.201200  1.0  0.1208
  H  H65  1  0.191500  0.492600  0.213000  1.0  0.1332
  H  H66  1  0.273600  0.414500  0.398200  1.0  0.1281
  H  H67  1  0.212700  0.179200  0.701200  1.0  0.1211
  H  H68  1  0.308500  0.007400  0.713000  1.0  0.1327
  H  H69  1  0.226400  0.085500  0.898200  1.0  0.128
  H  H70  1  0.712700  0.679200  0.201200  1.0  0.1211
  H  H71  1  0.808500  0.507400  0.213000  1.0  0.1327
  H  H72  1  0.726400  0.585500  0.398200  1.0  0.128
  C  C73  1  0.196700  0.179500  0.342300  1.0  0.7272
  C  C74  1  0.140900  0.215200  0.303700  1.0  -0.1412
  C  C75  1  0.143800  0.227100  0.229000  1.0  0.0212
  C  C76  1  0.093200  0.261500  0.193500  1.0  -0.1454
  C  C77  1  0.040410  0.284640  0.235490  1.0  0.0126
  C  C78  1  0.038980  0.270500  0.312800  1.0  -0.083
  C  C79  1  0.087680  0.235900  0.347300  1.0  0.0101
  C  C80  1  0.091800  0.272000  0.109900  1.0  0.7091
  C  C81  1  0.978400  0.291500  0.356300  1.0  0.7149
  C  C82  1  0.696700  0.679500  0.842300  1.0  0.7272
  C  C83  1  0.640900  0.715200  0.803700  1.0  -0.1412
  C  C84  1  0.643800  0.727100  0.729000  1.0  0.0212
  C  C85  1  0.593200  0.761500  0.693500  1.0  -0.1454
  C  C86  1  0.540410  0.784640  0.735490  1.0  0.0126
  C  C87  1  0.538980  0.770500  0.812800  1.0  -0.083
  C  C88  1  0.587680  0.735900  0.847300  1.0  0.0101
  C  C89  1  0.591800  0.772000  0.609900  1.0  0.7091
  C  C90  1  0.478400  0.791500  0.856300  1.0  0.7149
  C  C91  1  0.803300  0.820500  0.342300  1.0  0.7265
  C  C92  1  0.859100  0.784800  0.303700  1.0  -0.1414
  C  C93  1  0.856200  0.772900  0.229000  1.0  0.0216
  C  C94  1  0.906800  0.738500  0.193500  1.0  -0.1448
  C  C95  1  0.959590  0.715360  0.235490  1.0  0.0133
  C  C96  1  0.961020  0.729500  0.312800  1.0  -0.0838
  C  C97  1  0.912320  0.764100  0.347300  1.0  0.0095
  C  C98  1  0.908200  0.728000  0.109900  1.0  0.7098
  C  C99  1  0.021600  0.708500  0.356300  1.0  0.7152
  C  C100  1  0.303300  0.320500  0.842300  1.0  0.7265
  C  C101  1  0.359100  0.284800  0.803700  1.0  -0.1414
  C  C102  1  0.356200  0.272900  0.729000  1.0  0.0216
  C  C103  1  0.406800  0.238500  0.693500  1.0  -0.1448
  C  C104  1  0.459590  0.215360  0.735490  1.0  0.0133
  C  C105  1  0.461020  0.229500  0.812800  1.0  -0.0838
  C  C106  1  0.412320  0.264100  0.847300  1.0  0.0095
  C  C107  1  0.408200  0.228000  0.609900  1.0  0.7098
  C  C108  1  0.521600  0.208500  0.856300  1.0  0.7152
  C  C109  1  0.820500  0.196700  0.342300  1.0  0.7274
  C  C110  1  0.784800  0.140900  0.303700  1.0  -0.1425
  C  C111  1  0.772900  0.143800  0.229000  1.0  0.0243
  C  C112  1  0.738500  0.093200  0.193500  1.0  -0.1446
  C  C113  1  0.715360  0.040410  0.235490  1.0  0.0128
  C  C114  1  0.729500  0.038980  0.312800  1.0  -0.0826
  C  C115  1  0.764100  0.087680  0.347300  1.0  0.0097
  C  C116  1  0.728000  0.091800  0.109900  1.0  0.7092
  C  C117  1  0.708500  0.978400  0.356300  1.0  0.7163
  C  C118  1  0.320500  0.696700  0.842300  1.0  0.7274
  C  C119  1  0.284800  0.640900  0.803700  1.0  -0.1425
  C  C120  1  0.272900  0.643800  0.729000  1.0  0.0243
  C  C121  1  0.238500  0.593200  0.693500  1.0  -0.1446
  C  C122  1  0.215360  0.540410  0.735490  1.0  0.0128
  C  C123  1  0.229500  0.538980  0.812800  1.0  -0.0826
  C  C124  1  0.264100  0.587680  0.847300  1.0  0.0097
  C  C125  1  0.228000  0.591800  0.609900  1.0  0.7092
  C  C126  1  0.208500  0.478400  0.856300  1.0  0.7163
  C  C127  1  0.179500  0.803300  0.342300  1.0  0.7275
  C  C128  1  0.215200  0.859100  0.303700  1.0  -0.1421
  C  C129  1  0.227100  0.856200  0.229000  1.0  0.0242
  C  C130  1  0.261500  0.906800  0.193500  1.0  -0.1445
  C  C131  1  0.284640  0.959590  0.235490  1.0  0.0137
  C  C132  1  0.270500  0.961020  0.312800  1.0  -0.0827
  C  C133  1  0.235900  0.912320  0.347300  1.0  0.0095
  C  C134  1  0.272000  0.908200  0.109900  1.0  0.7088
  C  C135  1  0.291500  0.021600  0.356300  1.0  0.7168
  C  C136  1  0.679500  0.303300  0.842300  1.0  0.7275
  C  C137  1  0.715200  0.359100  0.803700  1.0  -0.1421
  C  C138  1  0.727100  0.356200  0.729000  1.0  0.0242
  C  C139  1  0.761500  0.406800  0.693500  1.0  -0.1445
  C  C140  1  0.784640  0.459590  0.735490  1.0  0.0137
  C  C141  1  0.770500  0.461020  0.812800  1.0  -0.0827
  C  C142  1  0.735900  0.412320  0.847300  1.0  0.0095
  C  C143  1  0.772000  0.408200  0.609900  1.0  0.7088
  C  C144  1  0.791500  0.521600  0.856300  1.0  0.7168
  C  C145  1  0.196700  0.820500  0.842300  1.0  0.7272
  C  C146  1  0.140900  0.784800  0.803700  1.0  -0.141
  C  C147  1  0.143800  0.772900  0.729000  1.0  0.0223
  C  C148  1  0.093200  0.738500  0.693500  1.0  -0.1453
  C  C149  1  0.040410  0.715360  0.735490  1.0  0.0124
  C  C150  1  0.038980  0.729500  0.812800  1.0  -0.0833
  C  C151  1  0.087680  0.764100  0.847300  1.0  0.0101
  C  C152  1  0.091800  0.728000  0.609900  1.0  0.7092
  C  C153  1  0.978400  0.708500  0.856300  1.0  0.7159
  C  C154  1  0.696700  0.320500  0.342300  1.0  0.7272
  C  C155  1  0.640900  0.284800  0.303700  1.0  -0.141
  C  C156  1  0.643800  0.272900  0.229000  1.0  0.0223
  C  C157  1  0.593200  0.238500  0.193500  1.0  -0.1453
  C  C158  1  0.540410  0.215360  0.235490  1.0  0.0124
  C  C159  1  0.538980  0.229500  0.312800  1.0  -0.0833
  C  C160  1  0.587680  0.264100  0.347300  1.0  0.0101
  C  C161  1  0.591800  0.228000  0.109900  1.0  0.7092
  C  C162  1  0.478400  0.208500  0.356300  1.0  0.7159
  C  C163  1  0.803300  0.179500  0.842300  1.0  0.7268
  C  C164  1  0.859100  0.215200  0.803700  1.0  -0.1421
  C  C165  1  0.856200  0.227100  0.729000  1.0  0.0215
  C  C166  1  0.906800  0.261500  0.693500  1.0  -0.145
  C  C167  1  0.959590  0.284640  0.735490  1.0  0.0136
  C  C168  1  0.961020  0.270500  0.812800  1.0  -0.0841
  C  C169  1  0.912320  0.235900  0.847300  1.0  0.0097
  C  C170  1  0.908200  0.272000  0.609900  1.0  0.71
  C  C171  1  0.021600  0.291500  0.856300  1.0  0.7141
  C  C172  1  0.303300  0.679500  0.342300  1.0  0.7268
  C  C173  1  0.359100  0.715200  0.303700  1.0  -0.1421
  C  C174  1  0.356200  0.727100  0.229000  1.0  0.0215
  C  C175  1  0.406800  0.761500  0.193500  1.0  -0.145
  C  C176  1  0.459590  0.784640  0.235490  1.0  0.0136
  C  C177  1  0.461020  0.770500  0.312800  1.0  -0.0841
  C  C178  1  0.412320  0.735900  0.347300  1.0  0.0097
  C  C179  1  0.408200  0.772000  0.109900  1.0  0.71
  C  C180  1  0.521600  0.791500  0.356300  1.0  0.7141
  C  C181  1  0.820500  0.803300  0.842300  1.0  0.7274
  C  C182  1  0.784800  0.859100  0.803700  1.0  -0.1426
  C  C183  1  0.772900  0.856200  0.729000  1.0  0.025
  C  C184  1  0.738500  0.906800  0.693500  1.0  -0.1441
  C  C185  1  0.715360  0.959590  0.735490  1.0  0.0129
  C  C186  1  0.729500  0.961020  0.812800  1.0  -0.082
  C  C187  1  0.764100  0.912320  0.847300  1.0  0.0099
  C  C188  1  0.728000  0.908200  0.609900  1.0  0.7093
  C  C189  1  0.708500  0.021600  0.856300  1.0  0.7165
  C  C190  1  0.320500  0.303300  0.342300  1.0  0.7274
  C  C191  1  0.284800  0.359100  0.303700  1.0  -0.1426
  C  C192  1  0.272900  0.356200  0.229000  1.0  0.025
  C  C193  1  0.238500  0.406800  0.193500  1.0  -0.1441
  C  C194  1  0.215360  0.459590  0.235490  1.0  0.0129
  C  C195  1  0.229500  0.461020  0.312800  1.0  -0.082
  C  C196  1  0.264100  0.412320  0.347300  1.0  0.0099
  C  C197  1  0.228000  0.408200  0.109900  1.0  0.7093
  C  C198  1  0.208500  0.521600  0.356300  1.0  0.7165
  C  C199  1  0.179500  0.196700  0.842300  1.0  0.7273
  C  C200  1  0.215200  0.140900  0.803700  1.0  -0.1421
  C  C201  1  0.227100  0.143800  0.729000  1.0  0.0232
  C  C202  1  0.261500  0.093200  0.693500  1.0  -0.1445
  C  C203  1  0.284640  0.040410  0.735490  1.0  0.0134
  C  C204  1  0.270500  0.038980  0.812800  1.0  -0.0831
  C  C205  1  0.235900  0.087680  0.847300  1.0  0.0094
  C  C206  1  0.272000  0.091800  0.609900  1.0  0.7089
  C  C207  1  0.291500  0.978400  0.856300  1.0  0.7165
  C  C208  1  0.679500  0.696700  0.342300  1.0  0.7273
  C  C209  1  0.715200  0.640900  0.303700  1.0  -0.1421
  C  C210  1  0.727100  0.643800  0.229000  1.0  0.0232
  C  C211  1  0.761500  0.593200  0.193500  1.0  -0.1445
  C  C212  1  0.784640  0.540410  0.235490  1.0  0.0134
  C  C213  1  0.770500  0.538980  0.312800  1.0  -0.0831
  C  C214  1  0.735900  0.587680  0.347300  1.0  0.0094
  C  C215  1  0.772000  0.591800  0.109900  1.0  0.7089
  C  C216  1  0.791500  0.478400  0.356300  1.0  0.7165
  O  O217  1  0.241880  0.159400  0.300930  1.0  -0.6295
  O  O218  1  0.193250  0.172360  0.410820  1.0  -0.5619
  O  O219  1  0.126850  0.235700  0.070160  1.0  -0.5846
  O  O220  1  0.056100  0.313700  0.083610  1.0  -0.4696
  O  O221  1  0.965970  0.256800  0.414300  1.0  -0.5565
  O  O222  1  0.946680  0.337680  0.330990  1.0  -0.5988
  O  O223  1  0.741880  0.659400  0.800930  1.0  -0.6295
  O  O224  1  0.693250  0.672360  0.910820  1.0  -0.5619
  O  O225  1  0.626850  0.735700  0.570160  1.0  -0.5846
  O  O226  1  0.556100  0.813700  0.583610  1.0  -0.4696
  O  O227  1  0.465970  0.756800  0.914300  1.0  -0.5565
  O  O228  1  0.446680  0.837680  0.830990  1.0  -0.5988
  O  O229  1  0.758120  0.840600  0.300930  1.0  -0.6301
  O  O230  1  0.806750  0.827640  0.410820  1.0  -0.5622
  O  O231  1  0.873150  0.764300  0.070160  1.0  -0.5846
  O  O232  1  0.943900  0.686300  0.083610  1.0  -0.468
  O  O233  1  0.034030  0.743200  0.414300  1.0  -0.5558
  O  O234  1  0.053320  0.662320  0.330990  1.0  -0.5998
  O  O235  1  0.258120  0.340600  0.800930  1.0  -0.6301
  O  O236  1  0.306750  0.327640  0.910820  1.0  -0.5622
  O  O237  1  0.373150  0.264300  0.570160  1.0  -0.5846
  O  O238  1  0.443900  0.186300  0.583610  1.0  -0.468
  O  O239  1  0.534030  0.243200  0.914300  1.0  -0.5558
  O  O240  1  0.553320  0.162320  0.830990  1.0  -0.5998
  O  O241  1  0.840600  0.241880  0.300930  1.0  -0.6326
  O  O242  1  0.827640  0.193250  0.410820  1.0  -0.5619
  O  O243  1  0.764300  0.126850  0.070160  1.0  -0.5878
  O  O244  1  0.686300  0.056100  0.083610  1.0  -0.469
  O  O245  1  0.743200  0.965970  0.414300  1.0  -0.5556
  O  O246  1  0.662320  0.946680  0.330990  1.0  -0.6007
  O  O247  1  0.340600  0.741880  0.800930  1.0  -0.6326
  O  O248  1  0.327640  0.693250  0.910820  1.0  -0.5619
  O  O249  1  0.264300  0.626850  0.570160  1.0  -0.5878
  O  O250  1  0.186300  0.556100  0.583610  1.0  -0.469
  O  O251  1  0.243200  0.465970  0.914300  1.0  -0.5556
  O  O252  1  0.162320  0.446680  0.830990  1.0  -0.6007
  O  O253  1  0.159400  0.758120  0.300930  1.0  -0.6321
  O  O254  1  0.172360  0.806750  0.410820  1.0  -0.5616
  O  O255  1  0.235700  0.873150  0.070160  1.0  -0.5856
  O  O256  1  0.313700  0.943900  0.083610  1.0  -0.4681
  O  O257  1  0.256800  0.034030  0.414300  1.0  -0.5551
  O  O258  1  0.337680  0.053320  0.330990  1.0  -0.6005
  O  O259  1  0.659400  0.258120  0.800930  1.0  -0.6321
  O  O260  1  0.672360  0.306750  0.910820  1.0  -0.5616
  O  O261  1  0.735700  0.373150  0.570160  1.0  -0.5856
  O  O262  1  0.813700  0.443900  0.583610  1.0  -0.4681
  O  O263  1  0.756800  0.534030  0.914300  1.0  -0.5551
  O  O264  1  0.837680  0.553320  0.830990  1.0  -0.6005
  O  O265  1  0.241880  0.840600  0.800930  1.0  -0.6303
  O  O266  1  0.193250  0.827640  0.910820  1.0  -0.5622
  O  O267  1  0.126850  0.764300  0.570160  1.0  -0.5851
  O  O268  1  0.056100  0.686300  0.583610  1.0  -0.4685
  O  O269  1  0.965970  0.743200  0.914300  1.0  -0.5552
  O  O270  1  0.946680  0.662320  0.830990  1.0  -0.5996
  O  O271  1  0.741880  0.340600  0.300930  1.0  -0.6303
  O  O272  1  0.693250  0.327640  0.410820  1.0  -0.5622
  O  O273  1  0.626850  0.264300  0.070160  1.0  -0.5851
  O  O274  1  0.556100  0.186300  0.083610  1.0  -0.4685
  O  O275  1  0.465970  0.243200  0.414300  1.0  -0.5552
  O  O276  1  0.446680  0.162320  0.330990  1.0  -0.5996
  O  O277  1  0.758120  0.159400  0.800930  1.0  -0.6293
  O  O278  1  0.806750  0.172360  0.910820  1.0  -0.5621
  O  O279  1  0.873150  0.235700  0.570160  1.0  -0.5847
  O  O280  1  0.943900  0.313700  0.583610  1.0  -0.4679
  O  O281  1  0.034030  0.256800  0.914300  1.0  -0.5565
  O  O282  1  0.053320  0.337680  0.830990  1.0  -0.5999
  O  O283  1  0.258120  0.659400  0.300930  1.0  -0.6293
  O  O284  1  0.306750  0.672360  0.410820  1.0  -0.5621
  O  O285  1  0.373150  0.735700  0.070160  1.0  -0.5847
  O  O286  1  0.443900  0.813700  0.083610  1.0  -0.4679
  O  O287  1  0.534030  0.756800  0.414300  1.0  -0.5565
  O  O288  1  0.553320  0.837680  0.330990  1.0  -0.5999
  O  O289  1  0.840600  0.758120  0.800930  1.0  -0.6323
  O  O290  1  0.827640  0.806750  0.910820  1.0  -0.561
  O  O291  1  0.764300  0.873150  0.570160  1.0  -0.5868
  O  O292  1  0.686300  0.943900  0.583610  1.0  -0.4685
  O  O293  1  0.743200  0.034030  0.914300  1.0  -0.5551
  O  O294  1  0.662320  0.053320  0.830990  1.0  -0.6003
  O  O295  1  0.340600  0.258120  0.300930  1.0  -0.6323
  O  O296  1  0.327640  0.306750  0.410820  1.0  -0.561
  O  O297  1  0.264300  0.373150  0.070160  1.0  -0.5868
  O  O298  1  0.186300  0.443900  0.083610  1.0  -0.4685
  O  O299  1  0.243200  0.534030  0.414300  1.0  -0.5551
  O  O300  1  0.162320  0.553320  0.330990  1.0  -0.6003
  O  O301  1  0.159400  0.241880  0.800930  1.0  -0.6326
  O  O302  1  0.172360  0.193250  0.910820  1.0  -0.5624
  O  O303  1  0.235700  0.126850  0.570160  1.0  -0.5859
  O  O304  1  0.313700  0.056100  0.583610  1.0  -0.4684
  O  O305  1  0.256800  0.965970  0.914300  1.0  -0.5558
  O  O306  1  0.337680  0.946680  0.830990  1.0  -0.601
  O  O307  1  0.659400  0.741880  0.300930  1.0  -0.6326
  O  O308  1  0.672360  0.693250  0.410820  1.0  -0.5624
  O  O309  1  0.735700  0.626850  0.070160  1.0  -0.5859
  O  O310  1  0.813700  0.556100  0.083610  1.0  -0.4684
  O  O311  1  0.756800  0.465970  0.414300  1.0  -0.5558
  O  O312  1  0.837680  0.446680  0.330990  1.0  -0.601
  O  O313  1  0.340110  0.159890  0.437300  1.0  -0.7931
  O  O314  1  0.659890  0.840110  0.437300  1.0  -0.7935
  O  O315  1  0.159890  0.340110  0.937300  1.0  -0.7935
  O  O316  1  0.840110  0.340110  0.437300  1.0  -0.7933
  O  O317  1  0.159890  0.659890  0.437300  1.0  -0.7931
  O  O318  1  0.340110  0.840110  0.937300  1.0  -0.7933
  O  O319  1  0.659890  0.159890  0.937300  1.0  -0.7931
  O  O320  1  0.840110  0.659890  0.937300  1.0  -0.7931
