# generated using pymatgen
data_Co3P4(WO7)4
_symmetry_space_group_name_H-M   'P 1'
_cell_length_a   17.10060000
_cell_length_b   17.10060000
_cell_length_c   10.75250000
_cell_angle_alpha   90.00000000
_cell_angle_beta   90.00000000
_cell_angle_gamma   90.00000000
_symmetry_Int_Tables_number   1
_chemical_formula_structural   Co3P4(WO7)4
_chemical_formula_sum   'Co12 P16 W16 O112'
_cell_volume   3144.35917017
_cell_formula_units_Z   4
loop_
 _symmetry_equiv_pos_site_id
 _symmetry_equiv_pos_as_xyz
  1  'x, y, z'
loop_
 _atom_site_type_symbol
 _atom_site_label
 _atom_site_symmetry_multiplicity
 _atom_site_fract_x
 _atom_site_fract_y
 _atom_site_fract_z
 _atom_site_occupancy
 _atom_site_charge
  Co  Co1  1  0.250000  0.750000  0.250000  1.0  1.0011
  Co  Co2  1  0.250000  0.250000  0.750000  1.0  1.0011
  Co  Co3  1  0.000000  0.500000  0.500000  1.0  1.0022
  Co  Co4  1  0.500000  0.000000  0.000000  1.0  1.0022
  Co  Co5  1  0.500000  0.500000  0.000000  1.0  1.0022
  Co  Co6  1  0.000000  0.000000  0.500000  1.0  1.0022
  Co  Co7  1  0.750000  0.250000  0.750000  1.0  1.0011
  Co  Co8  1  0.750000  0.750000  0.250000  1.0  1.0011
  Co  Co9  1  0.000000  0.750000  0.875000  1.0  0.9826
  Co  Co10  1  0.500000  0.250000  0.375000  1.0  0.9826
  Co  Co11  1  0.000000  0.250000  0.125000  1.0  0.9826
  Co  Co12  1  0.500000  0.750000  0.625000  1.0  0.9826
  P  P13  1  0.134480  0.667210  0.053050  1.0  1.8132
  P  P14  1  0.634480  0.167210  0.553050  1.0  1.8132
  P  P15  1  0.365520  0.332790  0.553050  1.0  1.8147
  P  P16  1  0.865520  0.832790  0.053050  1.0  1.8147
  P  P17  1  0.082790  0.384480  0.303050  1.0  1.8153
  P  P18  1  0.582790  0.884480  0.803050  1.0  1.8153
  P  P19  1  0.417210  0.615520  0.803050  1.0  1.8159
  P  P20  1  0.917210  0.115520  0.303050  1.0  1.8159
  P  P21  1  0.865520  0.332790  0.946950  1.0  1.8147
  P  P22  1  0.365520  0.832790  0.446950  1.0  1.8147
  P  P23  1  0.634480  0.667210  0.446950  1.0  1.813
  P  P24  1  0.134480  0.167210  0.946950  1.0  1.813
  P  P25  1  0.917210  0.615520  0.696950  1.0  1.8156
  P  P26  1  0.417210  0.115520  0.196950  1.0  1.8156
  P  P27  1  0.582790  0.384480  0.196950  1.0  1.8156
  P  P28  1  0.082790  0.884480  0.696950  1.0  1.8156
  W  W29  1  0.308150  0.588020  0.053780  1.0  2.2695
  W  W30  1  0.808150  0.088020  0.553780  1.0  2.2695
  W  W31  1  0.191850  0.411980  0.553780  1.0  2.2698
  W  W32  1  0.691850  0.911980  0.053780  1.0  2.2698
  W  W33  1  0.161980  0.558150  0.303780  1.0  2.27
  W  W34  1  0.661980  0.058150  0.803780  1.0  2.27
  W  W35  1  0.338020  0.441850  0.803780  1.0  2.2697
  W  W36  1  0.838020  0.941850  0.303780  1.0  2.2697
  W  W37  1  0.691850  0.411980  0.946220  1.0  2.2703
  W  W38  1  0.191850  0.911980  0.446220  1.0  2.2703
  W  W39  1  0.808150  0.588020  0.446220  1.0  2.2701
  W  W40  1  0.308150  0.088020  0.946220  1.0  2.2701
  W  W41  1  0.838020  0.441850  0.696220  1.0  2.2705
  W  W42  1  0.338020  0.941850  0.196220  1.0  2.2705
  W  W43  1  0.661980  0.558150  0.196220  1.0  2.2703
  W  W44  1  0.161980  0.058150  0.696220  1.0  2.2703
  O  O45  1  0.399900  0.542700  0.084100  1.0  -0.6921
  O  O46  1  0.203600  0.632200  0.976800  1.0  -0.6829
  O  O47  1  0.319000  0.676300  0.139300  1.0  -0.6814
  O  O48  1  0.283700  0.501200  0.915600  1.0  -0.672
  O  O49  1  0.107600  0.604900  0.149600  1.0  -0.6887
  O  O50  1  0.159600  0.742400  0.117700  1.0  -0.6739
  O  O51  1  0.066400  0.678600  0.966200  1.0  -0.7354
  O  O52  1  0.899900  0.042700  0.584100  1.0  -0.6921
  O  O53  1  0.703600  0.132200  0.476800  1.0  -0.6829
  O  O54  1  0.819000  0.176300  0.639300  1.0  -0.6814
  O  O55  1  0.783700  0.001200  0.415600  1.0  -0.672
  O  O56  1  0.607600  0.104900  0.649600  1.0  -0.6887
  O  O57  1  0.659600  0.242400  0.617700  1.0  -0.6739
  O  O58  1  0.566400  0.178600  0.466200  1.0  -0.7354
  O  O59  1  0.100100  0.457300  0.584100  1.0  -0.6936
  O  O60  1  0.296400  0.367800  0.476800  1.0  -0.6839
  O  O61  1  0.181000  0.323700  0.639300  1.0  -0.6824
  O  O62  1  0.216300  0.498800  0.415600  1.0  -0.672
  O  O63  1  0.392400  0.395100  0.649600  1.0  -0.6887
  O  O64  1  0.340400  0.257600  0.617700  1.0  -0.6743
  O  O65  1  0.433600  0.321400  0.466200  1.0  -0.734
  O  O66  1  0.600100  0.957300  0.084100  1.0  -0.6936
  O  O67  1  0.796400  0.867800  0.976800  1.0  -0.6839
  O  O68  1  0.681000  0.823700  0.139300  1.0  -0.6824
  O  O69  1  0.716300  0.998800  0.915600  1.0  -0.672
  O  O70  1  0.892400  0.895100  0.149600  1.0  -0.6887
  O  O71  1  0.840400  0.757600  0.117700  1.0  -0.6743
  O  O72  1  0.933600  0.821400  0.966200  1.0  -0.734
  O  O73  1  0.207300  0.649900  0.334100  1.0  -0.6935
  O  O74  1  0.117800  0.453600  0.226800  1.0  -0.6837
  O  O75  1  0.073700  0.569000  0.389300  1.0  -0.6855
  O  O76  1  0.248800  0.533700  0.165600  1.0  -0.6739
  O  O77  1  0.145100  0.357600  0.399600  1.0  -0.6903
  O  O78  1  0.007600  0.409600  0.367700  1.0  -0.672
  O  O79  1  0.071400  0.316400  0.216200  1.0  -0.7357
  O  O80  1  0.707300  0.149900  0.834100  1.0  -0.6935
  O  O81  1  0.617800  0.953600  0.726800  1.0  -0.6837
  O  O82  1  0.573700  0.069000  0.889300  1.0  -0.6855
  O  O83  1  0.748800  0.033700  0.665600  1.0  -0.6739
  O  O84  1  0.645100  0.857600  0.899600  1.0  -0.6903
  O  O85  1  0.507600  0.909600  0.867700  1.0  -0.672
  O  O86  1  0.571400  0.816400  0.716200  1.0  -0.7357
  O  O87  1  0.292700  0.350100  0.834100  1.0  -0.6944
  O  O88  1  0.382200  0.546400  0.726800  1.0  -0.6845
  O  O89  1  0.426300  0.431000  0.889300  1.0  -0.6828
  O  O90  1  0.251200  0.466300  0.665600  1.0  -0.6737
  O  O91  1  0.354900  0.642400  0.899600  1.0  -0.6892
  O  O92  1  0.492400  0.590400  0.867700  1.0  -0.6735
  O  O93  1  0.428600  0.683600  0.716200  1.0  -0.737
  O  O94  1  0.792700  0.850100  0.334100  1.0  -0.6944
  O  O95  1  0.882200  0.046400  0.226800  1.0  -0.6845
  O  O96  1  0.926300  0.931000  0.389300  1.0  -0.6828
  O  O97  1  0.751200  0.966300  0.165600  1.0  -0.6737
  O  O98  1  0.854900  0.142400  0.399600  1.0  -0.6892
  O  O99  1  0.992400  0.090400  0.367700  1.0  -0.6735
  O  O100  1  0.928600  0.183600  0.216200  1.0  -0.737
  O  O101  1  0.600100  0.457300  0.915900  1.0  -0.6949
  O  O102  1  0.796400  0.367800  0.023200  1.0  -0.6834
  O  O103  1  0.681000  0.323700  0.860700  1.0  -0.6821
  O  O104  1  0.716300  0.498800  0.084400  1.0  -0.6714
  O  O105  1  0.892400  0.395100  0.850400  1.0  -0.6884
  O  O106  1  0.840400  0.257600  0.882300  1.0  -0.6739
  O  O107  1  0.933600  0.321400  0.033800  1.0  -0.7333
  O  O108  1  0.100100  0.957300  0.415900  1.0  -0.6949
  O  O109  1  0.296400  0.867800  0.523200  1.0  -0.6834
  O  O110  1  0.181000  0.823700  0.360700  1.0  -0.6821
  O  O111  1  0.216300  0.998800  0.584400  1.0  -0.6714
  O  O112  1  0.392400  0.895100  0.350400  1.0  -0.6884
  O  O113  1  0.340400  0.757600  0.382300  1.0  -0.6739
  O  O114  1  0.433600  0.821400  0.533800  1.0  -0.7333
  O  O115  1  0.899900  0.542700  0.415900  1.0  -0.6938
  O  O116  1  0.703600  0.632200  0.523200  1.0  -0.6833
  O  O117  1  0.819000  0.676300  0.360700  1.0  -0.6808
  O  O118  1  0.783700  0.501200  0.584400  1.0  -0.6719
  O  O119  1  0.607600  0.604900  0.350400  1.0  -0.6882
  O  O120  1  0.659600  0.742400  0.382300  1.0  -0.6735
  O  O121  1  0.566400  0.678600  0.533800  1.0  -0.7358
  O  O122  1  0.399900  0.042700  0.915900  1.0  -0.6938
  O  O123  1  0.203600  0.132200  0.023200  1.0  -0.6833
  O  O124  1  0.319000  0.176300  0.860700  1.0  -0.6808
  O  O125  1  0.283700  0.001200  0.084400  1.0  -0.6719
  O  O126  1  0.107600  0.104900  0.850400  1.0  -0.6882
  O  O127  1  0.159600  0.242400  0.882300  1.0  -0.6735
  O  O128  1  0.066400  0.178600  0.033800  1.0  -0.7358
  O  O129  1  0.792700  0.350100  0.665900  1.0  -0.6957
  O  O130  1  0.882200  0.546400  0.773200  1.0  -0.6842
  O  O131  1  0.926300  0.431000  0.610700  1.0  -0.6822
  O  O132  1  0.751200  0.466300  0.834400  1.0  -0.6734
  O  O133  1  0.854900  0.642400  0.600400  1.0  -0.6892
  O  O134  1  0.992400  0.590400  0.632300  1.0  -0.6734
  O  O135  1  0.928600  0.683600  0.783800  1.0  -0.7366
  O  O136  1  0.292700  0.850100  0.165900  1.0  -0.6957
  O  O137  1  0.382200  0.046400  0.273200  1.0  -0.6842
  O  O138  1  0.426300  0.931000  0.110700  1.0  -0.6822
  O  O139  1  0.251200  0.966300  0.334400  1.0  -0.6734
  O  O140  1  0.354900  0.142400  0.100400  1.0  -0.6892
  O  O141  1  0.492400  0.090400  0.132300  1.0  -0.6734
  O  O142  1  0.428600  0.183600  0.283800  1.0  -0.7366
  O  O143  1  0.707300  0.649900  0.165900  1.0  -0.6953
  O  O144  1  0.617800  0.453600  0.273200  1.0  -0.6835
  O  O145  1  0.573700  0.569000  0.110700  1.0  -0.6851
  O  O146  1  0.748800  0.533700  0.334400  1.0  -0.6735
  O  O147  1  0.645100  0.357600  0.100400  1.0  -0.6899
  O  O148  1  0.507600  0.409600  0.132300  1.0  -0.6716
  O  O149  1  0.571400  0.316400  0.283800  1.0  -0.7369
  O  O150  1  0.207300  0.149900  0.665900  1.0  -0.6953
  O  O151  1  0.117800  0.953600  0.773200  1.0  -0.6835
  O  O152  1  0.073700  0.069000  0.610700  1.0  -0.6851
  O  O153  1  0.248800  0.033700  0.834400  1.0  -0.6735
  O  O154  1  0.145100  0.857600  0.600400  1.0  -0.6899
  O  O155  1  0.007600  0.909600  0.632300  1.0  -0.6716
  O  O156  1  0.071400  0.816400  0.783800  1.0  -0.7369
