# generated using pymatgen
data_CdH14C22(NO)4
_symmetry_space_group_name_H-M   'P 1'
_cell_length_a   12.59840000
_cell_length_b   14.17770000
_cell_length_c   14.17770000
_cell_angle_alpha   98.68030000
_cell_angle_beta   98.25550000
_cell_angle_gamma   98.25550000
_symmetry_Int_Tables_number   1
_chemical_formula_structural   CdH14C22(NO)4
_chemical_formula_sum   'Cd4 H56 C88 N16 O16'
_cell_volume   2441.81930637
_cell_formula_units_Z   4
loop_
 _symmetry_equiv_pos_site_id
 _symmetry_equiv_pos_as_xyz
  1  'x, y, z'
loop_
 _atom_site_type_symbol
 _atom_site_label
 _atom_site_symmetry_multiplicity
 _atom_site_fract_x
 _atom_site_fract_y
 _atom_site_fract_z
 _atom_site_occupancy
 _atom_site_charge
  Cd  Cd1  1  0.423000  0.305050  0.401340  1.0  0.9641
  Cd  Cd2  1  0.077000  0.598660  0.694950  1.0  0.9648
  Cd  Cd3  1  0.577000  0.694950  0.598660  1.0  0.9639
  Cd  Cd4  1  0.923000  0.401340  0.305050  1.0  0.9659
  H  H5  1  0.624000  0.155800  0.627600  1.0  0.1042
  H  H6  1  0.693900  0.058300  0.749900  1.0  0.1215
  H  H7  1  0.839900  0.014200  0.837600  1.0  0.0824
  H  H8  1  0.014700  0.073400  0.820800  1.0  0.0923
  H  H9  1  0.045900  0.173800  0.713400  1.0  0.1099
  H  H10  1  0.974300  0.259400  0.583400  1.0  0.1052
  H  H11  1  0.346100  0.108400  0.468600  1.0  0.0893
  H  H12  1  0.201100  0.009800  0.505200  1.0  0.1337
  H  H13  1  0.007200  0.179300  0.396900  1.0  0.1225
  H  H14  1  0.157400  0.276900  0.368500  1.0  0.0805
  H  H15  1  0.588500  0.179100  0.300300  1.0  0.0823
  H  H16  1  0.602500  0.072000  0.166000  1.0  0.126
  H  H17  1  0.305500  0.103800  0.048200  1.0  0.1337
  H  H18  1  0.300700  0.211100  0.184900  1.0  0.0703
  H  H19  1  0.876000  0.372400  0.844200  1.0  0.1051
  H  H20  1  0.806100  0.250100  0.941700  1.0  0.1196
  H  H21  1  0.660100  0.162400  0.985800  1.0  0.0827
  H  H22  1  0.485300  0.179200  0.926600  1.0  0.092
  H  H23  1  0.454100  0.286600  0.826200  1.0  0.1098
  H  H24  1  0.525700  0.416600  0.740600  1.0  0.106
  H  H25  1  0.153900  0.531400  0.891600  1.0  0.087
  H  H26  1  0.298900  0.494800  0.990200  1.0  0.1353
  H  H27  1  0.492800  0.603100  0.820700  1.0  0.1205
  H  H28  1  0.342600  0.631500  0.723100  1.0  0.0806
  H  H29  1  0.911500  0.699700  0.820900  1.0  0.0827
  H  H30  1  0.897500  0.834000  0.928000  1.0  0.1249
  H  H31  1  0.194500  0.951800  0.896200  1.0  0.1345
  H  H32  1  0.199300  0.815100  0.788900  1.0  0.0702
  H  H33  1  0.376000  0.844200  0.372400  1.0  0.1051
  H  H34  1  0.306100  0.941700  0.250100  1.0  0.1206
  H  H35  1  0.160100  0.985800  0.162400  1.0  0.0811
  H  H36  1  0.985300  0.926600  0.179200  1.0  0.0915
  H  H37  1  0.954100  0.826200  0.286600  1.0  0.1091
  H  H38  1  0.025700  0.740600  0.416600  1.0  0.1043
  H  H39  1  0.653900  0.891600  0.531400  1.0  0.0867
  H  H40  1  0.798900  0.990200  0.494800  1.0  0.1343
  H  H41  1  0.992800  0.820700  0.603100  1.0  0.1224
  H  H42  1  0.842600  0.723100  0.631500  1.0  0.0803
  H  H43  1  0.411500  0.820900  0.699700  1.0  0.082
  H  H44  1  0.397500  0.928000  0.834000  1.0  0.1256
  H  H45  1  0.694500  0.896200  0.951800  1.0  0.1338
  H  H46  1  0.699300  0.788900  0.815100  1.0  0.0706
  H  H47  1  0.124000  0.627600  0.155800  1.0  0.1049
  H  H48  1  0.193900  0.749900  0.058300  1.0  0.12
  H  H49  1  0.339900  0.837600  0.014200  1.0  0.0822
  H  H50  1  0.514700  0.820800  0.073400  1.0  0.0926
  H  H51  1  0.545900  0.713400  0.173800  1.0  0.1099
  H  H52  1  0.474300  0.583400  0.259400  1.0  0.1052
  H  H53  1  0.846100  0.468600  0.108400  1.0  0.0882
  H  H54  1  0.701100  0.505200  0.009800  1.0  0.1352
  H  H55  1  0.507200  0.396900  0.179300  1.0  0.12
  H  H56  1  0.657400  0.368500  0.276900  1.0  0.08
  H  H57  1  0.088500  0.300300  0.179100  1.0  0.083
  H  H58  1  0.102500  0.166000  0.072000  1.0  0.1254
  H  H59  1  0.805500  0.048200  0.103800  1.0  0.1348
  H  H60  1  0.800700  0.184900  0.211100  1.0  0.0702
  C  C61  1  0.610600  0.254620  0.491780  1.0  0.6437
  C  C62  1  0.710000  0.226970  0.546650  1.0  -0.0756
  C  C63  1  0.694500  0.173720  0.616680  1.0  -0.0843
  C  C64  1  0.781400  0.144230  0.674370  1.0  0.0308
  C  C65  1  0.764200  0.081600  0.741600  1.0  -0.117
  C  C66  1  0.851200  0.056000  0.794000  1.0  -0.0775
  C  C67  1  0.956300  0.091100  0.783500  1.0  -0.0912
  C  C68  1  0.974800  0.150900  0.719700  1.0  -0.113
  C  C69  1  0.887900  0.179170  0.662830  1.0  0.0427
  C  C70  1  0.903600  0.236120  0.590680  1.0  -0.1031
  C  C71  1  0.819500  0.258400  0.531840  1.0  -0.0683
  C  C72  1  0.845100  0.302400  0.445800  1.0  0.6507
  C  C73  1  0.276900  0.124100  0.455700  1.0  0.1784
  C  C74  1  0.190300  0.063400  0.476800  1.0  -0.2115
  C  C75  1  0.088400  0.085200  0.454400  1.0  0.2337
  C  C76  1  0.076200  0.164200  0.413400  1.0  -0.2148
  C  C77  1  0.166800  0.222600  0.396200  1.0  0.188
  C  C78  1  0.530700  0.163700  0.248900  1.0  0.1886
  C  C79  1  0.539800  0.099100  0.168300  1.0  -0.2062
  C  C80  1  0.455600  0.075690  0.092310  1.0  0.2307
  C  C81  1  0.364400  0.118200  0.098800  1.0  -0.2248
  C  C82  1  0.362100  0.182200  0.181400  1.0  0.1887
  C  C83  1  0.889400  0.508220  0.745380  1.0  0.6468
  C  C84  1  0.790000  0.453350  0.773030  1.0  -0.0759
  C  C85  1  0.805500  0.383320  0.826280  1.0  -0.0836
  C  C86  1  0.718600  0.325630  0.855770  1.0  0.0313
  C  C87  1  0.735800  0.258400  0.918400  1.0  -0.1203
  C  C88  1  0.648800  0.206000  0.944000  1.0  -0.0785
  C  C89  1  0.543700  0.216500  0.908900  1.0  -0.0903
  C  C90  1  0.525200  0.280300  0.849100  1.0  -0.1149
  C  C91  1  0.612100  0.337170  0.820830  1.0  0.0411
  C  C92  1  0.596400  0.409320  0.763880  1.0  -0.1007
  C  C93  1  0.680500  0.468160  0.741600  1.0  -0.0661
  C  C94  1  0.654900  0.554200  0.697600  1.0  0.6507
  C  C95  1  0.223100  0.544300  0.875900  1.0  0.1797
  C  C96  1  0.309700  0.523200  0.936600  1.0  -0.2141
  C  C97  1  0.411600  0.545600  0.914800  1.0  0.2333
  C  C98  1  0.423800  0.586600  0.835800  1.0  -0.2137
  C  C99  1  0.333200  0.603800  0.777400  1.0  0.1877
  C  C100  1  0.969300  0.751100  0.836300  1.0  0.1878
  C  C101  1  0.960200  0.831700  0.900900  1.0  -0.2043
  C  C102  1  0.044400  0.907690  0.924310  1.0  0.2314
  C  C103  1  0.135600  0.901200  0.881800  1.0  -0.2282
  C  C104  1  0.137900  0.818600  0.817800  1.0  0.1878
  C  C105  1  0.389400  0.745380  0.508220  1.0  0.6463
  C  C106  1  0.290000  0.773030  0.453350  1.0  -0.0745
  C  C107  1  0.305500  0.826280  0.383320  1.0  -0.0847
  C  C108  1  0.218600  0.855770  0.325630  1.0  0.0311
  C  C109  1  0.235800  0.918400  0.258400  1.0  -0.1168
  C  C110  1  0.148800  0.944000  0.206000  1.0  -0.0773
  C  C111  1  0.043700  0.908900  0.216500  1.0  -0.0926
  C  C112  1  0.025200  0.849100  0.280300  1.0  -0.1117
  C  C113  1  0.112100  0.820830  0.337170  1.0  0.042
  C  C114  1  0.096400  0.763880  0.409320  1.0  -0.1029
  C  C115  1  0.180500  0.741600  0.468160  1.0  -0.0686
  C  C116  1  0.154900  0.697600  0.554200  1.0  0.6511
  C  C117  1  0.723100  0.875900  0.544300  1.0  0.1784
  C  C118  1  0.809700  0.936600  0.523200  1.0  -0.2125
  C  C119  1  0.911600  0.914800  0.545600  1.0  0.2338
  C  C120  1  0.923800  0.835800  0.586600  1.0  -0.2143
  C  C121  1  0.833200  0.777400  0.603800  1.0  0.1891
  C  C122  1  0.469300  0.836300  0.751100  1.0  0.1885
  C  C123  1  0.460200  0.900900  0.831700  1.0  -0.2049
  C  C124  1  0.544400  0.924310  0.907690  1.0  0.231
  C  C125  1  0.635600  0.881800  0.901200  1.0  -0.2236
  C  C126  1  0.637900  0.817800  0.818600  1.0  0.1883
  C  C127  1  0.110600  0.491780  0.254620  1.0  0.6446
  C  C128  1  0.210000  0.546650  0.226970  1.0  -0.077
  C  C129  1  0.194500  0.616680  0.173720  1.0  -0.0846
  C  C130  1  0.281400  0.674370  0.144230  1.0  0.031
  C  C131  1  0.264200  0.741600  0.081600  1.0  -0.1191
  C  C132  1  0.351200  0.794000  0.056000  1.0  -0.0774
  C  C133  1  0.456300  0.783500  0.091100  1.0  -0.0885
  C  C134  1  0.474800  0.719700  0.150900  1.0  -0.1133
  C  C135  1  0.387900  0.662830  0.179170  1.0  0.0413
  C  C136  1  0.403600  0.590680  0.236120  1.0  -0.1016
  C  C137  1  0.319500  0.531840  0.258400  1.0  -0.0649
  C  C138  1  0.345100  0.445800  0.302400  1.0  0.6515
  C  C139  1  0.776900  0.455700  0.124100  1.0  0.1782
  C  C140  1  0.690300  0.476800  0.063400  1.0  -0.2145
  C  C141  1  0.588400  0.454400  0.085200  1.0  0.2315
  C  C142  1  0.576200  0.413400  0.164200  1.0  -0.2135
  C  C143  1  0.666800  0.396200  0.222600  1.0  0.1877
  C  C144  1  0.030700  0.248900  0.163700  1.0  0.1866
  C  C145  1  0.039800  0.168300  0.099100  1.0  -0.2039
  C  C146  1  0.955600  0.092310  0.075690  1.0  0.2323
  C  C147  1  0.864400  0.098800  0.118200  1.0  -0.2267
  C  C148  1  0.862100  0.181400  0.182200  1.0  0.1889
  N  N149  1  0.267000  0.203370  0.417870  1.0  -0.354
  N  N150  1  0.442700  0.204950  0.256190  1.0  -0.3492
  N  N151  1  0.454600  0.010120  0.004640  1.0  -0.1441
  N  N152  1  0.990700  0.027350  0.471650  1.0  -0.139
  N  N153  1  0.233000  0.582130  0.796630  1.0  -0.3593
  N  N154  1  0.057300  0.743810  0.795050  1.0  -0.3518
  N  N155  1  0.045400  0.995360  0.989880  1.0  -0.1412
  N  N156  1  0.509300  0.528350  0.972650  1.0  -0.1381
  N  N157  1  0.733000  0.796630  0.582130  1.0  -0.3583
  N  N158  1  0.557300  0.795050  0.743810  1.0  -0.3506
  N  N159  1  0.545400  0.989880  0.995360  1.0  -0.1418
  N  N160  1  0.009300  0.972650  0.528350  1.0  -0.1383
  N  N161  1  0.767000  0.417870  0.203370  1.0  -0.3574
  N  N162  1  0.942700  0.256190  0.204950  1.0  -0.3509
  N  N163  1  0.954600  0.004640  0.010120  1.0  -0.1428
  N  N164  1  0.490700  0.471650  0.027350  1.0  -0.1393
  O  O165  1  0.524540  0.193340  0.475560  1.0  -0.6481
  O  O166  1  0.611680  0.335160  0.466480  1.0  -0.5663
  O  O167  1  0.782630  0.279160  0.366700  1.0  -0.6127
  O  O168  1  0.935280  0.359550  0.455830  1.0  -0.5885
  O  O169  1  0.975460  0.524440  0.806660  1.0  -0.6475
  O  O170  1  0.888320  0.533520  0.664840  1.0  -0.5657
  O  O171  1  0.717370  0.633300  0.720840  1.0  -0.6137
  O  O172  1  0.564720  0.544170  0.640450  1.0  -0.5903
  O  O173  1  0.475460  0.806660  0.524440  1.0  -0.6486
  O  O174  1  0.388320  0.664840  0.533520  1.0  -0.5653
  O  O175  1  0.217370  0.720840  0.633300  1.0  -0.6126
  O  O176  1  0.064720  0.640450  0.544170  1.0  -0.5868
  O  O177  1  0.024540  0.475560  0.193340  1.0  -0.6489
  O  O178  1  0.111680  0.466480  0.335160  1.0  -0.5661
  O  O179  1  0.282630  0.366700  0.279160  1.0  -0.6131
  O  O180  1  0.435280  0.455830  0.359550  1.0  -0.5914
