# generated using pymatgen
data_Sr2H8C12SN2O9
_symmetry_space_group_name_H-M   'P 1'
_cell_length_a   8.35850000
_cell_length_b   12.38650000
_cell_length_c   12.64740000
_cell_angle_alpha   109.88000000
_cell_angle_beta   97.14800000
_cell_angle_gamma   105.32100000
_symmetry_Int_Tables_number   1
_chemical_formula_structural   Sr2H8C12SN2O9
_chemical_formula_sum   'Sr4 H16 C24 S2 N4 O18'
_cell_volume   1154.00134710
_cell_formula_units_Z   2
loop_
 _symmetry_equiv_pos_site_id
 _symmetry_equiv_pos_as_xyz
  1  'x, y, z'
loop_
 _atom_site_type_symbol
 _atom_site_label
 _atom_site_symmetry_multiplicity
 _atom_site_fract_x
 _atom_site_fract_y
 _atom_site_fract_z
 _atom_site_occupancy
 _atom_site_charge
  Sr  Sr1  1  0.522810  0.386680  0.836100  1.0  1.6121
  Sr  Sr2  1  0.732550  0.970860  0.442990  1.0  1.6006
  Sr  Sr3  1  0.477190  0.613320  0.163900  1.0  1.6119
  Sr  Sr4  1  0.267450  0.029140  0.557010  1.0  1.6
  H  H5  1  0.456900  0.292300  0.490900  1.0  0.1303
  H  H6  1  0.425500  0.233700  0.353000  1.0  0.1284
  H  H7  1  0.085000  0.696400  0.393300  1.0  0.115
  H  H8  1  0.041500  0.702200  0.269100  1.0  0.1216
  H  H9  1  0.020700  0.513000  0.160200  1.0  0.1234
  H  H10  1  0.902300  0.396700  0.174100  1.0  0.115
  H  H11  1  0.608000  0.162000  0.686000  1.0  0.4768
  H  H12  1  0.572000  0.129000  0.768000  1.0  0.416
  H  H13  1  0.543100  0.707700  0.509100  1.0  0.1294
  H  H14  1  0.574500  0.766300  0.647000  1.0  0.1281
  H  H15  1  0.915000  0.303600  0.606700  1.0  0.1147
  H  H16  1  0.958500  0.297800  0.730900  1.0  0.1199
  H  H17  1  0.979300  0.487000  0.839800  1.0  0.1241
  H  H18  1  0.097700  0.603300  0.825900  1.0  0.1155
  H  H19  1  0.392000  0.838000  0.314000  1.0  0.4762
  H  H20  1  0.428000  0.871000  0.232000  1.0  0.4155
  C  C21  1  0.812200  0.508100  0.352300  1.0  0.0271
  C  C22  1  0.694100  0.394400  0.329100  1.0  -0.0922
  C  C23  1  0.643900  0.381800  0.430200  1.0  0.0037
  C  C24  1  0.726200  0.484200  0.527900  1.0  -0.2217
  C  C25  1  0.621900  0.298800  0.216900  1.0  0.3491
  C  C26  1  0.513800  0.269500  0.426400  1.0  -0.3523
  C  C27  1  0.593700  0.174200  0.435800  1.0  0.7864
  C  C28  1  0.716500  0.512900  0.650200  1.0  0.6718
  C  C29  1  0.990300  0.682400  0.329500  1.0  -0.2467
  C  C30  1  0.890800  0.769700  0.376150  1.0  0.7048
  C  C31  1  0.906300  0.475900  0.170320  1.0  -0.2008
  C  C32  1  0.773900  0.452500  0.064300  1.0  0.7455
  C  C33  1  0.187800  0.491900  0.647700  1.0  0.0275
  C  C34  1  0.305900  0.605600  0.670900  1.0  -0.09
  C  C35  1  0.356100  0.618200  0.569800  1.0  0.0052
  C  C36  1  0.273800  0.515800  0.472100  1.0  -0.2212
  C  C37  1  0.378100  0.701200  0.783100  1.0  0.3451
  C  C38  1  0.486200  0.730500  0.573600  1.0  -0.3523
  C  C39  1  0.406300  0.825800  0.564200  1.0  0.7867
  C  C40  1  0.283500  0.487100  0.349800  1.0  0.6727
  C  C41  1  0.009700  0.317600  0.670500  1.0  -0.2437
  C  C42  1  0.109200  0.230300  0.623850  1.0  0.7032
  C  C43  1  0.093700  0.524100  0.829680  1.0  -0.2002
  C  C44  1  0.226100  0.547500  0.935700  1.0  0.744
  S  S45  1  0.861610  0.597710  0.498780  1.0  0.0489
  S  S46  1  0.138390  0.402290  0.501220  1.0  0.0487
  N  N47  1  0.561800  0.219300  0.128800  1.0  -0.4179
  N  N48  1  0.887300  0.554290  0.280880  1.0  -0.1442
  N  N49  1  0.438200  0.780700  0.871200  1.0  -0.4186
  N  N50  1  0.112700  0.445710  0.719120  1.0  -0.1436
  O  O51  1  0.697400  0.149220  0.375460  1.0  -0.6742
  O  O52  1  0.549700  0.121300  0.502080  1.0  -0.707
  O  O53  1  0.640800  0.428560  0.678410  1.0  -0.6386
  O  O54  1  0.790500  0.623410  0.719480  1.0  -0.5827
  O  O55  1  0.735600  0.741410  0.329360  1.0  -0.7793
  O  O56  1  0.974100  0.869590  0.458130  1.0  -0.7431
  O  O57  1  0.793100  0.390050  0.967510  1.0  -0.6757
  O  O58  1  0.653300  0.494640  0.074650  1.0  -0.7907
  O  O59  1  0.548600  0.168370  0.731570  1.0  -0.91
  O  O60  1  0.302600  0.850780  0.624540  1.0  -0.6747
  O  O61  1  0.450300  0.878700  0.497920  1.0  -0.7071
  O  O62  1  0.359200  0.571440  0.321590  1.0  -0.6364
  O  O63  1  0.209500  0.376590  0.280520  1.0  -0.5842
  O  O64  1  0.264400  0.258590  0.670640  1.0  -0.7796
  O  O65  1  0.025900  0.130410  0.541870  1.0  -0.7432
  O  O66  1  0.206900  0.609950  0.032490  1.0  -0.6754
  O  O67  1  0.346700  0.505360  0.925350  1.0  -0.7896
  O  O68  1  0.451400  0.831630  0.268430  1.0  -0.9079
