# generated using pymatgen
data_CuH12(C3N)6
_symmetry_space_group_name_H-M   'P 1'
_cell_length_a   9.91700000
_cell_length_b   8.74090000
_cell_length_c   22.49900000
_cell_angle_alpha   90.00000000
_cell_angle_beta   107.43000000
_cell_angle_gamma   90.00000000
_symmetry_Int_Tables_number   1
_chemical_formula_structural   CuH12(C3N)6
_chemical_formula_sum   'Cu4 H48 C72 N24'
_cell_volume   1860.74182927
_cell_formula_units_Z   4
loop_
 _symmetry_equiv_pos_site_id
 _symmetry_equiv_pos_as_xyz
  1  'x, y, z'
loop_
 _atom_site_type_symbol
 _atom_site_label
 _atom_site_symmetry_multiplicity
 _atom_site_fract_x
 _atom_site_fract_y
 _atom_site_fract_z
 _atom_site_occupancy
 _atom_site_charge
  Cu  Cu1  1  0.801440  0.380690  0.156910  1.0  0.396
  Cu  Cu2  1  0.801440  0.119310  0.656910  1.0  0.3958
  Cu  Cu3  1  0.198560  0.880690  0.343090  1.0  0.3958
  Cu  Cu4  1  0.198560  0.619310  0.843090  1.0  0.396
  H  H5  1  0.741600  0.553700  0.256900  1.0  0.0752
  H  H6  1  0.851300  0.631800  0.356300  1.0  0.1155
  H  H7  1  0.179500  0.364200  0.356800  1.0  0.1178
  H  H8  1  0.060000  0.294500  0.257300  1.0  0.0602
  H  H9  1  0.598100  0.147400  0.536600  1.0  0.0804
  H  H10  1  0.405300  0.287200  0.484000  1.0  0.1177
  H  H11  1  0.455700  0.538100  0.638200  1.0  0.1259
  H  H12  1  0.648200  0.390400  0.685800  1.0  0.0694
  H  H13  1  0.099400  0.011100  0.672200  1.0  0.0745
  H  H14  1  0.212400  0.839300  0.627100  1.0  0.1306
  H  H15  1  0.859200  0.814300  0.482900  1.0  0.1153
  H  H16  1  0.753800  0.977500  0.534200  1.0  0.0807
  H  H17  1  0.741600  0.946300  0.756900  1.0  0.0752
  H  H18  1  0.851300  0.868200  0.856300  1.0  0.116
  H  H19  1  0.179500  0.135800  0.856800  1.0  0.1179
  H  H20  1  0.060000  0.205500  0.757300  1.0  0.0599
  H  H21  1  0.598100  0.352600  0.036600  1.0  0.0802
  H  H22  1  0.405300  0.212800  0.984000  1.0  0.1179
  H  H23  1  0.455700  0.961900  0.138200  1.0  0.1262
  H  H24  1  0.648200  0.109600  0.185800  1.0  0.0695
  H  H25  1  0.099400  0.488900  0.172200  1.0  0.0749
  H  H26  1  0.212400  0.660700  0.127100  1.0  0.1308
  H  H27  1  0.859200  0.685700  0.982900  1.0  0.1152
  H  H28  1  0.753800  0.522500  0.034200  1.0  0.0805
  H  H29  1  0.258400  0.053700  0.243100  1.0  0.0747
  H  H30  1  0.148700  0.131800  0.143700  1.0  0.1157
  H  H31  1  0.820500  0.864200  0.143200  1.0  0.1182
  H  H32  1  0.940000  0.794500  0.242700  1.0  0.0608
  H  H33  1  0.401900  0.647400  0.963400  1.0  0.08
  H  H34  1  0.594700  0.787200  0.016000  1.0  0.1167
  H  H35  1  0.544300  0.038100  0.861800  1.0  0.1253
  H  H36  1  0.351800  0.890400  0.814200  1.0  0.069
  H  H37  1  0.900600  0.511100  0.827800  1.0  0.0744
  H  H38  1  0.787600  0.339300  0.872900  1.0  0.1319
  H  H39  1  0.140800  0.314300  0.017100  1.0  0.1142
  H  H40  1  0.246200  0.477500  0.965800  1.0  0.0801
  H  H41  1  0.258400  0.446300  0.743100  1.0  0.0748
  H  H42  1  0.148700  0.368200  0.643700  1.0  0.1158
  H  H43  1  0.820500  0.635800  0.643200  1.0  0.118
  H  H44  1  0.940000  0.705500  0.742700  1.0  0.0604
  H  H45  1  0.401900  0.852600  0.463400  1.0  0.0799
  H  H46  1  0.594700  0.712800  0.516000  1.0  0.1169
  H  H47  1  0.544300  0.461900  0.361800  1.0  0.1252
  H  H48  1  0.351800  0.609600  0.314200  1.0  0.069
  H  H49  1  0.900600  0.988900  0.327800  1.0  0.0748
  H  H50  1  0.787600  0.160700  0.372900  1.0  0.1316
  H  H51  1  0.140800  0.185700  0.517100  1.0  0.1146
  H  H52  1  0.246200  0.022500  0.465800  1.0  0.0802
  C  C53  1  0.830900  0.515400  0.277310  1.0  0.1523
  C  C54  1  0.896000  0.562900  0.336890  1.0  -0.1576
  C  C55  1  0.029300  0.507300  0.368120  1.0  -0.0554
  C  C56  1  0.090400  0.404700  0.337350  1.0  -0.1671
  C  C57  1  0.017700  0.363500  0.277720  1.0  0.1624
  C  C58  1  0.569100  0.227300  0.557160  1.0  0.1762
  C  C59  1  0.453100  0.310400  0.525320  1.0  -0.1492
  C  C60  1  0.407700  0.429300  0.555110  1.0  -0.0754
  C  C61  1  0.482700  0.459200  0.616410  1.0  -0.1794
  C  C62  1  0.598300  0.369600  0.644550  1.0  0.161
  C  C63  1  0.049600  0.968200  0.634200  1.0  0.1692
  C  C64  1  0.119100  0.866400  0.607140  1.0  -0.1703
  C  C65  1  0.047400  0.805000  0.549670  1.0  -0.106
  C  C66  1  0.909400  0.850700  0.522110  1.0  -0.1576
  C  C67  1  0.847400  0.949800  0.552970  1.0  0.1773
  C  C68  1  0.102100  0.552300  0.433210  1.0  0.395
  C  C69  1  0.280600  0.516500  0.521410  1.0  0.3696
  C  C70  1  0.112200  0.689800  0.518930  1.0  0.3643
  C  C71  1  0.830900  0.984600  0.777310  1.0  0.1519
  C  C72  1  0.896000  0.937100  0.836890  1.0  -0.1567
  C  C73  1  0.029300  0.992700  0.868120  1.0  -0.0554
  C  C74  1  0.090400  0.095300  0.837350  1.0  -0.1674
  C  C75  1  0.017700  0.136500  0.777720  1.0  0.1625
  C  C76  1  0.569100  0.272700  0.057160  1.0  0.1778
  C  C77  1  0.453100  0.189600  0.025320  1.0  -0.1481
  C  C78  1  0.407700  0.070700  0.055110  1.0  -0.0759
  C  C79  1  0.482700  0.040800  0.116410  1.0  -0.1786
  C  C80  1  0.598300  0.130400  0.144550  1.0  0.1606
  C  C81  1  0.049600  0.531800  0.134200  1.0  0.1694
  C  C82  1  0.119100  0.633600  0.107140  1.0  -0.1703
  C  C83  1  0.047400  0.695000  0.049670  1.0  -0.1065
  C  C84  1  0.909400  0.649300  0.022110  1.0  -0.1574
  C  C85  1  0.847400  0.550200  0.052970  1.0  0.1778
  C  C86  1  0.102100  0.947700  0.933210  1.0  0.3951
  C  C87  1  0.280600  0.983500  0.021410  1.0  0.3694
  C  C88  1  0.112200  0.810200  0.018930  1.0  0.3643
  C  C89  1  0.169100  0.015400  0.222690  1.0  0.1523
  C  C90  1  0.104000  0.062900  0.163110  1.0  -0.1586
  C  C91  1  0.970700  0.007300  0.131880  1.0  -0.0563
  C  C92  1  0.909600  0.904700  0.162650  1.0  -0.1647
  C  C93  1  0.982300  0.863500  0.222280  1.0  0.1622
  C  C94  1  0.430900  0.727300  0.942840  1.0  0.1747
  C  C95  1  0.546900  0.810400  0.974680  1.0  -0.1471
  C  C96  1  0.592300  0.929300  0.944890  1.0  -0.0739
  C  C97  1  0.517300  0.959200  0.883590  1.0  -0.1775
  C  C98  1  0.401700  0.869600  0.855450  1.0  0.161
  C  C99  1  0.950400  0.468200  0.865800  1.0  0.1706
  C  C100  1  0.880900  0.366400  0.892860  1.0  -0.1694
  C  C101  1  0.952600  0.305000  0.950330  1.0  -0.1067
  C  C102  1  0.090600  0.350700  0.977890  1.0  -0.1583
  C  C103  1  0.152600  0.449800  0.947030  1.0  0.1773
  C  C104  1  0.897900  0.052300  0.066790  1.0  0.3952
  C  C105  1  0.719400  0.016500  0.978590  1.0  0.3703
  C  C106  1  0.887800  0.189800  0.981070  1.0  0.3646
  C  C107  1  0.169100  0.484600  0.722690  1.0  0.1526
  C  C108  1  0.104000  0.437100  0.663110  1.0  -0.1584
  C  C109  1  0.970700  0.492700  0.631880  1.0  -0.0562
  C  C110  1  0.909600  0.595300  0.662650  1.0  -0.1643
  C  C111  1  0.982300  0.636500  0.722280  1.0  0.1622
  C  C112  1  0.430900  0.772700  0.442840  1.0  0.1759
  C  C113  1  0.546900  0.689600  0.474680  1.0  -0.147
  C  C114  1  0.592300  0.570700  0.444890  1.0  -0.0761
  C  C115  1  0.517300  0.540800  0.383590  1.0  -0.1778
  C  C116  1  0.401700  0.630400  0.355450  1.0  0.1607
  C  C117  1  0.950400  0.031800  0.365800  1.0  0.1699
  C  C118  1  0.880900  0.133600  0.392860  1.0  -0.1701
  C  C119  1  0.952600  0.195000  0.450330  1.0  -0.1071
  C  C120  1  0.090600  0.149300  0.477890  1.0  -0.1584
  C  C121  1  0.152600  0.050200  0.447030  1.0  0.1775
  C  C122  1  0.897900  0.447700  0.566790  1.0  0.3951
  C  C123  1  0.719400  0.483500  0.478590  1.0  0.3701
  C  C124  1  0.887800  0.310200  0.481070  1.0  0.3642
  N  N125  1  0.889200  0.416900  0.247030  1.0  -0.3211
  N  N126  1  0.643200  0.255400  0.616530  1.0  -0.3079
  N  N127  1  0.914800  0.009100  0.609040  1.0  -0.3614
  N  N128  1  0.042200  0.657700  0.459640  1.0  -0.4739
  N  N129  1  0.222100  0.479200  0.461750  1.0  -0.5017
  N  N130  1  0.230600  0.621500  0.552280  1.0  -0.5074
  N  N131  1  0.889200  0.083100  0.747030  1.0  -0.3202
  N  N132  1  0.643200  0.244600  0.116530  1.0  -0.3084
  N  N133  1  0.914800  0.490900  0.109040  1.0  -0.3608
  N  N134  1  0.042200  0.842300  0.959640  1.0  -0.4741
  N  N135  1  0.222100  0.020800  0.961750  1.0  -0.5016
  N  N136  1  0.230600  0.878500  0.052280  1.0  -0.5073
  N  N137  1  0.110800  0.916900  0.252970  1.0  -0.319
  N  N138  1  0.356800  0.755400  0.883470  1.0  -0.3101
  N  N139  1  0.085200  0.509100  0.890960  1.0  -0.3611
  N  N140  1  0.957800  0.157700  0.040360  1.0  -0.472
  N  N141  1  0.777900  0.979200  0.038250  1.0  -0.5014
  N  N142  1  0.769400  0.121500  0.947720  1.0  -0.5069
  N  N143  1  0.110800  0.583100  0.752970  1.0  -0.319
  N  N144  1  0.356800  0.744600  0.383470  1.0  -0.3084
  N  N145  1  0.085200  0.990900  0.390960  1.0  -0.3606
  N  N146  1  0.957800  0.342300  0.540360  1.0  -0.4705
  N  N147  1  0.777900  0.520800  0.538250  1.0  -0.5018
  N  N148  1  0.769400  0.378500  0.447720  1.0  -0.5075
