# generated using pymatgen
data_TbH3(C3O2)3
_symmetry_space_group_name_H-M   'P 1'
_cell_length_a   10.33970000
_cell_length_b   10.33970000
_cell_length_c   14.50610000
_cell_angle_alpha   90.00000000
_cell_angle_beta   90.00000000
_cell_angle_gamma   90.00000000
_symmetry_Int_Tables_number   1
_chemical_formula_structural   TbH3(C3O2)3
_chemical_formula_sum   'Tb4 H12 C36 O24'
_cell_volume   1550.83839062
_cell_formula_units_Z   4
loop_
 _symmetry_equiv_pos_site_id
 _symmetry_equiv_pos_as_xyz
  1  'x, y, z'
loop_
 _atom_site_type_symbol
 _atom_site_label
 _atom_site_symmetry_multiplicity
 _atom_site_fract_x
 _atom_site_fract_y
 _atom_site_fract_z
 _atom_site_occupancy
 _atom_site_charge
  Tb  Tb1  1  0.647450  0.647360  0.157440  1.0  2.3196
  Tb  Tb2  1  0.352550  0.352640  0.657440  1.0  2.3207
  Tb  Tb3  1  0.352640  0.647450  0.907440  1.0  2.3199
  Tb  Tb4  1  0.647360  0.352550  0.407440  1.0  2.3209
  H  H5  1  0.395500  0.503400  0.282600  1.0  0.0667
  H  H6  1  0.059200  0.426000  0.410200  1.0  0.1055
  H  H7  1  0.056800  0.569700  0.153400  1.0  0.1039
  H  H8  1  0.604500  0.496600  0.782600  1.0  0.0659
  H  H9  1  0.940800  0.574000  0.910200  1.0  0.1057
  H  H10  1  0.943200  0.430300  0.653400  1.0  0.1039
  H  H11  1  0.496600  0.395500  0.032600  1.0  0.0652
  H  H12  1  0.574000  0.059200  0.160200  1.0  0.1056
  H  H13  1  0.430300  0.056800  0.903400  1.0  0.1038
  H  H14  1  0.503400  0.604500  0.532600  1.0  0.0651
  H  H15  1  0.426000  0.940800  0.660200  1.0  0.1055
  H  H16  1  0.569700  0.943200  0.403400  1.0  0.1042
  C  C17  1  0.305500  0.500800  0.282100  1.0  0.0344
  C  C18  1  0.038700  0.500700  0.281900  1.0  -0.1718
  C  C19  1  0.313900  0.587500  0.120600  1.0  0.7706
  C  C20  1  0.104400  0.456100  0.359100  1.0  0.0282
  C  C21  1  0.239700  0.541100  0.204400  1.0  -0.1692
  C  C22  1  0.102600  0.541700  0.204900  1.0  0.0332
  C  C23  1  0.240800  0.457100  0.358900  1.0  -0.1787
  C  C24  1  0.888300  0.499500  0.281800  1.0  0.7978
  C  C25  1  0.313600  0.413600  0.443500  1.0  0.7933
  C  C26  1  0.694500  0.499200  0.782100  1.0  0.0334
  C  C27  1  0.961300  0.499300  0.781900  1.0  -0.1711
  C  C28  1  0.686100  0.412500  0.620600  1.0  0.7721
  C  C29  1  0.895600  0.543900  0.859100  1.0  0.0279
  C  C30  1  0.760300  0.458900  0.704400  1.0  -0.1694
  C  C31  1  0.897400  0.458300  0.704900  1.0  0.0343
  C  C32  1  0.759200  0.542900  0.858900  1.0  -0.179
  C  C33  1  0.111700  0.500500  0.781800  1.0  0.7959
  C  C34  1  0.686400  0.586400  0.943500  1.0  0.7946
  C  C35  1  0.499200  0.305500  0.032100  1.0  0.0335
  C  C36  1  0.499300  0.038700  0.031900  1.0  -0.1686
  C  C37  1  0.412500  0.313900  0.870600  1.0  0.7713
  C  C38  1  0.543900  0.104400  0.109100  1.0  0.0284
  C  C39  1  0.458900  0.239700  0.954400  1.0  -0.1702
  C  C40  1  0.458300  0.102600  0.954900  1.0  0.0341
  C  C41  1  0.542900  0.240800  0.108900  1.0  -0.1797
  C  C42  1  0.500500  0.888300  0.031800  1.0  0.7953
  C  C43  1  0.586400  0.313600  0.193500  1.0  0.7953
  C  C44  1  0.500800  0.694500  0.532100  1.0  0.0343
  C  C45  1  0.500700  0.961300  0.531900  1.0  -0.1693
  C  C46  1  0.587500  0.686100  0.370600  1.0  0.7707
  C  C47  1  0.456100  0.895600  0.609100  1.0  0.0276
  C  C48  1  0.541100  0.760300  0.454400  1.0  -0.1703
  C  C49  1  0.541700  0.897400  0.454900  1.0  0.034
  C  C50  1  0.457100  0.759200  0.608900  1.0  -0.178
  C  C51  1  0.499500  0.111700  0.531800  1.0  0.7963
  C  C52  1  0.413600  0.686400  0.693500  1.0  0.7937
  O  O53  1  0.430300  0.610500  0.130300  1.0  -0.7739
  O  O54  1  0.835800  0.428800  0.339400  1.0  -0.7745
  O  O55  1  0.836600  0.567200  0.222800  1.0  -0.7628
  O  O56  1  0.254700  0.404500  0.518100  1.0  -0.7453
  O  O57  1  0.430000  0.390500  0.434000  1.0  -0.7703
  O  O58  1  0.254500  0.594800  0.046400  1.0  -0.707
  O  O59  1  0.569700  0.389500  0.630300  1.0  -0.7753
  O  O60  1  0.164200  0.571200  0.839400  1.0  -0.7742
  O  O61  1  0.163400  0.432800  0.722800  1.0  -0.7638
  O  O62  1  0.745300  0.595500  0.018100  1.0  -0.7472
  O  O63  1  0.570000  0.609500  0.934000  1.0  -0.769
  O  O64  1  0.745500  0.405200  0.546400  1.0  -0.7069
  O  O65  1  0.389500  0.430300  0.880300  1.0  -0.7785
  O  O66  1  0.571200  0.835800  0.089400  1.0  -0.7728
  O  O67  1  0.432800  0.836600  0.972800  1.0  -0.7615
  O  O68  1  0.595500  0.254700  0.268100  1.0  -0.7438
  O  O69  1  0.609500  0.430000  0.184000  1.0  -0.7722
  O  O70  1  0.405200  0.254500  0.796400  1.0  -0.7064
  O  O71  1  0.610500  0.569700  0.380300  1.0  -0.7768
  O  O72  1  0.428800  0.164200  0.589400  1.0  -0.7717
  O  O73  1  0.567200  0.163400  0.472800  1.0  -0.7614
  O  O74  1  0.404500  0.745300  0.768100  1.0  -0.7449
  O  O75  1  0.390500  0.570000  0.684000  1.0  -0.7724
  O  O76  1  0.594800  0.745500  0.296400  1.0  -0.7043
