# generated using pymatgen
data_Cd3H24C40(N4Cl)2
_symmetry_space_group_name_H-M   'P 1'
_cell_length_a   26.06700000
_cell_length_b   21.16880000
_cell_length_c   7.63540000
_cell_angle_alpha   90.00000000
_cell_angle_beta   90.00000000
_cell_angle_gamma   90.00000000
_symmetry_Int_Tables_number   1
_chemical_formula_structural   Cd3H24C40(N4Cl)2
_chemical_formula_sum   'Cd12 H96 C160 N32 Cl8'
_cell_volume   4213.26800464
_cell_formula_units_Z   4
loop_
 _symmetry_equiv_pos_site_id
 _symmetry_equiv_pos_as_xyz
  1  'x, y, z'
loop_
 _atom_site_type_symbol
 _atom_site_label
 _atom_site_symmetry_multiplicity
 _atom_site_fract_x
 _atom_site_fract_y
 _atom_site_fract_z
 _atom_site_occupancy
 _atom_site_charge
  Cd  Cd1  1  0.498260  0.527150  0.460040  1.0  0.8988
  Cd  Cd2  1  0.001740  0.472850  0.960040  1.0  0.9016
  Cd  Cd3  1  0.501740  0.027150  0.539960  1.0  0.8962
  Cd  Cd4  1  0.998260  0.972850  0.039960  1.0  0.9006
  Cd  Cd5  1  0.501740  0.472850  0.539960  1.0  0.9007
  Cd  Cd6  1  0.998260  0.527150  0.039960  1.0  0.8966
  Cd  Cd7  1  0.498260  0.972850  0.460040  1.0  0.9016
  Cd  Cd8  1  0.001740  0.027150  0.960040  1.0  0.8985
  Cd  Cd9  1  0.769120  0.750000  0.639470  1.0  0.7757
  Cd  Cd10  1  0.730880  0.250000  0.139470  1.0  0.7748
  Cd  Cd11  1  0.230880  0.250000  0.360530  1.0  0.7749
  Cd  Cd12  1  0.269120  0.750000  0.860530  1.0  0.7757
  H  H13  1  0.683800  0.468400  0.251900  1.0  0.0856
  H  H14  1  0.697500  0.533700  0.516900  1.0  0.1027
  H  H15  1  0.573500  0.641600  0.993700  1.0  0.086
  H  H16  1  0.480400  0.637700  0.056400  1.0  0.0938
  H  H17  1  0.673300  0.652400  0.591900  1.0  0.0604
  H  H18  1  0.760200  0.674500  0.009500  1.0  0.0626
  H  H19  1  0.712700  0.600600  0.163900  1.0  0.0885
  H  H20  1  0.643600  0.550000  0.024800  1.0  0.0703
  H  H21  1  0.648700  0.354700  0.232900  1.0  0.0614
  H  H22  1  0.697700  0.314600  0.758500  1.0  0.0592
  H  H23  1  0.640000  0.385200  0.636500  1.0  0.0804
  H  H24  1  0.585700  0.444000  0.818800  1.0  0.0845
  H  H25  1  0.816200  0.531600  0.751900  1.0  0.0856
  H  H26  1  0.802500  0.466300  0.016900  1.0  0.1053
  H  H27  1  0.926500  0.358400  0.493700  1.0  0.0864
  H  H28  1  0.019600  0.362300  0.556400  1.0  0.0942
  H  H29  1  0.826700  0.347600  0.091900  1.0  0.0588
  H  H30  1  0.739800  0.325500  0.509500  1.0  0.0626
  H  H31  1  0.787300  0.399400  0.663900  1.0  0.088
  H  H32  1  0.856400  0.450000  0.524800  1.0  0.07
  H  H33  1  0.851300  0.645300  0.732900  1.0  0.0607
  H  H34  1  0.802300  0.685400  0.258500  1.0  0.0593
  H  H35  1  0.860000  0.614800  0.136500  1.0  0.0807
  H  H36  1  0.914300  0.556000  0.318800  1.0  0.0853
  H  H37  1  0.316200  0.968400  0.748100  1.0  0.0882
  H  H38  1  0.302500  0.033700  0.483100  1.0  0.1056
  H  H39  1  0.426500  0.141600  0.006300  1.0  0.0865
  H  H40  1  0.519600  0.137700  0.943600  1.0  0.0929
  H  H41  1  0.326700  0.152400  0.408100  1.0  0.0572
  H  H42  1  0.239800  0.174500  0.990500  1.0  0.0619
  H  H43  1  0.287300  0.100600  0.836100  1.0  0.0885
  H  H44  1  0.356400  0.050000  0.975200  1.0  0.0698
  H  H45  1  0.351300  0.854700  0.767100  1.0  0.0612
  H  H46  1  0.302300  0.814600  0.241500  1.0  0.0594
  H  H47  1  0.360000  0.885200  0.363500  1.0  0.0804
  H  H48  1  0.414300  0.944000  0.181200  1.0  0.0851
  H  H49  1  0.183800  0.031600  0.248100  1.0  0.0837
  H  H50  1  0.197500  0.966300  0.983100  1.0  0.1043
  H  H51  1  0.073500  0.858400  0.506300  1.0  0.0825
  H  H52  1  0.980400  0.862300  0.443600  1.0  0.0936
  H  H53  1  0.173300  0.847600  0.908100  1.0  0.0603
  H  H54  1  0.260200  0.825500  0.490500  1.0  0.0638
  H  H55  1  0.212700  0.899400  0.336100  1.0  0.0884
  H  H56  1  0.143600  0.950000  0.475200  1.0  0.0696
  H  H57  1  0.148700  0.145300  0.267100  1.0  0.0629
  H  H58  1  0.197700  0.185400  0.741500  1.0  0.0596
  H  H59  1  0.140000  0.114800  0.863500  1.0  0.0808
  H  H60  1  0.085700  0.056000  0.681200  1.0  0.085
  H  H61  1  0.316200  0.531600  0.748100  1.0  0.0854
  H  H62  1  0.302500  0.466300  0.483100  1.0  0.1054
  H  H63  1  0.426500  0.358400  0.006300  1.0  0.0855
  H  H64  1  0.519600  0.362300  0.943600  1.0  0.0936
  H  H65  1  0.326700  0.347600  0.408100  1.0  0.0579
  H  H66  1  0.239800  0.325500  0.990500  1.0  0.0624
  H  H67  1  0.287300  0.399400  0.836100  1.0  0.0881
  H  H68  1  0.356400  0.450000  0.975200  1.0  0.0695
  H  H69  1  0.351300  0.645300  0.767100  1.0  0.0615
  H  H70  1  0.302300  0.685400  0.241500  1.0  0.0594
  H  H71  1  0.360000  0.614800  0.363500  1.0  0.0809
  H  H72  1  0.414300  0.556000  0.181200  1.0  0.085
  H  H73  1  0.183800  0.468400  0.248100  1.0  0.0857
  H  H74  1  0.197500  0.533700  0.983100  1.0  0.1044
  H  H75  1  0.073500  0.641600  0.506300  1.0  0.0828
  H  H76  1  0.980400  0.637700  0.443600  1.0  0.0932
  H  H77  1  0.173300  0.652400  0.908100  1.0  0.0599
  H  H78  1  0.260200  0.674500  0.490500  1.0  0.0629
  H  H79  1  0.212700  0.600600  0.336100  1.0  0.0886
  H  H80  1  0.143600  0.550000  0.475200  1.0  0.07
  H  H81  1  0.148700  0.354700  0.267100  1.0  0.0626
  H  H82  1  0.197700  0.314600  0.741500  1.0  0.0597
  H  H83  1  0.140000  0.385200  0.863500  1.0  0.0803
  H  H84  1  0.085700  0.444000  0.681200  1.0  0.0851
  H  H85  1  0.683800  0.031600  0.251900  1.0  0.0836
  H  H86  1  0.697500  0.966300  0.516900  1.0  0.1045
  H  H87  1  0.573500  0.858400  0.993700  1.0  0.0863
  H  H88  1  0.480400  0.862300  0.056400  1.0  0.0944
  H  H89  1  0.673300  0.847600  0.591900  1.0  0.0608
  H  H90  1  0.760200  0.825500  0.009500  1.0  0.0635
  H  H91  1  0.712700  0.899400  0.163900  1.0  0.0888
  H  H92  1  0.643600  0.950000  0.024800  1.0  0.0702
  H  H93  1  0.648700  0.145300  0.232900  1.0  0.0615
  H  H94  1  0.697700  0.185400  0.758500  1.0  0.0595
  H  H95  1  0.640000  0.114800  0.636500  1.0  0.0807
  H  H96  1  0.585700  0.056000  0.818800  1.0  0.0854
  H  H97  1  0.816200  0.968400  0.751900  1.0  0.088
  H  H98  1  0.802500  0.033700  0.016900  1.0  0.1036
  H  H99  1  0.926500  0.141600  0.493700  1.0  0.0866
  H  H100  1  0.019600  0.137700  0.556400  1.0  0.0935
  H  H101  1  0.826700  0.152400  0.091900  1.0  0.0574
  H  H102  1  0.739800  0.174500  0.509500  1.0  0.062
  H  H103  1  0.787300  0.100600  0.663900  1.0  0.0878
  H  H104  1  0.856400  0.050000  0.524800  1.0  0.0701
  H  H105  1  0.851300  0.854700  0.732900  1.0  0.0606
  H  H106  1  0.802300  0.814600  0.258500  1.0  0.059
  H  H107  1  0.860000  0.885200  0.136500  1.0  0.0804
  H  H108  1  0.914300  0.944000  0.318800  1.0  0.0845
  C  C109  1  0.603210  0.474070  0.309400  1.0  0.1355
  C  C110  1  0.657890  0.484030  0.327900  1.0  -0.2246
  C  C111  1  0.665430  0.519590  0.472700  1.0  -0.198
  C  C112  1  0.616000  0.532150  0.547200  1.0  0.1234
  C  C113  1  0.606210  0.566700  0.703200  1.0  -0.075
  C  C114  1  0.558130  0.575400  0.786000  1.0  0.1662
  C  C115  1  0.548600  0.617250  0.932800  1.0  -0.1909
  C  C116  1  0.497800  0.615160  0.966800  1.0  -0.1988
  C  C117  1  0.474900  0.572630  0.842700  1.0  0.1191
  C  C118  1  0.578420  0.439240  0.176600  1.0  -0.0997
  C  C119  1  0.651160  0.596280  0.791200  1.0  0.0401
  C  C120  1  0.681280  0.641400  0.709400  1.0  0.146
  C  C121  1  0.732000  0.654500  0.953300  1.0  0.1401
  C  C122  1  0.704150  0.610500  0.046100  1.0  -0.1436
  C  C123  1  0.663250  0.580800  0.963800  1.0  -0.0765
  C  C124  1  0.612370  0.406200  0.048200  1.0  0.0365
  C  C125  1  0.647110  0.361780  0.110100  1.0  0.1404
  C  C126  1  0.675520  0.337840  0.833500  1.0  0.1341
  C  C127  1  0.641450  0.380000  0.760000  1.0  -0.113
  C  C128  1  0.609420  0.414710  0.867400  1.0  -0.0877
  C  C129  1  0.896790  0.525930  0.809400  1.0  0.136
  C  C130  1  0.842110  0.515970  0.827900  1.0  -0.2237
  C  C131  1  0.834570  0.480410  0.972700  1.0  -0.1984
  C  C132  1  0.884000  0.467850  0.047200  1.0  0.1218
  C  C133  1  0.893790  0.433300  0.203200  1.0  -0.0756
  C  C134  1  0.941870  0.424600  0.286000  1.0  0.1656
  C  C135  1  0.951400  0.382750  0.432800  1.0  -0.191
  C  C136  1  0.002200  0.384840  0.466800  1.0  -0.1982
  C  C137  1  0.025100  0.427370  0.342700  1.0  0.1172
  C  C138  1  0.921580  0.560760  0.676600  1.0  -0.1004
  C  C139  1  0.848840  0.403720  0.291200  1.0  0.0401
  C  C140  1  0.818720  0.358600  0.209400  1.0  0.1448
  C  C141  1  0.768000  0.345500  0.453300  1.0  0.1445
  C  C142  1  0.795850  0.389500  0.546100  1.0  -0.1444
  C  C143  1  0.836750  0.419200  0.463800  1.0  -0.0761
  C  C144  1  0.887630  0.593800  0.548200  1.0  0.0372
  C  C145  1  0.852890  0.638220  0.610100  1.0  0.1401
  C  C146  1  0.824480  0.662160  0.333500  1.0  0.1338
  C  C147  1  0.858550  0.620000  0.260000  1.0  -0.1122
  C  C148  1  0.890580  0.585290  0.367400  1.0  -0.0871
  C  C149  1  0.396790  0.974070  0.690600  1.0  0.1357
  C  C150  1  0.342110  0.984030  0.672100  1.0  -0.2232
  C  C151  1  0.334570  0.019590  0.527300  1.0  -0.1982
  C  C152  1  0.384000  0.032150  0.452800  1.0  0.1211
  C  C153  1  0.393790  0.066700  0.296800  1.0  -0.0746
  C  C154  1  0.441870  0.075400  0.214000  1.0  0.1647
  C  C155  1  0.451400  0.117250  0.067200  1.0  -0.1911
  C  C156  1  0.502200  0.115160  0.033200  1.0  -0.1982
  C  C157  1  0.525100  0.072630  0.157300  1.0  0.1176
  C  C158  1  0.421580  0.939240  0.823400  1.0  -0.1
  C  C159  1  0.348840  0.096280  0.208800  1.0  0.0403
  C  C160  1  0.318720  0.141400  0.290600  1.0  0.1465
  C  C161  1  0.268000  0.154500  0.046700  1.0  0.147
  C  C162  1  0.295850  0.110500  0.953900  1.0  -0.1453
  C  C163  1  0.336750  0.080800  0.036200  1.0  -0.0758
  C  C164  1  0.387630  0.906200  0.951800  1.0  0.038
  C  C165  1  0.352890  0.861780  0.889900  1.0  0.1398
  C  C166  1  0.324480  0.837840  0.166500  1.0  0.134
  C  C167  1  0.358550  0.880000  0.240000  1.0  -0.1126
  C  C168  1  0.390580  0.914710  0.132600  1.0  -0.0868
  C  C169  1  0.103210  0.025930  0.190600  1.0  0.1358
  C  C170  1  0.157890  0.015970  0.172100  1.0  -0.2225
  C  C171  1  0.165430  0.980410  0.027300  1.0  -0.1981
  C  C172  1  0.116000  0.967850  0.952800  1.0  0.1242
  C  C173  1  0.106210  0.933300  0.796800  1.0  -0.0769
  C  C174  1  0.058130  0.924600  0.714000  1.0  0.1635
  C  C175  1  0.048600  0.882750  0.567200  1.0  -0.1914
  C  C176  1  0.997800  0.884840  0.533200  1.0  -0.1986
  C  C177  1  0.974900  0.927370  0.657300  1.0  0.1175
  C  C178  1  0.078420  0.060760  0.323400  1.0  -0.0995
  C  C179  1  0.151160  0.903720  0.708800  1.0  0.0401
  C  C180  1  0.181280  0.858600  0.790600  1.0  0.1469
  C  C181  1  0.232000  0.845500  0.546700  1.0  0.1404
  C  C182  1  0.204150  0.889500  0.453900  1.0  -0.1445
  C  C183  1  0.163250  0.919200  0.536200  1.0  -0.0766
  C  C184  1  0.112370  0.093800  0.451800  1.0  0.0365
  C  C185  1  0.147110  0.138220  0.389900  1.0  0.14
  C  C186  1  0.175520  0.162160  0.666500  1.0  0.135
  C  C187  1  0.141450  0.120000  0.740000  1.0  -0.113
  C  C188  1  0.109420  0.085290  0.632600  1.0  -0.0879
  C  C189  1  0.396790  0.525930  0.690600  1.0  0.1362
  C  C190  1  0.342110  0.515970  0.672100  1.0  -0.2236
  C  C191  1  0.334570  0.480410  0.527300  1.0  -0.1982
  C  C192  1  0.384000  0.467850  0.452800  1.0  0.1211
  C  C193  1  0.393790  0.433300  0.296800  1.0  -0.0759
  C  C194  1  0.441870  0.424600  0.214000  1.0  0.1639
  C  C195  1  0.451400  0.382750  0.067200  1.0  -0.1912
  C  C196  1  0.502200  0.384840  0.033200  1.0  -0.1983
  C  C197  1  0.525100  0.427370  0.157300  1.0  0.1173
  C  C198  1  0.421580  0.560760  0.823400  1.0  -0.1002
  C  C199  1  0.348840  0.403720  0.208800  1.0  0.0402
  C  C200  1  0.318720  0.358600  0.290600  1.0  0.1458
  C  C201  1  0.268000  0.345500  0.046700  1.0  0.1419
  C  C202  1  0.295850  0.389500  0.953900  1.0  -0.1446
  C  C203  1  0.336750  0.419200  0.036200  1.0  -0.0762
  C  C204  1  0.387630  0.593800  0.951800  1.0  0.0376
  C  C205  1  0.352890  0.638220  0.889900  1.0  0.1398
  C  C206  1  0.324480  0.662160  0.166500  1.0  0.1339
  C  C207  1  0.358550  0.620000  0.240000  1.0  -0.1126
  C  C208  1  0.390580  0.585290  0.132600  1.0  -0.0869
  C  C209  1  0.103210  0.474070  0.190600  1.0  0.1356
  C  C210  1  0.157890  0.484030  0.172100  1.0  -0.2201
  C  C211  1  0.165430  0.519590  0.027300  1.0  -0.198
  C  C212  1  0.116000  0.532150  0.952800  1.0  0.1229
  C  C213  1  0.106210  0.566700  0.796800  1.0  -0.0756
  C  C214  1  0.058130  0.575400  0.714000  1.0  0.1637
  C  C215  1  0.048600  0.617250  0.567200  1.0  -0.1906
  C  C216  1  0.997800  0.615160  0.533200  1.0  -0.2008
  C  C217  1  0.974900  0.572630  0.657300  1.0  0.1186
  C  C218  1  0.078420  0.439240  0.323400  1.0  -0.0996
  C  C219  1  0.151160  0.596280  0.708800  1.0  0.0402
  C  C220  1  0.181280  0.641400  0.790600  1.0  0.1542
  C  C221  1  0.232000  0.654500  0.546700  1.0  0.1413
  C  C222  1  0.204150  0.610500  0.453900  1.0  -0.1453
  C  C223  1  0.163250  0.580800  0.536200  1.0  -0.0762
  C  C224  1  0.112370  0.406200  0.451800  1.0  0.0368
  C  C225  1  0.147110  0.361780  0.389900  1.0  0.1401
  C  C226  1  0.175520  0.337840  0.666500  1.0  0.1344
  C  C227  1  0.141450  0.380000  0.740000  1.0  -0.1128
  C  C228  1  0.109420  0.414710  0.632600  1.0  -0.0874
  C  C229  1  0.603210  0.025930  0.309400  1.0  0.1357
  C  C230  1  0.657890  0.015970  0.327900  1.0  -0.2226
  C  C231  1  0.665430  0.980410  0.472700  1.0  -0.1981
  C  C232  1  0.616000  0.967850  0.547200  1.0  0.1243
  C  C233  1  0.606210  0.933300  0.703200  1.0  -0.0764
  C  C234  1  0.558130  0.924600  0.786000  1.0  0.1656
  C  C235  1  0.548600  0.882750  0.932800  1.0  -0.191
  C  C236  1  0.497800  0.884840  0.966800  1.0  -0.1992
  C  C237  1  0.474900  0.927370  0.842700  1.0  0.1175
  C  C238  1  0.578420  0.060760  0.176600  1.0  -0.0996
  C  C239  1  0.651160  0.903720  0.791200  1.0  0.0401
  C  C240  1  0.681280  0.858600  0.709400  1.0  0.1451
  C  C241  1  0.732000  0.845500  0.953300  1.0  0.1408
  C  C242  1  0.704150  0.889500  0.046100  1.0  -0.1447
  C  C243  1  0.663250  0.919200  0.963800  1.0  -0.0766
  C  C244  1  0.612370  0.093800  0.048200  1.0  0.0361
  C  C245  1  0.647110  0.138220  0.110100  1.0  0.1408
  C  C246  1  0.675520  0.162160  0.833500  1.0  0.1348
  C  C247  1  0.641450  0.120000  0.760000  1.0  -0.1139
  C  C248  1  0.609420  0.085290  0.867400  1.0  -0.0876
  C  C249  1  0.896790  0.974070  0.809400  1.0  0.1357
  C  C250  1  0.842110  0.984030  0.827900  1.0  -0.2234
  C  C251  1  0.834570  0.019590  0.972700  1.0  -0.1985
  C  C252  1  0.884000  0.032150  0.047200  1.0  0.1214
  C  C253  1  0.893790  0.066700  0.203200  1.0  -0.0742
  C  C254  1  0.941870  0.075400  0.286000  1.0  0.1662
  C  C255  1  0.951400  0.117250  0.432800  1.0  -0.1912
  C  C256  1  0.002200  0.115160  0.466800  1.0  -0.1986
  C  C257  1  0.025100  0.072630  0.342700  1.0  0.1182
  C  C258  1  0.921580  0.939240  0.676600  1.0  -0.1003
  C  C259  1  0.848840  0.096280  0.291200  1.0  0.04
  C  C260  1  0.818720  0.141400  0.209400  1.0  0.1456
  C  C261  1  0.768000  0.154500  0.453300  1.0  0.1465
  C  C262  1  0.795850  0.110500  0.546100  1.0  -0.1453
  C  C263  1  0.836750  0.080800  0.463800  1.0  -0.0761
  C  C264  1  0.887630  0.906200  0.548200  1.0  0.0377
  C  C265  1  0.852890  0.861780  0.610100  1.0  0.1407
  C  C266  1  0.824480  0.837840  0.333500  1.0  0.1334
  C  C267  1  0.858550  0.880000  0.260000  1.0  -0.1116
  C  C268  1  0.890580  0.914710  0.367400  1.0  -0.0875
  N  N269  1  0.579150  0.504220  0.446400  1.0  -0.3446
  N  N270  1  0.512650  0.548480  0.737400  1.0  -0.3314
  N  N271  1  0.721050  0.670390  0.786100  1.0  -0.3651
  N  N272  1  0.678570  0.328360  0.006900  1.0  -0.3663
  N  N273  1  0.920850  0.495780  0.946400  1.0  -0.3455
  N  N274  1  0.987350  0.451520  0.237400  1.0  -0.3311
  N  N275  1  0.778950  0.329610  0.286100  1.0  -0.3662
  N  N276  1  0.821430  0.671640  0.506900  1.0  -0.3657
  N  N277  1  0.420850  0.004220  0.553600  1.0  -0.3461
  N  N278  1  0.487350  0.048480  0.262600  1.0  -0.3308
  N  N279  1  0.278950  0.170390  0.213900  1.0  -0.3643
  N  N280  1  0.321430  0.828360  0.993100  1.0  -0.3657
  N  N281  1  0.079150  0.995780  0.053600  1.0  -0.345
  N  N282  1  0.012650  0.951520  0.762600  1.0  -0.3309
  N  N283  1  0.221050  0.829610  0.713900  1.0  -0.3647
  N  N284  1  0.178570  0.171640  0.493100  1.0  -0.3654
  N  N285  1  0.420850  0.495780  0.553600  1.0  -0.3457
  N  N286  1  0.487350  0.451520  0.262600  1.0  -0.3282
  N  N287  1  0.278950  0.329610  0.213900  1.0  -0.3647
  N  N288  1  0.321430  0.671640  0.993100  1.0  -0.3641
  N  N289  1  0.079150  0.504220  0.053600  1.0  -0.3448
  N  N290  1  0.012650  0.548480  0.762600  1.0  -0.3311
  N  N291  1  0.221050  0.670390  0.713900  1.0  -0.3652
  N  N292  1  0.178570  0.328360  0.493100  1.0  -0.3666
  N  N293  1  0.579150  0.995780  0.446400  1.0  -0.3449
  N  N294  1  0.512650  0.951520  0.737400  1.0  -0.3312
  N  N295  1  0.721050  0.829610  0.786100  1.0  -0.3659
  N  N296  1  0.678570  0.171640  0.006900  1.0  -0.3666
  N  N297  1  0.920850  0.004220  0.946400  1.0  -0.3458
  N  N298  1  0.987350  0.048480  0.237400  1.0  -0.3313
  N  N299  1  0.778950  0.170390  0.286100  1.0  -0.3642
  N  N300  1  0.821430  0.828360  0.506900  1.0  -0.3658
  Cl  Cl301  1  0.834240  0.750000  0.908770  1.0  -0.5779
  Cl  Cl302  1  0.709030  0.750000  0.373410  1.0  -0.6047
  Cl  Cl303  1  0.665760  0.250000  0.408770  1.0  -0.5772
  Cl  Cl304  1  0.790970  0.250000  0.873410  1.0  -0.6033
  Cl  Cl305  1  0.165760  0.250000  0.091230  1.0  -0.5773
  Cl  Cl306  1  0.290970  0.250000  0.626590  1.0  -0.6034
  Cl  Cl307  1  0.334240  0.750000  0.591230  1.0  -0.578
  Cl  Cl308  1  0.209030  0.750000  0.126590  1.0  -0.6042
