# generated using pymatgen
data_ErH12C12(NO3)3
_symmetry_space_group_name_H-M   'P 1'
_cell_length_a   7.85290000
_cell_length_b   12.18600000
_cell_length_c   13.22170000
_cell_angle_alpha   112.15600000
_cell_angle_beta   105.45700000
_cell_angle_gamma   91.54100000
_symmetry_Int_Tables_number   1
_chemical_formula_structural   ErH12C12(NO3)3
_chemical_formula_sum   'Er2 H24 C24 N6 O18'
_cell_volume   1117.88377204
_cell_formula_units_Z   2
loop_
 _symmetry_equiv_pos_site_id
 _symmetry_equiv_pos_as_xyz
  1  'x, y, z'
loop_
 _atom_site_type_symbol
 _atom_site_label
 _atom_site_symmetry_multiplicity
 _atom_site_fract_x
 _atom_site_fract_y
 _atom_site_fract_z
 _atom_site_occupancy
 _atom_site_charge
  Er  Er1  1  0.749700  0.981450  0.010740  1.0  1.4907
  Er  Er2  1  0.250300  0.018550  0.989260  1.0  1.4916
  H  H3  1  0.076800  0.153700  0.415300  1.0  0.0959
  H  H4  1  0.068000  0.275000  0.400000  1.0  0.093
  H  H5  1  0.261900  0.228700  0.292500  1.0  0.1257
  H  H6  1  0.297700  0.114200  0.318200  1.0  0.1341
  H  H7  1  0.593900  0.115500  0.681900  1.0  0.0988
  H  H8  1  0.694800  0.232200  0.788000  1.0  0.0971
  H  H9  1  0.448100  0.242100  0.858400  1.0  0.1378
  H  H10  1  0.351200  0.123400  0.753500  1.0  0.1387
  H  H11  1  0.619900  0.605100  0.778400  1.0  0.0945
  H  H12  1  0.511300  0.612500  0.663300  1.0  0.0983
  H  H13  1  0.346400  0.595900  0.823200  1.0  0.1478
  H  H14  1  0.250900  0.618500  0.714100  1.0  0.1396
  H  H15  1  0.923200  0.846300  0.584700  1.0  0.0955
  H  H16  1  0.932000  0.725000  0.600000  1.0  0.0934
  H  H17  1  0.738100  0.771300  0.707500  1.0  0.1257
  H  H18  1  0.702300  0.885800  0.681800  1.0  0.1361
  H  H19  1  0.406100  0.884500  0.318100  1.0  0.0984
  H  H20  1  0.305200  0.767800  0.212000  1.0  0.0983
  H  H21  1  0.551900  0.757900  0.141600  1.0  0.1391
  H  H22  1  0.648800  0.876600  0.246500  1.0  0.1397
  H  H23  1  0.380100  0.394900  0.221600  1.0  0.0956
  H  H24  1  0.488700  0.387500  0.336700  1.0  0.0966
  H  H25  1  0.653600  0.404100  0.176800  1.0  0.1472
  H  H26  1  0.749100  0.381500  0.285900  1.0  0.1401
  C  C27  1  0.339600  0.398700  0.558700  1.0  0.6259
  C  C28  1  0.366200  0.205200  0.572500  1.0  0.6232
  C  C29  1  0.537000  0.387100  0.730000  1.0  0.6188
  C  C30  1  0.146100  0.217000  0.409600  1.0  0.0897
  C  C31  1  0.208100  0.164800  0.305900  1.0  -0.3557
  C  C32  1  0.053500  0.092400  0.203100  1.0  0.7624
  C  C33  1  0.577800  0.190900  0.737000  1.0  0.098
  C  C34  1  0.467000  0.166600  0.804900  1.0  -0.3733
  C  C35  1  0.554000  0.094700  0.870100  1.0  0.7583
  C  C36  1  0.504700  0.581900  0.720200  1.0  0.0913
  C  C37  1  0.362900  0.635000  0.774100  1.0  -0.3797
  C  C38  1  0.406100  0.768400  0.843600  1.0  0.7627
  C  C39  1  0.660400  0.601300  0.441300  1.0  0.6246
  C  C40  1  0.633800  0.794800  0.427500  1.0  0.6205
  C  C41  1  0.463000  0.612900  0.270000  1.0  0.6205
  C  C42  1  0.853900  0.783000  0.590400  1.0  0.0901
  C  C43  1  0.791900  0.835200  0.694100  1.0  -0.3544
  C  C44  1  0.946500  0.907600  0.796900  1.0  0.7609
  C  C45  1  0.422200  0.809100  0.263000  1.0  0.0983
  C  C46  1  0.533000  0.833400  0.195100  1.0  -0.3742
  C  C47  1  0.446000  0.905300  0.129900  1.0  0.7596
  C  C48  1  0.495300  0.418100  0.279800  1.0  0.0919
  C  C49  1  0.637100  0.365000  0.225900  1.0  -0.3803
  C  C50  1  0.593900  0.231600  0.156400  1.0  0.7625
  N  N51  1  0.463100  0.450300  0.665900  1.0  -0.2989
  N  N52  1  0.291800  0.275800  0.516800  1.0  -0.3119
  N  N53  1  0.493900  0.264100  0.675900  1.0  -0.3044
  N  N54  1  0.536900  0.549700  0.334100  1.0  -0.2986
  N  N55  1  0.708200  0.724200  0.483200  1.0  -0.3118
  N  N56  1  0.506100  0.735900  0.324100  1.0  -0.305
  O  O57  1  0.923700  0.042500  0.214300  1.0  -0.5859
  O  O58  1  0.055400  0.086400  0.104000  1.0  -0.7009
  O  O59  1  0.557700  0.819000  0.860700  1.0  -0.6166
  O  O60  1  0.282400  0.818600  0.880400  1.0  -0.6114
  O  O61  1  0.464500  0.050000  0.914800  1.0  -0.7092
  O  O62  1  0.714100  0.080900  0.881100  1.0  -0.5979
  O  O63  1  0.637500  0.436400  0.826500  1.0  -0.4878
  O  O64  1  0.275200  0.457200  0.505700  1.0  -0.4963
  O  O65  1  0.322800  0.097800  0.531000  1.0  -0.4905
  O  O66  1  0.076300  0.957500  0.785700  1.0  -0.5855
  O  O67  1  0.944600  0.913600  0.896000  1.0  -0.6999
  O  O68  1  0.442300  0.181000  0.139300  1.0  -0.6221
  O  O69  1  0.717600  0.181400  0.119600  1.0  -0.6126
  O  O70  1  0.535500  0.950000  0.085200  1.0  -0.7097
  O  O71  1  0.285900  0.919100  0.118900  1.0  -0.5989
  O  O72  1  0.362500  0.563600  0.173500  1.0  -0.4875
  O  O73  1  0.724800  0.542800  0.494300  1.0  -0.4976
  O  O74  1  0.677200  0.902200  0.469000  1.0  -0.4898
