# generated using pymatgen
data_V6Ni2Mo12PH48C40(N8O17)2
_symmetry_space_group_name_H-M   'P 1'
_cell_length_a   13.61200000
_cell_length_b   13.61200000
_cell_length_c   29.95600000
_cell_angle_alpha   90.00000000
_cell_angle_beta   90.00000000
_cell_angle_gamma   90.00000000
_symmetry_Int_Tables_number   1
_chemical_formula_structural   V6Ni2Mo12PH48C40(N8O17)2
_chemical_formula_sum   'V12 Ni4 Mo24 P2 H96 C80 N32 O68'
_cell_volume   5550.44371206
_cell_formula_units_Z   2
loop_
 _symmetry_equiv_pos_site_id
 _symmetry_equiv_pos_as_xyz
  1  'x, y, z'
loop_
 _atom_site_type_symbol
 _atom_site_label
 _atom_site_symmetry_multiplicity
 _atom_site_fract_x
 _atom_site_fract_y
 _atom_site_fract_z
 _atom_site_occupancy
 _atom_site_charge
  V  V1  1  0.000000  0.000000  0.370390  1.0  2.0821
  V  V2  1  0.500000  0.500000  0.129610  1.0  2.0845
  V  V3  1  0.000000  0.000000  0.629610  1.0  2.0845
  V  V4  1  0.500000  0.500000  0.870390  1.0  2.0821
  V  V5  1  0.247200  0.162100  0.500000  1.0  1.2804
  V  V6  1  0.752800  0.837900  0.500000  1.0  1.2909
  V  V7  1  0.837900  0.247200  0.500000  1.0  1.2921
  V  V8  1  0.162100  0.752800  0.500000  1.0  1.2946
  V  V9  1  0.252800  0.662100  0.000000  1.0  1.2863
  V  V10  1  0.747200  0.337900  0.000000  1.0  1.2847
  V  V11  1  0.662100  0.747200  0.000000  1.0  1.2882
  V  V12  1  0.337900  0.252800  0.000000  1.0  1.2959
  Ni  Ni13  1  0.000000  0.000000  0.247270  1.0  0.6582
  Ni  Ni14  1  0.500000  0.500000  0.252730  1.0  0.6633
  Ni  Ni15  1  0.000000  0.000000  0.752730  1.0  0.6633
  Ni  Ni16  1  0.500000  0.500000  0.747270  1.0  0.6582
  Mo  Mo17  1  0.162740  0.108980  0.419340  1.0  1.4334
  Mo  Mo18  1  0.837260  0.891020  0.419340  1.0  1.4316
  Mo  Mo19  1  0.891020  0.162740  0.419340  1.0  1.4354
  Mo  Mo20  1  0.108980  0.837260  0.419340  1.0  1.4318
  Mo  Mo21  1  0.337260  0.608980  0.080660  1.0  1.43
  Mo  Mo22  1  0.662740  0.391020  0.080660  1.0  1.4266
  Mo  Mo23  1  0.608980  0.662740  0.080660  1.0  1.4283
  Mo  Mo24  1  0.391020  0.337260  0.080660  1.0  1.4294
  Mo  Mo25  1  0.837260  0.891020  0.580660  1.0  1.4276
  Mo  Mo26  1  0.162740  0.108980  0.580660  1.0  1.429
  Mo  Mo27  1  0.108980  0.837260  0.580660  1.0  1.4281
  Mo  Mo28  1  0.891020  0.162740  0.580660  1.0  1.4306
  Mo  Mo29  1  0.662740  0.391020  0.919340  1.0  1.4307
  Mo  Mo30  1  0.337260  0.608980  0.919340  1.0  1.4342
  Mo  Mo31  1  0.391020  0.337260  0.919340  1.0  1.4339
  Mo  Mo32  1  0.608980  0.662740  0.919340  1.0  1.4332
  Mo  Mo33  1  0.260280  0.948000  0.500000  1.0  1.2434
  Mo  Mo34  1  0.739720  0.052000  0.500000  1.0  1.2442
  Mo  Mo35  1  0.052000  0.260280  0.500000  1.0  1.2466
  Mo  Mo36  1  0.948000  0.739720  0.500000  1.0  1.2493
  Mo  Mo37  1  0.239720  0.448000  0.000000  1.0  1.2458
  Mo  Mo38  1  0.760280  0.552000  0.000000  1.0  1.2439
  Mo  Mo39  1  0.448000  0.760280  0.000000  1.0  1.2477
  Mo  Mo40  1  0.552000  0.239720  0.000000  1.0  1.25
  P  P41  1  0.000000  0.000000  0.500000  1.0  1.4001
  P  P42  1  0.500000  0.500000  0.000000  1.0  1.4001
  H  H43  1  0.999900  0.336500  0.343200  1.0  0.1621
  H  H44  1  0.036500  0.421500  0.312100  1.0  0.1348
  H  H45  1  0.111300  0.366000  0.342800  1.0  0.1529
  H  H46  1  0.165500  0.088000  0.189100  1.0  0.145
  H  H47  1  0.257700  0.146800  0.205400  1.0  0.1421
  H  H48  1  0.185200  0.194200  0.170900  1.0  0.1458
  H  H49  1  0.000100  0.663500  0.343200  1.0  0.1625
  H  H50  1  0.963500  0.578500  0.312100  1.0  0.1352
  H  H51  1  0.888700  0.634000  0.342800  1.0  0.153
  H  H52  1  0.834500  0.912000  0.189100  1.0  0.1451
  H  H53  1  0.742300  0.853200  0.205400  1.0  0.1457
  H  H54  1  0.814800  0.805800  0.170900  1.0  0.1457
  H  H55  1  0.663500  0.999900  0.343200  1.0  0.1634
  H  H56  1  0.578500  0.036500  0.312100  1.0  0.1325
  H  H57  1  0.634000  0.111300  0.342800  1.0  0.1538
  H  H58  1  0.912000  0.165500  0.189100  1.0  0.1436
  H  H59  1  0.853200  0.257700  0.205400  1.0  0.1461
  H  H60  1  0.805800  0.185200  0.170900  1.0  0.1456
  H  H61  1  0.336500  0.000100  0.343200  1.0  0.1641
  H  H62  1  0.421500  0.963500  0.312100  1.0  0.1317
  H  H63  1  0.366000  0.888700  0.342800  1.0  0.1542
  H  H64  1  0.088000  0.834500  0.189100  1.0  0.1442
  H  H65  1  0.146800  0.742300  0.205400  1.0  0.1459
  H  H66  1  0.194200  0.814800  0.170900  1.0  0.1448
  H  H67  1  0.500100  0.836500  0.156800  1.0  0.1623
  H  H68  1  0.463500  0.921500  0.187900  1.0  0.1352
  H  H69  1  0.388700  0.866000  0.157200  1.0  0.1511
  H  H70  1  0.334500  0.588000  0.310900  1.0  0.1448
  H  H71  1  0.242300  0.646800  0.294600  1.0  0.1466
  H  H72  1  0.314800  0.694200  0.329100  1.0  0.1456
  H  H73  1  0.499900  0.163500  0.156800  1.0  0.1604
  H  H74  1  0.536500  0.078500  0.187900  1.0  0.135
  H  H75  1  0.611300  0.134000  0.157200  1.0  0.1524
  H  H76  1  0.665500  0.412000  0.310900  1.0  0.1441
  H  H77  1  0.757700  0.353200  0.294600  1.0  0.1423
  H  H78  1  0.685200  0.305800  0.329100  1.0  0.1461
  H  H79  1  0.836500  0.499900  0.156800  1.0  0.1625
  H  H80  1  0.921500  0.536500  0.187900  1.0  0.1327
  H  H81  1  0.866000  0.611300  0.157200  1.0  0.1533
  H  H82  1  0.588000  0.665500  0.310900  1.0  0.144
  H  H83  1  0.646800  0.757700  0.294600  1.0  0.1462
  H  H84  1  0.694200  0.685200  0.329100  1.0  0.1453
  H  H85  1  0.163500  0.500100  0.156800  1.0  0.1631
  H  H86  1  0.078500  0.463500  0.187900  1.0  0.1316
  H  H87  1  0.134000  0.388700  0.157200  1.0  0.1532
  H  H88  1  0.412000  0.334500  0.310900  1.0  0.1422
  H  H89  1  0.353200  0.242300  0.294600  1.0  0.1465
  H  H90  1  0.305800  0.314800  0.329100  1.0  0.1454
  H  H91  1  0.000100  0.663500  0.656800  1.0  0.1621
  H  H92  1  0.963500  0.578500  0.687900  1.0  0.1353
  H  H93  1  0.888700  0.634000  0.657200  1.0  0.1513
  H  H94  1  0.834500  0.912000  0.810900  1.0  0.1444
  H  H95  1  0.742300  0.853200  0.794600  1.0  0.1468
  H  H96  1  0.814800  0.805800  0.829100  1.0  0.1454
  H  H97  1  0.999900  0.336500  0.656800  1.0  0.1609
  H  H98  1  0.036500  0.421500  0.687900  1.0  0.1346
  H  H99  1  0.111300  0.366000  0.657200  1.0  0.1523
  H  H100  1  0.165500  0.088000  0.810900  1.0  0.1445
  H  H101  1  0.257700  0.146800  0.794600  1.0  0.1424
  H  H102  1  0.185200  0.194200  0.829100  1.0  0.146
  H  H103  1  0.336500  0.000100  0.656800  1.0  0.164
  H  H104  1  0.421500  0.963500  0.687900  1.0  0.1324
  H  H105  1  0.366000  0.888700  0.657200  1.0  0.1535
  H  H106  1  0.088000  0.834500  0.810900  1.0  0.1441
  H  H107  1  0.146800  0.742300  0.794600  1.0  0.1468
  H  H108  1  0.194200  0.814800  0.829100  1.0  0.1453
  H  H109  1  0.663500  0.999900  0.656800  1.0  0.162
  H  H110  1  0.578500  0.036500  0.687900  1.0  0.1318
  H  H111  1  0.634000  0.111300  0.657200  1.0  0.1529
  H  H112  1  0.912000  0.165500  0.810900  1.0  0.1422
  H  H113  1  0.853200  0.257700  0.794600  1.0  0.1462
  H  H114  1  0.805800  0.185200  0.829100  1.0  0.1453
  H  H115  1  0.499900  0.163500  0.843200  1.0  0.1617
  H  H116  1  0.536500  0.078500  0.812100  1.0  0.1357
  H  H117  1  0.611300  0.134000  0.842800  1.0  0.1532
  H  H118  1  0.665500  0.412000  0.689100  1.0  0.1448
  H  H119  1  0.757700  0.353200  0.705400  1.0  0.1421
  H  H120  1  0.685200  0.305800  0.670900  1.0  0.1459
  H  H121  1  0.500100  0.836500  0.843200  1.0  0.1626
  H  H122  1  0.463500  0.921500  0.812100  1.0  0.1348
  H  H123  1  0.388700  0.866000  0.842800  1.0  0.1528
  H  H124  1  0.334500  0.588000  0.689100  1.0  0.1454
  H  H125  1  0.242300  0.646800  0.705400  1.0  0.1456
  H  H126  1  0.314800  0.694200  0.670900  1.0  0.1455
  H  H127  1  0.163500  0.500100  0.843200  1.0  0.1636
  H  H128  1  0.078500  0.463500  0.812100  1.0  0.1324
  H  H129  1  0.134000  0.388700  0.842800  1.0  0.1547
  H  H130  1  0.412000  0.334500  0.689100  1.0  0.1438
  H  H131  1  0.353200  0.242300  0.705400  1.0  0.1459
  H  H132  1  0.305800  0.314800  0.670900  1.0  0.146
  H  H133  1  0.836500  0.499900  0.843200  1.0  0.1638
  H  H134  1  0.921500  0.536500  0.812100  1.0  0.1317
  H  H135  1  0.866000  0.611300  0.842800  1.0  0.1535
  H  H136  1  0.588000  0.665500  0.689100  1.0  0.144
  H  H137  1  0.646800  0.757700  0.705400  1.0  0.146
  H  H138  1  0.694200  0.685200  0.670900  1.0  0.1447
  C  C139  1  0.131000  0.194200  0.234200  1.0  0.2163
  C  C140  1  0.141800  0.283700  0.255400  1.0  -0.1029
  C  C141  1  0.072100  0.285900  0.288200  1.0  0.1629
  C  C142  1  0.053200  0.359100  0.324900  1.0  -0.388
  C  C143  1  0.190200  0.152000  0.196500  1.0  -0.3773
  C  C144  1  0.869000  0.805800  0.234200  1.0  0.2158
  C  C145  1  0.858200  0.716300  0.255400  1.0  -0.1027
  C  C146  1  0.927900  0.714100  0.288200  1.0  0.1623
  C  C147  1  0.946800  0.640900  0.324900  1.0  -0.3873
  C  C148  1  0.809800  0.848000  0.196500  1.0  -0.377
  C  C149  1  0.805800  0.131000  0.234200  1.0  0.216
  C  C150  1  0.716300  0.141800  0.255400  1.0  -0.1027
  C  C151  1  0.714100  0.072100  0.288200  1.0  0.1613
  C  C152  1  0.640900  0.053200  0.324900  1.0  -0.3858
  C  C153  1  0.848000  0.190200  0.196500  1.0  -0.3794
  C  C154  1  0.194200  0.869000  0.234200  1.0  0.2161
  C  C155  1  0.283700  0.858200  0.255400  1.0  -0.1029
  C  C156  1  0.285900  0.927900  0.288200  1.0  0.1632
  C  C157  1  0.359100  0.946800  0.324900  1.0  -0.3866
  C  C158  1  0.152000  0.809800  0.196500  1.0  -0.3776
  C  C159  1  0.369000  0.694200  0.265800  1.0  0.2154
  C  C160  1  0.358200  0.783700  0.244600  1.0  -0.1025
  C  C161  1  0.427900  0.785900  0.211800  1.0  0.1628
  C  C162  1  0.446800  0.859100  0.175100  1.0  -0.3872
  C  C163  1  0.309800  0.652000  0.303500  1.0  -0.3779
  C  C164  1  0.631000  0.305800  0.265800  1.0  0.2157
  C  C165  1  0.641800  0.216300  0.244600  1.0  -0.103
  C  C166  1  0.572100  0.214100  0.211800  1.0  0.1631
  C  C167  1  0.553200  0.140900  0.175100  1.0  -0.3863
  C  C168  1  0.690200  0.348000  0.303500  1.0  -0.3781
  C  C169  1  0.694200  0.631000  0.265800  1.0  0.2157
  C  C170  1  0.783700  0.641800  0.244600  1.0  -0.1027
  C  C171  1  0.785900  0.572100  0.211800  1.0  0.1625
  C  C172  1  0.859100  0.553200  0.175100  1.0  -0.3862
  C  C173  1  0.652000  0.690200  0.303500  1.0  -0.3789
  C  C174  1  0.305800  0.369000  0.265800  1.0  0.2155
  C  C175  1  0.216300  0.358200  0.244600  1.0  -0.1028
  C  C176  1  0.214100  0.427900  0.211800  1.0  0.1628
  C  C177  1  0.140900  0.446800  0.175100  1.0  -0.3847
  C  C178  1  0.348000  0.309800  0.303500  1.0  -0.3797
  C  C179  1  0.869000  0.805800  0.765800  1.0  0.2152
  C  C180  1  0.858200  0.716300  0.744600  1.0  -0.1028
  C  C181  1  0.927900  0.714100  0.711800  1.0  0.1628
  C  C182  1  0.946800  0.640900  0.675100  1.0  -0.3867
  C  C183  1  0.809800  0.848000  0.803500  1.0  -0.3777
  C  C184  1  0.131000  0.194200  0.765800  1.0  0.2158
  C  C185  1  0.141800  0.283700  0.744600  1.0  -0.1028
  C  C186  1  0.072100  0.285900  0.711800  1.0  0.1632
  C  C187  1  0.053200  0.359100  0.675100  1.0  -0.3865
  C  C188  1  0.190200  0.152000  0.803500  1.0  -0.378
  C  C189  1  0.194200  0.869000  0.765800  1.0  0.2156
  C  C190  1  0.283700  0.858200  0.744600  1.0  -0.103
  C  C191  1  0.285900  0.927900  0.711800  1.0  0.1636
  C  C192  1  0.359100  0.946800  0.675100  1.0  -0.3862
  C  C193  1  0.152000  0.809800  0.803500  1.0  -0.3791
  C  C194  1  0.805800  0.131000  0.765800  1.0  0.2156
  C  C195  1  0.716300  0.141800  0.744600  1.0  -0.1025
  C  C196  1  0.714100  0.072100  0.711800  1.0  0.1615
  C  C197  1  0.640900  0.053200  0.675100  1.0  -0.3845
  C  C198  1  0.848000  0.190200  0.803500  1.0  -0.379
  C  C199  1  0.631000  0.305800  0.734200  1.0  0.2162
  C  C200  1  0.641800  0.216300  0.755400  1.0  -0.1029
  C  C201  1  0.572100  0.214100  0.788200  1.0  0.1628
  C  C202  1  0.553200  0.140900  0.824900  1.0  -0.3877
  C  C203  1  0.690200  0.348000  0.696500  1.0  -0.3781
  C  C204  1  0.369000  0.694200  0.734200  1.0  0.2159
  C  C205  1  0.358200  0.783700  0.755400  1.0  -0.1026
  C  C206  1  0.427900  0.785900  0.788200  1.0  0.1623
  C  C207  1  0.446800  0.859100  0.824900  1.0  -0.3878
  C  C208  1  0.309800  0.652000  0.696500  1.0  -0.3767
  C  C209  1  0.305800  0.369000  0.734200  1.0  0.2159
  C  C210  1  0.216300  0.358200  0.755400  1.0  -0.1027
  C  C211  1  0.214100  0.427900  0.788200  1.0  0.1624
  C  C212  1  0.140900  0.446800  0.824900  1.0  -0.3867
  C  C213  1  0.348000  0.309800  0.696500  1.0  -0.3792
  C  C214  1  0.694200  0.631000  0.734200  1.0  0.2162
  C  C215  1  0.783700  0.641800  0.755400  1.0  -0.1028
  C  C216  1  0.785900  0.572100  0.788200  1.0  0.1622
  C  C217  1  0.859100  0.553200  0.824900  1.0  -0.3858
  C  C218  1  0.652000  0.690200  0.696500  1.0  -0.3784
  N  N219  1  0.056700  0.141700  0.253200  1.0  -0.3014
  N  N220  1  0.021700  0.199900  0.286300  1.0  -0.2403
  N  N221  1  0.943300  0.858300  0.253200  1.0  -0.3011
  N  N222  1  0.978300  0.800100  0.286300  1.0  -0.2416
  N  N223  1  0.858300  0.056700  0.253200  1.0  -0.3015
  N  N224  1  0.800100  0.021700  0.286300  1.0  -0.2378
  N  N225  1  0.141700  0.943300  0.253200  1.0  -0.302
  N  N226  1  0.199900  0.978300  0.286300  1.0  -0.2393
  N  N227  1  0.443300  0.641700  0.246800  1.0  -0.3003
  N  N228  1  0.478300  0.699900  0.213700  1.0  -0.2418
  N  N229  1  0.556700  0.358300  0.246800  1.0  -0.3015
  N  N230  1  0.521700  0.300100  0.213700  1.0  -0.2388
  N  N231  1  0.641700  0.556700  0.246800  1.0  -0.3019
  N  N232  1  0.699900  0.521700  0.213700  1.0  -0.2385
  N  N233  1  0.358300  0.443300  0.246800  1.0  -0.3009
  N  N234  1  0.300100  0.478300  0.213700  1.0  -0.2379
  N  N235  1  0.943300  0.858300  0.746800  1.0  -0.3007
  N  N236  1  0.978300  0.800100  0.713700  1.0  -0.2414
  N  N237  1  0.056700  0.141700  0.746800  1.0  -0.3011
  N  N238  1  0.021700  0.199900  0.713700  1.0  -0.2395
  N  N239  1  0.141700  0.943300  0.746800  1.0  -0.3016
  N  N240  1  0.199900  0.978300  0.713700  1.0  -0.2384
  N  N241  1  0.858300  0.056700  0.746800  1.0  -0.3013
  N  N242  1  0.800100  0.021700  0.713700  1.0  -0.2378
  N  N243  1  0.556700  0.358300  0.753200  1.0  -0.3019
  N  N244  1  0.521700  0.300100  0.786300  1.0  -0.2401
  N  N245  1  0.443300  0.641700  0.753200  1.0  -0.3005
  N  N246  1  0.478300  0.699900  0.786300  1.0  -0.2416
  N  N247  1  0.358300  0.443300  0.753200  1.0  -0.3013
  N  N248  1  0.300100  0.478300  0.786300  1.0  -0.2386
  N  N249  1  0.641700  0.556700  0.753200  1.0  -0.3021
  N  N250  1  0.699900  0.521700  0.786300  1.0  -0.2385
  O  O251  1  0.089600  0.986600  0.470000  1.0  -0.4777
  O  O252  1  0.251400  0.048900  0.455500  1.0  -0.9302
  O  O253  1  0.141200  0.211700  0.455600  1.0  -0.9768
  O  O254  1  0.024600  0.128600  0.394000  1.0  -0.8637
  O  O255  1  0.910400  0.013400  0.470000  1.0  -0.4769
  O  O256  1  0.748600  0.951100  0.455500  1.0  -0.9275
  O  O257  1  0.858800  0.788300  0.455600  1.0  -0.9667
  O  O258  1  0.975400  0.871400  0.394000  1.0  -0.8647
  O  O259  1  0.013400  0.089600  0.470000  1.0  -0.4778
  O  O260  1  0.951100  0.251400  0.455500  1.0  -0.9278
  O  O261  1  0.788300  0.141200  0.455600  1.0  -0.9743
  O  O262  1  0.871400  0.024600  0.394000  1.0  -0.8636
  O  O263  1  0.986600  0.910400  0.470000  1.0  -0.4783
  O  O264  1  0.048900  0.748600  0.455500  1.0  -0.9263
  O  O265  1  0.211700  0.858800  0.455600  1.0  -0.9698
  O  O266  1  0.128600  0.975400  0.394000  1.0  -0.8631
  O  O267  1  0.410400  0.486600  0.030000  1.0  -0.4785
  O  O268  1  0.248600  0.548900  0.044500  1.0  -0.9279
  O  O269  1  0.358800  0.711700  0.044400  1.0  -0.9751
  O  O270  1  0.475400  0.628600  0.106000  1.0  -0.8642
  O  O271  1  0.589600  0.513400  0.030000  1.0  -0.4795
  O  O272  1  0.751400  0.451100  0.044500  1.0  -0.9305
  O  O273  1  0.641200  0.288300  0.044400  1.0  -0.969
  O  O274  1  0.524600  0.371400  0.106000  1.0  -0.8656
  O  O275  1  0.486600  0.589600  0.030000  1.0  -0.479
  O  O276  1  0.548900  0.751400  0.044500  1.0  -0.9286
  O  O277  1  0.711700  0.641200  0.044400  1.0  -0.9758
  O  O278  1  0.628600  0.524600  0.106000  1.0  -0.8643
  O  O279  1  0.513400  0.410400  0.030000  1.0  -0.4801
  O  O280  1  0.451100  0.248600  0.044500  1.0  -0.928
  O  O281  1  0.288300  0.358800  0.044400  1.0  -0.9718
  O  O282  1  0.371400  0.475400  0.106000  1.0  -0.8643
  O  O283  1  0.910400  0.013400  0.530000  1.0  -0.4786
  O  O284  1  0.748600  0.951100  0.544500  1.0  -0.9275
  O  O285  1  0.858800  0.788300  0.544400  1.0  -0.9677
  O  O286  1  0.975400  0.871400  0.606000  1.0  -0.8655
  O  O287  1  0.089600  0.986600  0.530000  1.0  -0.4789
  O  O288  1  0.251400  0.048900  0.544500  1.0  -0.9306
  O  O289  1  0.141200  0.211700  0.544400  1.0  -0.9783
  O  O290  1  0.024600  0.128600  0.606000  1.0  -0.8638
  O  O291  1  0.986600  0.910400  0.530000  1.0  -0.4794
  O  O292  1  0.048900  0.748600  0.544500  1.0  -0.9276
  O  O293  1  0.211700  0.858800  0.544400  1.0  -0.9712
  O  O294  1  0.128600  0.975400  0.606000  1.0  -0.8642
  O  O295  1  0.013400  0.089600  0.530000  1.0  -0.4796
  O  O296  1  0.951100  0.251400  0.544500  1.0  -0.928
  O  O297  1  0.788300  0.141200  0.544400  1.0  -0.9752
  O  O298  1  0.871400  0.024600  0.606000  1.0  -0.8643
  O  O299  1  0.589600  0.513400  0.970000  1.0  -0.4775
  O  O300  1  0.751400  0.451100  0.955500  1.0  -0.9307
  O  O301  1  0.641200  0.288300  0.955600  1.0  -0.9674
  O  O302  1  0.524600  0.371400  0.894000  1.0  -0.8654
  O  O303  1  0.410400  0.486600  0.970000  1.0  -0.477
  O  O304  1  0.248600  0.548900  0.955500  1.0  -0.9277
  O  O305  1  0.358800  0.711700  0.955600  1.0  -0.9749
  O  O306  1  0.475400  0.628600  0.894000  1.0  -0.8634
  O  O307  1  0.513400  0.410400  0.970000  1.0  -0.479
  O  O308  1  0.451100  0.248600  0.955500  1.0  -0.9269
  O  O309  1  0.288300  0.358800  0.955600  1.0  -0.9713
  O  O310  1  0.371400  0.475400  0.894000  1.0  -0.8633
  O  O311  1  0.486600  0.589600  0.970000  1.0  -0.4775
  O  O312  1  0.548900  0.751400  0.955500  1.0  -0.9284
  O  O313  1  0.711700  0.641200  0.955600  1.0  -0.9741
  O  O314  1  0.628600  0.524600  0.894000  1.0  -0.8634
  O  O315  1  0.000000  0.000000  0.316000  1.0  -0.6812
  O  O316  1  0.500000  0.500000  0.184000  1.0  -0.6811
  O  O317  1  0.000000  0.000000  0.684000  1.0  -0.6811
  O  O318  1  0.500000  0.500000  0.816000  1.0  -0.6812
