# generated using pymatgen
data_InH14(C2O)10
_symmetry_space_group_name_H-M   'P 1'
_cell_length_a   12.75930000
_cell_length_b   15.02960000
_cell_length_c   16.90980000
_cell_angle_alpha   114.50900000
_cell_angle_beta   94.81600000
_cell_angle_gamma   90.43200000
_symmetry_Int_Tables_number   1
_chemical_formula_structural   InH14(C2O)10
_chemical_formula_sum   'In4 H56 C80 O40'
_cell_volume   2936.93191300
_cell_formula_units_Z   4
loop_
 _symmetry_equiv_pos_site_id
 _symmetry_equiv_pos_as_xyz
  1  'x, y, z'
loop_
 _atom_site_type_symbol
 _atom_site_label
 _atom_site_symmetry_multiplicity
 _atom_site_fract_x
 _atom_site_fract_y
 _atom_site_fract_z
 _atom_site_occupancy
 _atom_site_charge
  In  In1  1  0.081780  0.218210  0.221320  1.0  1.5264
  In  In2  1  0.571240  0.710660  0.208790  1.0  1.537
  In  In3  1  0.918220  0.781790  0.778680  1.0  1.5266
  In  In4  1  0.428760  0.289340  0.791210  1.0  1.5369
  H  H5  1  0.868700  0.974500  0.568400  1.0  0.101
  H  H6  1  0.762300  0.033100  0.580400  1.0  0.0949
  H  H7  1  0.946000  0.110600  0.700800  1.0  0.0963
  H  H8  1  0.859300  0.043500  0.716000  1.0  0.098
  H  H9  1  0.825400  0.233400  0.719000  1.0  0.0963
  H  H10  1  0.731700  0.164600  0.724100  1.0  0.0992
  H  H11  1  0.826400  0.162500  0.852900  1.0  0.0652
  H  H12  1  0.912800  0.238700  0.849500  1.0  0.0806
  H  H13  1  0.888300  0.237100  0.985600  1.0  0.1244
  H  H14  1  0.807100  0.447100  0.214000  1.0  0.1305
  H  H15  1  0.689500  0.444100  0.981400  1.0  0.137
  H  H16  1  0.263400  0.015600  0.992600  1.0  0.1318
  H  H17  1  0.447800  0.792300  0.977800  1.0  0.1342
  H  H18  1  0.343400  0.968800  0.209800  1.0  0.1346
  H  H19  1  0.368000  0.007200  0.880900  1.0  0.0968
  H  H20  1  0.258900  0.943300  0.846200  1.0  0.0928
  H  H21  1  0.445000  0.893000  0.756400  1.0  0.1018
  H  H22  1  0.351100  0.947900  0.729500  1.0  0.0904
  H  H23  1  0.336500  0.751600  0.715800  1.0  0.0933
  H  H24  1  0.236200  0.806300  0.697800  1.0  0.0973
  H  H25  1  0.308900  0.815200  0.577200  1.0  0.0966
  H  H26  1  0.414700  0.767600  0.597300  1.0  0.0858
  H  H27  1  0.396600  0.726500  0.450400  1.0  0.1324
  H  H28  1  0.309100  0.486700  0.224000  1.0  0.1353
  H  H29  1  0.209000  0.507200  0.453000  1.0  0.14
  H  H30  1  0.964300  0.165100  0.456000  1.0  0.1348
  H  H31  1  0.771700  0.940000  0.438500  1.0  0.1219
  H  H32  1  0.849800  0.956400  0.219300  1.0  0.1244
  H  H33  1  0.131300  0.025500  0.431600  1.0  0.1036
  H  H34  1  0.237700  0.966900  0.419600  1.0  0.0941
  H  H35  1  0.054000  0.889400  0.299200  1.0  0.0999
  H  H36  1  0.140700  0.956500  0.284000  1.0  0.0984
  H  H37  1  0.174600  0.766600  0.281000  1.0  0.0964
  H  H38  1  0.268300  0.835400  0.275900  1.0  0.0974
  H  H39  1  0.173600  0.837500  0.147100  1.0  0.0657
  H  H40  1  0.087200  0.761300  0.150500  1.0  0.0812
  H  H41  1  0.111700  0.762900  0.014400  1.0  0.1251
  H  H42  1  0.192900  0.552900  0.786000  1.0  0.1308
  H  H43  1  0.310500  0.555900  0.018600  1.0  0.138
  H  H44  1  0.736600  0.984400  0.007400  1.0  0.1322
  H  H45  1  0.552200  0.207700  0.022200  1.0  0.1335
  H  H46  1  0.656600  0.031200  0.790200  1.0  0.1339
  H  H47  1  0.632000  0.992800  0.119100  1.0  0.097
  H  H48  1  0.741100  0.056700  0.153800  1.0  0.092
  H  H49  1  0.555000  0.107000  0.243600  1.0  0.1007
  H  H50  1  0.648900  0.052100  0.270500  1.0  0.0899
  H  H51  1  0.663500  0.248400  0.284200  1.0  0.092
  H  H52  1  0.763800  0.193700  0.302200  1.0  0.094
  H  H53  1  0.691100  0.184800  0.422800  1.0  0.0957
  H  H54  1  0.585300  0.232400  0.402700  1.0  0.0883
  H  H55  1  0.603400  0.273500  0.549600  1.0  0.1317
  H  H56  1  0.690900  0.513300  0.776000  1.0  0.136
  H  H57  1  0.791000  0.492800  0.547000  1.0  0.1399
  H  H58  1  0.035700  0.834900  0.544000  1.0  0.1352
  H  H59  1  0.228300  0.060000  0.561500  1.0  0.1203
  H  H60  1  0.150200  0.043600  0.780700  1.0  0.1234
  C  C61  1  0.839900  0.040500  0.592500  1.0  0.0583
  C  C62  1  0.870100  0.091000  0.690500  1.0  -0.0745
  C  C63  1  0.808200  0.181300  0.737900  1.0  -0.0931
  C  C64  1  0.837600  0.216600  0.835100  1.0  0.0946
  C  C65  1  0.785500  0.333900  0.969800  1.0  0.3273
  C  C66  1  0.849800  0.293000  0.015900  1.0  -0.2021
  C  C67  1  0.856800  0.335500  0.106800  1.0  -0.1203
  C  C68  1  0.802400  0.418400  0.152000  1.0  -0.0232
  C  C69  1  0.740000  0.458900  0.103400  1.0  -0.1058
  C  C70  1  0.732100  0.416300  0.013400  1.0  -0.1129
  C  C71  1  0.683500  0.549700  0.150700  1.0  0.6704
  C  C72  1  0.929800  0.292400  0.154100  1.0  0.6753
  C  C73  1  0.223800  0.083100  0.156700  1.0  0.6706
  C  C74  1  0.294700  0.003200  0.107700  1.0  -0.0868
  C  C75  1  0.300400  0.979400  0.019700  1.0  -0.1732
  C  C76  1  0.360700  0.902600  0.971600  1.0  0.2624
  C  C77  1  0.409900  0.847400  0.011400  1.0  -0.146
  C  C78  1  0.404500  0.871400  0.097900  1.0  -0.1453
  C  C79  1  0.346600  0.951300  0.149200  1.0  -0.0921
  C  C80  1  0.458700  0.811500  0.141900  1.0  0.6564
  C  C81  1  0.336400  0.940400  0.846800  1.0  0.0922
  C  C82  1  0.367900  0.900200  0.754600  1.0  -0.0687
  C  C83  1  0.313200  0.801500  0.694900  1.0  -0.0776
  C  C84  1  0.337600  0.769300  0.601000  1.0  0.0877
  C  C85  1  0.300500  0.626800  0.465600  1.0  0.2759
  C  C86  1  0.359500  0.664900  0.420600  1.0  -0.1894
  C  C87  1  0.363400  0.610900  0.330500  1.0  -0.1193
  C  C88  1  0.308300  0.521000  0.285400  1.0  -0.0525
  C  C89  1  0.252500  0.482500  0.331400  1.0  -0.098
  C  C90  1  0.247500  0.534200  0.421900  1.0  -0.0622
  C  C91  1  0.196400  0.384900  0.287200  1.0  0.6878
  C  C92  1  0.433800  0.649400  0.284900  1.0  0.6776
  C  C93  1  0.973600  0.120500  0.289400  1.0  0.6626
  C  C94  1  0.917500  0.068700  0.331300  1.0  -0.1329
  C  C95  1  0.923700  0.106300  0.421700  1.0  -0.1299
  C  C96  1  0.869600  0.057400  0.463000  1.0  0.2793
  C  C97  1  0.808600  0.973300  0.411600  1.0  -0.1565
  C  C98  1  0.800800  0.937500  0.321500  1.0  -0.101
  C  C99  1  0.854600  0.982700  0.281200  1.0  -0.0711
  C  C100  1  0.727200  0.851100  0.269300  1.0  0.6969
  C  C101  1  0.160100  0.959500  0.407500  1.0  0.0585
  C  C102  1  0.129900  0.909000  0.309500  1.0  -0.0737
  C  C103  1  0.191800  0.818700  0.262100  1.0  -0.0901
  C  C104  1  0.162400  0.783400  0.164900  1.0  0.0949
  C  C105  1  0.214500  0.666100  0.030200  1.0  0.3282
  C  C106  1  0.150200  0.707000  0.984100  1.0  -0.2025
  C  C107  1  0.143200  0.664500  0.893200  1.0  -0.1194
  C  C108  1  0.197600  0.581600  0.848000  1.0  -0.0191
  C  C109  1  0.260000  0.541100  0.896600  1.0  -0.1036
  C  C110  1  0.267900  0.583700  0.986600  1.0  -0.1113
  C  C111  1  0.316500  0.450300  0.849300  1.0  0.6704
  C  C112  1  0.070200  0.707600  0.845900  1.0  0.6778
  C  C113  1  0.776200  0.916900  0.843300  1.0  0.6687
  C  C114  1  0.705300  0.996800  0.892300  1.0  -0.0886
  C  C115  1  0.699600  0.020600  0.980300  1.0  -0.1701
  C  C116  1  0.639300  0.097400  0.028400  1.0  0.2617
  C  C117  1  0.590100  0.152600  0.988600  1.0  -0.1471
  C  C118  1  0.595500  0.128600  0.902100  1.0  -0.1451
  C  C119  1  0.653400  0.048700  0.850800  1.0  -0.09
  C  C120  1  0.541300  0.188500  0.858100  1.0  0.656
  C  C121  1  0.663600  0.059600  0.153200  1.0  0.0939
  C  C122  1  0.632100  0.099800  0.245400  1.0  -0.069
  C  C123  1  0.686800  0.198500  0.305100  1.0  -0.0778
  C  C124  1  0.662400  0.230700  0.399000  1.0  0.0888
  C  C125  1  0.699500  0.373200  0.534400  1.0  0.2752
  C  C126  1  0.640500  0.335100  0.579400  1.0  -0.1902
  C  C127  1  0.636600  0.389100  0.669500  1.0  -0.1186
  C  C128  1  0.691700  0.479000  0.714600  1.0  -0.0528
  C  C129  1  0.747500  0.517500  0.668600  1.0  -0.0997
  C  C130  1  0.752500  0.465800  0.578100  1.0  -0.0627
  C  C131  1  0.803600  0.615100  0.712800  1.0  0.687
  C  C132  1  0.566200  0.350600  0.715100  1.0  0.6795
  C  C133  1  0.026400  0.879500  0.710600  1.0  0.6629
  C  C134  1  0.082500  0.931300  0.668700  1.0  -0.1346
  C  C135  1  0.076300  0.893700  0.578300  1.0  -0.1276
  C  C136  1  0.130400  0.942600  0.537000  1.0  0.2789
  C  C137  1  0.191400  0.026700  0.588400  1.0  -0.1559
  C  C138  1  0.199200  0.062500  0.678500  1.0  -0.1034
  C  C139  1  0.145400  0.017300  0.718800  1.0  -0.0731
  C  C140  1  0.272800  0.148900  0.730700  1.0  0.6961
  O  O141  1  0.773600  0.295500  0.880500  1.0  -0.2642
  O  O142  1  0.644700  0.596300  0.106900  1.0  -0.5864
  O  O143  1  0.673800  0.582400  0.230700  1.0  -0.6119
  O  O144  1  0.944400  0.328900  0.236400  1.0  -0.5879
  O  O145  1  0.982200  0.220500  0.109100  1.0  -0.6062
  O  O146  1  0.166500  0.119900  0.114700  1.0  -0.5773
  O  O147  1  0.221200  0.113300  0.237700  1.0  -0.6138
  O  O148  1  0.471500  0.842900  0.222300  1.0  -0.5459
  O  O149  1  0.495200  0.730600  0.093100  1.0  -0.5675
  O  O150  1  0.374300  0.875200  0.885600  1.0  -0.2633
  O  O151  1  0.288500  0.672500  0.552400  1.0  -0.2613
  O  O152  1  0.178000  0.346200  0.206000  1.0  -0.5533
  O  O153  1  0.167100  0.341600  0.332300  1.0  -0.5513
  O  O154  1  0.434700  0.606900  0.202400  1.0  -0.5525
  O  O155  1  0.496100  0.721100  0.327700  1.0  -0.5538
  O  O156  1  0.972700  0.087400  0.207000  1.0  -0.5925
  O  O157  1  0.025500  0.199700  0.334700  1.0  -0.5812
  O  O158  1  0.702400  0.828200  0.190700  1.0  -0.5863
  O  O159  1  0.687800  0.806000  0.309300  1.0  -0.6162
  O  O160  1  0.882300  0.099600  0.551800  1.0  -0.3
  O  O161  1  0.226400  0.704500  0.119500  1.0  -0.2649
  O  O162  1  0.355300  0.403700  0.893100  1.0  -0.5885
  O  O163  1  0.326200  0.417600  0.769300  1.0  -0.6133
  O  O164  1  0.055600  0.671100  0.763600  1.0  -0.5855
  O  O165  1  0.017800  0.779500  0.890900  1.0  -0.6079
  O  O166  1  0.833500  0.880100  0.885300  1.0  -0.5783
  O  O167  1  0.778800  0.886700  0.762300  1.0  -0.6137
  O  O168  1  0.528500  0.157100  0.777700  1.0  -0.5453
  O  O169  1  0.504800  0.269400  0.906900  1.0  -0.5704
  O  O170  1  0.625700  0.124800  0.114400  1.0  -0.2631
  O  O171  1  0.711500  0.327500  0.447600  1.0  -0.2603
  O  O172  1  0.822000  0.653800  0.794000  1.0  -0.5534
  O  O173  1  0.832900  0.658400  0.667700  1.0  -0.5496
  O  O174  1  0.565300  0.393100  0.797600  1.0  -0.5554
  O  O175  1  0.503900  0.278900  0.672300  1.0  -0.5537
  O  O176  1  0.027300  0.912600  0.793000  1.0  -0.5931
  O  O177  1  0.974500  0.800300  0.665300  1.0  -0.5807
  O  O178  1  0.297600  0.171800  0.809300  1.0  -0.5859
  O  O179  1  0.312200  0.194000  0.690700  1.0  -0.6179
  O  O180  1  0.117700  0.900400  0.448200  1.0  -0.3002
