# generated using pymatgen
data_MnH9C14NO5
_symmetry_space_group_name_H-M   'P 1'
_cell_length_a   14.48630000
_cell_length_b   15.97330000
_cell_length_c   16.52140000
_cell_angle_alpha   90.00000000
_cell_angle_beta   101.12800000
_cell_angle_gamma   90.00000000
_symmetry_Int_Tables_number   1
_chemical_formula_structural   MnH9C14NO5
_chemical_formula_sum   'Mn8 H72 C112 N8 O40'
_cell_volume   3751.07569784
_cell_formula_units_Z   8
loop_
 _symmetry_equiv_pos_site_id
 _symmetry_equiv_pos_as_xyz
  1  'x, y, z'
loop_
 _atom_site_type_symbol
 _atom_site_label
 _atom_site_symmetry_multiplicity
 _atom_site_fract_x
 _atom_site_fract_y
 _atom_site_fract_z
 _atom_site_occupancy
 _atom_site_charge
  Mn  Mn1  1  0.731940  0.892460  0.955790  1.0  1.0649
  Mn  Mn2  1  0.733950  0.628990  0.040610  1.0  1.0601
  Mn  Mn3  1  0.768060  0.392460  0.544210  1.0  1.0653
  Mn  Mn4  1  0.766050  0.128990  0.459390  1.0  1.0583
  Mn  Mn5  1  0.268060  0.107540  0.044210  1.0  1.0653
  Mn  Mn6  1  0.266050  0.371010  0.959390  1.0  1.0584
  Mn  Mn7  1  0.231940  0.607540  0.455790  1.0  1.0645
  Mn  Mn8  1  0.233950  0.871010  0.540610  1.0  1.0599
  H  H9  1  0.052200  0.484500  0.388400  1.0  0.071
  H  H10  1  0.892500  0.488800  0.353800  1.0  0.1121
  H  H11  1  0.901400  0.716400  0.454400  1.0  0.1245
  H  H12  1  0.060600  0.701100  0.488000  1.0  0.0559
  H  H13  1  0.753000  0.597000  0.314600  1.0  0.1066
  H  H14  1  0.745000  0.562500  0.401800  1.0  0.1204
  H  H15  1  0.739100  0.697700  0.234700  1.0  0.1053
  H  H16  1  0.768900  0.947500  0.227600  1.0  0.0986
  H  H17  1  0.755100  0.833900  0.441400  1.0  0.1086
  H  H18  1  0.749300  0.075400  0.720100  1.0  0.0942
  H  H19  1  0.777100  0.325000  0.742400  1.0  0.1038
  H  H20  1  0.747300  0.185100  0.938100  1.0  0.1069
  H  H21  1  0.783500  0.457200  0.910500  1.0  0.1248
  H  H22  1  0.779700  0.423900  0.820400  1.0  0.0901
  H  H23  1  0.931400  0.446400  0.786800  1.0  0.1182
  H  H24  1  0.090400  0.436100  0.817500  1.0  0.0672
  H  H25  1  0.081400  0.349400  0.034600  1.0  0.0782
  H  H26  1  0.922900  0.361200  0.010400  1.0  0.1199
  H  H27  1  0.447800  0.984500  0.111600  1.0  0.0703
  H  H28  1  0.607500  0.988800  0.146200  1.0  0.1125
  H  H29  1  0.598600  0.216400  0.045600  1.0  0.1246
  H  H30  1  0.439400  0.201100  0.012000  1.0  0.0559
  H  H31  1  0.747000  0.097000  0.185400  1.0  0.1053
  H  H32  1  0.755000  0.062500  0.098200  1.0  0.1181
  H  H33  1  0.760900  0.197700  0.265300  1.0  0.1056
  H  H34  1  0.731100  0.447500  0.272400  1.0  0.0996
  H  H35  1  0.744900  0.333900  0.058600  1.0  0.1103
  H  H36  1  0.750700  0.575400  0.779900  1.0  0.0944
  H  H37  1  0.722900  0.825000  0.757600  1.0  0.1032
  H  H38  1  0.752700  0.685100  0.561900  1.0  0.1073
  H  H39  1  0.716500  0.957200  0.589500  1.0  0.125
  H  H40  1  0.720300  0.923900  0.679600  1.0  0.0898
  H  H41  1  0.568600  0.946400  0.713200  1.0  0.1175
  H  H42  1  0.409600  0.936100  0.682500  1.0  0.0678
  H  H43  1  0.418600  0.849400  0.465400  1.0  0.0785
  H  H44  1  0.577100  0.861200  0.489600  1.0  0.1208
  H  H45  1  0.947800  0.515500  0.611600  1.0  0.0708
  H  H46  1  0.107500  0.511200  0.646200  1.0  0.1128
  H  H47  1  0.098600  0.283600  0.545600  1.0  0.1244
  H  H48  1  0.939400  0.298900  0.512000  1.0  0.056
  H  H49  1  0.247000  0.403000  0.685400  1.0  0.1054
  H  H50  1  0.255000  0.437500  0.598200  1.0  0.1192
  H  H51  1  0.260900  0.302300  0.765300  1.0  0.1053
  H  H52  1  0.231100  0.052500  0.772400  1.0  0.0995
  H  H53  1  0.244900  0.166100  0.558600  1.0  0.1099
  H  H54  1  0.250700  0.924600  0.279900  1.0  0.0949
  H  H55  1  0.222900  0.675000  0.257600  1.0  0.1033
  H  H56  1  0.252700  0.814900  0.061900  1.0  0.1073
  H  H57  1  0.216500  0.542800  0.089500  1.0  0.1252
  H  H58  1  0.220300  0.576100  0.179600  1.0  0.0899
  H  H59  1  0.068600  0.553600  0.213200  1.0  0.1172
  H  H60  1  0.909600  0.563900  0.182500  1.0  0.0677
  H  H61  1  0.918600  0.650600  0.965400  1.0  0.0785
  H  H62  1  0.077100  0.638800  0.989600  1.0  0.1207
  H  H63  1  0.552200  0.015500  0.888400  1.0  0.0715
  H  H64  1  0.392500  0.011200  0.853800  1.0  0.113
  H  H65  1  0.401400  0.783600  0.954400  1.0  0.1245
  H  H66  1  0.560600  0.798900  0.988000  1.0  0.0564
  H  H67  1  0.253000  0.903000  0.814600  1.0  0.1066
  H  H68  1  0.245000  0.937500  0.901800  1.0  0.1204
  H  H69  1  0.239100  0.802300  0.734700  1.0  0.1061
  H  H70  1  0.268900  0.552500  0.727600  1.0  0.0983
  H  H71  1  0.255100  0.666100  0.941400  1.0  0.1087
  H  H72  1  0.249300  0.424600  0.220100  1.0  0.0948
  H  H73  1  0.277100  0.175000  0.242400  1.0  0.1032
  H  H74  1  0.247300  0.314900  0.438100  1.0  0.107
  H  H75  1  0.283500  0.042800  0.410500  1.0  0.1259
  H  H76  1  0.279700  0.076100  0.320400  1.0  0.0901
  H  H77  1  0.431400  0.053600  0.286800  1.0  0.1178
  H  H78  1  0.590400  0.063900  0.317500  1.0  0.0673
  H  H79  1  0.581400  0.150600  0.534600  1.0  0.0784
  H  H80  1  0.422900  0.138800  0.510400  1.0  0.1199
  C  C81  1  0.021400  0.532400  0.400900  1.0  0.1789
  C  C82  1  0.925200  0.534500  0.379900  1.0  -0.1954
  C  C83  1  0.877100  0.604240  0.397380  1.0  0.1278
  C  C84  1  0.929900  0.668100  0.439300  1.0  -0.232
  C  C85  1  0.026200  0.658200  0.458200  1.0  0.1907
  C  C86  1  0.771500  0.606910  0.373400  1.0  -0.0389
  C  C87  1  0.745300  0.754160  0.344990  1.0  0.2564
  C  C88  1  0.744800  0.749260  0.261310  1.0  -0.1391
  C  C89  1  0.753100  0.822440  0.217120  1.0  -0.1443
  C  C90  1  0.763000  0.898850  0.257110  1.0  -0.0227
  C  C91  1  0.764100  0.903230  0.341130  1.0  -0.1469
  C  C92  1  0.754900  0.831040  0.385150  1.0  -0.1343
  C  C93  1  0.773600  0.986610  0.385000  1.0  0.6389
  C  C94  1  0.749200  0.817260  0.125490  1.0  0.728
  C  C95  1  0.739800  0.033250  0.873900  1.0  0.6714
  C  C96  1  0.748300  0.117590  0.835430  1.0  -0.1561
  C  C97  1  0.753500  0.123470  0.752280  1.0  0.0166
  C  C98  1  0.764900  0.200450  0.717500  1.0  -0.1492
  C  C99  1  0.769100  0.273130  0.765570  1.0  -0.1539
  C  C100  1  0.761300  0.267560  0.847920  1.0  0.2338
  C  C101  1  0.751600  0.189100  0.882820  1.0  -0.1126
  C  C102  1  0.772300  0.206720  0.628360  1.0  0.7425
  C  C103  1  0.802100  0.411500  0.878400  1.0  0.0353
  C  C104  1  0.907400  0.404440  0.895300  1.0  0.1129
  C  C105  1  0.960600  0.426600  0.838300  1.0  -0.2299
  C  C106  1  0.056400  0.419500  0.857100  1.0  0.1716
  C  C107  1  0.051200  0.369600  0.983500  1.0  0.1762
  C  C108  1  0.955500  0.376200  0.969300  1.0  -0.2211
  C  C109  1  0.478600  0.032400  0.099100  1.0  0.1782
  C  C110  1  0.574800  0.034500  0.120100  1.0  -0.1966
  C  C111  1  0.622900  0.104240  0.102620  1.0  0.1285
  C  C112  1  0.570100  0.168100  0.060700  1.0  -0.2298
  C  C113  1  0.473800  0.158200  0.041800  1.0  0.1904
  C  C114  1  0.728500  0.106910  0.126600  1.0  -0.0379
  C  C115  1  0.754700  0.254160  0.155010  1.0  0.256
  C  C116  1  0.755200  0.249260  0.238690  1.0  -0.1426
  C  C117  1  0.746900  0.322440  0.282880  1.0  -0.147
  C  C118  1  0.737000  0.398850  0.242890  1.0  -0.0227
  C  C119  1  0.735900  0.403230  0.158870  1.0  -0.1463
  C  C120  1  0.745100  0.331040  0.114850  1.0  -0.1361
  C  C121  1  0.726400  0.486610  0.115000  1.0  0.6375
  C  C122  1  0.750800  0.317260  0.374510  1.0  0.7278
  C  C123  1  0.760200  0.533250  0.626100  1.0  0.6714
  C  C124  1  0.751700  0.617590  0.664570  1.0  -0.1562
  C  C125  1  0.746500  0.623470  0.747720  1.0  0.016
  C  C126  1  0.735100  0.700450  0.782500  1.0  -0.1511
  C  C127  1  0.730900  0.773130  0.734430  1.0  -0.1553
  C  C128  1  0.738700  0.767560  0.652080  1.0  0.2333
  C  C129  1  0.748400  0.689100  0.617180  1.0  -0.1149
  C  C130  1  0.727700  0.706720  0.871640  1.0  0.7439
  C  C131  1  0.697900  0.911500  0.621600  1.0  0.0335
  C  C132  1  0.592600  0.904440  0.604700  1.0  0.1123
  C  C133  1  0.539400  0.926600  0.661700  1.0  -0.2281
  C  C134  1  0.443600  0.919500  0.642900  1.0  0.1711
  C  C135  1  0.448800  0.869600  0.516500  1.0  0.1747
  C  C136  1  0.544500  0.876200  0.530700  1.0  -0.2204
  C  C137  1  0.978600  0.467600  0.599100  1.0  0.1778
  C  C138  1  0.074800  0.465500  0.620100  1.0  -0.1979
  C  C139  1  0.122900  0.395760  0.602620  1.0  0.1287
  C  C140  1  0.070100  0.331900  0.560700  1.0  -0.2316
  C  C141  1  0.973800  0.341800  0.541800  1.0  0.1912
  C  C142  1  0.228500  0.393090  0.626600  1.0  -0.0381
  C  C143  1  0.254700  0.245840  0.655010  1.0  0.2563
  C  C144  1  0.255200  0.250740  0.738690  1.0  -0.1411
  C  C145  1  0.246900  0.177560  0.782880  1.0  -0.1471
  C  C146  1  0.237000  0.101150  0.742890  1.0  -0.0231
  C  C147  1  0.235900  0.096770  0.658870  1.0  -0.147
  C  C148  1  0.245100  0.168960  0.614850  1.0  -0.1364
  C  C149  1  0.226400  0.013390  0.615000  1.0  0.6374
  C  C150  1  0.250800  0.182740  0.874510  1.0  0.7277
  C  C151  1  0.260200  0.966750  0.126100  1.0  0.6713
  C  C152  1  0.251700  0.882410  0.164570  1.0  -0.1559
  C  C153  1  0.246500  0.876530  0.247720  1.0  0.0172
  C  C154  1  0.235100  0.799550  0.282500  1.0  -0.1511
  C  C155  1  0.230900  0.726870  0.234430  1.0  -0.1564
  C  C156  1  0.238700  0.732440  0.152080  1.0  0.2333
  C  C157  1  0.248400  0.810900  0.117180  1.0  -0.1146
  C  C158  1  0.227700  0.793280  0.371640  1.0  0.7439
  C  C159  1  0.197900  0.588500  0.121600  1.0  0.0344
  C  C160  1  0.092600  0.595560  0.104700  1.0  0.1123
  C  C161  1  0.039400  0.573400  0.161700  1.0  -0.2278
  C  C162  1  0.943600  0.580500  0.142900  1.0  0.1713
  C  C163  1  0.948800  0.630400  0.016500  1.0  0.175
  C  C164  1  0.044500  0.623800  0.030700  1.0  -0.2201
  C  C165  1  0.521400  0.967600  0.900900  1.0  0.1787
  C  C166  1  0.425200  0.965500  0.879900  1.0  -0.1967
  C  C167  1  0.377100  0.895760  0.897380  1.0  0.1279
  C  C168  1  0.429900  0.831900  0.939300  1.0  -0.2325
  C  C169  1  0.526200  0.841800  0.958200  1.0  0.1912
  C  C170  1  0.271500  0.893090  0.873400  1.0  -0.0385
  C  C171  1  0.245300  0.745840  0.844990  1.0  0.2564
  C  C172  1  0.244800  0.750740  0.761310  1.0  -0.1393
  C  C173  1  0.253100  0.677560  0.717120  1.0  -0.1444
  C  C174  1  0.263000  0.601150  0.757110  1.0  -0.0226
  C  C175  1  0.264100  0.596770  0.841130  1.0  -0.1469
  C  C176  1  0.254900  0.668960  0.885150  1.0  -0.1346
  C  C177  1  0.273600  0.513390  0.885000  1.0  0.6392
  C  C178  1  0.249200  0.682740  0.625490  1.0  0.728
  C  C179  1  0.239800  0.466750  0.373900  1.0  0.671
  C  C180  1  0.248300  0.382410  0.335430  1.0  -0.1565
  C  C181  1  0.253500  0.376530  0.252280  1.0  0.0178
  C  C182  1  0.264900  0.299550  0.217500  1.0  -0.1492
  C  C183  1  0.269100  0.226870  0.265570  1.0  -0.1537
  C  C184  1  0.261300  0.232440  0.347920  1.0  0.2339
  C  C185  1  0.251600  0.310900  0.382820  1.0  -0.1125
  C  C186  1  0.272300  0.293280  0.128360  1.0  0.7425
  C  C187  1  0.302100  0.088500  0.378400  1.0  0.0348
  C  C188  1  0.407400  0.095560  0.395300  1.0  0.1128
  C  C189  1  0.460600  0.073400  0.338300  1.0  -0.2297
  C  C190  1  0.556400  0.080500  0.357100  1.0  0.1717
  C  C191  1  0.551200  0.130400  0.483500  1.0  0.176
  C  C192  1  0.455500  0.123800  0.469300  1.0  -0.2214
  N  N193  1  0.073600  0.595390  0.438520  1.0  -0.342
  N  N194  1  0.104400  0.390170  0.929240  1.0  -0.3353
  N  N195  1  0.426400  0.095390  0.061480  1.0  -0.341
  N  N196  1  0.395600  0.890170  0.570760  1.0  -0.3374
  N  N197  1  0.926400  0.404610  0.561480  1.0  -0.3415
  N  N198  1  0.895600  0.609830  0.070760  1.0  -0.3361
  N  N199  1  0.573600  0.904610  0.938520  1.0  -0.3423
  N  N200  1  0.604400  0.109830  0.429240  1.0  -0.3355
  O  O201  1  0.747740  0.884590  0.086230  1.0  -0.6065
  O  O202  1  0.748100  0.746860  0.093640  1.0  -0.683
  O  O203  1  0.771290  0.052990  0.343150  1.0  -0.5564
  O  O204  1  0.781160  0.988490  0.461720  1.0  -0.5684
  O  O205  1  0.752240  0.028640  0.951650  1.0  -0.5768
  O  O206  1  0.720050  0.970120  0.829700  1.0  -0.6099
  O  O207  1  0.760610  0.141870  0.585850  1.0  -0.6036
  O  O208  1  0.792270  0.276980  0.602510  1.0  -0.6862
  O  O209  1  0.733770  0.685700  0.393230  1.0  -0.2744
  O  O210  1  0.759850  0.334460  0.899360  1.0  -0.285
  O  O211  1  0.752260  0.384590  0.413770  1.0  -0.6064
  O  O212  1  0.751900  0.246860  0.406360  1.0  -0.6828
  O  O213  1  0.728710  0.552990  0.156850  1.0  -0.5553
  O  O214  1  0.718840  0.488490  0.038280  1.0  -0.5717
  O  O215  1  0.747760  0.528640  0.548350  1.0  -0.5786
  O  O216  1  0.779950  0.470120  0.670300  1.0  -0.6092
  O  O217  1  0.739390  0.641870  0.914150  1.0  -0.6044
  O  O218  1  0.707730  0.776980  0.897490  1.0  -0.6852
  O  O219  1  0.766230  0.185700  0.106770  1.0  -0.2712
  O  O220  1  0.740150  0.834460  0.600640  1.0  -0.2828
  O  O221  1  0.252260  0.115410  0.913770  1.0  -0.6068
  O  O222  1  0.251900  0.253140  0.906360  1.0  -0.6841
  O  O223  1  0.228710  0.947010  0.656850  1.0  -0.5567
  O  O224  1  0.218840  0.011510  0.538280  1.0  -0.5721
  O  O225  1  0.247760  0.971360  0.048350  1.0  -0.5788
  O  O226  1  0.279950  0.029880  0.170300  1.0  -0.6091
  O  O227  1  0.239390  0.858130  0.414150  1.0  -0.6051
  O  O228  1  0.207730  0.723020  0.397490  1.0  -0.6852
  O  O229  1  0.266230  0.314300  0.606770  1.0  -0.2716
  O  O230  1  0.240150  0.665540  0.100640  1.0  -0.2824
  O  O231  1  0.247740  0.615410  0.586230  1.0  -0.6072
  O  O232  1  0.248100  0.753140  0.593640  1.0  -0.6847
  O  O233  1  0.271290  0.447010  0.843150  1.0  -0.5574
  O  O234  1  0.281160  0.511510  0.961720  1.0  -0.5684
  O  O235  1  0.252240  0.471360  0.451650  1.0  -0.5769
  O  O236  1  0.220050  0.529880  0.329700  1.0  -0.6093
  O  O237  1  0.260610  0.358130  0.085850  1.0  -0.6042
  O  O238  1  0.292270  0.223020  0.102510  1.0  -0.6865
  O  O239  1  0.233770  0.814300  0.893230  1.0  -0.2745
  O  O240  1  0.259850  0.165540  0.399360  1.0  -0.285
