# generated using pymatgen
data_Cu4H9(CN2)9
_symmetry_space_group_name_H-M   'P 1'
_cell_length_a   13.98760000
_cell_length_b   13.98760000
_cell_length_c   16.30930000
_cell_angle_alpha   90.00000000
_cell_angle_beta   90.00000000
_cell_angle_gamma   120.00000000
_symmetry_Int_Tables_number   1
_chemical_formula_structural   Cu4H9(CN2)9
_chemical_formula_sum   'Cu16 H36 C36 N72'
_cell_volume   2763.45477697
_cell_formula_units_Z   4
loop_
 _symmetry_equiv_pos_site_id
 _symmetry_equiv_pos_as_xyz
  1  'x, y, z'
loop_
 _atom_site_type_symbol
 _atom_site_label
 _atom_site_symmetry_multiplicity
 _atom_site_fract_x
 _atom_site_fract_y
 _atom_site_fract_z
 _atom_site_occupancy
 _atom_site_charge
  Cu  Cu1  1  0.373490  0.444620  0.559910  1.0  0.4399
  Cu  Cu2  1  0.555380  0.928870  0.559910  1.0  0.4424
  Cu  Cu3  1  0.071130  0.626510  0.559910  1.0  0.4427
  Cu  Cu4  1  0.626510  0.555380  0.059910  1.0  0.4414
  Cu  Cu5  1  0.444620  0.071130  0.059910  1.0  0.441
  Cu  Cu6  1  0.928870  0.373490  0.059910  1.0  0.4419
  Cu  Cu7  1  0.626510  0.555380  0.440090  1.0  0.4412
  Cu  Cu8  1  0.444620  0.071130  0.440090  1.0  0.4408
  Cu  Cu9  1  0.928870  0.373490  0.440090  1.0  0.4418
  Cu  Cu10  1  0.373490  0.444620  0.940090  1.0  0.4398
  Cu  Cu11  1  0.555380  0.928870  0.940090  1.0  0.4423
  Cu  Cu12  1  0.071130  0.626510  0.940090  1.0  0.4424
  Cu  Cu13  1  0.333333  0.666667  0.630320  1.0  0.4189
  Cu  Cu14  1  0.666667  0.333333  0.130320  1.0  0.4189
  Cu  Cu15  1  0.666667  0.333333  0.369680  1.0  0.4181
  Cu  Cu16  1  0.333333  0.666667  0.869680  1.0  0.4181
  H  H17  1  0.187700  0.277300  0.433400  1.0  0.1137
  H  H18  1  0.075300  0.260400  0.399700  1.0  0.1238
  H  H19  1  0.080000  0.213900  0.486100  1.0  0.1035
  H  H20  1  0.722700  0.910400  0.433400  1.0  0.1172
  H  H21  1  0.739600  0.814900  0.399700  1.0  0.1243
  H  H22  1  0.786100  0.866100  0.486100  1.0  0.1019
  H  H23  1  0.089600  0.812300  0.433400  1.0  0.1166
  H  H24  1  0.185100  0.924700  0.399700  1.0  0.1241
  H  H25  1  0.133900  0.920000  0.486100  1.0  0.1025
  H  H26  1  0.812300  0.722700  0.933400  1.0  0.1168
  H  H27  1  0.924700  0.739600  0.899700  1.0  0.1233
  H  H28  1  0.920000  0.786100  0.986100  1.0  0.103
  H  H29  1  0.277300  0.089600  0.933400  1.0  0.1164
  H  H30  1  0.260400  0.185100  0.899700  1.0  0.1231
  H  H31  1  0.213900  0.133900  0.986100  1.0  0.1026
  H  H32  1  0.910400  0.187700  0.933400  1.0  0.1159
  H  H33  1  0.814900  0.075300  0.899700  1.0  0.1247
  H  H34  1  0.866100  0.080000  0.986100  1.0  0.1028
  H  H35  1  0.812300  0.722700  0.566600  1.0  0.1154
  H  H36  1  0.924700  0.739600  0.600300  1.0  0.1237
  H  H37  1  0.920000  0.786100  0.513900  1.0  0.1031
  H  H38  1  0.277300  0.089600  0.566600  1.0  0.1154
  H  H39  1  0.260400  0.185100  0.600300  1.0  0.1243
  H  H40  1  0.213900  0.133900  0.513900  1.0  0.1024
  H  H41  1  0.910400  0.187700  0.566600  1.0  0.1141
  H  H42  1  0.814900  0.075300  0.600300  1.0  0.1248
  H  H43  1  0.866100  0.080000  0.513900  1.0  0.1024
  H  H44  1  0.187700  0.277300  0.066600  1.0  0.1121
  H  H45  1  0.075300  0.260400  0.100300  1.0  0.1245
  H  H46  1  0.080000  0.213900  0.013900  1.0  0.1032
  H  H47  1  0.722700  0.910400  0.066600  1.0  0.1155
  H  H48  1  0.739600  0.814900  0.100300  1.0  0.1245
  H  H49  1  0.786100  0.866100  0.013900  1.0  0.102
  H  H50  1  0.089600  0.812300  0.066600  1.0  0.1157
  H  H51  1  0.185100  0.924700  0.100300  1.0  0.1251
  H  H52  1  0.133900  0.920000  0.013900  1.0  0.1032
  C  C53  1  0.142700  0.381200  0.487300  1.0  0.4196
  C  C54  1  0.119300  0.273300  0.448000  1.0  -0.4622
  C  C55  1  0.618800  0.761500  0.487300  1.0  0.4193
  C  C56  1  0.726700  0.846000  0.448000  1.0  -0.4619
  C  C57  1  0.238500  0.857300  0.487300  1.0  0.4168
  C  C58  1  0.154000  0.880700  0.448000  1.0  -0.4587
  C  C59  1  0.857300  0.618800  0.987300  1.0  0.4191
  C  C60  1  0.880700  0.726700  0.948000  1.0  -0.4614
  C  C61  1  0.381200  0.238500  0.987300  1.0  0.4193
  C  C62  1  0.273300  0.154000  0.948000  1.0  -0.4606
  C  C63  1  0.761500  0.142700  0.987300  1.0  0.4178
  C  C64  1  0.846000  0.119300  0.948000  1.0  -0.46
  C  C65  1  0.857300  0.618800  0.512700  1.0  0.4187
  C  C66  1  0.880700  0.726700  0.552000  1.0  -0.4617
  C  C67  1  0.381200  0.238500  0.512700  1.0  0.4189
  C  C68  1  0.273300  0.154000  0.552000  1.0  -0.4615
  C  C69  1  0.761500  0.142700  0.512700  1.0  0.4174
  C  C70  1  0.846000  0.119300  0.552000  1.0  -0.4591
  C  C71  1  0.142700  0.381200  0.012700  1.0  0.4193
  C  C72  1  0.119300  0.273300  0.052000  1.0  -0.4615
  C  C73  1  0.618800  0.761500  0.012700  1.0  0.4187
  C  C74  1  0.726700  0.846000  0.052000  1.0  -0.4616
  C  C75  1  0.238500  0.857300  0.012700  1.0  0.4166
  C  C76  1  0.154000  0.880700  0.052000  1.0  -0.4592
  C  C77  1  0.045900  0.618000  0.750000  1.0  0.4372
  C  C78  1  0.928700  0.600000  0.750000  1.0  -0.0748
  C  C79  1  0.382000  0.427900  0.750000  1.0  0.4392
  C  C80  1  0.400000  0.328700  0.750000  1.0  -0.0786
  C  C81  1  0.572100  0.954100  0.750000  1.0  0.4408
  C  C82  1  0.671300  0.071300  0.750000  1.0  -0.0804
  C  C83  1  0.954100  0.382000  0.250000  1.0  0.4379
  C  C84  1  0.071300  0.400000  0.250000  1.0  -0.0778
  C  C85  1  0.618000  0.572100  0.250000  1.0  0.4368
  C  C86  1  0.600000  0.671300  0.250000  1.0  -0.0772
  C  C87  1  0.427900  0.045900  0.250000  1.0  0.44
  C  C88  1  0.328700  0.928700  0.250000  1.0  -0.0817
  N  N89  1  0.074400  0.421700  0.486300  1.0  -0.3421
  N  N90  1  0.126900  0.516900  0.530700  1.0  -0.1014
  N  N91  1  0.220900  0.529700  0.556500  1.0  -0.0528
  N  N92  1  0.233900  0.447900  0.530100  1.0  -0.2731
  N  N93  1  0.199900  0.645400  0.709900  1.0  -0.0015
  N  N94  1  0.102400  0.627900  0.683400  1.0  -0.2903
  N  N95  1  0.578300  0.652700  0.486300  1.0  -0.3401
  N  N96  1  0.483100  0.610000  0.530700  1.0  -0.1009
  N  N97  1  0.470300  0.691200  0.556500  1.0  -0.0514
  N  N98  1  0.552100  0.786000  0.530100  1.0  -0.2713
  N  N99  1  0.354600  0.554500  0.709900  1.0  -0.0024
  N  N100  1  0.372100  0.474500  0.683400  1.0  -0.2918
  N  N101  1  0.347300  0.925600  0.486300  1.0  -0.3409
  N  N102  1  0.390000  0.873100  0.530700  1.0  -0.099
  N  N103  1  0.308800  0.779100  0.556500  1.0  -0.0525
  N  N104  1  0.214000  0.766100  0.530100  1.0  -0.2725
  N  N105  1  0.445500  0.800100  0.709900  1.0  -0.0047
  N  N106  1  0.525500  0.897600  0.683400  1.0  -0.292
  N  N107  1  0.925600  0.578300  0.986300  1.0  -0.3417
  N  N108  1  0.873100  0.483100  0.030700  1.0  -0.0996
  N  N109  1  0.779100  0.470300  0.056500  1.0  -0.0521
  N  N110  1  0.766100  0.552100  0.030100  1.0  -0.2757
  N  N111  1  0.800100  0.354600  0.209900  1.0  -0.0011
  N  N112  1  0.897600  0.372100  0.183400  1.0  -0.2921
  N  N113  1  0.421700  0.347300  0.986300  1.0  -0.3419
  N  N114  1  0.516900  0.390000  0.030700  1.0  -0.1009
  N  N115  1  0.529700  0.308800  0.056500  1.0  -0.052
  N  N116  1  0.447900  0.214000  0.030100  1.0  -0.2712
  N  N117  1  0.645400  0.445500  0.209900  1.0  -0.0026
  N  N118  1  0.627900  0.525500  0.183400  1.0  -0.291
  N  N119  1  0.652700  0.074400  0.986300  1.0  -0.3422
  N  N120  1  0.610000  0.126900  0.030700  1.0  -0.0998
  N  N121  1  0.691200  0.220900  0.056500  1.0  -0.0528
  N  N122  1  0.786000  0.233900  0.030100  1.0  -0.2736
  N  N123  1  0.554500  0.199900  0.209900  1.0  -0.0049
  N  N124  1  0.474500  0.102400  0.183400  1.0  -0.2911
  N  N125  1  0.925600  0.578300  0.513700  1.0  -0.3419
  N  N126  1  0.873100  0.483100  0.469300  1.0  -0.0998
  N  N127  1  0.779100  0.470300  0.443500  1.0  -0.052
  N  N128  1  0.766100  0.552100  0.469900  1.0  -0.2747
  N  N129  1  0.800100  0.354600  0.290100  1.0  -0.0007
  N  N130  1  0.897600  0.372100  0.316600  1.0  -0.2928
  N  N131  1  0.421700  0.347300  0.513700  1.0  -0.3422
  N  N132  1  0.516900  0.390000  0.469300  1.0  -0.1011
  N  N133  1  0.529700  0.308800  0.443500  1.0  -0.0519
  N  N134  1  0.447900  0.214000  0.469900  1.0  -0.2707
  N  N135  1  0.645400  0.445500  0.290100  1.0  -0.002
  N  N136  1  0.627900  0.525500  0.316600  1.0  -0.2925
  N  N137  1  0.652700  0.074400  0.513700  1.0  -0.3419
  N  N138  1  0.610000  0.126900  0.469300  1.0  -0.0997
  N  N139  1  0.691200  0.220900  0.443500  1.0  -0.0524
  N  N140  1  0.786000  0.233900  0.469900  1.0  -0.2729
  N  N141  1  0.554500  0.199900  0.290100  1.0  -0.0043
  N  N142  1  0.474500  0.102400  0.316600  1.0  -0.2922
  N  N143  1  0.074400  0.421700  0.013700  1.0  -0.3421
  N  N144  1  0.126900  0.516900  0.969300  1.0  -0.1013
  N  N145  1  0.220900  0.529700  0.943500  1.0  -0.0525
  N  N146  1  0.233900  0.447900  0.969900  1.0  -0.2725
  N  N147  1  0.199900  0.645400  0.790100  1.0  -0.0009
  N  N148  1  0.102400  0.627900  0.816600  1.0  -0.2917
  N  N149  1  0.578300  0.652700  0.013700  1.0  -0.3395
  N  N150  1  0.483100  0.610000  0.969300  1.0  -0.1012
  N  N151  1  0.470300  0.691200  0.943500  1.0  -0.0509
  N  N152  1  0.552100  0.786000  0.969900  1.0  -0.2704
  N  N153  1  0.354600  0.554500  0.790100  1.0  -0.0018
  N  N154  1  0.372100  0.474500  0.816600  1.0  -0.2933
  N  N155  1  0.347300  0.925600  0.013700  1.0  -0.3412
  N  N156  1  0.390000  0.873100  0.969300  1.0  -0.0991
  N  N157  1  0.308800  0.779100  0.943500  1.0  -0.0524
  N  N158  1  0.214000  0.766100  0.969900  1.0  -0.2716
  N  N159  1  0.445500  0.800100  0.790100  1.0  -0.0045
  N  N160  1  0.525500  0.897600  0.816600  1.0  -0.2935
