# generated using pymatgen
data_ZnH24C26N7
_symmetry_space_group_name_H-M   'P 1'
_cell_length_a   18.58700000
_cell_length_b   20.07000000
_cell_length_c   8.79570000
_cell_angle_alpha   90.00000000
_cell_angle_beta   100.61100000
_cell_angle_gamma   90.00000000
_symmetry_Int_Tables_number   1
_chemical_formula_structural   ZnH24C26N7
_chemical_formula_sum   'Zn4 H96 C104 N28'
_cell_volume   3225.04977073
_cell_formula_units_Z   4
loop_
 _symmetry_equiv_pos_site_id
 _symmetry_equiv_pos_as_xyz
  1  'x, y, z'
loop_
 _atom_site_type_symbol
 _atom_site_label
 _atom_site_symmetry_multiplicity
 _atom_site_fract_x
 _atom_site_fract_y
 _atom_site_fract_z
 _atom_site_occupancy
 _atom_site_charge
  Zn  Zn1  1  0.500000  0.824060  0.750000  1.0  0.6247
  Zn  Zn2  1  0.000000  0.324060  0.750000  1.0  0.6247
  Zn  Zn3  1  0.500000  0.175940  0.250000  1.0  0.6239
  Zn  Zn4  1  0.000000  0.675940  0.250000  1.0  0.6239
  H  H5  1  0.459500  0.965300  0.605100  1.0  0.0551
  H  H6  1  0.373700  0.048000  0.585000  1.0  0.1091
  H  H7  1  0.251400  0.925700  0.787500  1.0  0.1123
  H  H8  1  0.344200  0.850500  0.818600  1.0  0.0628
  H  H9  1  0.250400  0.081200  0.583900  1.0  0.0586
  H  H10  1  0.195900  0.029800  0.634100  1.0  0.0672
  H  H11  1  0.289500  0.109600  0.834900  1.0  0.0977
  H  H12  1  0.234900  0.058500  0.884800  1.0  0.0848
  H  H13  1  0.046100  0.209600  0.568500  1.0  0.0649
  H  H14  1  0.128400  0.124200  0.576300  1.0  0.1096
  H  H15  1  0.216600  0.179200  0.005500  1.0  0.1
  H  H16  1  0.131300  0.262900  0.986400  1.0  0.0681
  H  H17  1  0.959500  0.465300  0.605100  1.0  0.0551
  H  H18  1  0.873700  0.548000  0.585000  1.0  0.1091
  H  H19  1  0.751400  0.425700  0.787500  1.0  0.1123
  H  H20  1  0.844200  0.350500  0.818600  1.0  0.0628
  H  H21  1  0.750400  0.581200  0.583900  1.0  0.0586
  H  H22  1  0.695900  0.529800  0.634100  1.0  0.0672
  H  H23  1  0.789500  0.609600  0.834900  1.0  0.0977
  H  H24  1  0.734900  0.558500  0.884800  1.0  0.0848
  H  H25  1  0.546100  0.709600  0.568500  1.0  0.0653
  H  H26  1  0.628400  0.624200  0.576300  1.0  0.1096
  H  H27  1  0.716600  0.679200  0.005500  1.0  0.1
  H  H28  1  0.631300  0.762900  0.986400  1.0  0.0681
  H  H29  1  0.540500  0.965300  0.894900  1.0  0.0558
  H  H30  1  0.626300  0.048000  0.915000  1.0  0.1093
  H  H31  1  0.748600  0.925700  0.712500  1.0  0.1123
  H  H32  1  0.655800  0.850500  0.681400  1.0  0.0627
  H  H33  1  0.749600  0.081200  0.916100  1.0  0.0593
  H  H34  1  0.804100  0.029800  0.865900  1.0  0.0683
  H  H35  1  0.710500  0.109600  0.665100  1.0  0.0994
  H  H36  1  0.765100  0.058500  0.615200  1.0  0.0832
  H  H37  1  0.953900  0.209600  0.931500  1.0  0.0656
  H  H38  1  0.871600  0.124200  0.923700  1.0  0.1097
  H  H39  1  0.783400  0.179200  0.494500  1.0  0.1001
  H  H40  1  0.868700  0.262900  0.513600  1.0  0.0687
  H  H41  1  0.040500  0.465300  0.894900  1.0  0.0558
  H  H42  1  0.126300  0.548000  0.915000  1.0  0.1093
  H  H43  1  0.248600  0.425700  0.712500  1.0  0.1123
  H  H44  1  0.155800  0.350500  0.681400  1.0  0.0627
  H  H45  1  0.249600  0.581200  0.916100  1.0  0.0593
  H  H46  1  0.304100  0.529800  0.865900  1.0  0.0683
  H  H47  1  0.210500  0.609600  0.665100  1.0  0.0994
  H  H48  1  0.265100  0.558500  0.615200  1.0  0.0832
  H  H49  1  0.453900  0.709600  0.931500  1.0  0.0659
  H  H50  1  0.371600  0.624200  0.923700  1.0  0.1097
  H  H51  1  0.283400  0.679200  0.494500  1.0  0.1001
  H  H52  1  0.368700  0.762900  0.513600  1.0  0.0687
  H  H53  1  0.540500  0.034700  0.394900  1.0  0.0558
  H  H54  1  0.626300  0.952000  0.415000  1.0  0.1092
  H  H55  1  0.748600  0.074300  0.212500  1.0  0.1128
  H  H56  1  0.655800  0.149500  0.181400  1.0  0.0623
  H  H57  1  0.749600  0.918800  0.416100  1.0  0.0596
  H  H58  1  0.804100  0.970200  0.365900  1.0  0.0677
  H  H59  1  0.710500  0.890400  0.165100  1.0  0.0995
  H  H60  1  0.765100  0.941500  0.115200  1.0  0.0833
  H  H61  1  0.953900  0.790400  0.431500  1.0  0.0659
  H  H62  1  0.871600  0.875800  0.423700  1.0  0.1096
  H  H63  1  0.783400  0.820800  0.994500  1.0  0.1001
  H  H64  1  0.868700  0.737100  0.013600  1.0  0.0689
  H  H65  1  0.040500  0.534700  0.394900  1.0  0.0558
  H  H66  1  0.126300  0.452000  0.415000  1.0  0.1092
  H  H67  1  0.248600  0.574300  0.212500  1.0  0.1128
  H  H68  1  0.155800  0.649500  0.181400  1.0  0.0623
  H  H69  1  0.249600  0.418800  0.416100  1.0  0.0596
  H  H70  1  0.304100  0.470200  0.365900  1.0  0.0677
  H  H71  1  0.210500  0.390400  0.165100  1.0  0.0995
  H  H72  1  0.265100  0.441500  0.115200  1.0  0.0833
  H  H73  1  0.453900  0.290400  0.431500  1.0  0.0663
  H  H74  1  0.371600  0.375800  0.423700  1.0  0.1096
  H  H75  1  0.283400  0.320800  0.994500  1.0  0.1001
  H  H76  1  0.368700  0.237100  0.013600  1.0  0.0689
  H  H77  1  0.459500  0.034700  0.105100  1.0  0.0552
  H  H78  1  0.373700  0.952000  0.085000  1.0  0.1088
  H  H79  1  0.251400  0.074300  0.287500  1.0  0.1121
  H  H80  1  0.344200  0.149500  0.318600  1.0  0.0622
  H  H81  1  0.250400  0.918800  0.083900  1.0  0.0586
  H  H82  1  0.195900  0.970200  0.134100  1.0  0.0682
  H  H83  1  0.289500  0.890400  0.334900  1.0  0.0989
  H  H84  1  0.234900  0.941500  0.384800  1.0  0.0837
  H  H85  1  0.046100  0.790400  0.068500  1.0  0.0647
  H  H86  1  0.128400  0.875800  0.076300  1.0  0.1095
  H  H87  1  0.216600  0.820800  0.505500  1.0  0.0998
  H  H88  1  0.131300  0.737100  0.486400  1.0  0.0681
  H  H89  1  0.959500  0.534700  0.105100  1.0  0.0552
  H  H90  1  0.873700  0.452000  0.085000  1.0  0.1088
  H  H91  1  0.751400  0.574300  0.287500  1.0  0.1121
  H  H92  1  0.844200  0.649500  0.318600  1.0  0.0622
  H  H93  1  0.750400  0.418800  0.083900  1.0  0.0586
  H  H94  1  0.695900  0.470200  0.134100  1.0  0.0682
  H  H95  1  0.789500  0.390400  0.334900  1.0  0.0989
  H  H96  1  0.734900  0.441500  0.384800  1.0  0.0837
  H  H97  1  0.546100  0.290400  0.068500  1.0  0.0649
  H  H98  1  0.628400  0.375800  0.076300  1.0  0.1095
  H  H99  1  0.716600  0.320800  0.505500  1.0  0.0998
  H  H100  1  0.631300  0.237100  0.486400  1.0  0.0681
  C  C101  1  0.498500  0.847300  0.381900  1.0  0.5347
  C  C102  1  0.417500  0.957700  0.646100  1.0  0.1618
  C  C103  1  0.365500  0.007600  0.631000  1.0  -0.2406
  C  C104  1  0.302500  0.997300  0.683700  1.0  0.1308
  C  C105  1  0.294400  0.935700  0.752500  1.0  -0.2079
  C  C106  1  0.350000  0.890300  0.768100  1.0  0.168
  C  C107  1  0.243200  0.051000  0.665800  1.0  -0.1691
  C  C108  1  0.241800  0.089100  0.803400  1.0  -0.2359
  C  C109  1  0.081200  0.203900  0.657500  1.0  0.1548
  C  C110  1  0.130700  0.152500  0.661000  1.0  -0.2826
  C  C111  1  0.184200  0.143200  0.792700  1.0  0.1226
  C  C112  1  0.182800  0.184700  0.914100  1.0  -0.1855
  C  C113  1  0.131200  0.235100  0.901900  1.0  0.1496
  C  C114  1  0.998500  0.347300  0.381900  1.0  0.5348
  C  C115  1  0.917500  0.457700  0.646100  1.0  0.1618
  C  C116  1  0.865500  0.507600  0.631000  1.0  -0.2406
  C  C117  1  0.802500  0.497300  0.683700  1.0  0.1308
  C  C118  1  0.794400  0.435700  0.752500  1.0  -0.2079
  C  C119  1  0.850000  0.390300  0.768100  1.0  0.168
  C  C120  1  0.743200  0.551000  0.665800  1.0  -0.1691
  C  C121  1  0.741800  0.589100  0.803400  1.0  -0.2359
  C  C122  1  0.581200  0.703900  0.657500  1.0  0.1548
  C  C123  1  0.630700  0.652500  0.661000  1.0  -0.2826
  C  C124  1  0.684200  0.643200  0.792700  1.0  0.1226
  C  C125  1  0.682800  0.684700  0.914100  1.0  -0.1855
  C  C126  1  0.631200  0.735100  0.901900  1.0  0.1496
  C  C127  1  0.501500  0.847300  0.118100  1.0  0.5346
  C  C128  1  0.582500  0.957700  0.853900  1.0  0.162
  C  C129  1  0.634500  0.007600  0.869000  1.0  -0.24
  C  C130  1  0.697500  0.997300  0.816300  1.0  0.1309
  C  C131  1  0.705600  0.935700  0.747500  1.0  -0.2095
  C  C132  1  0.650000  0.890300  0.731900  1.0  0.1673
  C  C133  1  0.756800  0.051000  0.834200  1.0  -0.169
  C  C134  1  0.758200  0.089100  0.696600  1.0  -0.234
  C  C135  1  0.918800  0.203900  0.842500  1.0  0.1551
  C  C136  1  0.869300  0.152500  0.839000  1.0  -0.2834
  C  C137  1  0.815800  0.143200  0.707300  1.0  0.1229
  C  C138  1  0.817200  0.184700  0.585900  1.0  -0.1862
  C  C139  1  0.868800  0.235100  0.598100  1.0  0.1503
  C  C140  1  0.001500  0.347300  0.118100  1.0  0.5346
  C  C141  1  0.082500  0.457700  0.853900  1.0  0.162
  C  C142  1  0.134500  0.507600  0.869000  1.0  -0.24
  C  C143  1  0.197500  0.497300  0.816300  1.0  0.1309
  C  C144  1  0.205600  0.435700  0.747500  1.0  -0.2095
  C  C145  1  0.150000  0.390300  0.731900  1.0  0.1673
  C  C146  1  0.256800  0.551000  0.834200  1.0  -0.169
  C  C147  1  0.258200  0.589100  0.696600  1.0  -0.234
  C  C148  1  0.418800  0.703900  0.842500  1.0  0.1551
  C  C149  1  0.369300  0.652500  0.839000  1.0  -0.2834
  C  C150  1  0.315800  0.643200  0.707300  1.0  0.1229
  C  C151  1  0.317200  0.684700  0.585900  1.0  -0.1862
  C  C152  1  0.368800  0.735100  0.598100  1.0  0.1503
  C  C153  1  0.501500  0.152700  0.618100  1.0  0.5347
  C  C154  1  0.582500  0.042300  0.353900  1.0  0.1621
  C  C155  1  0.634500  0.992400  0.369000  1.0  -0.2408
  C  C156  1  0.697500  0.002700  0.316300  1.0  0.1308
  C  C157  1  0.705600  0.064300  0.247500  1.0  -0.2099
  C  C158  1  0.650000  0.109700  0.231900  1.0  0.168
  C  C159  1  0.756800  0.949000  0.334200  1.0  -0.1686
  C  C160  1  0.758200  0.910900  0.196600  1.0  -0.2335
  C  C161  1  0.918800  0.796100  0.342500  1.0  0.1551
  C  C162  1  0.869300  0.847500  0.339000  1.0  -0.2836
  C  C163  1  0.815800  0.856800  0.207300  1.0  0.1229
  C  C164  1  0.817200  0.815300  0.085900  1.0  -0.186
  C  C165  1  0.868800  0.764900  0.098100  1.0  0.1499
  C  C166  1  0.001500  0.652700  0.618100  1.0  0.5343
  C  C167  1  0.082500  0.542300  0.353900  1.0  0.1621
  C  C168  1  0.134500  0.492400  0.369000  1.0  -0.2408
  C  C169  1  0.197500  0.502700  0.316300  1.0  0.1308
  C  C170  1  0.205600  0.564300  0.247500  1.0  -0.2099
  C  C171  1  0.150000  0.609700  0.231900  1.0  0.168
  C  C172  1  0.256800  0.449000  0.334200  1.0  -0.1686
  C  C173  1  0.258200  0.410900  0.196600  1.0  -0.2335
  C  C174  1  0.418800  0.296100  0.342500  1.0  0.1551
  C  C175  1  0.369300  0.347500  0.339000  1.0  -0.2836
  C  C176  1  0.315800  0.356800  0.207300  1.0  0.1229
  C  C177  1  0.317200  0.315300  0.085900  1.0  -0.186
  C  C178  1  0.368800  0.264900  0.098100  1.0  0.1499
  C  C179  1  0.498500  0.152700  0.881900  1.0  0.5343
  C  C180  1  0.417500  0.042300  0.146100  1.0  0.1623
  C  C181  1  0.365500  0.992400  0.131000  1.0  -0.2412
  C  C182  1  0.302500  0.002700  0.183700  1.0  0.1308
  C  C183  1  0.294400  0.064300  0.252500  1.0  -0.2091
  C  C184  1  0.350000  0.109700  0.268100  1.0  0.1683
  C  C185  1  0.243200  0.949000  0.165800  1.0  -0.169
  C  C186  1  0.241800  0.910900  0.303400  1.0  -0.2353
  C  C187  1  0.081200  0.796100  0.157500  1.0  0.1545
  C  C188  1  0.130700  0.847500  0.161000  1.0  -0.2835
  C  C189  1  0.184200  0.856800  0.292700  1.0  0.1222
  C  C190  1  0.182800  0.815300  0.414100  1.0  -0.1856
  C  C191  1  0.131200  0.764900  0.401900  1.0  0.1495
  C  C192  1  0.998500  0.652700  0.881900  1.0  0.5342
  C  C193  1  0.917500  0.542300  0.146100  1.0  0.1623
  C  C194  1  0.865500  0.492400  0.131000  1.0  -0.2412
  C  C195  1  0.802500  0.502700  0.183700  1.0  0.1308
  C  C196  1  0.794400  0.564300  0.252500  1.0  -0.2091
  C  C197  1  0.850000  0.609700  0.268100  1.0  0.1683
  C  C198  1  0.743200  0.449000  0.165800  1.0  -0.169
  C  C199  1  0.741800  0.410900  0.303400  1.0  -0.2353
  C  C200  1  0.581200  0.296100  0.157500  1.0  0.1545
  C  C201  1  0.630700  0.347500  0.161000  1.0  -0.2835
  C  C202  1  0.684200  0.356800  0.292700  1.0  0.1222
  C  C203  1  0.682800  0.315300  0.414100  1.0  -0.1856
  C  C204  1  0.631200  0.264900  0.401900  1.0  0.1495
  N  N205  1  0.498100  0.831870  0.503900  1.0  -0.4955
  N  N206  1  0.411560  0.899510  0.715600  1.0  -0.3388
  N  N207  1  0.080950  0.245500  0.773400  1.0  -0.3268
  N  N208  1  0.998100  0.331870  0.503900  1.0  -0.4955
  N  N209  1  0.911560  0.399510  0.715600  1.0  -0.3388
  N  N210  1  0.580950  0.745500  0.773400  1.0  -0.3268
  N  N211  1  0.501900  0.831870  0.996100  1.0  -0.4956
  N  N212  1  0.588440  0.899510  0.784400  1.0  -0.3394
  N  N213  1  0.919050  0.245500  0.726600  1.0  -0.3273
  N  N214  1  0.001900  0.331870  0.996100  1.0  -0.4956
  N  N215  1  0.088440  0.399510  0.784400  1.0  -0.3394
  N  N216  1  0.419050  0.745500  0.726600  1.0  -0.3273
  N  N217  1  0.500000  0.876200  0.250000  1.0  -0.4832
  N  N218  1  0.000000  0.376200  0.250000  1.0  -0.4832
  N  N219  1  0.501900  0.168130  0.496100  1.0  -0.4963
  N  N220  1  0.588440  0.100490  0.284400  1.0  -0.3395
  N  N221  1  0.919050  0.754500  0.226600  1.0  -0.3277
  N  N222  1  0.001900  0.668130  0.496100  1.0  -0.4963
  N  N223  1  0.088440  0.600490  0.284400  1.0  -0.3395
  N  N224  1  0.419050  0.254500  0.226600  1.0  -0.3277
  N  N225  1  0.498100  0.168130  0.003900  1.0  -0.4955
  N  N226  1  0.411560  0.100490  0.215600  1.0  -0.3395
  N  N227  1  0.080950  0.754500  0.273400  1.0  -0.3273
  N  N228  1  0.998100  0.668130  0.003900  1.0  -0.4955
  N  N229  1  0.911560  0.600490  0.215600  1.0  -0.3395
  N  N230  1  0.580950  0.254500  0.273400  1.0  -0.3273
  N  N231  1  0.500000  0.123800  0.750000  1.0  -0.4862
  N  N232  1  0.000000  0.623800  0.750000  1.0  -0.4862
