# generated using pymatgen
data_GdH24C44S4(NO3)4
_symmetry_space_group_name_H-M   'P 1'
_cell_length_a   15.38730000
_cell_length_b   15.38730000
_cell_length_c   9.85820000
_cell_angle_alpha   90.00000000
_cell_angle_beta   90.00000000
_cell_angle_gamma   90.00000000
_symmetry_Int_Tables_number   1
_chemical_formula_structural   GdH24C44S4(NO3)4
_chemical_formula_sum   'Gd2 H48 C88 S8 N8 O24'
_cell_volume   2334.11616852
_cell_formula_units_Z   2
loop_
 _symmetry_equiv_pos_site_id
 _symmetry_equiv_pos_as_xyz
  1  'x, y, z'
loop_
 _atom_site_type_symbol
 _atom_site_label
 _atom_site_symmetry_multiplicity
 _atom_site_fract_x
 _atom_site_fract_y
 _atom_site_fract_z
 _atom_site_occupancy
 _atom_site_charge
  Gd  Gd1  1  0.500000  0.500000  0.750000  1.0  2.3272
  Gd  Gd2  1  0.500000  0.500000  0.250000  1.0  2.3272
  H  H3  1  0.590700  0.738000  0.799000  1.0  0.1311
  H  H4  1  0.710100  0.825700  0.800100  1.0  0.1195
  H  H5  1  0.409300  0.262000  0.799000  1.0  0.1307
  H  H6  1  0.289900  0.174300  0.800100  1.0  0.1191
  H  H7  1  0.262000  0.590700  0.799000  1.0  0.1318
  H  H8  1  0.174300  0.710100  0.800100  1.0  0.1202
  H  H9  1  0.738000  0.409300  0.799000  1.0  0.1315
  H  H10  1  0.825700  0.289900  0.800100  1.0  0.1204
  H  H11  1  0.409300  0.738000  0.701000  1.0  0.1307
  H  H12  1  0.289900  0.825700  0.699900  1.0  0.1188
  H  H13  1  0.590700  0.262000  0.701000  1.0  0.1305
  H  H14  1  0.710100  0.174300  0.699900  1.0  0.1189
  H  H15  1  0.738000  0.590700  0.701000  1.0  0.1311
  H  H16  1  0.825700  0.710100  0.699900  1.0  0.1199
  H  H17  1  0.262000  0.409300  0.701000  1.0  0.1316
  H  H18  1  0.174300  0.289900  0.699900  1.0  0.1199
  H  H19  1  0.409300  0.262000  0.201000  1.0  0.1308
  H  H20  1  0.289900  0.174300  0.199900  1.0  0.1186
  H  H21  1  0.590700  0.738000  0.201000  1.0  0.1306
  H  H22  1  0.710100  0.825700  0.199900  1.0  0.119
  H  H23  1  0.738000  0.409300  0.201000  1.0  0.131
  H  H24  1  0.825700  0.289900  0.199900  1.0  0.1198
  H  H25  1  0.262000  0.590700  0.201000  1.0  0.1321
  H  H26  1  0.174300  0.710100  0.199900  1.0  0.12
  H  H27  1  0.590700  0.262000  0.299000  1.0  0.1305
  H  H28  1  0.710100  0.174300  0.300100  1.0  0.1193
  H  H29  1  0.409300  0.738000  0.299000  1.0  0.1311
  H  H30  1  0.289900  0.825700  0.300100  1.0  0.1194
  H  H31  1  0.262000  0.409300  0.299000  1.0  0.1317
  H  H32  1  0.174300  0.289900  0.300100  1.0  0.1207
  H  H33  1  0.738000  0.590700  0.299000  1.0  0.1312
  H  H34  1  0.825700  0.710100  0.300100  1.0  0.12
  H  H35  1  0.849200  0.698500  0.000000  1.0  0.1307
  H  H36  1  0.007200  0.665500  0.000000  1.0  0.1546
  H  H37  1  0.150800  0.301500  0.000000  1.0  0.1317
  H  H38  1  0.992800  0.334500  0.000000  1.0  0.1553
  H  H39  1  0.301500  0.849200  0.000000  1.0  0.133
  H  H40  1  0.334500  0.007200  0.000000  1.0  0.1538
  H  H41  1  0.698500  0.150800  0.000000  1.0  0.132
  H  H42  1  0.665500  0.992800  0.000000  1.0  0.1542
  H  H43  1  0.150800  0.698500  0.500000  1.0  0.1319
  H  H44  1  0.992800  0.665500  0.500000  1.0  0.1547
  H  H45  1  0.849200  0.301500  0.500000  1.0  0.1311
  H  H46  1  0.007200  0.334500  0.500000  1.0  0.1551
  H  H47  1  0.698500  0.849200  0.500000  1.0  0.1326
  H  H48  1  0.665500  0.007200  0.500000  1.0  0.1539
  H  H49  1  0.301500  0.150800  0.500000  1.0  0.1322
  H  H50  1  0.334500  0.992800  0.500000  1.0  0.1539
  C  C51  1  0.615600  0.756800  0.879900  1.0  -0.056
  C  C52  1  0.686700  0.806300  0.881600  1.0  -0.1044
  C  C53  1  0.384400  0.243200  0.879900  1.0  -0.0575
  C  C54  1  0.313300  0.193700  0.881600  1.0  -0.1052
  C  C55  1  0.243200  0.615600  0.879900  1.0  -0.0565
  C  C56  1  0.193700  0.686700  0.881600  1.0  -0.1049
  C  C57  1  0.756800  0.384400  0.879900  1.0  -0.055
  C  C58  1  0.806300  0.313300  0.881600  1.0  -0.1046
  C  C59  1  0.384400  0.756800  0.620100  1.0  -0.0562
  C  C60  1  0.313300  0.806300  0.618400  1.0  -0.1032
  C  C61  1  0.615600  0.243200  0.620100  1.0  -0.0558
  C  C62  1  0.686700  0.193700  0.618400  1.0  -0.1028
  C  C63  1  0.756800  0.615600  0.620100  1.0  -0.0551
  C  C64  1  0.806300  0.686700  0.618400  1.0  -0.1027
  C  C65  1  0.243200  0.384400  0.620100  1.0  -0.0545
  C  C66  1  0.193700  0.313300  0.618400  1.0  -0.1028
  C  C67  1  0.384400  0.243200  0.120100  1.0  -0.0556
  C  C68  1  0.313300  0.193700  0.118400  1.0  -0.1045
  C  C69  1  0.615600  0.756800  0.120100  1.0  -0.0551
  C  C70  1  0.686700  0.806300  0.118400  1.0  -0.1034
  C  C71  1  0.756800  0.384400  0.120100  1.0  -0.054
  C  C72  1  0.806300  0.313300  0.118400  1.0  -0.1039
  C  C73  1  0.243200  0.615600  0.120100  1.0  -0.0545
  C  C74  1  0.193700  0.686700  0.118400  1.0  -0.1041
  C  C75  1  0.615600  0.243200  0.379900  1.0  -0.0561
  C  C76  1  0.686700  0.193700  0.381600  1.0  -0.106
  C  C77  1  0.384400  0.756800  0.379900  1.0  -0.0559
  C  C78  1  0.313300  0.806300  0.381600  1.0  -0.1065
  C  C79  1  0.243200  0.384400  0.379900  1.0  -0.0535
  C  C80  1  0.193700  0.313300  0.381600  1.0  -0.1058
  C  C81  1  0.756800  0.615600  0.379900  1.0  -0.0562
  C  C82  1  0.806300  0.686700  0.381600  1.0  -0.1059
  C  C83  1  0.581900  0.735700  0.000000  1.0  0.0186
  C  C84  1  0.725600  0.829100  0.000000  1.0  0.0964
  C  C85  1  0.811900  0.880300  0.000000  1.0  -0.0162
  C  C86  1  0.884600  0.834300  0.000000  1.0  0.1403
  C  C87  1  0.894200  0.738900  0.000000  1.0  -0.1351
  C  C88  1  0.981900  0.720400  0.000000  1.0  -0.1446
  C  C89  1  0.025700  0.800600  0.000000  1.0  0.07
  C  C90  1  0.418100  0.264300  0.000000  1.0  0.0182
  C  C91  1  0.274400  0.170900  0.000000  1.0  0.0963
  C  C92  1  0.188100  0.119700  0.000000  1.0  -0.017
  C  C93  1  0.115400  0.165700  0.000000  1.0  0.139
  C  C94  1  0.105800  0.261100  0.000000  1.0  -0.1327
  C  C95  1  0.018100  0.279600  0.000000  1.0  -0.1421
  C  C96  1  0.974300  0.199400  0.000000  1.0  0.0686
  C  C97  1  0.264300  0.581900  0.000000  1.0  0.0248
  C  C98  1  0.170900  0.725600  0.000000  1.0  0.0941
  C  C99  1  0.119700  0.811900  0.000000  1.0  -0.0164
  C  C100  1  0.165700  0.884600  0.000000  1.0  0.1392
  C  C101  1  0.261100  0.894200  0.000000  1.0  -0.1325
  C  C102  1  0.279600  0.981900  0.000000  1.0  -0.1403
  C  C103  1  0.199400  0.025700  0.000000  1.0  0.068
  C  C104  1  0.735700  0.418100  0.000000  1.0  0.0239
  C  C105  1  0.829100  0.274400  0.000000  1.0  0.0953
  C  C106  1  0.880300  0.188100  0.000000  1.0  -0.0174
  C  C107  1  0.834300  0.115400  0.000000  1.0  0.1401
  C  C108  1  0.738900  0.105800  0.000000  1.0  -0.1318
  C  C109  1  0.720400  0.018100  0.000000  1.0  -0.1394
  C  C110  1  0.800600  0.974300  0.000000  1.0  0.0686
  C  C111  1  0.418100  0.735700  0.500000  1.0  0.0171
  C  C112  1  0.274400  0.829100  0.500000  1.0  0.0962
  C  C113  1  0.188100  0.880300  0.500000  1.0  -0.0169
  C  C114  1  0.115400  0.834300  0.500000  1.0  0.1398
  C  C115  1  0.105800  0.738900  0.500000  1.0  -0.1332
  C  C116  1  0.018100  0.720400  0.500000  1.0  -0.1442
  C  C117  1  0.974300  0.800600  0.500000  1.0  0.0697
  C  C118  1  0.581900  0.264300  0.500000  1.0  0.0191
  C  C119  1  0.725600  0.170900  0.500000  1.0  0.0966
  C  C120  1  0.811900  0.119700  0.500000  1.0  -0.0163
  C  C121  1  0.884600  0.165700  0.500000  1.0  0.1396
  C  C122  1  0.894200  0.261100  0.500000  1.0  -0.1354
  C  C123  1  0.981900  0.279600  0.500000  1.0  -0.1416
  C  C124  1  0.025700  0.199400  0.500000  1.0  0.0693
  C  C125  1  0.735700  0.581900  0.500000  1.0  0.0245
  C  C126  1  0.829100  0.725600  0.500000  1.0  0.0955
  C  C127  1  0.880300  0.811900  0.500000  1.0  -0.0171
  C  C128  1  0.834300  0.884600  0.500000  1.0  0.1399
  C  C129  1  0.738900  0.894200  0.500000  1.0  -0.1321
  C  C130  1  0.720400  0.981900  0.500000  1.0  -0.1394
  C  C131  1  0.800600  0.025700  0.500000  1.0  0.0683
  C  C132  1  0.264300  0.418100  0.500000  1.0  0.0245
  C  C133  1  0.170900  0.274400  0.500000  1.0  0.0943
  C  C134  1  0.119700  0.188100  0.500000  1.0  -0.0175
  C  C135  1  0.165700  0.115400  0.500000  1.0  0.139
  C  C136  1  0.261100  0.105800  0.500000  1.0  -0.1323
  C  C137  1  0.279600  0.018100  0.500000  1.0  -0.1403
  C  C138  1  0.199400  0.974300  0.500000  1.0  0.0685
  S  S139  1  0.474780  0.678900  0.000000  1.0  1.3239
  S  S140  1  0.525220  0.321100  0.000000  1.0  1.3247
  S  S141  1  0.321100  0.474780  0.000000  1.0  1.3231
  S  S142  1  0.678900  0.525220  0.000000  1.0  1.3236
  S  S143  1  0.525220  0.678900  0.500000  1.0  1.3244
  S  S144  1  0.474780  0.321100  0.500000  1.0  1.3242
  S  S145  1  0.678900  0.474780  0.500000  1.0  1.3238
  S  S146  1  0.321100  0.525220  0.500000  1.0  1.323
  N  N147  1  0.968000  0.870200  0.000000  1.0  -0.3139
  N  N148  1  0.032000  0.129800  0.000000  1.0  -0.3079
  N  N149  1  0.129800  0.968000  0.000000  1.0  -0.3087
  N  N150  1  0.870200  0.032000  0.000000  1.0  -0.3128
  N  N151  1  0.032000  0.870200  0.500000  1.0  -0.3136
  N  N152  1  0.968000  0.129800  0.500000  1.0  -0.3074
  N  N153  1  0.870200  0.968000  0.500000  1.0  -0.3084
  N  N154  1  0.129800  0.032000  0.500000  1.0  -0.3137
  O  O155  1  0.469120  0.625750  0.876100  1.0  -0.7636
  O  O156  1  0.530880  0.374250  0.876100  1.0  -0.7636
  O  O157  1  0.374250  0.469120  0.876100  1.0  -0.7638
  O  O158  1  0.625750  0.530880  0.876100  1.0  -0.7639
  O  O159  1  0.530880  0.625750  0.623900  1.0  -0.7647
  O  O160  1  0.469120  0.374250  0.623900  1.0  -0.7651
  O  O161  1  0.625750  0.469120  0.623900  1.0  -0.7646
  O  O162  1  0.374250  0.530880  0.623900  1.0  -0.7646
  O  O163  1  0.530880  0.374250  0.123900  1.0  -0.7651
  O  O164  1  0.469120  0.625750  0.123900  1.0  -0.7645
  O  O165  1  0.625750  0.530880  0.123900  1.0  -0.7648
  O  O166  1  0.374250  0.469120  0.123900  1.0  -0.7648
  O  O167  1  0.469120  0.374250  0.376100  1.0  -0.7637
  O  O168  1  0.530880  0.625750  0.376100  1.0  -0.7636
  O  O169  1  0.374250  0.530880  0.376100  1.0  -0.7637
  O  O170  1  0.625750  0.469120  0.376100  1.0  -0.7636
  O  O171  1  0.414800  0.744800  0.000000  1.0  -0.5679
  O  O172  1  0.585200  0.255200  0.000000  1.0  -0.5698
  O  O173  1  0.255200  0.414800  0.000000  1.0  -0.5675
  O  O174  1  0.744800  0.585200  0.000000  1.0  -0.568
  O  O175  1  0.585200  0.744800  0.500000  1.0  -0.5691
  O  O176  1  0.414800  0.255200  0.500000  1.0  -0.5693
  O  O177  1  0.744800  0.414800  0.500000  1.0  -0.5673
  O  O178  1  0.255200  0.585200  0.500000  1.0  -0.5678
