# generated using pymatgen
data_NiH5C5(NO)2
_symmetry_space_group_name_H-M   'P 1'
_cell_length_a   7.00770000
_cell_length_b   7.81690000
_cell_length_c   15.65860000
_cell_angle_alpha   98.97100000
_cell_angle_beta   90.00000000
_cell_angle_gamma   90.00000000
_symmetry_Int_Tables_number   1
_chemical_formula_structural   NiH5C5(NO)2
_chemical_formula_sum   'Ni4 H20 C20 N8 O8'
_cell_volume   847.26189199
_cell_formula_units_Z   4
loop_
 _symmetry_equiv_pos_site_id
 _symmetry_equiv_pos_as_xyz
  1  'x, y, z'
loop_
 _atom_site_type_symbol
 _atom_site_label
 _atom_site_symmetry_multiplicity
 _atom_site_fract_x
 _atom_site_fract_y
 _atom_site_fract_z
 _atom_site_occupancy
 _atom_site_charge
  Ni  Ni1  1  0.743430  0.699950  0.350650  1.0  0.3964
  Ni  Ni2  1  0.243430  0.300050  0.149350  1.0  0.4042
  Ni  Ni3  1  0.256570  0.300050  0.649350  1.0  0.4025
  Ni  Ni4  1  0.756570  0.699950  0.850650  1.0  0.3957
  H  H5  1  0.925300  0.783100  0.534600  1.0  0.0821
  H  H6  1  0.907500  0.354800  0.370600  1.0  0.0918
  H  H7  1  0.697300  0.082700  0.399900  1.0  0.0842
  H  H8  1  0.477600  0.715300  0.510900  1.0  0.0857
  H  H9  1  0.865300  0.652100  0.162500  1.0  -0.0348
  H  H10  1  0.425300  0.216900  0.965400  1.0  0.0822
  H  H11  1  0.407500  0.645200  0.129400  1.0  0.0917
  H  H12  1  0.197300  0.917300  0.100100  1.0  0.0837
  H  H13  1  0.977600  0.284700  0.989100  1.0  0.0856
  H  H14  1  0.365300  0.347900  0.337500  1.0  -0.0346
  H  H15  1  0.074700  0.216900  0.465400  1.0  0.0825
  H  H16  1  0.092500  0.645200  0.629400  1.0  0.0918
  H  H17  1  0.302700  0.917300  0.600100  1.0  0.0832
  H  H18  1  0.522400  0.284700  0.489100  1.0  0.0855
  H  H19  1  0.134700  0.347900  0.837500  1.0  -0.0345
  H  H20  1  0.574700  0.783100  0.034600  1.0  0.0821
  H  H21  1  0.592500  0.354800  0.870600  1.0  0.092
  H  H22  1  0.802700  0.082700  0.899900  1.0  0.0836
  H  H23  1  0.022400  0.715300  0.010900  1.0  0.0857
  H  H24  1  0.634700  0.652100  0.662500  1.0  -0.0352
  C  C25  1  0.954700  0.666300  0.519160  1.0  0.0672
  C  C26  1  0.944200  0.416900  0.423580  1.0  0.0808
  C  C27  1  0.616900  0.046300  0.440760  1.0  0.0465
  C  C28  1  0.488800  0.831600  0.505500  1.0  0.0789
  C  C29  1  0.925400  0.563600  0.185550  1.0  0.6139
  C  C30  1  0.454700  0.333700  0.980840  1.0  0.063
  C  C31  1  0.444200  0.583100  0.076420  1.0  0.0795
  C  C32  1  0.116900  0.953700  0.059240  1.0  0.0464
  C  C33  1  0.988800  0.168400  0.994500  1.0  0.0802
  C  C34  1  0.425400  0.436400  0.314450  1.0  0.6142
  C  C35  1  0.045300  0.333700  0.480840  1.0  0.064
  C  C36  1  0.055800  0.583100  0.576420  1.0  0.0802
  C  C37  1  0.383100  0.953700  0.559240  1.0  0.0452
  C  C38  1  0.511200  0.168400  0.494500  1.0  0.0803
  C  C39  1  0.074600  0.436400  0.814450  1.0  0.6143
  C  C40  1  0.545300  0.666300  0.019160  1.0  0.0681
  C  C41  1  0.555800  0.416900  0.923580  1.0  0.0813
  C  C42  1  0.883100  0.046300  0.940760  1.0  0.046
  C  C43  1  0.011200  0.831600  0.005500  1.0  0.079
  C  C44  1  0.574600  0.563600  0.685550  1.0  0.614
  N  N45  1  0.898310  0.583410  0.442440  1.0  -0.2233
  N  N46  1  0.606360  0.877710  0.446060  1.0  -0.2802
  N  N47  1  0.398310  0.416590  0.057560  1.0  -0.2251
  N  N48  1  0.106360  0.122290  0.053940  1.0  -0.2754
  N  N49  1  0.101690  0.416590  0.557560  1.0  -0.2237
  N  N50  1  0.393640  0.122290  0.553940  1.0  -0.2763
  N  N51  1  0.601690  0.583410  0.942440  1.0  -0.2223
  N  N52  1  0.893640  0.877710  0.946060  1.0  -0.2814
  O  O53  1  0.881820  0.533630  0.257870  1.0  -0.5369
  O  O54  1  0.037040  0.480080  0.132440  1.0  -0.5576
  O  O55  1  0.381820  0.466370  0.242130  1.0  -0.5364
  O  O56  1  0.537040  0.519920  0.367560  1.0  -0.5544
  O  O57  1  0.118180  0.466370  0.742130  1.0  -0.5369
  O  O58  1  0.962960  0.519920  0.867560  1.0  -0.5532
  O  O59  1  0.618180  0.533630  0.757870  1.0  -0.5371
  O  O60  1  0.462960  0.480080  0.632440  1.0  -0.5559
