# generated using pymatgen
data_Co2H48C42N4O7
_symmetry_space_group_name_H-M   'P 1'
_cell_length_a   12.02010000
_cell_length_b   12.93830000
_cell_length_c   20.74630000
_cell_angle_alpha   90.00000000
_cell_angle_beta   90.00000000
_cell_angle_gamma   90.16210000
_symmetry_Int_Tables_number   1
_chemical_formula_structural   Co2H48C42N4O7
_chemical_formula_sum   'Co4 H96 C84 N8 O14'
_cell_volume   3226.44460605
_cell_formula_units_Z   2
loop_
 _symmetry_equiv_pos_site_id
 _symmetry_equiv_pos_as_xyz
  1  'x, y, z'
loop_
 _atom_site_type_symbol
 _atom_site_label
 _atom_site_symmetry_multiplicity
 _atom_site_fract_x
 _atom_site_fract_y
 _atom_site_fract_z
 _atom_site_occupancy
 _atom_site_charge
  Co  Co1  1  0.306750  0.117590  0.826640  1.0  0.6068
  Co  Co2  1  0.165420  0.114700  0.673840  1.0  0.6173
  Co  Co3  1  0.806750  0.617590  0.173360  1.0  0.6063
  Co  Co4  1  0.665420  0.614700  0.326160  1.0  0.6149
  H  H5  1  0.195500  0.976300  0.751400  1.0  0.4021
  H  H6  1  0.303900  0.972900  0.745200  1.0  0.3569
  H  H7  1  0.290400  0.651100  0.674400  1.0  0.3907
  H  H8  1  0.699900  0.255200  0.880600  1.0  0.3964
  H  H9  1  0.297500  0.463000  0.722000  1.0  0.0905
  H  H10  1  0.270700  0.421800  0.652500  1.0  0.0942
  H  H11  1  0.410500  0.309000  0.594600  1.0  0.0819
  H  H12  1  0.523300  0.281200  0.628400  1.0  0.082
  H  H13  1  0.564700  0.346100  0.740100  1.0  0.0811
  H  H14  1  0.477800  0.415400  0.776400  1.0  0.0929
  H  H15  1  0.375700  0.491000  0.558000  1.0  0.0859
  H  H16  1  0.467600  0.576200  0.567900  1.0  0.0828
  H  H17  1  0.553200  0.414800  0.552500  1.0  0.0513
  H  H18  1  0.650200  0.528900  0.622000  1.0  0.0699
  H  H19  1  0.668300  0.414800  0.645900  1.0  0.0736
  H  H20  1  0.620400  0.521900  0.733900  1.0  0.0468
  H  H21  1  0.443200  0.596200  0.738400  1.0  0.0774
  H  H22  1  0.509600  0.641200  0.679300  1.0  0.0896
  H  H23  1  0.130000  0.416200  0.851800  1.0  0.0786
  H  H24  1  0.094500  0.336200  0.905100  1.0  0.0811
  H  H25  1  0.030000  0.418200  0.744200  1.0  0.0908
  H  H26  1  0.930400  0.341500  0.732000  1.0  0.0881
  H  H27  1  0.936600  0.213800  0.884500  1.0  0.0884
  H  H28  1  0.873500  0.215500  0.818300  1.0  0.0947
  H  H29  1  0.911500  0.358900  0.962600  1.0  0.0818
  H  H30  1  0.834000  0.452300  0.944900  1.0  0.0847
  H  H31  1  0.020500  0.500200  0.930600  1.0  0.0558
  H  H32  1  0.006700  0.563700  0.824200  1.0  0.0683
  H  H33  1  0.892800  0.579000  0.860100  1.0  0.0732
  H  H34  1  0.859700  0.507800  0.758100  1.0  0.0523
  H  H35  1  0.750000  0.364200  0.790000  1.0  0.0838
  H  H36  1  0.733600  0.455400  0.839100  1.0  0.0914
  H  H37  1  0.539600  0.193700  0.025300  1.0  0.1108
  H  H38  1  0.434200  0.097200  0.956600  1.0  0.0738
  H  H39  1  0.339000  0.343500  0.864200  1.0  0.0777
  H  H40  1  0.444900  0.446300  0.928600  1.0  0.1121
  H  H41  1  0.831700  0.236200  0.545000  1.0  0.1149
  H  H42  1  0.929800  0.136600  0.614000  1.0  0.0698
  H  H43  1  0.202000  0.282800  0.572700  1.0  0.0696
  H  H44  1  0.110200  0.389100  0.503000  1.0  0.1212
  H  H45  1  0.526100  0.537900  0.997700  1.0  0.1181
  H  H46  1  0.661000  0.283800  0.072300  1.0  0.1146
  H  H47  1  0.639000  0.633800  0.062700  1.0  0.0687
  H  H48  1  0.767900  0.386400  0.136900  1.0  0.0623
  H  H49  1  0.749600  0.399900  0.525500  1.0  0.1091
  H  H50  1  0.654700  0.510300  0.460000  1.0  0.0672
  H  H51  1  0.911300  0.544500  0.348800  1.0  0.0684
  H  H52  1  0.013200  0.431200  0.409000  1.0  0.1208
  H  H53  1  0.695500  0.476300  0.248600  1.0  0.4025
  H  H54  1  0.803900  0.472900  0.254800  1.0  0.3561
  H  H55  1  0.790400  0.151100  0.325600  1.0  0.3898
  H  H56  1  0.199900  0.755200  0.119400  1.0  0.3972
  H  H57  1  0.797500  0.963000  0.278000  1.0  0.0913
  H  H58  1  0.770700  0.921800  0.347500  1.0  0.0928
  H  H59  1  0.910500  0.809000  0.405400  1.0  0.0823
  H  H60  1  0.023300  0.781200  0.371600  1.0  0.083
  H  H61  1  0.064700  0.846100  0.259900  1.0  0.0806
  H  H62  1  0.977800  0.915400  0.223600  1.0  0.0932
  H  H63  1  0.875700  0.991000  0.442000  1.0  0.0869
  H  H64  1  0.967600  0.076200  0.432100  1.0  0.0826
  H  H65  1  0.053200  0.914800  0.447500  1.0  0.052
  H  H66  1  0.150200  0.028900  0.378000  1.0  0.0698
  H  H67  1  0.168300  0.914800  0.354100  1.0  0.0738
  H  H68  1  0.120400  0.021900  0.266100  1.0  0.0477
  H  H69  1  0.943200  0.096200  0.261600  1.0  0.0789
  H  H70  1  0.009600  0.141200  0.320700  1.0  0.0905
  H  H71  1  0.630000  0.916200  0.148200  1.0  0.0786
  H  H72  1  0.594500  0.836200  0.094900  1.0  0.0815
  H  H73  1  0.530000  0.918200  0.255800  1.0  0.0925
  H  H74  1  0.430400  0.841500  0.268000  1.0  0.0915
  H  H75  1  0.436600  0.713800  0.115500  1.0  0.0881
  H  H76  1  0.373500  0.715500  0.181700  1.0  0.0949
  H  H77  1  0.411500  0.858900  0.037400  1.0  0.0832
  H  H78  1  0.334000  0.952300  0.055100  1.0  0.0856
  H  H79  1  0.520500  0.000200  0.069400  1.0  0.057
  H  H80  1  0.506700  0.063700  0.175800  1.0  0.0677
  H  H81  1  0.392800  0.079000  0.139900  1.0  0.0735
  H  H82  1  0.359700  0.007800  0.241900  1.0  0.0517
  H  H83  1  0.250000  0.864200  0.210000  1.0  0.0835
  H  H84  1  0.233600  0.955400  0.160900  1.0  0.0918
  H  H85  1  0.039600  0.693700  0.974700  1.0  0.1106
  H  H86  1  0.934200  0.597200  0.043400  1.0  0.0736
  H  H87  1  0.839000  0.843500  0.135800  1.0  0.0774
  H  H88  1  0.944900  0.946300  0.071400  1.0  0.1118
  H  H89  1  0.331700  0.736200  0.455000  1.0  0.1149
  H  H90  1  0.429800  0.636600  0.386000  1.0  0.0694
  H  H91  1  0.702000  0.782800  0.427300  1.0  0.0696
  H  H92  1  0.610200  0.889100  0.497000  1.0  0.1213
  H  H93  1  0.026100  0.037900  0.002300  1.0  0.1183
  H  H94  1  0.161000  0.783800  0.927700  1.0  0.1148
  H  H95  1  0.139000  0.133800  0.937300  1.0  0.069
  H  H96  1  0.267900  0.886400  0.863100  1.0  0.0622
  H  H97  1  0.249600  0.899900  0.474500  1.0  0.1092
  H  H98  1  0.154700  0.010300  0.540000  1.0  0.0671
  H  H99  1  0.411300  0.044500  0.651200  1.0  0.0687
  H  H100  1  0.513200  0.931200  0.591000  1.0  0.1208
  C  C101  1  0.415900  0.359100  0.689480  1.0  0.0607
  C  C102  1  0.329900  0.445600  0.680600  1.0  -0.2801
  C  C103  1  0.467600  0.334700  0.623520  1.0  -0.2234
  C  C104  1  0.508600  0.399100  0.734460  1.0  -0.232
  C  C105  1  0.384500  0.541500  0.651500  1.0  0.3839
  C  C106  1  0.433900  0.515000  0.586740  1.0  -0.2705
  C  C107  1  0.521100  0.431500  0.594610  1.0  0.0573
  C  C108  1  0.613400  0.468900  0.640230  1.0  -0.2138
  C  C109  1  0.561900  0.496500  0.705000  1.0  0.0588
  C  C110  1  0.475300  0.579200  0.696800  1.0  -0.3043
  C  C111  1  0.358900  0.260700  0.713360  1.0  0.6428
  C  C112  1  0.010000  0.313100  0.818850  1.0  0.0191
  C  C113  1  0.067100  0.379900  0.870580  1.0  -0.2331
  C  C114  1  0.967800  0.382900  0.764430  1.0  -0.2208
  C  C115  1  0.910500  0.258300  0.850090  1.0  -0.2275
  C  C116  1  0.828500  0.336700  0.877220  1.0  0.3842
  C  C117  1  0.886000  0.402300  0.927470  1.0  -0.2504
  C  C118  1  0.983800  0.458000  0.897600  1.0  0.0599
  C  C119  1  0.943900  0.527800  0.843200  1.0  -0.215
  C  C120  1  0.886200  0.462700  0.792740  1.0  0.0517
  C  C121  1  0.786800  0.405800  0.822530  1.0  -0.3085
  C  C122  1  0.090400  0.232000  0.792770  1.0  0.6379
  C  C123  1  0.508300  0.333000  0.984570  1.0  0.078
  C  C124  1  0.501000  0.226000  0.992100  1.0  -0.1936
  C  C125  1  0.437000  0.168400  0.950600  1.0  0.1416
  C  C126  1  0.381700  0.312800  0.896260  1.0  0.1645
  C  C127  1  0.444700  0.375200  0.935220  1.0  -0.1922
  C  C128  1  0.957400  0.329100  0.517500  1.0  0.0801
  C  C129  1  0.907200  0.248900  0.550680  1.0  -0.2195
  C  C130  1  0.967000  0.188300  0.591580  1.0  0.1494
  C  C131  1  0.125700  0.274000  0.567550  1.0  0.1618
  C  C132  1  0.070900  0.338900  0.525670  1.0  -0.2232
  C  C133  1  0.575300  0.504800  0.025410  1.0  -0.2119
  C  C134  1  0.654200  0.355200  0.069460  1.0  -0.198
  C  C135  1  0.643300  0.562100  0.065110  1.0  0.1634
  C  C136  1  0.719000  0.417800  0.108230  1.0  0.1288
  C  C137  1  0.580100  0.397600  0.026740  1.0  0.083
  C  C138  1  0.893800  0.400400  0.475390  1.0  0.0822
  C  C139  1  0.784500  0.427200  0.489250  1.0  -0.2135
  C  C140  1  0.727900  0.494000  0.449650  1.0  0.1581
  C  C141  1  0.877700  0.513500  0.384280  1.0  0.1527
  C  C142  1  0.940400  0.446100  0.420780  1.0  -0.2334
  C  C143  1  0.915900  0.859100  0.310520  1.0  0.053
  C  C144  1  0.829900  0.945600  0.319400  1.0  -0.2799
  C  C145  1  0.967600  0.834700  0.376480  1.0  -0.2232
  C  C146  1  0.008600  0.899100  0.265540  1.0  -0.2327
  C  C147  1  0.884500  0.041500  0.348500  1.0  0.384
  C  C148  1  0.933900  0.015000  0.413260  1.0  -0.2663
  C  C149  1  0.021100  0.931500  0.405390  1.0  0.0598
  C  C150  1  0.113400  0.968900  0.359770  1.0  -0.2141
  C  C151  1  0.061900  0.996500  0.295000  1.0  0.0597
  C  C152  1  0.975300  0.079200  0.303200  1.0  -0.2983
  C  C153  1  0.858900  0.760700  0.286640  1.0  0.6435
  C  C154  1  0.510000  0.813100  0.181150  1.0  0.0202
  C  C155  1  0.567100  0.879900  0.129420  1.0  -0.233
  C  C156  1  0.467800  0.882900  0.235570  1.0  -0.2194
  C  C157  1  0.410500  0.758300  0.149910  1.0  -0.2274
  C  C158  1  0.328500  0.836700  0.122780  1.0  0.3833
  C  C159  1  0.386000  0.902300  0.072530  1.0  -0.2617
  C  C160  1  0.483800  0.958000  0.102400  1.0  0.0578
  C  C161  1  0.443900  0.027800  0.156800  1.0  -0.2141
  C  C162  1  0.386200  0.962700  0.207260  1.0  0.0548
  C  C163  1  0.286800  0.905800  0.177470  1.0  -0.3098
  C  C164  1  0.590400  0.732000  0.207230  1.0  0.6377
  C  C165  1  0.008300  0.833000  0.015430  1.0  0.0788
  C  C166  1  0.001000  0.726000  0.007900  1.0  -0.194
  C  C167  1  0.937000  0.668400  0.049400  1.0  0.1415
  C  C168  1  0.881700  0.812800  0.103740  1.0  0.1651
  C  C169  1  0.944700  0.875200  0.064780  1.0  -0.1941
  C  C170  1  0.457400  0.829100  0.482500  1.0  0.0798
  C  C171  1  0.407200  0.748900  0.449320  1.0  -0.2194
  C  C172  1  0.467000  0.688300  0.408420  1.0  0.1492
  C  C173  1  0.625700  0.774000  0.432450  1.0  0.1623
  C  C174  1  0.570900  0.838900  0.474330  1.0  -0.224
  C  C175  1  0.075300  0.004800  0.974590  1.0  -0.2125
  C  C176  1  0.154200  0.855200  0.930540  1.0  -0.1987
  C  C177  1  0.143300  0.062100  0.934890  1.0  0.1633
  C  C178  1  0.219000  0.917800  0.891770  1.0  0.1283
  C  C179  1  0.080100  0.897600  0.973260  1.0  0.0828
  C  C180  1  0.393800  0.900400  0.524610  1.0  0.0823
  C  C181  1  0.284500  0.927200  0.510750  1.0  -0.2143
  C  C182  1  0.227900  0.994000  0.550350  1.0  0.1585
  C  C183  1  0.377700  0.013500  0.615720  1.0  0.1528
  C  C184  1  0.440400  0.946100  0.579220  1.0  -0.2337
  N  N185  1  0.378650  0.209150  0.902160  1.0  -0.3269
  N  N186  1  0.075710  0.199210  0.601130  1.0  -0.3188
  N  N187  1  0.715110  0.521110  0.106830  1.0  -0.3516
  N  N188  1  0.772790  0.536790  0.396710  1.0  -0.3537
  N  N189  1  0.878650  0.709150  0.097840  1.0  -0.3262
  N  N190  1  0.575710  0.699210  0.398870  1.0  -0.3197
  N  N191  1  0.215110  0.021110  0.893170  1.0  -0.3525
  N  N192  1  0.272790  0.036790  0.603290  1.0  -0.3536
  O  O193  1  0.245750  0.022650  0.748540  1.0  -0.7168
  O  O194  1  0.276450  0.231850  0.680890  1.0  -0.5685
  O  O195  1  0.396200  0.214500  0.761860  1.0  -0.6092
  O  O196  1  0.301500  0.619300  0.640860  1.0  -0.6239
  O  O197  1  0.180330  0.219830  0.822680  1.0  -0.5616
  O  O198  1  0.060250  0.179050  0.744590  1.0  -0.6304
  O  O199  1  0.737200  0.285400  0.907830  1.0  -0.6354
  O  O200  1  0.745750  0.522650  0.251460  1.0  -0.716
  O  O201  1  0.776450  0.731850  0.319110  1.0  -0.5686
  O  O202  1  0.896200  0.714500  0.238140  1.0  -0.6092
  O  O203  1  0.801500  0.119300  0.359140  1.0  -0.6321
  O  O204  1  0.680330  0.719830  0.177320  1.0  -0.561
  O  O205  1  0.560250  0.679050  0.255410  1.0  -0.6279
  O  O206  1  0.237200  0.785400  0.092170  1.0  -0.6337
