# generated using pymatgen
data_Zn2H13C26(N3O5)2
_symmetry_space_group_name_H-M   'P 1'
_cell_length_a   14.26100000
_cell_length_b   16.66400000
_cell_length_c   26.16000000
_cell_angle_alpha   90.00000000
_cell_angle_beta   90.00000000
_cell_angle_gamma   90.00000000
_symmetry_Int_Tables_number   1
_chemical_formula_structural   Zn2H13C26(N3O5)2
_chemical_formula_sum   'Zn8 H52 C104 N24 O40'
_cell_volume   6216.80115264
_cell_formula_units_Z   4
loop_
 _symmetry_equiv_pos_site_id
 _symmetry_equiv_pos_as_xyz
  1  'x, y, z'
loop_
 _atom_site_type_symbol
 _atom_site_label
 _atom_site_symmetry_multiplicity
 _atom_site_fract_x
 _atom_site_fract_y
 _atom_site_fract_z
 _atom_site_occupancy
 _atom_site_charge
  Zn  Zn1  1  0.775240  0.076620  0.891300  1.0  1.0682
  Zn  Zn2  1  0.936250  0.936110  0.906480  1.0  1.0818
  Zn  Zn3  1  0.724760  0.923380  0.391290  1.0  1.0672
  Zn  Zn4  1  0.563750  0.063890  0.406480  1.0  1.0822
  Zn  Zn5  1  0.224760  0.576620  0.608710  1.0  1.0673
  Zn  Zn6  1  0.063750  0.436110  0.593520  1.0  1.082
  Zn  Zn7  1  0.275240  0.423380  0.108710  1.0  1.0673
  Zn  Zn8  1  0.436250  0.563890  0.093520  1.0  1.0823
  H  H9  1  0.402000  0.835900  0.122600  1.0  0.2954
  H  H10  1  0.134400  0.877600  0.982200  1.0  0.322
  H  H11  1  0.232600  0.123300  0.100600  1.0  0.3294
  H  H12  1  0.076100  0.048500  0.012300  1.0  0.108
  H  H13  1  0.941000  0.257000  0.989000  1.0  0.1277
  H  H14  1  0.046200  0.319400  0.044800  1.0  0.1223
  H  H15  1  0.039700  0.638600  0.927900  1.0  0.0922
  H  H16  1  0.119800  0.545400  0.977800  1.0  0.1377
  H  H17  1  0.253700  0.730200  0.047000  1.0  0.1068
  H  H18  1  0.519500  0.817200  0.178300  1.0  0.1112
  H  H19  1  0.593900  0.850100  0.252400  1.0  0.1174
  H  H20  1  0.431400  0.043700  0.265800  1.0  0.1127
  H  H21  1  0.356000  0.011600  0.190300  1.0  0.1246
  H  H22  1  0.098000  0.164100  0.622600  1.0  0.297
  H  H23  1  0.365600  0.122400  0.482200  1.0  0.3236
  H  H24  1  0.267400  0.876700  0.600600  1.0  0.3301
  H  H25  1  0.423900  0.951500  0.512300  1.0  0.1079
  H  H26  1  0.559000  0.743000  0.489000  1.0  0.1274
  H  H27  1  0.453800  0.680600  0.544800  1.0  0.123
  H  H28  1  0.460300  0.361400  0.427900  1.0  0.0928
  H  H29  1  0.380200  0.454600  0.477800  1.0  0.1376
  H  H30  1  0.246300  0.269800  0.547000  1.0  0.1068
  H  H31  1  0.980500  0.182800  0.678300  1.0  0.1115
  H  H32  1  0.906100  0.149900  0.752400  1.0  0.1179
  H  H33  1  0.068600  0.956300  0.765800  1.0  0.1126
  H  H34  1  0.144000  0.988400  0.690300  1.0  0.1245
  H  H35  1  0.598000  0.335900  0.377400  1.0  0.2949
  H  H36  1  0.865600  0.377600  0.517800  1.0  0.3237
  H  H37  1  0.767400  0.623300  0.399400  1.0  0.3305
  H  H38  1  0.923900  0.548500  0.487700  1.0  0.1082
  H  H39  1  0.059000  0.757000  0.511000  1.0  0.1274
  H  H40  1  0.953800  0.819400  0.455200  1.0  0.1224
  H  H41  1  0.960300  0.138600  0.572100  1.0  0.093
  H  H42  1  0.880200  0.045400  0.522200  1.0  0.1371
  H  H43  1  0.746300  0.230200  0.453000  1.0  0.1073
  H  H44  1  0.480500  0.317200  0.321700  1.0  0.1103
  H  H45  1  0.406100  0.350100  0.247600  1.0  0.1172
  H  H46  1  0.568600  0.543700  0.234200  1.0  0.1131
  H  H47  1  0.644000  0.511600  0.309700  1.0  0.1238
  H  H48  1  0.902000  0.664100  0.877400  1.0  0.2953
  H  H49  1  0.634400  0.622400  0.017800  1.0  0.3225
  H  H50  1  0.732600  0.376700  0.899400  1.0  0.3313
  H  H51  1  0.576100  0.451500  0.987700  1.0  0.1072
  H  H52  1  0.441000  0.243000  0.011000  1.0  0.127
  H  H53  1  0.546200  0.180600  0.955200  1.0  0.1232
  H  H54  1  0.539700  0.861400  0.072100  1.0  0.0927
  H  H55  1  0.619800  0.954600  0.022200  1.0  0.1372
  H  H56  1  0.753700  0.769800  0.953000  1.0  0.1073
  H  H57  1  0.019500  0.682800  0.821700  1.0  0.112
  H  H58  1  0.093900  0.649900  0.747600  1.0  0.1181
  H  H59  1  0.931400  0.456300  0.734200  1.0  0.1122
  H  H60  1  0.856000  0.488400  0.809700  1.0  0.1236
  C  C61  1  0.314460  0.914830  0.103840  1.0  0.5927
  C  C62  1  0.211100  0.893340  0.040070  1.0  0.5431
  C  C63  1  0.224200  0.016330  0.075270  1.0  0.5381
  C  C64  1  0.130400  0.138810  0.053970  1.0  0.2063
  C  C65  1  0.069600  0.102850  0.019500  1.0  -0.0816
  C  C66  1  0.999300  0.146490  0.995490  1.0  -0.15
  C  C67  1  0.988400  0.227740  0.004800  1.0  -0.0493
  C  C68  1  0.051300  0.264580  0.038800  1.0  -0.0832
  C  C69  1  0.120500  0.221480  0.063680  1.0  -0.1917
  C  C70  1  0.935600  0.101380  0.957650  1.0  0.7317
  C  C71  1  0.185900  0.268510  0.097890  1.0  0.7338
  C  C72  1  0.155700  0.766700  0.996970  1.0  0.1587
  C  C73  1  0.089200  0.738030  0.959980  1.0  -0.1374
  C  C74  1  0.080300  0.656950  0.953110  1.0  -0.0462
  C  C75  1  0.129500  0.600180  0.982280  1.0  -0.0793
  C  C76  1  0.194200  0.629190  0.018580  1.0  -0.1616
  C  C77  1  0.208200  0.711890  0.024340  1.0  -0.0831
  C  C78  1  0.027200  0.792010  0.927850  1.0  0.6993
  C  C79  1  0.249900  0.573940  0.051180  1.0  0.7369
  C  C80  1  0.428200  0.910140  0.176650  1.0  0.2523
  C  C81  1  0.501300  0.863100  0.195930  1.0  -0.1616
  C  C82  1  0.546400  0.883100  0.240060  1.0  -0.0332
  C  C83  1  0.522600  0.952050  0.266920  1.0  -0.1564
  C  C84  1  0.449900  0.998100  0.247840  1.0  -0.0166
  C  C85  1  0.403400  0.978600  0.202740  1.0  -0.1858
  C  C86  1  0.567800  0.972610  0.315880  1.0  0.7359
  C  C87  1  0.185540  0.085170  0.603840  1.0  0.5939
  C  C88  1  0.288900  0.106660  0.540070  1.0  0.5426
  C  C89  1  0.275800  0.983670  0.575270  1.0  0.5383
  C  C90  1  0.369600  0.861190  0.553970  1.0  0.218
  C  C91  1  0.430400  0.897150  0.519500  1.0  -0.0791
  C  C92  1  0.500700  0.853510  0.495490  1.0  -0.1491
  C  C93  1  0.511600  0.772260  0.504800  1.0  -0.0481
  C  C94  1  0.448700  0.735420  0.538800  1.0  -0.0786
  C  C95  1  0.379500  0.778520  0.563680  1.0  -0.1955
  C  C96  1  0.564400  0.898620  0.457650  1.0  0.7321
  C  C97  1  0.314100  0.731490  0.597890  1.0  0.7334
  C  C98  1  0.344300  0.233300  0.496970  1.0  0.1582
  C  C99  1  0.410800  0.261970  0.459980  1.0  -0.1386
  C  C100  1  0.419700  0.343050  0.453110  1.0  -0.0466
  C  C101  1  0.370500  0.399820  0.482280  1.0  -0.0794
  C  C102  1  0.305800  0.370810  0.518580  1.0  -0.1624
  C  C103  1  0.291800  0.288110  0.524340  1.0  -0.0836
  C  C104  1  0.472800  0.207990  0.427850  1.0  0.6977
  C  C105  1  0.250100  0.426060  0.551180  1.0  0.7359
  C  C106  1  0.071800  0.089860  0.676650  1.0  0.2529
  C  C107  1  0.998700  0.136900  0.695930  1.0  -0.1641
  C  C108  1  0.953600  0.116900  0.740060  1.0  -0.0331
  C  C109  1  0.977400  0.047950  0.766920  1.0  -0.1558
  C  C110  1  0.050100  0.001900  0.747840  1.0  -0.0209
  C  C111  1  0.096600  0.021400  0.702740  1.0  -0.1849
  C  C112  1  0.932200  0.027390  0.815880  1.0  0.7354
  C  C113  1  0.685540  0.414830  0.396160  1.0  0.5942
  C  C114  1  0.788900  0.393340  0.459930  1.0  0.5425
  C  C115  1  0.775800  0.516330  0.424730  1.0  0.5381
  C  C116  1  0.869600  0.638810  0.446030  1.0  0.2182
  C  C117  1  0.930400  0.602850  0.480500  1.0  -0.0806
  C  C118  1  0.000700  0.646490  0.504510  1.0  -0.1504
  C  C119  1  0.011600  0.727740  0.495200  1.0  -0.0484
  C  C120  1  0.948700  0.764580  0.461200  1.0  -0.0748
  C  C121  1  0.879500  0.721480  0.436320  1.0  -0.1954
  C  C122  1  0.064400  0.601380  0.542350  1.0  0.7317
  C  C123  1  0.814100  0.768510  0.402110  1.0  0.7318
  C  C124  1  0.844300  0.266700  0.503030  1.0  0.1583
  C  C125  1  0.910800  0.238030  0.540020  1.0  -0.1376
  C  C126  1  0.919700  0.156950  0.546890  1.0  -0.0468
  C  C127  1  0.870500  0.100180  0.517720  1.0  -0.0796
  C  C128  1  0.805800  0.129190  0.481420  1.0  -0.1625
  C  C129  1  0.791800  0.211890  0.475660  1.0  -0.0835
  C  C130  1  0.972800  0.292010  0.572150  1.0  0.6972
  C  C131  1  0.750100  0.073940  0.448820  1.0  0.7372
  C  C132  1  0.571800  0.410140  0.323350  1.0  0.2528
  C  C133  1  0.498700  0.363100  0.304070  1.0  -0.1617
  C  C134  1  0.453600  0.383100  0.259940  1.0  -0.0331
  C  C135  1  0.477400  0.452050  0.233080  1.0  -0.1565
  C  C136  1  0.550100  0.498100  0.252160  1.0  -0.0162
  C  C137  1  0.596600  0.478600  0.297260  1.0  -0.1858
  C  C138  1  0.432200  0.472610  0.184120  1.0  0.7359
  C  C139  1  0.814460  0.585170  0.896160  1.0  0.5927
  C  C140  1  0.711100  0.606660  0.959930  1.0  0.5429
  C  C141  1  0.724200  0.483670  0.924730  1.0  0.5379
  C  C142  1  0.630400  0.361190  0.946030  1.0  0.2183
  C  C143  1  0.569600  0.397150  0.980500  1.0  -0.0793
  C  C144  1  0.499300  0.353510  0.004510  1.0  -0.1501
  C  C145  1  0.488400  0.272260  0.995200  1.0  -0.0489
  C  C146  1  0.551300  0.235420  0.961200  1.0  -0.0781
  C  C147  1  0.620500  0.278520  0.936320  1.0  -0.1967
  C  C148  1  0.435600  0.398620  0.042350  1.0  0.7321
  C  C149  1  0.685900  0.231490  0.902110  1.0  0.7331
  C  C150  1  0.655700  0.733300  0.003030  1.0  0.158
  C  C151  1  0.589200  0.761970  0.040020  1.0  -0.1382
  C  C152  1  0.580300  0.843050  0.046890  1.0  -0.0463
  C  C153  1  0.629500  0.899820  0.017720  1.0  -0.0796
  C  C154  1  0.694200  0.870810  0.981420  1.0  -0.1616
  C  C155  1  0.708200  0.788110  0.975660  1.0  -0.0825
  C  C156  1  0.527200  0.707990  0.072150  1.0  0.6986
  C  C157  1  0.749900  0.926060  0.948820  1.0  0.7375
  C  C158  1  0.928200  0.589860  0.823350  1.0  0.2524
  C  C159  1  0.001300  0.636900  0.804070  1.0  -0.163
  C  C160  1  0.046400  0.616900  0.759940  1.0  -0.0334
  C  C161  1  0.022600  0.547950  0.733080  1.0  -0.156
  C  C162  1  0.949900  0.501900  0.752160  1.0  -0.0166
  C  C163  1  0.903400  0.521400  0.797260  1.0  -0.1844
  C  C164  1  0.067800  0.527390  0.684120  1.0  0.7356
  N  N165  1  0.276680  0.860940  0.069510  1.0  -0.5318
  N  N166  1  0.182600  0.971130  0.040240  1.0  -0.5346
  N  N167  1  0.290670  0.992060  0.108580  1.0  -0.4932
  N  N168  1  0.382990  0.882110  0.132920  1.0  -0.4024
  N  N169  1  0.164300  0.849240  0.004350  1.0  -0.3305
  N  N170  1  0.199840  0.095930  0.079250  1.0  -0.3268
  N  N171  1  0.223320  0.139060  0.569510  1.0  -0.5331
  N  N172  1  0.317400  0.028870  0.540240  1.0  -0.5335
  N  N173  1  0.209330  0.007940  0.608580  1.0  -0.4919
  N  N174  1  0.117010  0.117890  0.632920  1.0  -0.401
  N  N175  1  0.335700  0.150760  0.504350  1.0  -0.3312
  N  N176  1  0.300160  0.904070  0.579250  1.0  -0.3235
  N  N177  1  0.723320  0.360940  0.430490  1.0  -0.5325
  N  N178  1  0.817400  0.471130  0.459760  1.0  -0.5336
  N  N179  1  0.709330  0.492060  0.391420  1.0  -0.4928
  N  N180  1  0.617010  0.382110  0.367080  1.0  -0.4024
  N  N181  1  0.835700  0.349240  0.495650  1.0  -0.3311
  N  N182  1  0.800160  0.595930  0.420750  1.0  -0.3232
  N  N183  1  0.776680  0.639060  0.930490  1.0  -0.5322
  N  N184  1  0.682600  0.528870  0.959760  1.0  -0.5337
  N  N185  1  0.790670  0.507940  0.891420  1.0  -0.492
  N  N186  1  0.882990  0.617890  0.867080  1.0  -0.4005
  N  N187  1  0.664300  0.650760  0.995650  1.0  -0.3308
  N  N188  1  0.699840  0.404070  0.920750  1.0  -0.3237
  O  O189  1  0.866410  0.136960  0.939740  1.0  -0.5552
  O  O190  1  0.957800  0.029080  0.949960  1.0  -0.6185
  O  O191  1  0.174990  0.343070  0.098640  1.0  -0.6062
  O  O192  1  0.246300  0.231590  0.124270  1.0  -0.5596
  O  O193  1  0.033340  0.868910  0.937120  1.0  -0.6483
  O  O194  1  0.973930  0.764130  0.895960  1.0  -0.5084
  O  O195  1  0.314900  0.606550  0.077810  1.0  -0.6311
  O  O196  1  0.230920  0.500090  0.051880  1.0  -0.5828
  O  O197  1  0.544970  0.038770  0.335360  1.0  -0.5945
  O  O198  1  0.626720  0.923950  0.335010  1.0  -0.656
  O  O199  1  0.633590  0.863040  0.439740  1.0  -0.5551
  O  O200  1  0.542200  0.970920  0.449960  1.0  -0.6192
  O  O201  1  0.325010  0.656930  0.598640  1.0  -0.6045
  O  O202  1  0.253700  0.768410  0.624270  1.0  -0.5591
  O  O203  1  0.466660  0.131090  0.437120  1.0  -0.648
  O  O204  1  0.526070  0.235870  0.395960  1.0  -0.5099
  O  O205  1  0.185100  0.393450  0.577810  1.0  -0.6309
  O  O206  1  0.269080  0.499910  0.551880  1.0  -0.583
  O  O207  1  0.955030  0.961230  0.835360  1.0  -0.5946
  O  O208  1  0.873280  0.076050  0.835010  1.0  -0.6585
  O  O209  1  0.133590  0.636960  0.560260  1.0  -0.555
  O  O210  1  0.042200  0.529080  0.550040  1.0  -0.619
  O  O211  1  0.825010  0.843070  0.401360  1.0  -0.6072
  O  O212  1  0.753700  0.731590  0.375730  1.0  -0.5604
  O  O213  1  0.966660  0.368910  0.562880  1.0  -0.6492
  O  O214  1  0.026070  0.264130  0.604040  1.0  -0.5103
  O  O215  1  0.685100  0.106550  0.422190  1.0  -0.6314
  O  O216  1  0.769080  0.000090  0.448120  1.0  -0.5823
  O  O217  1  0.455030  0.538770  0.164640  1.0  -0.5946
  O  O218  1  0.373280  0.423950  0.164990  1.0  -0.6569
  O  O219  1  0.366410  0.363040  0.060260  1.0  -0.554
  O  O220  1  0.457800  0.470920  0.050040  1.0  -0.6187
  O  O221  1  0.674990  0.156930  0.901360  1.0  -0.606
  O  O222  1  0.746300  0.268410  0.875730  1.0  -0.5618
  O  O223  1  0.533340  0.631090  0.062880  1.0  -0.6483
  O  O224  1  0.473930  0.735870  0.104040  1.0  -0.5099
  O  O225  1  0.814900  0.893450  0.922190  1.0  -0.6304
  O  O226  1  0.730920  0.999910  0.948120  1.0  -0.5839
  O  O227  1  0.044970  0.461230  0.664640  1.0  -0.5947
  O  O228  1  0.126720  0.576050  0.664990  1.0  -0.6571
