# generated using pymatgen
data_Pr2H9C21(NO4)3
_symmetry_space_group_name_H-M   'P 1'
_cell_length_a   8.87230000
_cell_length_b   10.71520000
_cell_length_c   18.92000000
_cell_angle_alpha   75.49600000
_cell_angle_beta   83.79700000
_cell_angle_gamma   69.33600000
_symmetry_Int_Tables_number   1
_chemical_formula_structural   Pr2H9C21(NO4)3
_chemical_formula_sum   'Pr4 H18 C42 N6 O24'
_cell_volume   1628.95756514
_cell_formula_units_Z   2
loop_
 _symmetry_equiv_pos_site_id
 _symmetry_equiv_pos_as_xyz
  1  'x, y, z'
loop_
 _atom_site_type_symbol
 _atom_site_label
 _atom_site_symmetry_multiplicity
 _atom_site_fract_x
 _atom_site_fract_y
 _atom_site_fract_z
 _atom_site_occupancy
 _atom_site_charge
  Pr  Pr1  1  0.498160  0.588580  0.213000  1.0  2.2109
  Pr  Pr2  1  0.104000  0.468080  0.276280  1.0  2.2191
  Pr  Pr3  1  0.501840  0.411420  0.787000  1.0  2.2101
  Pr  Pr4  1  0.896000  0.531920  0.723720  1.0  2.2201
  H  H5  1  0.727400  0.239300  0.254600  1.0  0.0763
  H  H6  1  0.485500  0.991400  0.247700  1.0  0.1219
  H  H7  1  0.524300  0.316800  0.425700  1.0  0.0753
  H  H8  1  0.876600  0.411900  0.488200  1.0  0.1215
  H  H9  1  0.704500  0.437500  0.033800  1.0  0.1193
  H  H10  1  0.170100  0.301900  0.086200  1.0  0.089
  H  H11  1  0.966200  0.856800  0.256200  1.0  0.0861
  H  H12  1  0.566200  0.284400  0.631200  1.0  0.0819
  H  H13  1  0.055400  0.295900  0.894000  1.0  0.0766
  H  H14  1  0.272600  0.760700  0.745400  1.0  0.0779
  H  H15  1  0.514500  0.008600  0.752300  1.0  0.1215
  H  H16  1  0.475700  0.683200  0.574300  1.0  0.0744
  H  H17  1  0.123400  0.588100  0.511800  1.0  0.1205
  H  H18  1  0.295500  0.562500  0.966200  1.0  0.1203
  H  H19  1  0.829900  0.698100  0.913800  1.0  0.09
  H  H20  1  0.033800  0.143200  0.743800  1.0  0.0865
  H  H21  1  0.433800  0.715600  0.368800  1.0  0.0815
  H  H22  1  0.944600  0.704100  0.106000  1.0  0.0747
  C  C23  1  0.426700  0.256200  0.245900  1.0  0.719
  C  C24  1  0.758600  0.406300  0.364600  1.0  0.7515
  C  C25  1  0.885000  0.416900  0.143800  1.0  0.729
  C  C26  1  0.581300  0.135600  0.249800  1.0  -0.1786
  C  C27  1  0.710000  0.368800  0.443600  1.0  -0.1229
  C  C28  1  0.931100  0.375600  0.072000  1.0  -0.1636
  C  C29  1  0.727900  0.152700  0.253900  1.0  0.2191
  C  C30  1  0.581900  0.006400  0.249600  1.0  0.0277
  C  C31  1  0.578800  0.324000  0.463000  1.0  0.2221
  C  C32  1  0.787100  0.383800  0.498700  1.0  0.0008
  C  C33  1  0.813200  0.400900  0.022000  1.0  0.0087
  C  C34  1  0.092000  0.319400  0.052600  1.0  0.2226
  C  C35  1  0.727000  0.899600  0.252300  1.0  -0.1808
  C  C36  1  0.730100  0.356500  0.570400  1.0  -0.2211
  C  C37  1  0.861500  0.370300  0.954300  1.0  -0.2027
  C  C38  1  0.868300  0.927900  0.255300  1.0  0.2173
  C  C39  1  0.738400  0.756200  0.252000  1.0  0.7359
  C  C40  1  0.601500  0.307300  0.583200  1.0  0.2072
  C  C41  1  0.799100  0.386700  0.629700  1.0  0.693
  C  C42  1  0.023900  0.315700  0.939600  1.0  0.2267
  C  C43  1  0.743500  0.400700  0.896400  1.0  0.7268
  C  C44  1  0.573300  0.743800  0.754100  1.0  0.7188
  C  C45  1  0.241400  0.593700  0.635400  1.0  0.7517
  C  C46  1  0.115000  0.583100  0.856200  1.0  0.7308
  C  C47  1  0.418700  0.864400  0.750200  1.0  -0.1796
  C  C48  1  0.290000  0.631200  0.556400  1.0  -0.1212
  C  C49  1  0.068900  0.624400  0.928000  1.0  -0.162
  C  C50  1  0.272100  0.847300  0.746100  1.0  0.218
  C  C51  1  0.418100  0.993600  0.750400  1.0  0.0307
  C  C52  1  0.421200  0.676000  0.537000  1.0  0.2225
  C  C53  1  0.212900  0.616200  0.501300  1.0  0.0011
  C  C54  1  0.186800  0.599100  0.978000  1.0  0.0084
  C  C55  1  0.908000  0.680600  0.947400  1.0  0.2229
  C  C56  1  0.273000  0.100400  0.747700  1.0  -0.1805
  C  C57  1  0.269900  0.643500  0.429600  1.0  -0.2196
  C  C58  1  0.138500  0.629700  0.045700  1.0  -0.202
  C  C59  1  0.131700  0.072100  0.744700  1.0  0.2164
  C  C60  1  0.261600  0.243800  0.748000  1.0  0.7355
  C  C61  1  0.398500  0.692700  0.416800  1.0  0.2057
  C  C62  1  0.200900  0.613300  0.370300  1.0  0.6931
  C  C63  1  0.976100  0.684300  0.060400  1.0  0.2241
  C  C64  1  0.256500  0.599300  0.103600  1.0  0.7264
  N  N65  1  0.870500  0.050700  0.257000  1.0  -0.4091
  N  N66  1  0.526000  0.291100  0.530700  1.0  -0.4041
  N  N67  1  0.139700  0.289100  0.986900  1.0  -0.4301
  N  N68  1  0.129500  0.949300  0.743000  1.0  -0.4077
  N  N69  1  0.474000  0.708900  0.469300  1.0  -0.4082
  N  N70  1  0.860300  0.710900  0.013100  1.0  -0.435
  O  O71  1  0.280200  0.603500  0.310430  1.0  -0.8429
  O  O72  1  0.202400  0.607900  0.167900  1.0  -0.7276
  O  O73  1  0.403400  0.571900  0.088100  1.0  -0.6773
  O  O74  1  0.434800  0.371800  0.244300  1.0  -0.7656
  O  O75  1  0.650600  0.442500  0.318920  1.0  -0.7036
  O  O76  1  0.736600  0.458400  0.159570  1.0  -0.7336
  O  O77  1  0.609500  0.731100  0.258800  1.0  -0.7022
  O  O78  1  0.070200  0.591000  0.380700  1.0  -0.6751
  O  O79  1  0.295200  0.238700  0.246100  1.0  -0.6628
  O  O80  1  0.902400  0.397600  0.351100  1.0  -0.7683
  O  O81  1  0.994800  0.409700  0.182110  1.0  -0.6944
  O  O82  1  0.876000  0.673700  0.243500  1.0  -0.7184
  O  O83  1  0.719800  0.396500  0.689570  1.0  -0.8415
  O  O84  1  0.797600  0.392100  0.832100  1.0  -0.7277
  O  O85  1  0.596600  0.428100  0.911900  1.0  -0.6758
  O  O86  1  0.565200  0.628200  0.755700  1.0  -0.7653
  O  O87  1  0.349400  0.557500  0.681080  1.0  -0.7035
  O  O88  1  0.263400  0.541600  0.840430  1.0  -0.7312
  O  O89  1  0.390500  0.268900  0.741200  1.0  -0.7025
  O  O90  1  0.929800  0.409000  0.619300  1.0  -0.6749
  O  O91  1  0.704800  0.761300  0.753900  1.0  -0.6657
  O  O92  1  0.097600  0.602400  0.648900  1.0  -0.7693
  O  O93  1  0.005200  0.590300  0.817890  1.0  -0.6936
  O  O94  1  0.124000  0.326300  0.756500  1.0  -0.7175
