# generated using pymatgen
data_Sm2H9C21(NO4)3
_symmetry_space_group_name_H-M   'P 1'
_cell_length_a   8.84750000
_cell_length_b   10.71600000
_cell_length_c   18.89500000
_cell_angle_alpha   75.52100000
_cell_angle_beta   83.77700000
_cell_angle_gamma   69.30600000
_symmetry_Int_Tables_number   1
_chemical_formula_structural   Sm2H9C21(NO4)3
_chemical_formula_sum   'Sm4 H18 C42 N6 O24'
_cell_volume   1622.22657393
_cell_formula_units_Z   2
loop_
 _symmetry_equiv_pos_site_id
 _symmetry_equiv_pos_as_xyz
  1  'x, y, z'
loop_
 _atom_site_type_symbol
 _atom_site_label
 _atom_site_symmetry_multiplicity
 _atom_site_fract_x
 _atom_site_fract_y
 _atom_site_fract_z
 _atom_site_occupancy
 _atom_site_charge
  Sm  Sm1  1  0.002200  0.412000  0.286950  1.0  2.3004
  Sm  Sm2  1  0.396550  0.532030  0.223750  1.0  2.289
  Sm  Sm3  1  0.997800  0.588000  0.713050  1.0  2.2967
  Sm  Sm4  1  0.603450  0.467970  0.776250  1.0  2.2886
  H  H5  1  0.557400  0.292400  0.394300  1.0  0.0844
  H  H6  1  0.202900  0.441400  0.532900  1.0  0.1173
  H  H7  1  0.669400  0.299900  0.587000  1.0  0.0818
  H  H8  1  0.936800  0.713500  0.868200  1.0  0.0852
  H  H9  1  0.620500  0.587700  0.011200  1.0  0.1168
  H  H10  1  0.975600  0.685600  0.074100  1.0  0.0826
  H  H11  1  0.534200  0.144000  0.242000  1.0  0.0738
  H  H12  1  0.773300  0.761000  0.244900  1.0  0.0916
  H  H13  1  0.015200  0.009500  0.249200  1.0  0.1181
  H  H14  1  0.442600  0.707600  0.605700  1.0  0.083
  H  H15  1  0.797100  0.558600  0.467100  1.0  0.117
  H  H16  1  0.330600  0.700100  0.413000  1.0  0.0833
  H  H17  1  0.063200  0.286500  0.131800  1.0  0.085
  H  H18  1  0.379500  0.412300  0.988800  1.0  0.1164
  H  H19  1  0.024400  0.314400  0.925900  1.0  0.0838
  H  H20  1  0.465800  0.856000  0.758000  1.0  0.0734
  H  H21  1  0.226700  0.239000  0.755100  1.0  0.0898
  H  H22  1  0.984800  0.990500  0.750800  1.0  0.1178
  C  C23  1  0.526000  0.314200  0.439500  1.0  0.219
  C  C24  1  0.361400  0.371400  0.454400  1.0  -0.165
  C  C25  1  0.312000  0.403400  0.521400  1.0  -0.0116
  C  C26  1  0.431600  0.377000  0.572100  1.0  -0.186
  C  C27  1  0.591500  0.319200  0.552800  1.0  0.2097
  C  C28  1  0.244300  0.400100  0.396100  1.0  0.7166
  C  C29  1  0.385700  0.416300  0.643900  1.0  0.731
  C  C30  1  0.900500  0.691400  0.916200  1.0  0.2074
  C  C31  1  0.769500  0.643100  0.929700  1.0  -0.1677
  C  C32  1  0.710500  0.615400  0.001000  1.0  -0.0234
  C  C33  1  0.789300  0.630100  0.056900  1.0  -0.1385
  C  C34  1  0.922100  0.676300  0.037100  1.0  0.2207
  C  C35  1  0.744800  0.592200  0.136000  1.0  0.7217
  C  C36  1  0.700800  0.612000  0.870200  1.0  0.6824
  C  C37  1  0.632100  0.072300  0.243900  1.0  0.2041
  C  C38  1  0.772800  0.847600  0.245700  1.0  0.1973
  C  C39  1  0.918200  0.864400  0.249800  1.0  -0.1831
  C  C40  1  0.918100  0.994200  0.248900  1.0  0.0265
  C  C41  1  0.772500  0.101100  0.247500  1.0  -0.1922
  C  C42  1  0.762900  0.244100  0.247900  1.0  0.7444
  C  C43  1  0.072400  0.742300  0.254000  1.0  0.7106
  C  C44  1  0.474000  0.685800  0.560500  1.0  0.2152
  C  C45  1  0.638600  0.628600  0.545600  1.0  -0.165
  C  C46  1  0.688000  0.596600  0.478600  1.0  -0.0121
  C  C47  1  0.568400  0.623000  0.427900  1.0  -0.1845
  C  C48  1  0.408500  0.680800  0.447200  1.0  0.2105
  C  C49  1  0.755700  0.599900  0.603900  1.0  0.7153
  C  C50  1  0.614300  0.583700  0.356100  1.0  0.734
  C  C51  1  0.099500  0.308600  0.083800  1.0  0.209
  C  C52  1  0.230500  0.356900  0.070300  1.0  -0.1685
  C  C53  1  0.289500  0.384600  0.999000  1.0  -0.0223
  C  C54  1  0.210700  0.369900  0.943100  1.0  -0.1415
  C  C55  1  0.077900  0.323700  0.962900  1.0  0.2199
  C  C56  1  0.255200  0.407800  0.864000  1.0  0.7212
  C  C57  1  0.299200  0.388000  0.129800  1.0  0.6821
  C  C58  1  0.367900  0.927700  0.756100  1.0  0.2046
  C  C59  1  0.227200  0.152400  0.754300  1.0  0.1985
  C  C60  1  0.081800  0.135600  0.750200  1.0  -0.183
  C  C61  1  0.081900  0.005800  0.751100  1.0  0.0234
  C  C62  1  0.227500  0.898900  0.752500  1.0  -0.1932
  C  C63  1  0.237100  0.755900  0.752100  1.0  0.7443
  C  C64  1  0.927600  0.257700  0.746000  1.0  0.7089
  N  N65  1  0.641800  0.288700  0.487000  1.0  -0.4228
  N  N66  1  0.975100  0.707100  0.969300  1.0  -0.4195
  N  N67  1  0.627700  0.951100  0.242900  1.0  -0.3943
  N  N68  1  0.358200  0.711300  0.513000  1.0  -0.4263
  N  N69  1  0.024900  0.292900  0.030700  1.0  -0.4151
  N  N70  1  0.372300  0.048900  0.757100  1.0  -0.3963
  O  O71  1  0.094600  0.429300  0.411300  1.0  -0.6922
  O  O72  1  0.296800  0.393700  0.331500  1.0  -0.7774
  O  O73  1  0.234100  0.460500  0.660100  1.0  -0.7334
  O  O74  1  0.494700  0.410400  0.682600  1.0  -0.7399
  O  O75  1  0.851500  0.555700  0.180500  1.0  -0.6573
  O  O76  1  0.597900  0.602000  0.150400  1.0  -0.7501
  O  O77  1  0.567600  0.589300  0.881200  1.0  -0.692
  O  O78  1  0.780200  0.601600  0.810500  1.0  -0.8543
  O  O79  1  0.624200  0.326900  0.256500  1.0  -0.74
  O  O80  1  0.892500  0.267800  0.241300  1.0  -0.6892
  O  O81  1  0.204300  0.759200  0.253500  1.0  -0.6734
  O  O82  1  0.062700  0.629200  0.255600  1.0  -0.7236
  O  O83  1  0.905400  0.570700  0.588700  1.0  -0.6938
  O  O84  1  0.703200  0.606300  0.668500  1.0  -0.7758
  O  O85  1  0.765900  0.539500  0.339900  1.0  -0.734
  O  O86  1  0.505300  0.589600  0.317400  1.0  -0.7387
  O  O87  1  0.148500  0.444300  0.819500  1.0  -0.6569
  O  O88  1  0.402100  0.398000  0.849600  1.0  -0.7493
  O  O89  1  0.432400  0.410700  0.118800  1.0  -0.6935
  O  O90  1  0.219800  0.398400  0.189500  1.0  -0.8535
  O  O91  1  0.375800  0.673100  0.743500  1.0  -0.7403
  O  O92  1  0.107500  0.732200  0.758700  1.0  -0.688
  O  O93  1  0.795700  0.240800  0.746500  1.0  -0.6715
  O  O94  1  0.937300  0.370800  0.744400  1.0  -0.7239
