# generated using pymatgen
data_Cu2H6PdC14N2(ClO2)4
_symmetry_space_group_name_H-M   'P 1'
_cell_length_a   18.89900000
_cell_length_b   18.89900000
_cell_length_c   31.69000000
_cell_angle_alpha   90.00000000
_cell_angle_beta   90.00000000
_cell_angle_gamma   120.00000000
_symmetry_Int_Tables_number   1
_chemical_formula_structural   Cu2H6PdC14N2(ClO2)4
_chemical_formula_sum   'Cu18 H54 Pd9 C126 N18 Cl36 O72'
_cell_volume   9802.35712506
_cell_formula_units_Z   9
loop_
 _symmetry_equiv_pos_site_id
 _symmetry_equiv_pos_as_xyz
  1  'x, y, z'
loop_
 _atom_site_type_symbol
 _atom_site_label
 _atom_site_symmetry_multiplicity
 _atom_site_fract_x
 _atom_site_fract_y
 _atom_site_fract_z
 _atom_site_occupancy
 _atom_site_charge
  Cu  Cu1  1  0.478150  0.521850  0.035910  1.0  0.9158
  Cu  Cu2  1  0.144820  0.855180  0.369240  1.0  0.9158
  Cu  Cu3  1  0.811480  0.188520  0.702580  1.0  0.9158
  Cu  Cu4  1  0.478150  0.956300  0.035910  1.0  0.9165
  Cu  Cu5  1  0.144820  0.289630  0.369240  1.0  0.9165
  Cu  Cu6  1  0.811480  0.622970  0.702580  1.0  0.9165
  Cu  Cu7  1  0.043700  0.521850  0.035910  1.0  0.9169
  Cu  Cu8  1  0.710370  0.855180  0.369240  1.0  0.9169
  Cu  Cu9  1  0.377030  0.188520  0.702580  1.0  0.9169
  Cu  Cu10  1  0.521850  0.478150  0.964090  1.0  0.9162
  Cu  Cu11  1  0.188520  0.811480  0.297420  1.0  0.9162
  Cu  Cu12  1  0.855180  0.144820  0.630760  1.0  0.9162
  Cu  Cu13  1  0.956300  0.478150  0.964090  1.0  0.9173
  Cu  Cu14  1  0.622970  0.811480  0.297420  1.0  0.9173
  Cu  Cu15  1  0.289630  0.144820  0.630760  1.0  0.9173
  Cu  Cu16  1  0.521850  0.043700  0.964090  1.0  0.917
  Cu  Cu17  1  0.188520  0.377030  0.297420  1.0  0.917
  Cu  Cu18  1  0.855180  0.710370  0.630760  1.0  0.917
  H  H19  1  0.612100  0.702400  0.897300  1.0  0.133
  H  H20  1  0.278770  0.035730  0.230630  1.0  0.133
  H  H21  1  0.945430  0.369070  0.563970  1.0  0.133
  H  H22  1  0.297600  0.909700  0.897300  1.0  0.1339
  H  H23  1  0.964270  0.243030  0.230630  1.0  0.1339
  H  H24  1  0.630930  0.576370  0.563970  1.0  0.1339
  H  H25  1  0.090300  0.387900  0.897300  1.0  0.1336
  H  H26  1  0.756970  0.721230  0.230630  1.0  0.1336
  H  H27  1  0.423630  0.054570  0.563970  1.0  0.1336
  H  H28  1  0.702400  0.612100  0.102700  1.0  0.1336
  H  H29  1  0.369070  0.945430  0.436030  1.0  0.1336
  H  H30  1  0.035730  0.278770  0.769370  1.0  0.1336
  H  H31  1  0.909700  0.297600  0.102700  1.0  0.1323
  H  H32  1  0.576370  0.630930  0.436030  1.0  0.1323
  H  H33  1  0.243030  0.964270  0.769370  1.0  0.1323
  H  H34  1  0.387900  0.090300  0.102700  1.0  0.1335
  H  H35  1  0.054570  0.423630  0.436030  1.0  0.1335
  H  H36  1  0.721230  0.756970  0.769370  1.0  0.1335
  H  H37  1  0.387900  0.297600  0.102700  1.0  0.1327
  H  H38  1  0.054570  0.630930  0.436030  1.0  0.1327
  H  H39  1  0.721230  0.964270  0.769370  1.0  0.1327
  H  H40  1  0.702400  0.090300  0.102700  1.0  0.1334
  H  H41  1  0.369070  0.423630  0.436030  1.0  0.1334
  H  H42  1  0.035730  0.756970  0.769370  1.0  0.1334
  H  H43  1  0.909700  0.612100  0.102700  1.0  0.1335
  H  H44  1  0.576370  0.945430  0.436030  1.0  0.1335
  H  H45  1  0.243030  0.278770  0.769370  1.0  0.1335
  H  H46  1  0.297600  0.387900  0.897300  1.0  0.1336
  H  H47  1  0.964270  0.721230  0.230630  1.0  0.1336
  H  H48  1  0.630930  0.054570  0.563970  1.0  0.1336
  H  H49  1  0.090300  0.702400  0.897300  1.0  0.1328
  H  H50  1  0.756970  0.035730  0.230630  1.0  0.1328
  H  H51  1  0.423630  0.369070  0.563970  1.0  0.1329
  H  H52  1  0.612100  0.909700  0.897300  1.0  0.1338
  H  H53  1  0.278770  0.243030  0.230630  1.0  0.1338
  H  H54  1  0.945430  0.576370  0.563970  1.0  0.1338
  H  H55  1  0.528300  0.764150  0.998100  1.0  0.151
  H  H56  1  0.194970  0.097480  0.331430  1.0  0.1502
  H  H57  1  0.861630  0.430820  0.664770  1.0  0.1502
  H  H58  1  0.235850  0.764150  0.998100  1.0  0.1527
  H  H59  1  0.902520  0.097480  0.331430  1.0  0.1509
  H  H60  1  0.569180  0.430820  0.664770  1.0  0.1505
  H  H61  1  0.235850  0.471700  0.998100  1.0  0.1511
  H  H62  1  0.902520  0.805030  0.331430  1.0  0.1503
  H  H63  1  0.569180  0.138370  0.664770  1.0  0.1503
  H  H64  1  0.764150  0.528300  0.001900  1.0  0.1505
  H  H65  1  0.430820  0.861630  0.335230  1.0  0.1498
  H  H66  1  0.097480  0.194970  0.668570  1.0  0.1498
  H  H67  1  0.764150  0.235850  0.001900  1.0  0.1522
  H  H68  1  0.430820  0.569180  0.335230  1.0  0.1501
  H  H69  1  0.097480  0.902520  0.668570  1.0  0.1509
  H  H70  1  0.471700  0.235850  0.001900  1.0  0.1506
  H  H71  1  0.138370  0.569180  0.335230  1.0  0.1499
  H  H72  1  0.805030  0.902520  0.668570  1.0  0.1499
  Pd  Pd73  1  0.666667  0.833330  0.833330  1.0  0.5386
  Pd  Pd74  1  0.166670  0.833330  0.833330  1.0  0.5386
  Pd  Pd75  1  0.166670  0.333333  0.833330  1.0  0.5391
  Pd  Pd76  1  0.833330  0.666667  0.166670  1.0  0.5386
  Pd  Pd77  1  0.500000  0.000000  0.500000  1.0  0.5606
  Pd  Pd78  1  0.833330  0.166670  0.166670  1.0  0.5391
  Pd  Pd79  1  0.500000  0.500000  0.500000  1.0  0.5606
  Pd  Pd80  1  0.333333  0.166670  0.166670  1.0  0.5391
  Pd  Pd81  1  0.000000  0.500000  0.500000  1.0  0.5606
  C  C82  1  0.601300  0.739300  0.911200  1.0  0.1925
  C  C83  1  0.545700  0.640400  0.970800  1.0  0.7104
  C  C84  1  0.567400  0.720900  0.951010  1.0  -0.1235
  C  C85  1  0.267970  0.072630  0.244530  1.0  0.1925
  C  C86  1  0.212370  0.973730  0.304130  1.0  0.7104
  C  C87  1  0.234070  0.054230  0.284340  1.0  -0.1235
  C  C88  1  0.934630  0.405970  0.577870  1.0  0.1925
  C  C89  1  0.879030  0.307070  0.637470  1.0  0.7104
  C  C90  1  0.900730  0.387570  0.617680  1.0  -0.1235
  C  C91  1  0.260700  0.862000  0.911200  1.0  0.193
  C  C92  1  0.359600  0.905300  0.970800  1.0  0.7103
  C  C93  1  0.279100  0.846500  0.951010  1.0  -0.123
  C  C94  1  0.927370  0.195330  0.244530  1.0  0.193
  C  C95  1  0.026270  0.238630  0.304130  1.0  0.7103
  C  C96  1  0.945770  0.179830  0.284340  1.0  -0.123
  C  C97  1  0.594030  0.528670  0.577870  1.0  0.193
  C  C98  1  0.692930  0.571970  0.637470  1.0  0.7103
  C  C99  1  0.612430  0.513170  0.617680  1.0  -0.123
  C  C100  1  0.138000  0.398700  0.911200  1.0  0.1928
  C  C101  1  0.094700  0.454300  0.970800  1.0  0.7113
  C  C102  1  0.153500  0.432600  0.951010  1.0  -0.1247
  C  C103  1  0.804670  0.732030  0.244530  1.0  0.1928
  C  C104  1  0.761370  0.787630  0.304130  1.0  0.7113
  C  C105  1  0.820170  0.765930  0.284340  1.0  -0.1246
  C  C106  1  0.471330  0.065370  0.577870  1.0  0.1928
  C  C107  1  0.428030  0.120970  0.637470  1.0  0.7113
  C  C108  1  0.486830  0.099270  0.617680  1.0  -0.1247
  C  C109  1  0.739300  0.601300  0.088800  1.0  0.1923
  C  C110  1  0.640400  0.545700  0.029200  1.0  0.7108
  C  C111  1  0.720900  0.567400  0.048990  1.0  -0.125
  C  C112  1  0.405970  0.934630  0.422130  1.0  0.1923
  C  C113  1  0.307070  0.879030  0.362530  1.0  0.7108
  C  C114  1  0.387570  0.900730  0.382320  1.0  -0.125
  C  C115  1  0.072630  0.267970  0.755470  1.0  0.1923
  C  C116  1  0.973730  0.212370  0.695870  1.0  0.7108
  C  C117  1  0.054230  0.234070  0.715660  1.0  -0.125
  C  C118  1  0.862000  0.260700  0.088800  1.0  0.1925
  C  C119  1  0.905300  0.359600  0.029200  1.0  0.7106
  C  C120  1  0.846500  0.279100  0.048990  1.0  -0.124
  C  C121  1  0.528670  0.594030  0.422130  1.0  0.1925
  C  C122  1  0.571970  0.692930  0.362530  1.0  0.7106
  C  C123  1  0.513170  0.612430  0.382320  1.0  -0.124
  C  C124  1  0.195330  0.927370  0.755470  1.0  0.1925
  C  C125  1  0.238630  0.026270  0.695870  1.0  0.7106
  C  C126  1  0.179830  0.945770  0.715660  1.0  -0.124
  C  C127  1  0.398700  0.138000  0.088800  1.0  0.1932
  C  C128  1  0.454300  0.094700  0.029200  1.0  0.7099
  C  C129  1  0.432600  0.153500  0.048990  1.0  -0.1235
  C  C130  1  0.065370  0.471330  0.422130  1.0  0.1932
  C  C131  1  0.120970  0.428030  0.362530  1.0  0.7099
  C  C132  1  0.099270  0.486830  0.382320  1.0  -0.1235
  C  C133  1  0.732030  0.804670  0.755470  1.0  0.1932
  C  C134  1  0.787630  0.761370  0.695870  1.0  0.7099
  C  C135  1  0.765930  0.820170  0.715660  1.0  -0.1235
  C  C136  1  0.398700  0.260700  0.088800  1.0  0.1908
  C  C137  1  0.454300  0.359600  0.029200  1.0  0.7108
  C  C138  1  0.432600  0.279100  0.048990  1.0  -0.1244
  C  C139  1  0.065370  0.594030  0.422130  1.0  0.1908
  C  C140  1  0.120970  0.692930  0.362530  1.0  0.7108
  C  C141  1  0.099270  0.612430  0.382320  1.0  -0.1243
  C  C142  1  0.732030  0.927370  0.755470  1.0  0.1908
  C  C143  1  0.787630  0.026270  0.695870  1.0  0.7108
  C  C144  1  0.765930  0.945770  0.715660  1.0  -0.1244
  C  C145  1  0.739300  0.138000  0.088800  1.0  0.191
  C  C146  1  0.640400  0.094700  0.029200  1.0  0.7104
  C  C147  1  0.720900  0.153500  0.048990  1.0  -0.1243
  C  C148  1  0.405970  0.471330  0.422130  1.0  0.191
  C  C149  1  0.307070  0.428030  0.362530  1.0  0.7104
  C  C150  1  0.387570  0.486830  0.382320  1.0  -0.1243
  C  C151  1  0.072630  0.804670  0.755470  1.0  0.191
  C  C152  1  0.973730  0.761370  0.695870  1.0  0.7104
  C  C153  1  0.054230  0.820170  0.715660  1.0  -0.1243
  C  C154  1  0.862000  0.601300  0.088800  1.0  0.1903
  C  C155  1  0.905300  0.545700  0.029200  1.0  0.7103
  C  C156  1  0.846500  0.567400  0.048990  1.0  -0.1248
  C  C157  1  0.528670  0.934630  0.422130  1.0  0.1903
  C  C158  1  0.571970  0.879030  0.362530  1.0  0.7103
  C  C159  1  0.513170  0.900730  0.382320  1.0  -0.1248
  C  C160  1  0.195330  0.267970  0.755470  1.0  0.1903
  C  C161  1  0.238630  0.212370  0.695870  1.0  0.7103
  C  C162  1  0.179830  0.234070  0.715660  1.0  -0.1248
  C  C163  1  0.260700  0.398700  0.911200  1.0  0.1906
  C  C164  1  0.359600  0.454300  0.970800  1.0  0.7109
  C  C165  1  0.279100  0.432600  0.951010  1.0  -0.1248
  C  C166  1  0.927370  0.732030  0.244530  1.0  0.1906
  C  C167  1  0.026270  0.787630  0.304130  1.0  0.7109
  C  C168  1  0.945770  0.765930  0.284340  1.0  -0.1248
  C  C169  1  0.594030  0.065370  0.577870  1.0  0.1907
  C  C170  1  0.692930  0.120970  0.637470  1.0  0.7109
  C  C171  1  0.612430  0.099270  0.617680  1.0  -0.1248
  C  C172  1  0.138000  0.739300  0.911200  1.0  0.1909
  C  C173  1  0.094700  0.640400  0.970800  1.0  0.7106
  C  C174  1  0.153500  0.720900  0.951010  1.0  -0.1241
  C  C175  1  0.804670  0.072630  0.244530  1.0  0.1909
  C  C176  1  0.761370  0.973730  0.304130  1.0  0.7106
  C  C177  1  0.820170  0.054230  0.284340  1.0  -0.1241
  C  C178  1  0.471330  0.405970  0.577870  1.0  0.1909
  C  C179  1  0.428030  0.307070  0.637470  1.0  0.7106
  C  C180  1  0.486830  0.387570  0.617680  1.0  -0.124
  C  C181  1  0.601300  0.862000  0.911200  1.0  0.191
  C  C182  1  0.545700  0.905300  0.970800  1.0  0.7107
  C  C183  1  0.567400  0.846500  0.951010  1.0  -0.1239
  C  C184  1  0.267970  0.195330  0.244530  1.0  0.191
  C  C185  1  0.212370  0.238630  0.304130  1.0  0.7107
  C  C186  1  0.234070  0.179830  0.284340  1.0  -0.1239
  C  C187  1  0.934630  0.528670  0.577870  1.0  0.191
  C  C188  1  0.879030  0.571970  0.637470  1.0  0.7107
  C  C189  1  0.900730  0.513170  0.617680  1.0  -0.1239
  C  C190  1  0.550700  0.775350  0.971100  1.0  0.0693
  C  C191  1  0.217370  0.108680  0.304430  1.0  0.0693
  C  C192  1  0.884030  0.442020  0.637770  1.0  0.0693
  C  C193  1  0.224650  0.775350  0.971100  1.0  0.0708
  C  C194  1  0.891320  0.108680  0.304430  1.0  0.0708
  C  C195  1  0.557980  0.442020  0.637770  1.0  0.0708
  C  C196  1  0.224650  0.449300  0.971100  1.0  0.0689
  C  C197  1  0.891320  0.782630  0.304430  1.0  0.069
  C  C198  1  0.557980  0.115970  0.637770  1.0  0.069
  C  C199  1  0.775350  0.550700  0.028900  1.0  0.0691
  C  C200  1  0.442020  0.884030  0.362230  1.0  0.0692
  C  C201  1  0.108680  0.217370  0.695570  1.0  0.0692
  C  C202  1  0.775350  0.224650  0.028900  1.0  0.0693
  C  C203  1  0.442020  0.557980  0.362230  1.0  0.0693
  C  C204  1  0.108680  0.891320  0.695570  1.0  0.0693
  C  C205  1  0.449300  0.224650  0.028900  1.0  0.0699
  C  C206  1  0.115970  0.557980  0.362230  1.0  0.0699
  C  C207  1  0.782630  0.891320  0.695570  1.0  0.0699
  N  N208  1  0.618900  0.809450  0.892100  1.0  -0.2533
  N  N209  1  0.285570  0.142780  0.225430  1.0  -0.2533
  N  N210  1  0.952230  0.476120  0.558770  1.0  -0.2534
  N  N211  1  0.190550  0.809450  0.892100  1.0  -0.2541
  N  N212  1  0.857220  0.142780  0.225430  1.0  -0.254
  N  N213  1  0.523880  0.476120  0.558770  1.0  -0.2541
  N  N214  1  0.190550  0.381100  0.892100  1.0  -0.2536
  N  N215  1  0.857220  0.714430  0.225430  1.0  -0.2536
  N  N216  1  0.523880  0.047770  0.558770  1.0  -0.2537
  N  N217  1  0.809450  0.618900  0.107900  1.0  -0.2516
  N  N218  1  0.476120  0.952230  0.441230  1.0  -0.2517
  N  N219  1  0.142780  0.285570  0.774570  1.0  -0.2516
  N  N220  1  0.809450  0.190550  0.107900  1.0  -0.2528
  N  N221  1  0.476120  0.523880  0.441230  1.0  -0.2528
  N  N222  1  0.142780  0.857220  0.774570  1.0  -0.2528
  N  N223  1  0.381100  0.190550  0.107900  1.0  -0.2538
  N  N224  1  0.047770  0.523880  0.441230  1.0  -0.2539
  N  N225  1  0.714430  0.857220  0.774570  1.0  -0.2538
  Cl  Cl226  1  0.559000  0.846000  0.808960  1.0  -0.4055
  Cl  Cl227  1  0.225670  0.179330  0.142290  1.0  -0.4016
  Cl  Cl228  1  0.892330  0.512670  0.475630  1.0  -0.4055
  Cl  Cl229  1  0.154000  0.713000  0.808960  1.0  -0.3986
  Cl  Cl230  1  0.820670  0.046330  0.142290  1.0  -0.4036
  Cl  Cl231  1  0.487330  0.379670  0.475630  1.0  -0.3986
  Cl  Cl232  1  0.287000  0.441000  0.808960  1.0  -0.398
  Cl  Cl233  1  0.953670  0.774330  0.142290  1.0  -0.3998
  Cl  Cl234  1  0.620330  0.107670  0.475630  1.0  -0.398
  Cl  Cl235  1  0.846000  0.559000  0.191040  1.0  -0.403
  Cl  Cl236  1  0.512670  0.892330  0.524370  1.0  -0.403
  Cl  Cl237  1  0.179330  0.225670  0.857710  1.0  -0.3993
  Cl  Cl238  1  0.713000  0.154000  0.191040  1.0  -0.3998
  Cl  Cl239  1  0.379670  0.487330  0.524370  1.0  -0.3998
  Cl  Cl240  1  0.046330  0.820670  0.857710  1.0  -0.4044
  Cl  Cl241  1  0.441000  0.287000  0.191040  1.0  -0.3986
  Cl  Cl242  1  0.107670  0.620330  0.524370  1.0  -0.3986
  Cl  Cl243  1  0.774330  0.953670  0.857710  1.0  -0.4011
  Cl  Cl244  1  0.441000  0.154000  0.191040  1.0  -0.4062
  Cl  Cl245  1  0.107670  0.487330  0.524370  1.0  -0.4062
  Cl  Cl246  1  0.774330  0.820670  0.857710  1.0  -0.4031
  Cl  Cl247  1  0.846000  0.287000  0.191040  1.0  -0.4012
  Cl  Cl248  1  0.512670  0.620330  0.524370  1.0  -0.4012
  Cl  Cl249  1  0.179330  0.953670  0.857710  1.0  -0.4048
  Cl  Cl250  1  0.713000  0.559000  0.191040  1.0  -0.3974
  Cl  Cl251  1  0.379670  0.892330  0.524370  1.0  -0.3974
  Cl  Cl252  1  0.046330  0.225670  0.857710  1.0  -0.3989
  Cl  Cl253  1  0.154000  0.441000  0.808960  1.0  -0.4048
  Cl  Cl254  1  0.820670  0.774330  0.142290  1.0  -0.4012
  Cl  Cl255  1  0.487330  0.107670  0.475630  1.0  -0.4048
  Cl  Cl256  1  0.287000  0.846000  0.808960  1.0  -0.4015
  Cl  Cl257  1  0.953670  0.179330  0.142290  1.0  -0.4063
  Cl  Cl258  1  0.620330  0.512670  0.475630  1.0  -0.4015
  Cl  Cl259  1  0.559000  0.713000  0.808960  1.0  -0.3982
  Cl  Cl260  1  0.225670  0.046330  0.142290  1.0  -0.3992
  Cl  Cl261  1  0.892330  0.379670  0.475630  1.0  -0.3982
  O  O262  1  0.517500  0.626900  0.006910  1.0  -0.5308
  O  O263  1  0.554800  0.590300  0.947280  1.0  -0.5574
  O  O264  1  0.184170  0.960230  0.340240  1.0  -0.5308
  O  O265  1  0.221470  0.923630  0.280610  1.0  -0.5574
  O  O266  1  0.850830  0.293570  0.673580  1.0  -0.5308
  O  O267  1  0.888130  0.256970  0.613950  1.0  -0.5574
  O  O268  1  0.373100  0.890600  0.006910  1.0  -0.5324
  O  O269  1  0.409700  0.964500  0.947280  1.0  -0.5579
  O  O270  1  0.039770  0.223930  0.340240  1.0  -0.5324
  O  O271  1  0.076370  0.297830  0.280610  1.0  -0.5579
  O  O272  1  0.706430  0.557270  0.673580  1.0  -0.5324
  O  O273  1  0.743030  0.631170  0.613950  1.0  -0.5579
  O  O274  1  0.109400  0.482500  0.006910  1.0  -0.5305
  O  O275  1  0.035500  0.445200  0.947280  1.0  -0.557
  O  O276  1  0.776070  0.815830  0.340240  1.0  -0.5305
  O  O277  1  0.702170  0.778530  0.280610  1.0  -0.557
  O  O278  1  0.442730  0.149170  0.673580  1.0  -0.5305
  O  O279  1  0.368830  0.111870  0.613950  1.0  -0.557
  O  O280  1  0.626900  0.517500  0.993090  1.0  -0.531
  O  O281  1  0.590300  0.554800  0.052720  1.0  -0.5562
  O  O282  1  0.293570  0.850830  0.326420  1.0  -0.531
  O  O283  1  0.256970  0.888130  0.386050  1.0  -0.5562
  O  O284  1  0.960230  0.184170  0.659760  1.0  -0.531
  O  O285  1  0.923630  0.221470  0.719390  1.0  -0.5562
  O  O286  1  0.890600  0.373100  0.993090  1.0  -0.5311
  O  O287  1  0.964500  0.409700  0.052720  1.0  -0.5565
  O  O288  1  0.557270  0.706430  0.326420  1.0  -0.5311
  O  O289  1  0.631170  0.743030  0.386050  1.0  -0.5565
  O  O290  1  0.223930  0.039770  0.659760  1.0  -0.5311
  O  O291  1  0.297830  0.076370  0.719390  1.0  -0.5565
  O  O292  1  0.482500  0.109400  0.993090  1.0  -0.533
  O  O293  1  0.445200  0.035500  0.052720  1.0  -0.5569
  O  O294  1  0.149170  0.442730  0.326420  1.0  -0.533
  O  O295  1  0.111870  0.368830  0.386050  1.0  -0.5569
  O  O296  1  0.815830  0.776070  0.659760  1.0  -0.533
  O  O297  1  0.778530  0.702170  0.719390  1.0  -0.5569
  O  O298  1  0.482500  0.373100  0.993090  1.0  -0.5312
  O  O299  1  0.445200  0.409700  0.052720  1.0  -0.5563
  O  O300  1  0.149170  0.706430  0.326420  1.0  -0.5312
  O  O301  1  0.111870  0.743030  0.386050  1.0  -0.5563
  O  O302  1  0.815830  0.039770  0.659760  1.0  -0.5312
  O  O303  1  0.778530  0.076370  0.719390  1.0  -0.5563
  O  O304  1  0.626900  0.109400  0.993090  1.0  -0.5327
  O  O305  1  0.590300  0.035500  0.052720  1.0  -0.5564
  O  O306  1  0.293570  0.442730  0.326420  1.0  -0.5327
  O  O307  1  0.256970  0.368830  0.386050  1.0  -0.5564
  O  O308  1  0.960230  0.776070  0.659760  1.0  -0.5327
  O  O309  1  0.923630  0.702170  0.719390  1.0  -0.5564
  O  O310  1  0.890600  0.517500  0.993090  1.0  -0.5313
  O  O311  1  0.964500  0.554800  0.052720  1.0  -0.5567
  O  O312  1  0.557270  0.850830  0.326420  1.0  -0.5313
  O  O313  1  0.631170  0.888130  0.386050  1.0  -0.5567
  O  O314  1  0.223930  0.184170  0.659760  1.0  -0.5313
  O  O315  1  0.297830  0.221470  0.719390  1.0  -0.5567
  O  O316  1  0.373100  0.482500  0.006910  1.0  -0.5312
  O  O317  1  0.409700  0.445200  0.947280  1.0  -0.5572
  O  O318  1  0.039770  0.815830  0.340240  1.0  -0.5312
  O  O319  1  0.076370  0.778530  0.280610  1.0  -0.5572
  O  O320  1  0.706430  0.149170  0.673580  1.0  -0.5312
  O  O321  1  0.743030  0.111870  0.613950  1.0  -0.5572
  O  O322  1  0.109400  0.626900  0.006910  1.0  -0.5305
  O  O323  1  0.035500  0.590300  0.947280  1.0  -0.5574
  O  O324  1  0.776070  0.960230  0.340240  1.0  -0.5305
  O  O325  1  0.702170  0.923630  0.280610  1.0  -0.5574
  O  O326  1  0.442730  0.293570  0.673580  1.0  -0.5305
  O  O327  1  0.368830  0.256970  0.613950  1.0  -0.5574
  O  O328  1  0.517500  0.890600  0.006910  1.0  -0.5316
  O  O329  1  0.554800  0.964500  0.947280  1.0  -0.5579
  O  O330  1  0.184170  0.223930  0.340240  1.0  -0.5316
  O  O331  1  0.221470  0.297830  0.280610  1.0  -0.5579
  O  O332  1  0.850830  0.557270  0.673580  1.0  -0.5316
  O  O333  1  0.888130  0.631170  0.613950  1.0  -0.5579
