# generated using pymatgen
data_Cu2H13C21N10
_symmetry_space_group_name_H-M   'P 1'
_cell_length_a   30.85570000
_cell_length_b   18.87990000
_cell_length_c   10.85220000
_cell_angle_alpha   90.00000000
_cell_angle_beta   93.25100000
_cell_angle_gamma   90.00000000
_symmetry_Int_Tables_number   1
_chemical_formula_structural   Cu2H13C21N10
_chemical_formula_sum   'Cu16 H104 C168 N80'
_cell_volume   6311.80249327
_cell_formula_units_Z   8
loop_
 _symmetry_equiv_pos_site_id
 _symmetry_equiv_pos_as_xyz
  1  'x, y, z'
loop_
 _atom_site_type_symbol
 _atom_site_label
 _atom_site_symmetry_multiplicity
 _atom_site_fract_x
 _atom_site_fract_y
 _atom_site_fract_z
 _atom_site_occupancy
 _atom_site_charge
  Cu  Cu1  1  0.438070  0.077350  0.524910  1.0  0.2826
  Cu  Cu2  1  0.938070  0.577350  0.524910  1.0  0.2826
  Cu  Cu3  1  0.561930  0.077350  0.975090  1.0  0.2822
  Cu  Cu4  1  0.061930  0.577350  0.975090  1.0  0.2822
  Cu  Cu5  1  0.561930  0.922650  0.475090  1.0  0.2839
  Cu  Cu6  1  0.061930  0.422650  0.475090  1.0  0.2839
  Cu  Cu7  1  0.438070  0.922650  0.024910  1.0  0.2849
  Cu  Cu8  1  0.938070  0.422650  0.024910  1.0  0.2849
  Cu  Cu9  1  0.500000  0.043200  0.250000  1.0  0.7958
  Cu  Cu10  1  0.000000  0.543200  0.250000  1.0  0.7958
  Cu  Cu11  1  0.500000  0.956800  0.750000  1.0  0.7959
  Cu  Cu12  1  0.000000  0.456800  0.750000  1.0  0.7959
  Cu  Cu13  1  0.500000  0.141440  0.750000  1.0  0.4203
  Cu  Cu14  1  0.000000  0.641440  0.750000  1.0  0.4203
  Cu  Cu15  1  0.500000  0.858560  0.250000  1.0  0.4239
  Cu  Cu16  1  0.000000  0.358560  0.250000  1.0  0.4239
  H  H17  1  0.844580  0.388140  0.108400  1.0  0.1142
  H  H18  1  0.853470  0.474260  0.527840  1.0  0.1018
  H  H19  1  0.675850  0.455850  0.473620  1.0  0.1292
  H  H20  1  0.713330  0.466490  0.580210  1.0  0.1327
  H  H21  1  0.669270  0.426550  0.609590  1.0  0.1133
  H  H22  1  0.705410  0.336930  0.698730  1.0  0.1166
  H  H23  1  0.737660  0.285730  0.630420  1.0  0.1922
  H  H24  1  0.753050  0.363720  0.670790  1.0  0.1162
  H  H25  1  0.579160  0.161070  0.241020  1.0  0.1118
  H  H26  1  0.589760  0.229990  0.665440  1.0  0.1205
  H  H27  1  0.711370  0.315050  0.068170  1.0  0.1393
  H  H28  1  0.727180  0.247650  0.148220  1.0  0.1109
  H  H29  1  0.676480  0.260200  0.115830  1.0  0.1118
  H  H30  1  0.344580  0.888140  0.108400  1.0  0.1142
  H  H31  1  0.353470  0.974260  0.527840  1.0  0.1018
  H  H32  1  0.175850  0.955850  0.473620  1.0  0.1261
  H  H33  1  0.213330  0.966490  0.580210  1.0  0.1327
  H  H34  1  0.169270  0.926550  0.609590  1.0  0.1111
  H  H35  1  0.205410  0.836930  0.698730  1.0  0.1166
  H  H36  1  0.237660  0.785730  0.630420  1.0  0.1922
  H  H37  1  0.253050  0.863720  0.670790  1.0  0.1162
  H  H38  1  0.079160  0.661070  0.241020  1.0  0.1118
  H  H39  1  0.089760  0.729990  0.665440  1.0  0.1205
  H  H40  1  0.211370  0.815050  0.068170  1.0  0.1393
  H  H41  1  0.227180  0.747650  0.148220  1.0  0.1109
  H  H42  1  0.176480  0.760200  0.115830  1.0  0.1118
  H  H43  1  0.155420  0.388140  0.391600  1.0  0.1126
  H  H44  1  0.146530  0.474260  0.972160  1.0  0.1018
  H  H45  1  0.324150  0.455850  0.026380  1.0  0.128
  H  H46  1  0.286670  0.466490  0.919790  1.0  0.1339
  H  H47  1  0.330730  0.426550  0.890410  1.0  0.1119
  H  H48  1  0.294590  0.336930  0.801270  1.0  0.1159
  H  H49  1  0.262340  0.285730  0.869580  1.0  0.1916
  H  H50  1  0.246950  0.363720  0.829210  1.0  0.1155
  H  H51  1  0.420840  0.161070  0.258980  1.0  0.1107
  H  H52  1  0.410240  0.229990  0.834560  1.0  0.1201
  H  H53  1  0.288630  0.315050  0.431830  1.0  0.1408
  H  H54  1  0.272820  0.247650  0.351780  1.0  0.1112
  H  H55  1  0.323520  0.260200  0.384170  1.0  0.1132
  H  H56  1  0.655420  0.888140  0.391600  1.0  0.1126
  H  H57  1  0.646530  0.974260  0.972160  1.0  0.1018
  H  H58  1  0.824150  0.955850  0.026380  1.0  0.1248
  H  H59  1  0.786670  0.966490  0.919790  1.0  0.1339
  H  H60  1  0.830730  0.926550  0.890410  1.0  0.1102
  H  H61  1  0.794590  0.836930  0.801270  1.0  0.1159
  H  H62  1  0.762340  0.785730  0.869580  1.0  0.1916
  H  H63  1  0.746950  0.863720  0.829210  1.0  0.1155
  H  H64  1  0.920840  0.661070  0.258980  1.0  0.1107
  H  H65  1  0.910240  0.729990  0.834560  1.0  0.1201
  H  H66  1  0.788630  0.815050  0.431830  1.0  0.1408
  H  H67  1  0.772820  0.747650  0.351780  1.0  0.1112
  H  H68  1  0.823520  0.760200  0.384170  1.0  0.1132
  H  H69  1  0.155420  0.611860  0.891600  1.0  0.1128
  H  H70  1  0.146530  0.525740  0.472160  1.0  0.1016
  H  H71  1  0.324150  0.544150  0.526380  1.0  0.1275
  H  H72  1  0.286670  0.533510  0.419790  1.0  0.1341
  H  H73  1  0.330730  0.573450  0.390410  1.0  0.111
  H  H74  1  0.294590  0.663070  0.301270  1.0  0.1157
  H  H75  1  0.262340  0.714270  0.369580  1.0  0.1943
  H  H76  1  0.246950  0.636280  0.329210  1.0  0.1151
  H  H77  1  0.420840  0.838930  0.758980  1.0  0.1109
  H  H78  1  0.410240  0.770010  0.334560  1.0  0.1201
  H  H79  1  0.288630  0.684950  0.931830  1.0  0.1405
  H  H80  1  0.272820  0.752350  0.851780  1.0  0.1111
  H  H81  1  0.323520  0.739800  0.884170  1.0  0.1131
  H  H82  1  0.655420  0.111860  0.891600  1.0  0.1128
  H  H83  1  0.646530  0.025740  0.472160  1.0  0.1016
  H  H84  1  0.824150  0.044150  0.526380  1.0  0.1249
  H  H85  1  0.786670  0.033510  0.419790  1.0  0.1341
  H  H86  1  0.830730  0.073450  0.390410  1.0  0.1098
  H  H87  1  0.794590  0.163070  0.301270  1.0  0.1157
  H  H88  1  0.762340  0.214270  0.369580  1.0  0.1943
  H  H89  1  0.746950  0.136280  0.329210  1.0  0.1151
  H  H90  1  0.920840  0.338930  0.758980  1.0  0.1109
  H  H91  1  0.910240  0.270010  0.334560  1.0  0.1201
  H  H92  1  0.788630  0.184950  0.931830  1.0  0.1405
  H  H93  1  0.772820  0.252350  0.851780  1.0  0.1111
  H  H94  1  0.823520  0.239800  0.884170  1.0  0.1131
  H  H95  1  0.844580  0.611860  0.608400  1.0  0.1147
  H  H96  1  0.853470  0.525740  0.027840  1.0  0.102
  H  H97  1  0.675850  0.544150  0.973620  1.0  0.1288
  H  H98  1  0.713330  0.533510  0.080210  1.0  0.1338
  H  H99  1  0.669270  0.573450  0.109590  1.0  0.113
  H  H100  1  0.705410  0.663070  0.198730  1.0  0.1175
  H  H101  1  0.737660  0.714270  0.130420  1.0  0.1949
  H  H102  1  0.753050  0.636280  0.170790  1.0  0.1162
  H  H103  1  0.579160  0.838930  0.741020  1.0  0.1123
  H  H104  1  0.589760  0.770010  0.165440  1.0  0.1204
  H  H105  1  0.711370  0.684950  0.568170  1.0  0.1388
  H  H106  1  0.727180  0.752350  0.648220  1.0  0.1114
  H  H107  1  0.676480  0.739800  0.615830  1.0  0.1119
  H  H108  1  0.344580  0.111860  0.608400  1.0  0.1147
  H  H109  1  0.353470  0.025740  0.027840  1.0  0.102
  H  H110  1  0.175850  0.044150  0.973620  1.0  0.1255
  H  H111  1  0.213330  0.033510  0.080210  1.0  0.1338
  H  H112  1  0.169270  0.073450  0.109590  1.0  0.11
  H  H113  1  0.205410  0.163070  0.198730  1.0  0.1175
  H  H114  1  0.237660  0.214270  0.130420  1.0  0.1949
  H  H115  1  0.253050  0.136280  0.170790  1.0  0.1162
  H  H116  1  0.079160  0.338930  0.741020  1.0  0.1123
  H  H117  1  0.089760  0.270010  0.165440  1.0  0.1204
  H  H118  1  0.211370  0.184950  0.568170  1.0  0.1388
  H  H119  1  0.227180  0.252350  0.648220  1.0  0.1114
  H  H120  1  0.176480  0.239800  0.615830  1.0  0.1119
  C  C121  1  0.884700  0.468680  0.362930  1.0  0.0406
  C  C122  1  0.881480  0.443620  0.237360  1.0  0.0806
  C  C123  1  0.846080  0.405610  0.190580  1.0  -0.086
  C  C124  1  0.812390  0.394060  0.270330  1.0  0.1021
  C  C125  1  0.816520  0.418070  0.396790  1.0  0.1557
  C  C126  1  0.851750  0.456960  0.445610  1.0  -0.1036
  C  C127  1  0.748520  0.373580  0.429000  1.0  0.1452
  C  C128  1  0.742690  0.355220  0.300420  1.0  0.1001
  C  C129  1  0.701700  0.321770  0.240450  1.0  0.0865
  C  C130  1  0.671900  0.293150  0.336670  1.0  0.1187
  C  C131  1  0.675480  0.313330  0.460250  1.0  0.1917
  C  C132  1  0.710600  0.364250  0.512610  1.0  0.0647
  C  C133  1  0.690410  0.434500  0.547040  1.0  -0.3272
  C  C134  1  0.731150  0.327220  0.642680  1.0  -0.1511
  C  C135  1  0.617650  0.240860  0.498450  1.0  0.1443
  C  C136  1  0.613830  0.221780  0.369570  1.0  0.1005
  C  C137  1  0.581420  0.174820  0.325220  1.0  -0.087
  C  C138  1  0.553360  0.149400  0.407050  1.0  0.1636
  C  C139  1  0.556490  0.168500  0.531260  1.0  0.1329
  C  C140  1  0.588440  0.216050  0.581210  1.0  -0.1043
  C  C141  1  0.704330  0.283540  0.135970  1.0  -0.4295
  C  C142  1  0.384700  0.968680  0.362930  1.0  0.0406
  C  C143  1  0.381480  0.943620  0.237360  1.0  0.0806
  C  C144  1  0.346080  0.905610  0.190580  1.0  -0.086
  C  C145  1  0.312390  0.894060  0.270330  1.0  0.1021
  C  C146  1  0.316520  0.918070  0.396790  1.0  0.1557
  C  C147  1  0.351750  0.956960  0.445610  1.0  -0.1036
  C  C148  1  0.248520  0.873580  0.429000  1.0  0.1452
  C  C149  1  0.242690  0.855220  0.300420  1.0  0.1001
  C  C150  1  0.201700  0.821770  0.240450  1.0  0.0865
  C  C151  1  0.171900  0.793150  0.336670  1.0  0.1187
  C  C152  1  0.175480  0.813330  0.460250  1.0  0.1917
  C  C153  1  0.210600  0.864250  0.512610  1.0  0.0647
  C  C154  1  0.190410  0.934500  0.547040  1.0  -0.3272
  C  C155  1  0.231150  0.827220  0.642680  1.0  -0.1511
  C  C156  1  0.117650  0.740860  0.498450  1.0  0.1459
  C  C157  1  0.113830  0.721780  0.369570  1.0  0.1014
  C  C158  1  0.081420  0.674820  0.325220  1.0  -0.087
  C  C159  1  0.053360  0.649400  0.407050  1.0  0.1636
  C  C160  1  0.056490  0.668500  0.531260  1.0  0.1329
  C  C161  1  0.088440  0.716050  0.581210  1.0  -0.1071
  C  C162  1  0.204330  0.783540  0.135970  1.0  -0.4295
  C  C163  1  0.115300  0.468680  0.137070  1.0  0.0408
  C  C164  1  0.118520  0.443620  0.262640  1.0  0.0806
  C  C165  1  0.153920  0.405610  0.309420  1.0  -0.0859
  C  C166  1  0.187610  0.394060  0.229670  1.0  0.1007
  C  C167  1  0.183480  0.418070  0.103210  1.0  0.1565
  C  C168  1  0.148250  0.456960  0.054390  1.0  -0.1027
  C  C169  1  0.251480  0.373580  0.071000  1.0  0.1476
  C  C170  1  0.257310  0.355220  0.199580  1.0  0.0991
  C  C171  1  0.298300  0.321770  0.259550  1.0  0.085
  C  C172  1  0.328100  0.293150  0.163330  1.0  0.1191
  C  C173  1  0.324520  0.313330  0.039750  1.0  0.1943
  C  C174  1  0.289400  0.364250  0.987390  1.0  0.0647
  C  C175  1  0.309590  0.434500  0.952960  1.0  -0.3268
  C  C176  1  0.268850  0.327220  0.857320  1.0  -0.1482
  C  C177  1  0.382350  0.240860  0.001550  1.0  0.1452
  C  C178  1  0.386170  0.221780  0.130430  1.0  0.1013
  C  C179  1  0.418580  0.174820  0.174780  1.0  -0.0884
  C  C180  1  0.446640  0.149400  0.092950  1.0  0.163
  C  C181  1  0.443510  0.168500  0.968740  1.0  0.1327
  C  C182  1  0.411560  0.216050  0.918790  1.0  -0.1025
  C  C183  1  0.295670  0.283540  0.364030  1.0  -0.4313
  C  C184  1  0.615300  0.968680  0.137070  1.0  0.0408
  C  C185  1  0.618520  0.943620  0.262640  1.0  0.0806
  C  C186  1  0.653920  0.905610  0.309420  1.0  -0.0859
  C  C187  1  0.687610  0.894060  0.229670  1.0  0.1007
  C  C188  1  0.683480  0.918070  0.103210  1.0  0.1565
  C  C189  1  0.648250  0.956960  0.054390  1.0  -0.1027
  C  C190  1  0.751480  0.873580  0.071000  1.0  0.1476
  C  C191  1  0.757310  0.855220  0.199580  1.0  0.0991
  C  C192  1  0.798300  0.821770  0.259550  1.0  0.085
  C  C193  1  0.828100  0.793150  0.163330  1.0  0.1191
  C  C194  1  0.824520  0.813330  0.039750  1.0  0.1943
  C  C195  1  0.789400  0.864250  0.987390  1.0  0.0647
  C  C196  1  0.809590  0.934500  0.952960  1.0  -0.3268
  C  C197  1  0.768850  0.827220  0.857320  1.0  -0.1482
  C  C198  1  0.882350  0.740860  0.001550  1.0  0.1366
  C  C199  1  0.886170  0.721780  0.130430  1.0  0.1023
  C  C200  1  0.918580  0.674820  0.174780  1.0  -0.0884
  C  C201  1  0.946640  0.649400  0.092950  1.0  0.163
  C  C202  1  0.943510  0.668500  0.968740  1.0  0.1327
  C  C203  1  0.911560  0.716050  0.918790  1.0  -0.1055
  C  C204  1  0.795670  0.783540  0.364030  1.0  -0.4313
  C  C205  1  0.115300  0.531320  0.637070  1.0  0.0397
  C  C206  1  0.118520  0.556380  0.762640  1.0  0.0802
  C  C207  1  0.153920  0.594390  0.809420  1.0  -0.0862
  C  C208  1  0.187610  0.605940  0.729670  1.0  0.1006
  C  C209  1  0.183480  0.581930  0.603210  1.0  0.1558
  C  C210  1  0.148250  0.543040  0.554390  1.0  -0.1043
  C  C211  1  0.251480  0.626420  0.571000  1.0  0.1471
  C  C212  1  0.257310  0.644780  0.699580  1.0  0.0993
  C  C213  1  0.298300  0.678230  0.759550  1.0  0.0861
  C  C214  1  0.328100  0.706850  0.663330  1.0  0.1202
  C  C215  1  0.324520  0.686670  0.539750  1.0  0.1943
  C  C216  1  0.289400  0.635750  0.487390  1.0  0.0648
  C  C217  1  0.309590  0.565500  0.452960  1.0  -0.3251
  C  C218  1  0.268850  0.672780  0.357320  1.0  -0.1494
  C  C219  1  0.382350  0.759140  0.501550  1.0  0.1434
  C  C220  1  0.386170  0.778220  0.630430  1.0  0.1013
  C  C221  1  0.418580  0.825180  0.674780  1.0  -0.088
  C  C222  1  0.446640  0.850600  0.592950  1.0  0.163
  C  C223  1  0.443510  0.831500  0.468740  1.0  0.1314
  C  C224  1  0.411560  0.783950  0.418790  1.0  -0.1006
  C  C225  1  0.295670  0.716460  0.864030  1.0  -0.4308
  C  C226  1  0.615300  0.031320  0.637070  1.0  0.0397
  C  C227  1  0.618520  0.056380  0.762640  1.0  0.0802
  C  C228  1  0.653920  0.094390  0.809420  1.0  -0.0862
  C  C229  1  0.687610  0.105940  0.729670  1.0  0.1006
  C  C230  1  0.683480  0.081930  0.603210  1.0  0.1558
  C  C231  1  0.648250  0.043040  0.554390  1.0  -0.1043
  C  C232  1  0.751480  0.126420  0.571000  1.0  0.1471
  C  C233  1  0.757310  0.144780  0.699580  1.0  0.0993
  C  C234  1  0.798300  0.178230  0.759550  1.0  0.0861
  C  C235  1  0.828100  0.206850  0.663330  1.0  0.1202
  C  C236  1  0.824520  0.186670  0.539750  1.0  0.1943
  C  C237  1  0.789400  0.135750  0.487390  1.0  0.0648
  C  C238  1  0.809590  0.065500  0.452960  1.0  -0.3251
  C  C239  1  0.768850  0.172780  0.357320  1.0  -0.1494
  C  C240  1  0.882350  0.259140  0.501550  1.0  0.1451
  C  C241  1  0.886170  0.278220  0.630430  1.0  0.1022
  C  C242  1  0.918580  0.325180  0.674780  1.0  -0.088
  C  C243  1  0.946640  0.350600  0.592950  1.0  0.163
  C  C244  1  0.943510  0.331500  0.468740  1.0  0.1314
  C  C245  1  0.911560  0.283950  0.418790  1.0  -0.103
  C  C246  1  0.795670  0.216460  0.864030  1.0  -0.4308
  C  C247  1  0.884700  0.531320  0.862930  1.0  0.0401
  C  C248  1  0.881480  0.556380  0.737360  1.0  0.0807
  C  C249  1  0.846080  0.594390  0.690580  1.0  -0.0863
  C  C250  1  0.812390  0.605940  0.770330  1.0  0.1021
  C  C251  1  0.816520  0.581930  0.896790  1.0  0.1553
  C  C252  1  0.851750  0.543040  0.945610  1.0  -0.1045
  C  C253  1  0.748520  0.626420  0.929000  1.0  0.145
  C  C254  1  0.742690  0.644780  0.800420  1.0  0.0988
  C  C255  1  0.701700  0.678230  0.740450  1.0  0.0839
  C  C256  1  0.671900  0.706850  0.836670  1.0  0.119
  C  C257  1  0.675480  0.686670  0.960250  1.0  0.1918
  C  C258  1  0.710600  0.635750  0.012610  1.0  0.0642
  C  C259  1  0.690410  0.565500  0.047040  1.0  -0.3266
  C  C260  1  0.731150  0.672780  0.142680  1.0  -0.1516
  C  C261  1  0.617650  0.759140  0.998450  1.0  0.1432
  C  C262  1  0.613830  0.778220  0.869570  1.0  0.1006
  C  C263  1  0.581420  0.825180  0.825220  1.0  -0.0867
  C  C264  1  0.553360  0.850600  0.907050  1.0  0.1639
  C  C265  1  0.556490  0.831500  0.031260  1.0  0.1317
  C  C266  1  0.588440  0.783950  0.081210  1.0  -0.1043
  C  C267  1  0.704330  0.716460  0.635970  1.0  -0.4295
  C  C268  1  0.384700  0.031320  0.862930  1.0  0.0401
  C  C269  1  0.381480  0.056380  0.737360  1.0  0.0807
  C  C270  1  0.346080  0.094390  0.690580  1.0  -0.0863
  C  C271  1  0.312390  0.105940  0.770330  1.0  0.1021
  C  C272  1  0.316520  0.081930  0.896790  1.0  0.1553
  C  C273  1  0.351750  0.043040  0.945610  1.0  -0.1045
  C  C274  1  0.248520  0.126420  0.929000  1.0  0.145
  C  C275  1  0.242690  0.144780  0.800420  1.0  0.0988
  C  C276  1  0.201700  0.178230  0.740450  1.0  0.0839
  C  C277  1  0.171900  0.206850  0.836670  1.0  0.119
  C  C278  1  0.175480  0.186670  0.960250  1.0  0.1918
  C  C279  1  0.210600  0.135750  0.012610  1.0  0.0642
  C  C280  1  0.190410  0.065500  0.047040  1.0  -0.3266
  C  C281  1  0.231150  0.172780  0.142680  1.0  -0.1516
  C  C282  1  0.117650  0.259140  0.998450  1.0  0.1348
  C  C283  1  0.113830  0.278220  0.869570  1.0  0.1015
  C  C284  1  0.081420  0.325180  0.825220  1.0  -0.0867
  C  C285  1  0.053360  0.350600  0.907050  1.0  0.1639
  C  C286  1  0.056490  0.331500  0.031260  1.0  0.1317
  C  C287  1  0.088440  0.283950  0.081210  1.0  -0.107
  C  C288  1  0.204330  0.216460  0.635970  1.0  -0.4295
  N  N289  1  0.923120  0.505960  0.376440  1.0  -0.2457
  N  N290  1  0.942040  0.503080  0.269670  1.0  -0.0423
  N  N291  1  0.918700  0.466850  0.184340  1.0  -0.257
  N  N292  1  0.782970  0.406370  0.474300  1.0  -0.3526
  N  N293  1  0.775290  0.360350  0.225600  1.0  -0.4384
  N  N294  1  0.642020  0.250650  0.290030  1.0  -0.3422
  N  N295  1  0.649650  0.287950  0.540390  1.0  -0.3228
  N  N296  1  0.519320  0.101800  0.391780  1.0  -0.361
  N  N297  1  0.502430  0.097050  0.504420  1.0  -0.1241
  N  N298  1  0.523680  0.135610  0.589950  1.0  -0.3516
  N  N299  1  0.423120  0.005960  0.376440  1.0  -0.2457
  N  N300  1  0.442040  0.003080  0.269670  1.0  -0.0423
  N  N301  1  0.418700  0.966850  0.184340  1.0  -0.257
  N  N302  1  0.282970  0.906370  0.474300  1.0  -0.3526
  N  N303  1  0.275290  0.860350  0.225600  1.0  -0.4384
  N  N304  1  0.142020  0.750650  0.290030  1.0  -0.3422
  N  N305  1  0.149650  0.787950  0.540390  1.0  -0.3228
  N  N306  1  0.019320  0.601800  0.391780  1.0  -0.361
  N  N307  1  0.002430  0.597050  0.504420  1.0  -0.1241
  N  N308  1  0.023680  0.635610  0.589950  1.0  -0.3516
  N  N309  1  0.076880  0.505960  0.123560  1.0  -0.2459
  N  N310  1  0.057960  0.503080  0.230330  1.0  -0.0414
  N  N311  1  0.081300  0.466850  0.315660  1.0  -0.258
  N  N312  1  0.217030  0.406370  0.025700  1.0  -0.3513
  N  N313  1  0.224710  0.360350  0.274400  1.0  -0.437
  N  N314  1  0.357980  0.250650  0.209970  1.0  -0.3421
  N  N315  1  0.350350  0.287950  0.959610  1.0  -0.3252
  N  N316  1  0.480680  0.101800  0.108220  1.0  -0.3593
  N  N317  1  0.497570  0.097050  0.995580  1.0  -0.1249
  N  N318  1  0.476320  0.135610  0.910050  1.0  -0.3516
  N  N319  1  0.576880  0.005960  0.123560  1.0  -0.2459
  N  N320  1  0.557960  0.003080  0.230330  1.0  -0.0414
  N  N321  1  0.581300  0.966850  0.315660  1.0  -0.258
  N  N322  1  0.717030  0.906370  0.025700  1.0  -0.3513
  N  N323  1  0.724710  0.860350  0.274400  1.0  -0.437
  N  N324  1  0.857980  0.750650  0.209970  1.0  -0.3421
  N  N325  1  0.850350  0.787950  0.959610  1.0  -0.3252
  N  N326  1  0.980680  0.601800  0.108220  1.0  -0.3593
  N  N327  1  0.997570  0.597050  0.995580  1.0  -0.1249
  N  N328  1  0.976320  0.635610  0.910050  1.0  -0.3516
  N  N329  1  0.076880  0.494040  0.623560  1.0  -0.2454
  N  N330  1  0.057960  0.496920  0.730330  1.0  -0.0421
  N  N331  1  0.081300  0.533150  0.815660  1.0  -0.2583
  N  N332  1  0.217030  0.593630  0.525700  1.0  -0.3532
  N  N333  1  0.224710  0.639650  0.774400  1.0  -0.4373
  N  N334  1  0.357980  0.749350  0.709970  1.0  -0.3423
  N  N335  1  0.350350  0.712050  0.459610  1.0  -0.325
  N  N336  1  0.480680  0.898200  0.608220  1.0  -0.3594
  N  N337  1  0.497570  0.902950  0.495580  1.0  -0.1238
  N  N338  1  0.476320  0.864390  0.410050  1.0  -0.3516
  N  N339  1  0.576880  0.994040  0.623560  1.0  -0.2454
  N  N340  1  0.557960  0.996920  0.730330  1.0  -0.0421
  N  N341  1  0.581300  0.033150  0.815660  1.0  -0.2583
  N  N342  1  0.717030  0.093630  0.525700  1.0  -0.3532
  N  N343  1  0.724710  0.139650  0.774400  1.0  -0.4373
  N  N344  1  0.857980  0.249350  0.709970  1.0  -0.3423
  N  N345  1  0.850350  0.212050  0.459610  1.0  -0.325
  N  N346  1  0.980680  0.398200  0.608220  1.0  -0.3594
  N  N347  1  0.997570  0.402950  0.495580  1.0  -0.1238
  N  N348  1  0.976320  0.364390  0.410050  1.0  -0.3516
  N  N349  1  0.923120  0.494040  0.876440  1.0  -0.2447
  N  N350  1  0.942040  0.496920  0.769670  1.0  -0.0423
  N  N351  1  0.918700  0.533150  0.684340  1.0  -0.2573
  N  N352  1  0.782970  0.593630  0.974300  1.0  -0.3527
  N  N353  1  0.775290  0.639650  0.725600  1.0  -0.438
  N  N354  1  0.642020  0.749350  0.790030  1.0  -0.3408
  N  N355  1  0.649650  0.712050  0.040390  1.0  -0.3229
  N  N356  1  0.519320  0.898200  0.891780  1.0  -0.3601
  N  N357  1  0.502430  0.902950  0.004420  1.0  -0.122
  N  N358  1  0.523680  0.864390  0.089950  1.0  -0.3528
  N  N359  1  0.423120  0.994040  0.876440  1.0  -0.2447
  N  N360  1  0.442040  0.996920  0.769670  1.0  -0.0423
  N  N361  1  0.418700  0.033150  0.684340  1.0  -0.2573
  N  N362  1  0.282970  0.093630  0.974300  1.0  -0.3527
  N  N363  1  0.275290  0.139650  0.725600  1.0  -0.438
  N  N364  1  0.142020  0.249350  0.790030  1.0  -0.3408
  N  N365  1  0.149650  0.212050  0.040390  1.0  -0.3229
  N  N366  1  0.019320  0.398200  0.891780  1.0  -0.3601
  N  N367  1  0.002430  0.402950  0.004420  1.0  -0.122
  N  N368  1  0.023680  0.364390  0.089950  1.0  -0.3528
