# generated using pymatgen
data_Cu2H13C21N10
_symmetry_space_group_name_H-M   'P 1'
_cell_length_a   32.04000000
_cell_length_b   16.79000000
_cell_length_c   10.77000000
_cell_angle_alpha   90.00000000
_cell_angle_beta   92.36000000
_cell_angle_gamma   90.00000000
_symmetry_Int_Tables_number   1
_chemical_formula_structural   Cu2H13C21N10
_chemical_formula_sum   'Cu16 H104 C168 N80'
_cell_volume   5788.82460643
_cell_formula_units_Z   8
loop_
 _symmetry_equiv_pos_site_id
 _symmetry_equiv_pos_as_xyz
  1  'x, y, z'
loop_
 _atom_site_type_symbol
 _atom_site_label
 _atom_site_symmetry_multiplicity
 _atom_site_fract_x
 _atom_site_fract_y
 _atom_site_fract_z
 _atom_site_occupancy
 _atom_site_charge
  Cu  Cu1  1  0.944560  0.445930  0.032400  1.0  0.4332
  Cu  Cu2  1  0.444560  0.945930  0.032400  1.0  0.4332
  Cu  Cu3  1  0.055440  0.445930  0.467600  1.0  0.4322
  Cu  Cu4  1  0.555440  0.945930  0.467600  1.0  0.4322
  Cu  Cu5  1  0.055440  0.554070  0.967600  1.0  0.4359
  Cu  Cu6  1  0.555440  0.054070  0.967600  1.0  0.4359
  Cu  Cu7  1  0.944560  0.554070  0.532400  1.0  0.4367
  Cu  Cu8  1  0.444560  0.054070  0.532400  1.0  0.4367
  Cu  Cu9  1  0.000000  0.533460  0.250000  1.0  0.4841
  Cu  Cu10  1  0.500000  0.033460  0.250000  1.0  0.4841
  Cu  Cu11  1  0.000000  0.466540  0.750000  1.0  0.4846
  Cu  Cu12  1  0.500000  0.966540  0.750000  1.0  0.4846
  Cu  Cu13  1  0.500000  0.174810  0.750000  1.0  0.4337
  Cu  Cu14  1  0.000000  0.674810  0.750000  1.0  0.4337
  Cu  Cu15  1  0.500000  0.825190  0.250000  1.0  0.4399
  Cu  Cu16  1  0.000000  0.325190  0.250000  1.0  0.4399
  H  H17  1  0.851300  0.473000  0.524000  1.0  0.1277
  H  H18  1  0.849300  0.366100  0.107700  1.0  0.1195
  H  H19  1  0.679800  0.401900  0.140400  1.0  0.1337
  H  H20  1  0.667500  0.320800  0.070000  1.0  0.1215
  H  H21  1  0.712600  0.359700  0.053500  1.0  0.1314
  H  H22  1  0.695100  0.202200  0.112000  1.0  0.1244
  H  H23  1  0.726100  0.183100  0.228400  1.0  0.1354
  H  H24  1  0.743000  0.228900  0.110200  1.0  0.1204
  H  H25  1  0.581700  0.268800  0.641400  1.0  0.132
  H  H26  1  0.580400  0.145100  0.241500  1.0  0.1233
  H  H27  1  0.721500  0.450000  0.616700  1.0  0.1476
  H  H28  1  0.730900  0.357100  0.636500  1.0  0.1128
  H  H29  1  0.683900  0.389400  0.638100  1.0  0.1323
  H  H30  1  0.351300  0.973000  0.524000  1.0  0.1277
  H  H31  1  0.349300  0.866100  0.107700  1.0  0.1195
  H  H32  1  0.179800  0.901900  0.140400  1.0  0.1337
  H  H33  1  0.167500  0.820800  0.070000  1.0  0.1215
  H  H34  1  0.212600  0.859700  0.053500  1.0  0.1314
  H  H35  1  0.195100  0.702200  0.112000  1.0  0.1244
  H  H36  1  0.226100  0.683100  0.228400  1.0  0.1354
  H  H37  1  0.243000  0.728900  0.110200  1.0  0.1204
  H  H38  1  0.081700  0.768800  0.641400  1.0  0.1329
  H  H39  1  0.080400  0.645100  0.241500  1.0  0.1233
  H  H40  1  0.221500  0.950000  0.616700  1.0  0.1476
  H  H41  1  0.230900  0.857100  0.636500  1.0  0.1128
  H  H42  1  0.183900  0.889400  0.638100  1.0  0.1323
  H  H43  1  0.148700  0.473000  0.976000  1.0  0.1277
  H  H44  1  0.150700  0.366100  0.392300  1.0  0.118
  H  H45  1  0.320200  0.401900  0.359600  1.0  0.1343
  H  H46  1  0.332500  0.320800  0.430000  1.0  0.1206
  H  H47  1  0.287400  0.359700  0.446500  1.0  0.1319
  H  H48  1  0.304900  0.202200  0.388000  1.0  0.1243
  H  H49  1  0.273900  0.183100  0.271600  1.0  0.135
  H  H50  1  0.257000  0.228900  0.389800  1.0  0.1196
  H  H51  1  0.418300  0.268800  0.858600  1.0  0.1321
  H  H52  1  0.419600  0.145100  0.258500  1.0  0.1233
  H  H53  1  0.278500  0.450000  0.883300  1.0  0.1472
  H  H54  1  0.269100  0.357100  0.863500  1.0  0.1138
  H  H55  1  0.316100  0.389400  0.861900  1.0  0.1309
  H  H56  1  0.648700  0.973000  0.976000  1.0  0.1277
  H  H57  1  0.650700  0.866100  0.392300  1.0  0.118
  H  H58  1  0.820200  0.901900  0.359600  1.0  0.1343
  H  H59  1  0.832500  0.820800  0.430000  1.0  0.1206
  H  H60  1  0.787400  0.859700  0.446500  1.0  0.1319
  H  H61  1  0.804900  0.702200  0.388000  1.0  0.1243
  H  H62  1  0.773900  0.683100  0.271600  1.0  0.135
  H  H63  1  0.757000  0.728900  0.389800  1.0  0.1196
  H  H64  1  0.918300  0.768800  0.858600  1.0  0.1335
  H  H65  1  0.919600  0.645100  0.258500  1.0  0.1233
  H  H66  1  0.778500  0.950000  0.883300  1.0  0.1472
  H  H67  1  0.769100  0.857100  0.863500  1.0  0.1138
  H  H68  1  0.816100  0.889400  0.861900  1.0  0.1309
  H  H69  1  0.148700  0.527000  0.476000  1.0  0.1262
  H  H70  1  0.150700  0.633900  0.892300  1.0  0.1183
  H  H71  1  0.320200  0.598100  0.859600  1.0  0.1337
  H  H72  1  0.332500  0.679200  0.930000  1.0  0.1215
  H  H73  1  0.287400  0.640300  0.946500  1.0  0.1319
  H  H74  1  0.304900  0.797800  0.888000  1.0  0.1239
  H  H75  1  0.273900  0.816900  0.771600  1.0  0.1353
  H  H76  1  0.257000  0.771100  0.889800  1.0  0.1192
  H  H77  1  0.418300  0.731200  0.358600  1.0  0.1319
  H  H78  1  0.419600  0.854900  0.758500  1.0  0.1235
  H  H79  1  0.278500  0.550000  0.383300  1.0  0.1455
  H  H80  1  0.269100  0.642900  0.363500  1.0  0.1135
  H  H81  1  0.316100  0.610600  0.361900  1.0  0.1308
  H  H82  1  0.648700  0.027000  0.476000  1.0  0.1262
  H  H83  1  0.650700  0.133900  0.892300  1.0  0.1183
  H  H84  1  0.820200  0.098100  0.859600  1.0  0.1337
  H  H85  1  0.832500  0.179200  0.930000  1.0  0.1215
  H  H86  1  0.787400  0.140300  0.946500  1.0  0.1319
  H  H87  1  0.804900  0.297800  0.888000  1.0  0.1239
  H  H88  1  0.773900  0.316900  0.771600  1.0  0.1353
  H  H89  1  0.757000  0.271100  0.889800  1.0  0.1192
  H  H90  1  0.918300  0.231200  0.358600  1.0  0.1339
  H  H91  1  0.919600  0.354900  0.758500  1.0  0.1235
  H  H92  1  0.778500  0.050000  0.383300  1.0  0.1455
  H  H93  1  0.769100  0.142900  0.363500  1.0  0.1135
  H  H94  1  0.816100  0.110600  0.361900  1.0  0.1308
  H  H95  1  0.851300  0.527000  0.024000  1.0  0.1265
  H  H96  1  0.849300  0.633900  0.607700  1.0  0.12
  H  H97  1  0.679800  0.598100  0.640400  1.0  0.1328
  H  H98  1  0.667500  0.679200  0.570000  1.0  0.1218
  H  H99  1  0.712600  0.640300  0.553500  1.0  0.1311
  H  H100  1  0.695100  0.797800  0.612000  1.0  0.1243
  H  H101  1  0.726100  0.816900  0.728400  1.0  0.1353
  H  H102  1  0.743000  0.771100  0.610200  1.0  0.1206
  H  H103  1  0.581700  0.731200  0.141400  1.0  0.132
  H  H104  1  0.580400  0.854900  0.741500  1.0  0.1236
  H  H105  1  0.721500  0.550000  0.116700  1.0  0.1452
  H  H106  1  0.730900  0.642900  0.136500  1.0  0.113
  H  H107  1  0.683900  0.610600  0.138100  1.0  0.1325
  H  H108  1  0.351300  0.027000  0.024000  1.0  0.1265
  H  H109  1  0.349300  0.133900  0.607700  1.0  0.12
  H  H110  1  0.179800  0.098100  0.640400  1.0  0.1328
  H  H111  1  0.167500  0.179200  0.570000  1.0  0.1218
  H  H112  1  0.212600  0.140300  0.553500  1.0  0.1311
  H  H113  1  0.195100  0.297800  0.612000  1.0  0.1243
  H  H114  1  0.226100  0.316900  0.728400  1.0  0.1353
  H  H115  1  0.243000  0.271100  0.610200  1.0  0.1206
  H  H116  1  0.081700  0.231200  0.141400  1.0  0.1334
  H  H117  1  0.080400  0.354900  0.741500  1.0  0.1236
  H  H118  1  0.221500  0.050000  0.116700  1.0  0.1452
  H  H119  1  0.230900  0.142900  0.136500  1.0  0.113
  H  H120  1  0.183900  0.110600  0.138100  1.0  0.1325
  C  C121  1  0.884700  0.426300  0.244500  1.0  0.0637
  C  C122  1  0.884800  0.459000  0.368200  1.0  0.0853
  C  C123  1  0.850700  0.452600  0.441700  1.0  -0.0695
  C  C124  1  0.815100  0.414500  0.388900  1.0  0.1245
  C  C125  1  0.815800  0.380400  0.265900  1.0  0.1916
  C  C126  1  0.849700  0.386700  0.189800  1.0  -0.0845
  C  C127  1  0.747400  0.340300  0.281500  1.0  0.154
  C  C128  1  0.745400  0.380300  0.399300  1.0  0.1038
  C  C129  1  0.706600  0.384200  0.476600  1.0  0.0963
  C  C130  1  0.673400  0.324200  0.431700  1.0  0.1393
  C  C131  1  0.673500  0.288200  0.315200  1.0  0.1848
  C  C132  1  0.707700  0.303100  0.222500  1.0  -0.016
  C  C133  1  0.690300  0.350600  0.111800  1.0  -0.3441
  C  C134  1  0.719000  0.221700  0.162700  1.0  -0.3387
  C  C135  1  0.613400  0.220500  0.360300  1.0  0.1596
  C  C136  1  0.613300  0.259700  0.479500  1.0  0.1164
  C  C137  1  0.581600  0.244300  0.562000  1.0  -0.0612
  C  C138  1  0.550700  0.192800  0.524600  1.0  0.178
  C  C139  1  0.550300  0.155700  0.408800  1.0  0.1499
  C  C140  1  0.581400  0.169300  0.321300  1.0  -0.0931
  C  C141  1  0.711000  0.396000  0.600500  1.0  -0.3947
  C  C142  1  0.384700  0.926300  0.244500  1.0  0.0637
  C  C143  1  0.384800  0.959000  0.368200  1.0  0.0853
  C  C144  1  0.350700  0.952600  0.441700  1.0  -0.0695
  C  C145  1  0.315100  0.914500  0.388900  1.0  0.1245
  C  C146  1  0.315800  0.880400  0.265900  1.0  0.1916
  C  C147  1  0.349700  0.886700  0.189800  1.0  -0.0845
  C  C148  1  0.247400  0.840300  0.281500  1.0  0.154
  C  C149  1  0.245400  0.880300  0.399300  1.0  0.1038
  C  C150  1  0.206600  0.884200  0.476600  1.0  0.0963
  C  C151  1  0.173400  0.824200  0.431700  1.0  0.1393
  C  C152  1  0.173500  0.788200  0.315200  1.0  0.1848
  C  C153  1  0.207700  0.803100  0.222500  1.0  -0.016
  C  C154  1  0.190300  0.850600  0.111800  1.0  -0.3441
  C  C155  1  0.219000  0.721700  0.162700  1.0  -0.3387
  C  C156  1  0.113400  0.720500  0.360300  1.0  0.1596
  C  C157  1  0.113300  0.759700  0.479500  1.0  0.1164
  C  C158  1  0.081600  0.744300  0.562000  1.0  -0.0612
  C  C159  1  0.050700  0.692800  0.524600  1.0  0.178
  C  C160  1  0.050300  0.655700  0.408800  1.0  0.1499
  C  C161  1  0.081400  0.669300  0.321300  1.0  -0.0931
  C  C162  1  0.211000  0.896000  0.600500  1.0  -0.3947
  C  C163  1  0.115300  0.426300  0.255500  1.0  0.0643
  C  C164  1  0.115200  0.459000  0.131800  1.0  0.0851
  C  C165  1  0.149300  0.452600  0.058300  1.0  -0.0689
  C  C166  1  0.184900  0.414500  0.111100  1.0  0.1242
  C  C167  1  0.184200  0.380400  0.234100  1.0  0.1915
  C  C168  1  0.150300  0.386700  0.310200  1.0  -0.0849
  C  C169  1  0.252600  0.340300  0.218500  1.0  0.1579
  C  C170  1  0.254600  0.380300  0.100700  1.0  0.1067
  C  C171  1  0.293400  0.384200  0.023400  1.0  0.0943
  C  C172  1  0.326600  0.324200  0.068300  1.0  0.1351
  C  C173  1  0.326500  0.288200  0.184800  1.0  0.1843
  C  C174  1  0.292300  0.303100  0.277500  1.0  -0.0167
  C  C175  1  0.309700  0.350600  0.388200  1.0  -0.3469
  C  C176  1  0.281000  0.221700  0.337300  1.0  -0.3373
  C  C177  1  0.386600  0.220500  0.139700  1.0  0.1582
  C  C178  1  0.386700  0.259700  0.020500  1.0  0.1155
  C  C179  1  0.418400  0.244300  0.938000  1.0  -0.0624
  C  C180  1  0.449300  0.192800  0.975400  1.0  0.1767
  C  C181  1  0.449700  0.155700  0.091200  1.0  0.1482
  C  C182  1  0.418600  0.169300  0.178700  1.0  -0.0967
  C  C183  1  0.289000  0.396000  0.899500  1.0  -0.3947
  C  C184  1  0.615300  0.926300  0.255500  1.0  0.0643
  C  C185  1  0.615200  0.959000  0.131800  1.0  0.0851
  C  C186  1  0.649300  0.952600  0.058300  1.0  -0.0689
  C  C187  1  0.684900  0.914500  0.111100  1.0  0.1242
  C  C188  1  0.684200  0.880400  0.234100  1.0  0.1915
  C  C189  1  0.650300  0.886700  0.310200  1.0  -0.0849
  C  C190  1  0.752600  0.840300  0.218500  1.0  0.1579
  C  C191  1  0.754600  0.880300  0.100700  1.0  0.1067
  C  C192  1  0.793400  0.884200  0.023400  1.0  0.0943
  C  C193  1  0.826600  0.824200  0.068300  1.0  0.1351
  C  C194  1  0.826500  0.788200  0.184800  1.0  0.1843
  C  C195  1  0.792300  0.803100  0.277500  1.0  -0.0167
  C  C196  1  0.809700  0.850600  0.388200  1.0  -0.3469
  C  C197  1  0.781000  0.721700  0.337300  1.0  -0.3373
  C  C198  1  0.886600  0.720500  0.139700  1.0  0.1582
  C  C199  1  0.886700  0.759700  0.020500  1.0  0.1178
  C  C200  1  0.918400  0.744300  0.938000  1.0  -0.0624
  C  C201  1  0.949300  0.692800  0.975400  1.0  0.1767
  C  C202  1  0.949700  0.655700  0.091200  1.0  0.1482
  C  C203  1  0.918600  0.669300  0.178700  1.0  -0.0967
  C  C204  1  0.789000  0.896000  0.899500  1.0  -0.3947
  C  C205  1  0.115300  0.573700  0.755500  1.0  0.0637
  C  C206  1  0.115200  0.541000  0.631800  1.0  0.0852
  C  C207  1  0.149300  0.547400  0.558300  1.0  -0.0695
  C  C208  1  0.184900  0.585500  0.611100  1.0  0.1243
  C  C209  1  0.184200  0.619600  0.734100  1.0  0.1913
  C  C210  1  0.150300  0.613300  0.810200  1.0  -0.085
  C  C211  1  0.252600  0.659700  0.718500  1.0  0.1579
  C  C212  1  0.254600  0.619700  0.600700  1.0  0.1063
  C  C213  1  0.293400  0.615800  0.523400  1.0  0.0938
  C  C214  1  0.326600  0.675800  0.568300  1.0  0.1345
  C  C215  1  0.326500  0.711800  0.684800  1.0  0.1839
  C  C216  1  0.292300  0.696900  0.777500  1.0  -0.0163
  C  C217  1  0.309700  0.649400  0.888200  1.0  -0.3463
  C  C218  1  0.281000  0.778300  0.837300  1.0  -0.338
  C  C219  1  0.386600  0.779500  0.639700  1.0  0.1577
  C  C220  1  0.386700  0.740300  0.520500  1.0  0.1166
  C  C221  1  0.418400  0.755700  0.438000  1.0  -0.0616
  C  C222  1  0.449300  0.807200  0.475400  1.0  0.1771
  C  C223  1  0.449700  0.844300  0.591200  1.0  0.1472
  C  C224  1  0.418600  0.830700  0.678700  1.0  -0.0968
  C  C225  1  0.289000  0.604000  0.399500  1.0  -0.3942
  C  C226  1  0.615300  0.073700  0.755500  1.0  0.0637
  C  C227  1  0.615200  0.041000  0.631800  1.0  0.0852
  C  C228  1  0.649300  0.047400  0.558300  1.0  -0.0695
  C  C229  1  0.684900  0.085500  0.611100  1.0  0.1243
  C  C230  1  0.684200  0.119600  0.734100  1.0  0.1913
  C  C231  1  0.650300  0.113300  0.810200  1.0  -0.085
  C  C232  1  0.752600  0.159700  0.718500  1.0  0.1579
  C  C233  1  0.754600  0.119700  0.600700  1.0  0.1063
  C  C234  1  0.793400  0.115800  0.523400  1.0  0.0938
  C  C235  1  0.826600  0.175800  0.568300  1.0  0.1345
  C  C236  1  0.826500  0.211800  0.684800  1.0  0.1839
  C  C237  1  0.792300  0.196900  0.777500  1.0  -0.0163
  C  C238  1  0.809700  0.149400  0.888200  1.0  -0.3463
  C  C239  1  0.781000  0.278300  0.837300  1.0  -0.338
  C  C240  1  0.886600  0.279500  0.639700  1.0  0.1577
  C  C241  1  0.886700  0.240300  0.520500  1.0  0.1166
  C  C242  1  0.918400  0.255700  0.438000  1.0  -0.0616
  C  C243  1  0.949300  0.307200  0.475400  1.0  0.1771
  C  C244  1  0.949700  0.344300  0.591200  1.0  0.1472
  C  C245  1  0.918600  0.330700  0.678700  1.0  -0.0968
  C  C246  1  0.789000  0.104000  0.399500  1.0  -0.3942
  C  C247  1  0.884700  0.573700  0.744500  1.0  0.0642
  C  C248  1  0.884800  0.541000  0.868200  1.0  0.0857
  C  C249  1  0.850700  0.547400  0.941700  1.0  -0.0695
  C  C250  1  0.815100  0.585500  0.888900  1.0  0.1246
  C  C251  1  0.815800  0.619600  0.765900  1.0  0.1918
  C  C252  1  0.849700  0.613300  0.689800  1.0  -0.0849
  C  C253  1  0.747400  0.659700  0.781500  1.0  0.1542
  C  C254  1  0.745400  0.619700  0.899300  1.0  0.1032
  C  C255  1  0.706600  0.615800  0.976600  1.0  0.0956
  C  C256  1  0.673400  0.675800  0.931700  1.0  0.1389
  C  C257  1  0.673500  0.711800  0.815200  1.0  0.1849
  C  C258  1  0.707700  0.696900  0.722500  1.0  -0.0157
  C  C259  1  0.690300  0.649400  0.611800  1.0  -0.3453
  C  C260  1  0.719000  0.778300  0.662700  1.0  -0.3388
  C  C261  1  0.613400  0.779500  0.860300  1.0  0.1589
  C  C262  1  0.613300  0.740300  0.979500  1.0  0.1172
  C  C263  1  0.581600  0.755700  0.062000  1.0  -0.0618
  C  C264  1  0.550700  0.807200  0.024600  1.0  0.1781
  C  C265  1  0.550300  0.844300  0.908800  1.0  0.1495
  C  C266  1  0.581400  0.830700  0.821300  1.0  -0.0936
  C  C267  1  0.711000  0.604000  0.100500  1.0  -0.3948
  C  C268  1  0.384700  0.073700  0.744500  1.0  0.0642
  C  C269  1  0.384800  0.041000  0.868200  1.0  0.0857
  C  C270  1  0.350700  0.047400  0.941700  1.0  -0.0695
  C  C271  1  0.315100  0.085500  0.888900  1.0  0.1246
  C  C272  1  0.315800  0.119600  0.765900  1.0  0.1918
  C  C273  1  0.349700  0.113300  0.689800  1.0  -0.0849
  C  C274  1  0.247400  0.159700  0.781500  1.0  0.1542
  C  C275  1  0.245400  0.119700  0.899300  1.0  0.1032
  C  C276  1  0.206600  0.115800  0.976600  1.0  0.0956
  C  C277  1  0.173400  0.175800  0.931700  1.0  0.1389
  C  C278  1  0.173500  0.211800  0.815200  1.0  0.1849
  C  C279  1  0.207700  0.196900  0.722500  1.0  -0.0157
  C  C280  1  0.190300  0.149400  0.611800  1.0  -0.3453
  C  C281  1  0.219000  0.278300  0.662700  1.0  -0.3388
  C  C282  1  0.113400  0.279500  0.860300  1.0  0.1589
  C  C283  1  0.113300  0.240300  0.979500  1.0  0.1193
  C  C284  1  0.081600  0.255700  0.062000  1.0  -0.0618
  C  C285  1  0.050700  0.307200  0.024600  1.0  0.1781
  C  C286  1  0.050300  0.344300  0.908800  1.0  0.1495
  C  C287  1  0.081400  0.330700  0.821300  1.0  -0.0936
  C  C288  1  0.211000  0.104000  0.100500  1.0  -0.3948
  N  N289  1  0.922800  0.445700  0.197600  1.0  -0.2925
  N  N290  1  0.944500  0.485500  0.285100  1.0  -0.096
  N  N291  1  0.923400  0.495000  0.387800  1.0  -0.2879
  N  N292  1  0.780400  0.343100  0.215000  1.0  -0.3452
  N  N293  1  0.779500  0.411100  0.455600  1.0  -0.4432
  N  N294  1  0.644400  0.313100  0.511200  1.0  -0.3492
  N  N295  1  0.644800  0.237100  0.279400  1.0  -0.3022
  N  N296  1  0.516400  0.164800  0.585500  1.0  -0.3228
  N  N297  1  0.496100  0.115800  0.502700  1.0  -0.0866
  N  N298  1  0.515300  0.108500  0.396800  1.0  -0.3705
  N  N299  1  0.422800  0.945700  0.197600  1.0  -0.2925
  N  N300  1  0.444500  0.985500  0.285100  1.0  -0.096
  N  N301  1  0.423400  0.995000  0.387800  1.0  -0.2879
  N  N302  1  0.280400  0.843100  0.215000  1.0  -0.3452
  N  N303  1  0.279500  0.911100  0.455600  1.0  -0.4432
  N  N304  1  0.144400  0.813100  0.511200  1.0  -0.3492
  N  N305  1  0.144800  0.737100  0.279400  1.0  -0.3022
  N  N306  1  0.016400  0.664800  0.585500  1.0  -0.3228
  N  N307  1  0.996100  0.615800  0.502700  1.0  -0.0866
  N  N308  1  0.015300  0.608500  0.396800  1.0  -0.3705
  N  N309  1  0.077200  0.445700  0.302400  1.0  -0.2925
  N  N310  1  0.055500  0.485500  0.214900  1.0  -0.0952
  N  N311  1  0.076600  0.495000  0.112200  1.0  -0.2887
  N  N312  1  0.219600  0.343100  0.285000  1.0  -0.3421
  N  N313  1  0.220500  0.411100  0.044400  1.0  -0.4387
  N  N314  1  0.355600  0.313100  0.988800  1.0  -0.3488
  N  N315  1  0.355200  0.237100  0.220600  1.0  -0.3022
  N  N316  1  0.483600  0.164800  0.914500  1.0  -0.3261
  N  N317  1  0.503900  0.115800  0.997300  1.0  -0.0876
  N  N318  1  0.484700  0.108500  0.103200  1.0  -0.3699
  N  N319  1  0.577200  0.945700  0.302400  1.0  -0.2925
  N  N320  1  0.555500  0.985500  0.214900  1.0  -0.0952
  N  N321  1  0.576600  0.995000  0.112200  1.0  -0.2887
  N  N322  1  0.719600  0.843100  0.285000  1.0  -0.3421
  N  N323  1  0.720500  0.911100  0.044400  1.0  -0.4387
  N  N324  1  0.855600  0.813100  0.988800  1.0  -0.3488
  N  N325  1  0.855200  0.737100  0.220600  1.0  -0.3022
  N  N326  1  0.983600  0.664800  0.914500  1.0  -0.3261
  N  N327  1  0.003900  0.615800  0.997300  1.0  -0.0876
  N  N328  1  0.984700  0.608500  0.103200  1.0  -0.3699
  N  N329  1  0.077200  0.554300  0.802400  1.0  -0.2935
  N  N330  1  0.055500  0.514500  0.714900  1.0  -0.0953
  N  N331  1  0.076600  0.505000  0.612200  1.0  -0.2883
  N  N332  1  0.219600  0.656900  0.785000  1.0  -0.342
  N  N333  1  0.220500  0.588900  0.544400  1.0  -0.439
  N  N334  1  0.355600  0.686900  0.488800  1.0  -0.3446
  N  N335  1  0.355200  0.762900  0.720600  1.0  -0.3033
  N  N336  1  0.483600  0.835200  0.414500  1.0  -0.3261
  N  N337  1  0.503900  0.884200  0.497300  1.0  -0.0876
  N  N338  1  0.484700  0.891500  0.603200  1.0  -0.3696
  N  N339  1  0.577200  0.054300  0.802400  1.0  -0.2935
  N  N340  1  0.555500  0.014500  0.714900  1.0  -0.0953
  N  N341  1  0.576600  0.005000  0.612200  1.0  -0.2883
  N  N342  1  0.719600  0.156900  0.785000  1.0  -0.342
  N  N343  1  0.720500  0.088900  0.544400  1.0  -0.439
  N  N344  1  0.855600  0.186900  0.488800  1.0  -0.3446
  N  N345  1  0.855200  0.262900  0.720600  1.0  -0.3033
  N  N346  1  0.983600  0.335200  0.414500  1.0  -0.3261
  N  N347  1  0.003900  0.384200  0.497300  1.0  -0.0876
  N  N348  1  0.984700  0.391500  0.603200  1.0  -0.3696
  N  N349  1  0.922800  0.554300  0.697600  1.0  -0.2915
  N  N350  1  0.944500  0.514500  0.785100  1.0  -0.0957
  N  N351  1  0.923400  0.505000  0.887800  1.0  -0.287
  N  N352  1  0.780400  0.656900  0.715000  1.0  -0.3449
  N  N353  1  0.779500  0.588900  0.955600  1.0  -0.4425
  N  N354  1  0.644400  0.686900  0.011200  1.0  -0.3474
  N  N355  1  0.644800  0.762900  0.779400  1.0  -0.3029
  N  N356  1  0.516400  0.835200  0.085500  1.0  -0.3275
  N  N357  1  0.496100  0.884200  0.002700  1.0  -0.0864
  N  N358  1  0.515300  0.891500  0.896800  1.0  -0.3703
  N  N359  1  0.422800  0.054300  0.697600  1.0  -0.2915
  N  N360  1  0.444500  0.014500  0.785100  1.0  -0.0957
  N  N361  1  0.423400  0.005000  0.887800  1.0  -0.287
  N  N362  1  0.280400  0.156900  0.715000  1.0  -0.3449
  N  N363  1  0.279500  0.088900  0.955600  1.0  -0.4425
  N  N364  1  0.144400  0.186900  0.011200  1.0  -0.3474
  N  N365  1  0.144800  0.262900  0.779400  1.0  -0.3029
  N  N366  1  0.016400  0.335200  0.085500  1.0  -0.3275
  N  N367  1  0.996100  0.384200  0.002700  1.0  -0.0864
  N  N368  1  0.015300  0.391500  0.896800  1.0  -0.3703
