# generated using pymatgen
data_Co2H21C25N4O9
_symmetry_space_group_name_H-M   'P 1'
_cell_length_a   10.46300000
_cell_length_b   11.84600000
_cell_length_c   12.51100000
_cell_angle_alpha   89.20000000
_cell_angle_beta   75.08000000
_cell_angle_gamma   73.36000000
_symmetry_Int_Tables_number   1
_chemical_formula_structural   Co2H21C25N4O9
_chemical_formula_sum   'Co4 H42 C50 N8 O18'
_cell_volume   1432.65026671
_cell_formula_units_Z   2
loop_
 _symmetry_equiv_pos_site_id
 _symmetry_equiv_pos_as_xyz
  1  'x, y, z'
loop_
 _atom_site_type_symbol
 _atom_site_label
 _atom_site_symmetry_multiplicity
 _atom_site_fract_x
 _atom_site_fract_y
 _atom_site_fract_z
 _atom_site_occupancy
 _atom_site_charge
  Co  Co1  1  0.055700  0.611350  0.992800  1.0  0.9835
  Co  Co2  1  0.173060  0.447860  0.773540  1.0  0.9383
  Co  Co3  1  0.944300  0.388650  0.007200  1.0  0.9836
  Co  Co4  1  0.826940  0.552140  0.226460  1.0  0.938
  H  H5  1  0.121700  0.818500  0.099900  1.0  0.1048
  H  H6  1  0.770900  0.849300  0.030100  1.0  0.113
  H  H7  1  0.750700  0.031100  0.125200  1.0  0.1272
  H  H8  1  0.959800  0.118700  0.159800  1.0  0.0965
  H  H9  1  0.080700  0.018700  0.186000  1.0  0.1133
  H  H10  1  0.808300  0.230900  0.316200  1.0  0.0926
  H  H11  1  0.697100  0.257400  0.500600  1.0  0.1013
  H  H12  1  0.849300  0.913700  0.533800  1.0  0.0993
  H  H13  1  0.969500  0.887500  0.349700  1.0  0.1042
  H  H14  1  0.499000  0.323600  0.738100  1.0  0.1001
  H  H15  1  0.241500  0.183700  0.653000  1.0  0.0951
  H  H16  1  0.465700  0.037400  0.608200  1.0  0.1244
  H  H17  1  0.696100  0.032900  0.691900  1.0  0.1157
  H  H18  1  0.717200  0.158600  0.694700  1.0  0.1198
  H  H19  1  0.015900  0.646600  0.442000  1.0  0.1143
  H  H20  1  0.356400  0.443500  0.524900  1.0  0.1157
  H  H21  1  0.355500  0.468900  0.204100  1.0  0.1173
  H  H22  1  0.918400  0.623800  0.624100  1.0  0.0849
  H  H23  1  0.981700  0.729900  0.615600  1.0  0.0942
  H  H24  1  0.514100  0.327900  0.181000  1.0  0.1163
  H  H25  1  0.625800  0.234000  0.223800  1.0  0.1122
  H  H26  1  0.878300  0.181500  0.900100  1.0  0.1048
  H  H27  1  0.229100  0.150700  0.969900  1.0  0.1126
  H  H28  1  0.249300  0.968900  0.874800  1.0  0.1268
  H  H29  1  0.040200  0.881300  0.840200  1.0  0.097
  H  H30  1  0.919300  0.981300  0.814000  1.0  0.1161
  H  H31  1  0.191700  0.769100  0.683800  1.0  0.093
  H  H32  1  0.302900  0.742600  0.499400  1.0  0.1008
  H  H33  1  0.150700  0.086300  0.466200  1.0  0.0989
  H  H34  1  0.030500  0.112500  0.650300  1.0  0.1043
  H  H35  1  0.501000  0.676400  0.261900  1.0  0.0991
  H  H36  1  0.758500  0.816300  0.347000  1.0  0.0953
  H  H37  1  0.534300  0.962600  0.391800  1.0  0.1238
  H  H38  1  0.303900  0.967100  0.308100  1.0  0.116
  H  H39  1  0.282800  0.841400  0.305300  1.0  0.1177
  H  H40  1  0.984100  0.353400  0.558000  1.0  0.1142
  H  H41  1  0.643600  0.556500  0.475100  1.0  0.1158
  H  H42  1  0.644500  0.531100  0.795900  1.0  0.1178
  H  H43  1  0.081600  0.376200  0.375900  1.0  0.0867
  H  H44  1  0.018300  0.270100  0.384400  1.0  0.0941
  H  H45  1  0.485900  0.672100  0.819000  1.0  0.1153
  H  H46  1  0.374200  0.766000  0.776200  1.0  0.1116
  C  C47  1  0.031900  0.848200  0.093100  1.0  0.1398
  C  C48  1  0.840100  0.865600  0.055700  1.0  0.0395
  C  C49  1  0.828700  0.965700  0.107700  1.0  -0.1093
  C  C50  1  0.982000  0.043300  0.192600  1.0  -0.0713
  C  C51  1  0.904700  0.058600  0.313800  1.0  0.0323
  C  C52  1  0.819500  0.166800  0.360300  1.0  -0.0871
  C  C53  1  0.750600  0.182300  0.470300  1.0  -0.1244
  C  C54  1  0.759000  0.088100  0.537000  1.0  0.071
  C  C55  1  0.842000  0.978200  0.490100  1.0  -0.1165
  C  C56  1  0.914300  0.962300  0.380000  1.0  -0.106
  C  C57  1  0.461600  0.270700  0.711900  1.0  0.1483
  C  C58  1  0.321800  0.194100  0.664600  1.0  0.0391
  C  C59  1  0.444300  0.112900  0.640800  1.0  -0.1539
  C  C60  1  0.681200  0.107900  0.657800  1.0  -0.0528
  C  C61  1  0.092100  0.592600  0.226000  1.0  0.6837
  C  C62  1  0.174000  0.561400  0.310600  1.0  -0.1217
  C  C63  1  0.105400  0.595400  0.421500  1.0  -0.1756
  C  C64  1  0.176700  0.549500  0.501300  1.0  0.24
  C  C65  1  0.310400  0.471900  0.471100  1.0  -0.1632
  C  C66  1  0.374300  0.437500  0.359700  1.0  0.2395
  C  C67  1  0.309300  0.486200  0.278800  1.0  -0.1668
  C  C68  1  0.982800  0.655200  0.648700  1.0  -0.0866
  C  C69  1  0.937800  0.675200  0.773400  1.0  0.7305
  C  C70  1  0.576800  0.317500  0.227900  1.0  -0.0713
  C  C71  1  0.681100  0.385000  0.182900  1.0  0.7173
  C  C72  1  0.968100  0.151800  0.906900  1.0  0.1406
  C  C73  1  0.159900  0.134400  0.944300  1.0  0.0416
  C  C74  1  0.171300  0.034300  0.892300  1.0  -0.1067
  C  C75  1  0.018000  0.956700  0.807400  1.0  -0.0716
  C  C76  1  0.095300  0.941400  0.686200  1.0  0.0327
  C  C77  1  0.180500  0.833200  0.639700  1.0  -0.0875
  C  C78  1  0.249400  0.817700  0.529700  1.0  -0.1238
  C  C79  1  0.241000  0.911900  0.463000  1.0  0.072
  C  C80  1  0.158000  0.021800  0.509900  1.0  -0.1155
  C  C81  1  0.085700  0.037700  0.620000  1.0  -0.1067
  C  C82  1  0.538400  0.729300  0.288100  1.0  0.1487
  C  C83  1  0.678200  0.805900  0.335400  1.0  0.0404
  C  C84  1  0.555700  0.887100  0.359200  1.0  -0.1541
  C  C85  1  0.318800  0.892100  0.342200  1.0  -0.0505
  C  C86  1  0.907900  0.407400  0.774000  1.0  0.6825
  C  C87  1  0.826000  0.438600  0.689400  1.0  -0.12
  C  C88  1  0.894600  0.404600  0.578500  1.0  -0.1755
  C  C89  1  0.823300  0.450500  0.498700  1.0  0.2395
  C  C90  1  0.689600  0.528100  0.528900  1.0  -0.1635
  C  C91  1  0.625700  0.562500  0.640300  1.0  0.2382
  C  C92  1  0.690700  0.513800  0.721200  1.0  -0.1665
  C  C93  1  0.017200  0.344800  0.351300  1.0  -0.0883
  C  C94  1  0.062200  0.324800  0.226600  1.0  0.7294
  C  C95  1  0.423200  0.682500  0.772100  1.0  -0.072
  C  C96  1  0.318900  0.615000  0.817100  1.0  0.7143
  N  N97  1  0.970900  0.788900  0.045100  1.0  -0.3987
  N  N98  1  0.948900  0.956500  0.130900  1.0  0.058
  N  N99  1  0.533100  0.161900  0.673700  1.0  0.0456
  N  N100  1  0.331900  0.296700  0.709200  1.0  -0.3918
  N  N101  1  0.029100  0.211100  0.954900  1.0  -0.3993
  N  N102  1  0.051100  0.043500  0.869100  1.0  0.0577
  N  N103  1  0.466900  0.838100  0.326300  1.0  0.0475
  N  N104  1  0.668100  0.703300  0.290800  1.0  -0.39
  O  O105  1  0.126500  0.433800  0.938100  1.0  -0.7246
  O  O106  1  0.962000  0.627300  0.264500  1.0  -0.6145
  O  O107  1  0.154400  0.576700  0.124900  1.0  -0.5835
  O  O108  1  0.119300  0.574400  0.613000  1.0  -0.3381
  O  O109  1  0.825300  0.750300  0.812200  1.0  -0.5981
  O  O110  1  0.017400  0.614400  0.828100  1.0  -0.6722
  O  O111  1  0.497400  0.353500  0.339800  1.0  -0.2449
  O  O112  1  0.680100  0.468600  0.243100  1.0  -0.6001
  O  O113  1  0.760800  0.347300  0.090000  1.0  -0.5988
  O  O114  1  0.873500  0.566200  0.061900  1.0  -0.7244
  O  O115  1  0.038000  0.372700  0.735500  1.0  -0.6143
  O  O116  1  0.845600  0.423300  0.875100  1.0  -0.5821
  O  O117  1  0.880700  0.425600  0.387000  1.0  -0.3403
  O  O118  1  0.174700  0.249700  0.187800  1.0  -0.5988
  O  O119  1  0.982600  0.385600  0.171900  1.0  -0.672
  O  O120  1  0.502600  0.646500  0.660200  1.0  -0.2434
  O  O121  1  0.319900  0.531400  0.756900  1.0  -0.5999
  O  O122  1  0.239200  0.652700  0.910000  1.0  -0.5981
