# generated using pymatgen
data_CdH15C23N2O3
_symmetry_space_group_name_H-M   'P 1'
_cell_length_a   34.30000000
_cell_length_b   9.42600000
_cell_length_c   21.33700000
_cell_angle_alpha   90.00000000
_cell_angle_beta   113.76600000
_cell_angle_gamma   90.00000000
_symmetry_Int_Tables_number   1
_chemical_formula_structural   CdH15C23N2O3
_chemical_formula_sum   'Cd8 H120 C184 N16 O24'
_cell_volume   6313.50367924
_cell_formula_units_Z   8
loop_
 _symmetry_equiv_pos_site_id
 _symmetry_equiv_pos_as_xyz
  1  'x, y, z'
loop_
 _atom_site_type_symbol
 _atom_site_label
 _atom_site_symmetry_multiplicity
 _atom_site_fract_x
 _atom_site_fract_y
 _atom_site_fract_z
 _atom_site_occupancy
 _atom_site_charge
  Cd  Cd1  1  0.265900  0.122490  0.953510  1.0  1.0241
  Cd  Cd2  1  0.765900  0.622490  0.953510  1.0  1.0241
  Cd  Cd3  1  0.734100  0.122490  0.546490  1.0  1.0237
  Cd  Cd4  1  0.234100  0.622490  0.546490  1.0  1.0237
  Cd  Cd5  1  0.734100  0.877510  0.046490  1.0  1.0233
  Cd  Cd6  1  0.234100  0.377510  0.046490  1.0  1.0233
  Cd  Cd7  1  0.265900  0.877510  0.453510  1.0  1.0238
  Cd  Cd8  1  0.765900  0.377510  0.453510  1.0  1.0238
  H  H9  1  0.187400  0.123700  0.095500  1.0  0.1035
  H  H10  1  0.136700  0.950000  0.083900  1.0  0.0989
  H  H11  1  0.128000  0.757000  0.016600  1.0  0.1234
  H  H12  1  0.147300  0.627700  0.926700  1.0  0.1125
  H  H13  1  0.191200  0.615500  0.868200  1.0  0.1081
  H  H14  1  0.271300  0.873600  0.877900  1.0  0.0925
  H  H15  1  0.223700  0.651800  0.799800  1.0  0.0949
  H  H16  1  0.320100  0.861600  0.834600  1.0  0.117
  H  H17  1  0.352600  0.883000  0.757400  1.0  0.1129
  H  H18  1  0.321700  0.775000  0.650000  1.0  0.0797
  H  H19  1  0.230900  0.614200  0.694600  1.0  0.0845
  H  H20  1  0.424000  0.079800  0.090000  1.0  0.1141
  H  H21  1  0.492800  0.029500  0.097400  1.0  0.1314
  H  H22  1  0.447700  0.985900  0.895100  1.0  0.1198
  H  H23  1  0.379600  0.036400  0.885600  1.0  0.0995
  H  H24  1  0.687400  0.623700  0.095500  1.0  0.1035
  H  H25  1  0.636700  0.450000  0.083900  1.0  0.0989
  H  H26  1  0.628000  0.257000  0.016600  1.0  0.1234
  H  H27  1  0.647300  0.127700  0.926700  1.0  0.1125
  H  H28  1  0.691200  0.115500  0.868200  1.0  0.1081
  H  H29  1  0.771300  0.373600  0.877900  1.0  0.0925
  H  H30  1  0.723700  0.151800  0.799800  1.0  0.0949
  H  H31  1  0.820100  0.361600  0.834600  1.0  0.117
  H  H32  1  0.852600  0.383000  0.757400  1.0  0.1129
  H  H33  1  0.821700  0.275000  0.650000  1.0  0.0797
  H  H34  1  0.730900  0.114200  0.694600  1.0  0.0845
  H  H35  1  0.924000  0.579800  0.090000  1.0  0.1141
  H  H36  1  0.992800  0.529500  0.097400  1.0  0.1314
  H  H37  1  0.947700  0.485900  0.895100  1.0  0.1198
  H  H38  1  0.879600  0.536400  0.885600  1.0  0.0995
  H  H39  1  0.812600  0.123700  0.404500  1.0  0.104
  H  H40  1  0.863300  0.950000  0.416100  1.0  0.098
  H  H41  1  0.872000  0.757000  0.483400  1.0  0.1239
  H  H42  1  0.852700  0.627700  0.573300  1.0  0.1128
  H  H43  1  0.808800  0.615500  0.631800  1.0  0.1084
  H  H44  1  0.728700  0.873600  0.622100  1.0  0.0921
  H  H45  1  0.776300  0.651800  0.700200  1.0  0.0945
  H  H46  1  0.679900  0.861600  0.665400  1.0  0.1172
  H  H47  1  0.647400  0.883000  0.742600  1.0  0.1131
  H  H48  1  0.678300  0.775000  0.850000  1.0  0.0797
  H  H49  1  0.769100  0.614200  0.805400  1.0  0.0841
  H  H50  1  0.576000  0.079800  0.410000  1.0  0.1141
  H  H51  1  0.507200  0.029500  0.402600  1.0  0.1309
  H  H52  1  0.552300  0.985900  0.604900  1.0  0.1191
  H  H53  1  0.620400  0.036400  0.614400  1.0  0.0997
  H  H54  1  0.312600  0.623700  0.404500  1.0  0.104
  H  H55  1  0.363300  0.450000  0.416100  1.0  0.098
  H  H56  1  0.372000  0.257000  0.483400  1.0  0.1239
  H  H57  1  0.352700  0.127700  0.573300  1.0  0.1128
  H  H58  1  0.308800  0.115500  0.631800  1.0  0.1084
  H  H59  1  0.228700  0.373600  0.622100  1.0  0.0921
  H  H60  1  0.276300  0.151800  0.700200  1.0  0.0945
  H  H61  1  0.179900  0.361600  0.665400  1.0  0.1172
  H  H62  1  0.147400  0.383000  0.742600  1.0  0.1131
  H  H63  1  0.178300  0.275000  0.850000  1.0  0.0797
  H  H64  1  0.269100  0.114200  0.805400  1.0  0.0841
  H  H65  1  0.076000  0.579800  0.410000  1.0  0.1141
  H  H66  1  0.007200  0.529500  0.402600  1.0  0.1309
  H  H67  1  0.052300  0.485900  0.604900  1.0  0.1191
  H  H68  1  0.120400  0.536400  0.614400  1.0  0.0997
  H  H69  1  0.812600  0.876300  0.904500  1.0  0.1036
  H  H70  1  0.863300  0.050000  0.916100  1.0  0.0979
  H  H71  1  0.872000  0.243000  0.983400  1.0  0.1233
  H  H72  1  0.852700  0.372300  0.073300  1.0  0.1122
  H  H73  1  0.808800  0.384500  0.131800  1.0  0.1078
  H  H74  1  0.728700  0.126400  0.122100  1.0  0.0918
  H  H75  1  0.776300  0.348200  0.200200  1.0  0.0945
  H  H76  1  0.679900  0.138400  0.165400  1.0  0.1173
  H  H77  1  0.647400  0.117000  0.242600  1.0  0.1129
  H  H78  1  0.678300  0.225000  0.350000  1.0  0.0798
  H  H79  1  0.769100  0.385800  0.305400  1.0  0.0839
  H  H80  1  0.576000  0.920200  0.910000  1.0  0.1143
  H  H81  1  0.507200  0.970500  0.902600  1.0  0.131
  H  H82  1  0.552300  0.014100  0.104900  1.0  0.119
  H  H83  1  0.620400  0.963600  0.114400  1.0  0.1002
  H  H84  1  0.312600  0.376300  0.904500  1.0  0.1036
  H  H85  1  0.363300  0.550000  0.916100  1.0  0.0979
  H  H86  1  0.372000  0.743000  0.983400  1.0  0.1233
  H  H87  1  0.352700  0.872300  0.073300  1.0  0.1122
  H  H88  1  0.308800  0.884500  0.131800  1.0  0.1078
  H  H89  1  0.228700  0.626400  0.122100  1.0  0.0918
  H  H90  1  0.276300  0.848200  0.200200  1.0  0.0945
  H  H91  1  0.179900  0.638400  0.165400  1.0  0.1173
  H  H92  1  0.147400  0.617000  0.242600  1.0  0.1129
  H  H93  1  0.178300  0.725000  0.350000  1.0  0.0798
  H  H94  1  0.269100  0.885800  0.305400  1.0  0.0839
  H  H95  1  0.076000  0.420200  0.910000  1.0  0.1143
  H  H96  1  0.007200  0.470500  0.902600  1.0  0.131
  H  H97  1  0.052300  0.514100  0.104900  1.0  0.119
  H  H98  1  0.120400  0.463600  0.114400  1.0  0.1002
  H  H99  1  0.187400  0.876300  0.595500  1.0  0.1039
  H  H100  1  0.136700  0.050000  0.583900  1.0  0.0991
  H  H101  1  0.128000  0.243000  0.516600  1.0  0.1237
  H  H102  1  0.147300  0.372300  0.426700  1.0  0.1131
  H  H103  1  0.191200  0.384500  0.368200  1.0  0.1086
  H  H104  1  0.271300  0.126400  0.377900  1.0  0.0929
  H  H105  1  0.223700  0.348200  0.299800  1.0  0.0952
  H  H106  1  0.320100  0.138400  0.334600  1.0  0.1172
  H  H107  1  0.352600  0.117000  0.257400  1.0  0.1131
  H  H108  1  0.321700  0.225000  0.150000  1.0  0.0799
  H  H109  1  0.230900  0.385800  0.194600  1.0  0.0844
  H  H110  1  0.424000  0.920200  0.590000  1.0  0.114
  H  H111  1  0.492800  0.970500  0.597400  1.0  0.1316
  H  H112  1  0.447700  0.014100  0.395100  1.0  0.1197
  H  H113  1  0.379600  0.963600  0.385600  1.0  0.0994
  H  H114  1  0.687400  0.376300  0.595500  1.0  0.1039
  H  H115  1  0.636700  0.550000  0.583900  1.0  0.0991
  H  H116  1  0.628000  0.743000  0.516600  1.0  0.1237
  H  H117  1  0.647300  0.872300  0.426700  1.0  0.1131
  H  H118  1  0.691200  0.884500  0.368200  1.0  0.1086
  H  H119  1  0.771300  0.626400  0.377900  1.0  0.0929
  H  H120  1  0.723700  0.848200  0.299800  1.0  0.0952
  H  H121  1  0.820100  0.638400  0.334600  1.0  0.1172
  H  H122  1  0.852600  0.617000  0.257400  1.0  0.1131
  H  H123  1  0.821700  0.725000  0.150000  1.0  0.0799
  H  H124  1  0.730900  0.885800  0.194600  1.0  0.0844
  H  H125  1  0.924000  0.420200  0.590000  1.0  0.114
  H  H126  1  0.992800  0.470500  0.597400  1.0  0.1316
  H  H127  1  0.947700  0.514100  0.395100  1.0  0.1197
  H  H128  1  0.879600  0.463600  0.385600  1.0  0.0994
  C  C129  1  0.207480  0.042200  0.025400  1.0  0.309
  C  C130  1  0.183500  0.047600  0.064400  1.0  -0.1549
  C  C131  1  0.153600  0.941200  0.058200  1.0  -0.1218
  C  C132  1  0.148000  0.828200  0.018000  1.0  -0.1401
  C  C133  1  0.171700  0.814400  0.977200  1.0  0.0433
  C  C134  1  0.202250  0.921700  0.981600  1.0  0.1148
  C  C135  1  0.167700  0.700200  0.932400  1.0  -0.0462
  C  C136  1  0.193200  0.694100  0.897200  1.0  -0.1028
  C  C137  1  0.222700  0.804500  0.903600  1.0  0.213
  C  C138  1  0.248800  0.806200  0.864300  1.0  -0.1021
  C  C139  1  0.244700  0.724300  0.812000  1.0  -0.1252
  C  C140  1  0.270200  0.737000  0.771100  1.0  0.035
  C  C141  1  0.308100  0.817400  0.790900  1.0  -0.1183
  C  C142  1  0.327100  0.830000  0.745400  1.0  -0.1133
  C  C143  1  0.308500  0.764000  0.681200  1.0  0.1451
  C  C144  1  0.255500  0.672700  0.707300  1.0  0.1286
  C  C145  1  0.350300  0.090600  0.980900  1.0  0.6509
  C  C146  1  0.394600  0.065200  0.985300  1.0  -0.1462
  C  C147  1  0.428600  0.062600  0.049700  1.0  -0.1092
  C  C148  1  0.469900  0.033900  0.053600  1.0  -0.0943
  C  C149  1  0.478000  0.012300  0.996700  1.0  0.0004
  C  C150  1  0.443400  0.008600  0.935300  1.0  -0.155
  C  C151  1  0.402500  0.036900  0.929500  1.0  -0.0798
  C  C152  1  0.707480  0.542200  0.025400  1.0  0.309
  C  C153  1  0.683500  0.547600  0.064400  1.0  -0.1549
  C  C154  1  0.653600  0.441200  0.058200  1.0  -0.1218
  C  C155  1  0.648000  0.328200  0.018000  1.0  -0.1401
  C  C156  1  0.671700  0.314400  0.977200  1.0  0.0433
  C  C157  1  0.702250  0.421700  0.981600  1.0  0.1148
  C  C158  1  0.667700  0.200200  0.932400  1.0  -0.0462
  C  C159  1  0.693200  0.194100  0.897200  1.0  -0.1028
  C  C160  1  0.722700  0.304500  0.903600  1.0  0.213
  C  C161  1  0.748800  0.306200  0.864300  1.0  -0.1021
  C  C162  1  0.744700  0.224300  0.812000  1.0  -0.1252
  C  C163  1  0.770200  0.237000  0.771100  1.0  0.035
  C  C164  1  0.808100  0.317400  0.790900  1.0  -0.1183
  C  C165  1  0.827100  0.330000  0.745400  1.0  -0.1133
  C  C166  1  0.808500  0.264000  0.681200  1.0  0.1451
  C  C167  1  0.755500  0.172700  0.707300  1.0  0.1286
  C  C168  1  0.850300  0.590600  0.980900  1.0  0.6509
  C  C169  1  0.894600  0.565200  0.985300  1.0  -0.1462
  C  C170  1  0.928600  0.562600  0.049700  1.0  -0.1092
  C  C171  1  0.969900  0.533900  0.053600  1.0  -0.0943
  C  C172  1  0.978000  0.512300  0.996700  1.0  0.0004
  C  C173  1  0.943400  0.508600  0.935300  1.0  -0.155
  C  C174  1  0.902500  0.536900  0.929500  1.0  -0.0798
  C  C175  1  0.792520  0.042200  0.474600  1.0  0.3087
  C  C176  1  0.816500  0.047600  0.435600  1.0  -0.154
  C  C177  1  0.846400  0.941200  0.441800  1.0  -0.1202
  C  C178  1  0.852000  0.828200  0.482000  1.0  -0.1377
  C  C179  1  0.828300  0.814400  0.522800  1.0  0.0423
  C  C180  1  0.797750  0.921700  0.518400  1.0  0.1154
  C  C181  1  0.832300  0.700200  0.567600  1.0  -0.0456
  C  C182  1  0.806800  0.694100  0.602800  1.0  -0.1019
  C  C183  1  0.777300  0.804500  0.596400  1.0  0.2122
  C  C184  1  0.751200  0.806200  0.635700  1.0  -0.1026
  C  C185  1  0.755300  0.724300  0.688000  1.0  -0.1248
  C  C186  1  0.729800  0.737000  0.728900  1.0  0.0347
  C  C187  1  0.691900  0.817400  0.709100  1.0  -0.119
  C  C188  1  0.672900  0.830000  0.754600  1.0  -0.1174
  C  C189  1  0.691500  0.764000  0.818800  1.0  0.1469
  C  C190  1  0.744500  0.672700  0.792700  1.0  0.128
  C  C191  1  0.649700  0.090600  0.519100  1.0  0.6513
  C  C192  1  0.605400  0.065200  0.514700  1.0  -0.1466
  C  C193  1  0.571400  0.062600  0.450300  1.0  -0.1059
  C  C194  1  0.530100  0.033900  0.446400  1.0  -0.0961
  C  C195  1  0.522000  0.012300  0.503300  1.0  -0.0021
  C  C196  1  0.556600  0.008600  0.564700  1.0  -0.1545
  C  C197  1  0.597500  0.036900  0.570500  1.0  -0.0788
  C  C198  1  0.292520  0.542200  0.474600  1.0  0.3087
  C  C199  1  0.316500  0.547600  0.435600  1.0  -0.154
  C  C200  1  0.346400  0.441200  0.441800  1.0  -0.1202
  C  C201  1  0.352000  0.328200  0.482000  1.0  -0.1377
  C  C202  1  0.328300  0.314400  0.522800  1.0  0.0423
  C  C203  1  0.297750  0.421700  0.518400  1.0  0.1154
  C  C204  1  0.332300  0.200200  0.567600  1.0  -0.0456
  C  C205  1  0.306800  0.194100  0.602800  1.0  -0.1019
  C  C206  1  0.277300  0.304500  0.596400  1.0  0.2122
  C  C207  1  0.251200  0.306200  0.635700  1.0  -0.1026
  C  C208  1  0.255300  0.224300  0.688000  1.0  -0.1248
  C  C209  1  0.229800  0.237000  0.728900  1.0  0.0347
  C  C210  1  0.191900  0.317400  0.709100  1.0  -0.119
  C  C211  1  0.172900  0.330000  0.754600  1.0  -0.1174
  C  C212  1  0.191500  0.264000  0.818800  1.0  0.1469
  C  C213  1  0.244500  0.172700  0.792700  1.0  0.128
  C  C214  1  0.149700  0.590600  0.519100  1.0  0.6513
  C  C215  1  0.105400  0.565200  0.514700  1.0  -0.1466
  C  C216  1  0.071400  0.562600  0.450300  1.0  -0.1059
  C  C217  1  0.030100  0.533900  0.446400  1.0  -0.0961
  C  C218  1  0.022000  0.512300  0.503300  1.0  -0.0021
  C  C219  1  0.056600  0.508600  0.564700  1.0  -0.1545
  C  C220  1  0.097500  0.536900  0.570500  1.0  -0.0788
  C  C221  1  0.792520  0.957800  0.974600  1.0  0.311
  C  C222  1  0.816500  0.952400  0.935600  1.0  -0.1557
  C  C223  1  0.846400  0.058800  0.941800  1.0  -0.1208
  C  C224  1  0.852000  0.171800  0.982000  1.0  -0.1369
  C  C225  1  0.828300  0.185600  0.022800  1.0  0.0429
  C  C226  1  0.797750  0.078300  0.018400  1.0  0.1154
  C  C227  1  0.832300  0.299800  0.067600  1.0  -0.0449
  C  C228  1  0.806800  0.305900  0.102800  1.0  -0.101
  C  C229  1  0.777300  0.195500  0.096400  1.0  0.2133
  C  C230  1  0.751200  0.193800  0.135700  1.0  -0.1028
  C  C231  1  0.755300  0.275700  0.188000  1.0  -0.1241
  C  C232  1  0.729800  0.263000  0.228900  1.0  0.0351
  C  C233  1  0.691900  0.182600  0.209100  1.0  -0.1189
  C  C234  1  0.672900  0.170000  0.254600  1.0  -0.1173
  C  C235  1  0.691500  0.236000  0.318800  1.0  0.1458
  C  C236  1  0.744500  0.327300  0.292700  1.0  0.1288
  C  C237  1  0.649700  0.909400  0.019100  1.0  0.6503
  C  C238  1  0.605400  0.934800  0.014700  1.0  -0.1473
  C  C239  1  0.571400  0.937400  0.950300  1.0  -0.1049
  C  C240  1  0.530100  0.966100  0.946400  1.0  -0.096
  C  C241  1  0.522000  0.987700  0.003300  1.0  -0.0021
  C  C242  1  0.556600  0.991400  0.064700  1.0  -0.1531
  C  C243  1  0.597500  0.963100  0.070500  1.0  -0.0783
  C  C244  1  0.292520  0.457800  0.974600  1.0  0.311
  C  C245  1  0.316500  0.452400  0.935600  1.0  -0.1557
  C  C246  1  0.346400  0.558800  0.941800  1.0  -0.1208
  C  C247  1  0.352000  0.671800  0.982000  1.0  -0.1369
  C  C248  1  0.328300  0.685600  0.022800  1.0  0.0429
  C  C249  1  0.297750  0.578300  0.018400  1.0  0.1154
  C  C250  1  0.332300  0.799800  0.067600  1.0  -0.0449
  C  C251  1  0.306800  0.805900  0.102800  1.0  -0.101
  C  C252  1  0.277300  0.695500  0.096400  1.0  0.2133
  C  C253  1  0.251200  0.693800  0.135700  1.0  -0.1028
  C  C254  1  0.255300  0.775700  0.188000  1.0  -0.1241
  C  C255  1  0.229800  0.763000  0.228900  1.0  0.0351
  C  C256  1  0.191900  0.682600  0.209100  1.0  -0.1189
  C  C257  1  0.172900  0.670000  0.254600  1.0  -0.1173
  C  C258  1  0.191500  0.736000  0.318800  1.0  0.1458
  C  C259  1  0.244500  0.827300  0.292700  1.0  0.1288
  C  C260  1  0.149700  0.409400  0.019100  1.0  0.6503
  C  C261  1  0.105400  0.434800  0.014700  1.0  -0.1473
  C  C262  1  0.071400  0.437400  0.950300  1.0  -0.1049
  C  C263  1  0.030100  0.466100  0.946400  1.0  -0.096
  C  C264  1  0.022000  0.487700  0.003300  1.0  -0.0021
  C  C265  1  0.056600  0.491400  0.064700  1.0  -0.1531
  C  C266  1  0.097500  0.463100  0.070500  1.0  -0.0783
  C  C267  1  0.207480  0.957800  0.525400  1.0  0.3104
  C  C268  1  0.183500  0.952400  0.564400  1.0  -0.1553
  C  C269  1  0.153600  0.058800  0.558200  1.0  -0.1216
  C  C270  1  0.148000  0.171800  0.518000  1.0  -0.1409
  C  C271  1  0.171700  0.185600  0.477200  1.0  0.0426
  C  C272  1  0.202250  0.078300  0.481600  1.0  0.114
  C  C273  1  0.167700  0.299800  0.432400  1.0  -0.0475
  C  C274  1  0.193200  0.305900  0.397200  1.0  -0.1037
  C  C275  1  0.222700  0.195500  0.403600  1.0  0.2138
  C  C276  1  0.248800  0.193800  0.364300  1.0  -0.1031
  C  C277  1  0.244700  0.275700  0.312000  1.0  -0.1242
  C  C278  1  0.270200  0.263000  0.271100  1.0  0.0356
  C  C279  1  0.308100  0.182600  0.290900  1.0  -0.1181
  C  C280  1  0.327100  0.170000  0.245400  1.0  -0.1143
  C  C281  1  0.308500  0.236000  0.181200  1.0  0.1453
  C  C282  1  0.255500  0.327300  0.207300  1.0  0.1291
  C  C283  1  0.350300  0.909400  0.480900  1.0  0.6508
  C  C284  1  0.394600  0.934800  0.485300  1.0  -0.1473
  C  C285  1  0.428600  0.937400  0.549700  1.0  -0.1092
  C  C286  1  0.469900  0.966100  0.553600  1.0  -0.0945
  C  C287  1  0.478000  0.987700  0.496700  1.0  0.0003
  C  C288  1  0.443400  0.991400  0.435300  1.0  -0.1525
  C  C289  1  0.402500  0.963100  0.429500  1.0  -0.0795
  C  C290  1  0.707480  0.457800  0.525400  1.0  0.3104
  C  C291  1  0.683500  0.452400  0.564400  1.0  -0.1553
  C  C292  1  0.653600  0.558800  0.558200  1.0  -0.1216
  C  C293  1  0.648000  0.671800  0.518000  1.0  -0.1409
  C  C294  1  0.671700  0.685600  0.477200  1.0  0.0426
  C  C295  1  0.702250  0.578300  0.481600  1.0  0.114
  C  C296  1  0.667700  0.799800  0.432400  1.0  -0.0475
  C  C297  1  0.693200  0.805900  0.397200  1.0  -0.1037
  C  C298  1  0.722700  0.695500  0.403600  1.0  0.2138
  C  C299  1  0.748800  0.693800  0.364300  1.0  -0.1031
  C  C300  1  0.744700  0.775700  0.312000  1.0  -0.1242
  C  C301  1  0.770200  0.763000  0.271100  1.0  0.0356
  C  C302  1  0.808100  0.682600  0.290900  1.0  -0.1181
  C  C303  1  0.827100  0.670000  0.245400  1.0  -0.1143
  C  C304  1  0.808500  0.736000  0.181200  1.0  0.1453
  C  C305  1  0.755500  0.827300  0.207300  1.0  0.1291
  C  C306  1  0.850300  0.409400  0.480900  1.0  0.6508
  C  C307  1  0.894600  0.434800  0.485300  1.0  -0.1473
  C  C308  1  0.928600  0.437400  0.549700  1.0  -0.1092
  C  C309  1  0.969900  0.466100  0.553600  1.0  -0.0945
  C  C310  1  0.978000  0.487700  0.496700  1.0  0.0003
  C  C311  1  0.943400  0.491400  0.435300  1.0  -0.1525
  C  C312  1  0.902500  0.463100  0.429500  1.0  -0.0795
  N  N313  1  0.226720  0.914200  0.944900  1.0  -0.3996
  N  N314  1  0.273370  0.687400  0.662200  1.0  -0.3403
  N  N315  1  0.726720  0.414200  0.944900  1.0  -0.3996
  N  N316  1  0.773370  0.187400  0.662200  1.0  -0.3403
  N  N317  1  0.773280  0.914200  0.555100  1.0  -0.3983
  N  N318  1  0.726630  0.687400  0.837800  1.0  -0.3388
  N  N319  1  0.273280  0.414200  0.555100  1.0  -0.3983
  N  N320  1  0.226630  0.187400  0.837800  1.0  -0.3388
  N  N321  1  0.773280  0.085800  0.055100  1.0  -0.3995
  N  N322  1  0.726630  0.312600  0.337800  1.0  -0.3397
  N  N323  1  0.273280  0.585800  0.055100  1.0  -0.3995
  N  N324  1  0.226630  0.812600  0.337800  1.0  -0.3397
  N  N325  1  0.226720  0.085800  0.444900  1.0  -0.3995
  N  N326  1  0.273370  0.312600  0.162200  1.0  -0.3392
  N  N327  1  0.726720  0.585800  0.444900  1.0  -0.3995
  N  N328  1  0.773370  0.812600  0.162200  1.0  -0.3392
  O  O329  1  0.235760  0.140100  0.027800  1.0  -0.6726
  O  O330  1  0.343530  0.124300  0.030900  1.0  -0.618
  O  O331  1  0.320640  0.069700  0.921700  1.0  -0.6166
  O  O332  1  0.735760  0.640100  0.027800  1.0  -0.6726
  O  O333  1  0.843530  0.624300  0.030900  1.0  -0.618
  O  O334  1  0.820640  0.569700  0.921700  1.0  -0.6166
  O  O335  1  0.764240  0.140100  0.472200  1.0  -0.6728
  O  O336  1  0.656470  0.124300  0.469100  1.0  -0.6217
  O  O337  1  0.679360  0.069700  0.578300  1.0  -0.6195
  O  O338  1  0.264240  0.640100  0.472200  1.0  -0.6728
  O  O339  1  0.156470  0.624300  0.469100  1.0  -0.6217
  O  O340  1  0.179360  0.569700  0.578300  1.0  -0.6195
  O  O341  1  0.764240  0.859900  0.972200  1.0  -0.6716
  O  O342  1  0.656470  0.875700  0.969100  1.0  -0.6223
  O  O343  1  0.679360  0.930300  0.078300  1.0  -0.619
  O  O344  1  0.264240  0.359900  0.972200  1.0  -0.6716
  O  O345  1  0.156470  0.375700  0.969100  1.0  -0.6223
  O  O346  1  0.179360  0.430300  0.078300  1.0  -0.619
  O  O347  1  0.235760  0.859900  0.527800  1.0  -0.6719
  O  O348  1  0.343530  0.875700  0.530900  1.0  -0.6188
  O  O349  1  0.320640  0.930300  0.421700  1.0  -0.6168
  O  O350  1  0.735760  0.359900  0.527800  1.0  -0.6719
  O  O351  1  0.843530  0.375700  0.530900  1.0  -0.6188
  O  O352  1  0.820640  0.430300  0.421700  1.0  -0.6168
