# generated using pymatgen
data_Co7H62(C34O13)3
_symmetry_space_group_name_H-M   'P 1'
_cell_length_a   19.44990000
_cell_length_b   10.88390000
_cell_length_c   27.77960000
_cell_angle_alpha   90.00000000
_cell_angle_beta   104.46700000
_cell_angle_gamma   90.00000000
_symmetry_Int_Tables_number   1
_chemical_formula_structural   Co7H62(C34O13)3
_chemical_formula_sum   'Co14 H124 C204 O78'
_cell_volume   5694.21823295
_cell_formula_units_Z   2
loop_
 _symmetry_equiv_pos_site_id
 _symmetry_equiv_pos_as_xyz
  1  'x, y, z'
loop_
 _atom_site_type_symbol
 _atom_site_label
 _atom_site_symmetry_multiplicity
 _atom_site_fract_x
 _atom_site_fract_y
 _atom_site_fract_z
 _atom_site_occupancy
 _atom_site_charge
  Co  Co1  1  0.401320  0.725710  0.042190  1.0  1.0049
  Co  Co2  1  0.270810  0.624420  0.081540  1.0  1.0167
  Co  Co3  1  0.111850  0.533950  0.026870  1.0  0.9928
  Co  Co4  1  0.598680  0.725710  0.457810  1.0  1.005
  Co  Co5  1  0.729190  0.624420  0.418460  1.0  1.0172
  Co  Co6  1  0.888150  0.533950  0.473130  1.0  0.9907
  Co  Co7  1  0.598680  0.274290  0.957810  1.0  1.0045
  Co  Co8  1  0.729190  0.375580  0.918460  1.0  1.0171
  Co  Co9  1  0.888150  0.466050  0.973130  1.0  0.9903
  Co  Co10  1  0.401320  0.274290  0.542190  1.0  1.0029
  Co  Co11  1  0.270810  0.375580  0.581540  1.0  1.0166
  Co  Co12  1  0.111850  0.466050  0.526870  1.0  0.9924
  Co  Co13  1  0.500000  0.500000  0.000000  1.0  1.188
  Co  Co14  1  0.500000  0.500000  0.500000  1.0  1.1879
  H  H15  1  0.361900  0.366600  0.121300  1.0  0.1509
  H  H16  1  0.423400  0.438500  0.157600  1.0  0.1479
  H  H17  1  0.441000  0.326000  0.127400  1.0  0.1471
  H  H18  1  0.389900  0.551800  0.888100  1.0  0.1
  H  H19  1  0.415400  0.917700  0.893700  1.0  0.1144
  H  H20  1  0.376700  0.555800  0.803500  1.0  0.1359
  H  H21  1  0.406000  0.921000  0.809100  1.0  0.121
  H  H22  1  0.085400  0.945700  0.139200  1.0  0.1159
  H  H23  1  0.209600  0.648200  0.168300  1.0  0.1079
  H  H24  1  0.095900  0.276000  0.126200  1.0  0.1165
  H  H25  1  0.266100  0.437200  0.213800  1.0  0.102
  H  H26  1  0.113000  0.993700  0.223000  1.0  0.1329
  H  H27  1  0.235800  0.693300  0.252200  1.0  0.119
  H  H28  1  0.060500  0.210700  0.195400  1.0  0.1426
  H  H29  1  0.232300  0.371300  0.283500  1.0  0.1227
  H  H30  1  0.467800  0.820900  0.701100  1.0  0.1123
  H  H31  1  0.278200  0.887600  0.727800  1.0  0.1226
  H  H32  1  0.946400  0.487200  0.847500  1.0  0.0969
  H  H33  1  0.093500  0.238700  0.909000  1.0  0.1187
  H  H34  1  0.451200  0.984300  0.646100  1.0  0.1075
  H  H35  1  0.264200  0.056700  0.675800  1.0  0.0905
  H  H36  1  0.939500  0.403900  0.769400  1.0  0.1328
  H  H37  1  0.080300  0.144800  0.832900  1.0  0.1376
  H  H38  1  0.200200  0.706800  0.360200  1.0  0.1268
  H  H39  1  0.317700  0.933700  0.301100  1.0  0.1176
  H  H40  1  0.208400  0.115900  0.348100  1.0  0.1298
  H  H41  1  0.108500  0.440200  0.332800  1.0  0.1262
  H  H42  1  0.302900  0.632100  0.414100  1.0  0.1123
  H  H43  1  0.419400  0.859800  0.354800  1.0  0.1132
  H  H44  1  0.258100  0.158900  0.431400  1.0  0.1115
  H  H45  1  0.156700  0.482300  0.415900  1.0  0.1043
  H  H46  1  0.638100  0.366600  0.378700  1.0  0.1497
  H  H47  1  0.576600  0.438500  0.342400  1.0  0.1476
  H  H48  1  0.559000  0.326000  0.372600  1.0  0.148
  H  H49  1  0.610100  0.551800  0.611900  1.0  0.0991
  H  H50  1  0.584600  0.917700  0.606300  1.0  0.1144
  H  H51  1  0.623300  0.555800  0.696500  1.0  0.1359
  H  H52  1  0.594000  0.921000  0.690900  1.0  0.1208
  H  H53  1  0.914600  0.945700  0.360800  1.0  0.1161
  H  H54  1  0.790400  0.648200  0.331700  1.0  0.1079
  H  H55  1  0.904100  0.276000  0.373800  1.0  0.1168
  H  H56  1  0.733900  0.437200  0.286200  1.0  0.1017
  H  H57  1  0.887000  0.993700  0.277000  1.0  0.1334
  H  H58  1  0.764200  0.693300  0.247800  1.0  0.1178
  H  H59  1  0.939500  0.210700  0.304600  1.0  0.1422
  H  H60  1  0.767700  0.371300  0.216500  1.0  0.1227
  H  H61  1  0.532200  0.820900  0.798900  1.0  0.1119
  H  H62  1  0.721800  0.887600  0.772200  1.0  0.1223
  H  H63  1  0.053600  0.487200  0.652500  1.0  0.097
  H  H64  1  0.906500  0.238700  0.591000  1.0  0.1182
  H  H65  1  0.548800  0.984300  0.853900  1.0  0.1078
  H  H66  1  0.735800  0.056700  0.824200  1.0  0.0902
  H  H67  1  0.060500  0.403900  0.730600  1.0  0.133
  H  H68  1  0.919700  0.144800  0.667100  1.0  0.1379
  H  H69  1  0.799800  0.706800  0.139800  1.0  0.1272
  H  H70  1  0.682300  0.933700  0.198900  1.0  0.1179
  H  H71  1  0.791600  0.115900  0.151900  1.0  0.1291
  H  H72  1  0.891500  0.440200  0.167200  1.0  0.126
  H  H73  1  0.697100  0.632100  0.085900  1.0  0.1118
  H  H74  1  0.580600  0.859800  0.145200  1.0  0.1127
  H  H75  1  0.741900  0.158900  0.068600  1.0  0.1112
  H  H76  1  0.843300  0.482300  0.084100  1.0  0.1041
  H  H77  1  0.638100  0.633400  0.878700  1.0  0.1493
  H  H78  1  0.576600  0.561500  0.842400  1.0  0.1476
  H  H79  1  0.559000  0.674000  0.872600  1.0  0.1457
  H  H80  1  0.610100  0.448200  0.111900  1.0  0.0994
  H  H81  1  0.584600  0.082300  0.106300  1.0  0.1145
  H  H82  1  0.623300  0.444200  0.196500  1.0  0.1348
  H  H83  1  0.594000  0.079000  0.190900  1.0  0.1206
  H  H84  1  0.914600  0.054300  0.860800  1.0  0.1158
  H  H85  1  0.790400  0.351800  0.831700  1.0  0.1075
  H  H86  1  0.904100  0.724000  0.873800  1.0  0.1167
  H  H87  1  0.733900  0.562800  0.786200  1.0  0.1019
  H  H88  1  0.887000  0.006300  0.777000  1.0  0.1331
  H  H89  1  0.764200  0.306700  0.747800  1.0  0.1184
  H  H90  1  0.939500  0.789300  0.804600  1.0  0.142
  H  H91  1  0.767700  0.628700  0.716500  1.0  0.1222
  H  H92  1  0.532200  0.179100  0.298900  1.0  0.1118
  H  H93  1  0.721800  0.112400  0.272200  1.0  0.1224
  H  H94  1  0.053600  0.512800  0.152500  1.0  0.0972
  H  H95  1  0.906500  0.761300  0.091000  1.0  0.1189
  H  H96  1  0.548800  0.015700  0.353900  1.0  0.1074
  H  H97  1  0.735800  0.943300  0.324200  1.0  0.0906
  H  H98  1  0.060500  0.596100  0.230600  1.0  0.1335
  H  H99  1  0.919700  0.855200  0.167100  1.0  0.138
  H  H100  1  0.799800  0.293200  0.639800  1.0  0.1268
  H  H101  1  0.682300  0.066300  0.698900  1.0  0.1185
  H  H102  1  0.791600  0.884100  0.651900  1.0  0.1294
  H  H103  1  0.891500  0.559800  0.667200  1.0  0.1267
  H  H104  1  0.697100  0.367900  0.585900  1.0  0.1119
  H  H105  1  0.580600  0.140200  0.645200  1.0  0.1128
  H  H106  1  0.741900  0.841100  0.568600  1.0  0.1127
  H  H107  1  0.843300  0.517700  0.584100  1.0  0.104
  H  H108  1  0.361900  0.633400  0.621300  1.0  0.1512
  H  H109  1  0.423400  0.561500  0.657600  1.0  0.1479
  H  H110  1  0.441000  0.674000  0.627400  1.0  0.1447
  H  H111  1  0.389900  0.448200  0.388100  1.0  0.1
  H  H112  1  0.415400  0.082300  0.393700  1.0  0.1148
  H  H113  1  0.376700  0.444200  0.303500  1.0  0.1349
  H  H114  1  0.406000  0.079000  0.309100  1.0  0.12
  H  H115  1  0.085400  0.054300  0.639200  1.0  0.1152
  H  H116  1  0.209600  0.351800  0.668300  1.0  0.1071
  H  H117  1  0.095900  0.724000  0.626200  1.0  0.1167
  H  H118  1  0.266100  0.562800  0.713800  1.0  0.102
  H  H119  1  0.113000  0.006300  0.723000  1.0  0.1331
  H  H120  1  0.235800  0.306700  0.752200  1.0  0.1192
  H  H121  1  0.060500  0.789300  0.695400  1.0  0.1426
  H  H122  1  0.232300  0.628700  0.783500  1.0  0.1227
  H  H123  1  0.467800  0.179100  0.201100  1.0  0.1118
  H  H124  1  0.278200  0.112400  0.227800  1.0  0.1227
  H  H125  1  0.946400  0.512800  0.347500  1.0  0.0971
  H  H126  1  0.093500  0.761300  0.409000  1.0  0.1188
  H  H127  1  0.451200  0.015700  0.146100  1.0  0.1073
  H  H128  1  0.264200  0.943300  0.175800  1.0  0.0908
  H  H129  1  0.939500  0.596100  0.269400  1.0  0.1327
  H  H130  1  0.080300  0.855200  0.332900  1.0  0.1372
  H  H131  1  0.200200  0.293200  0.860200  1.0  0.1264
  H  H132  1  0.317700  0.066300  0.801100  1.0  0.118
  H  H133  1  0.208400  0.884100  0.848100  1.0  0.1298
  H  H134  1  0.108500  0.559800  0.832800  1.0  0.1266
  H  H135  1  0.302900  0.367900  0.914100  1.0  0.112
  H  H136  1  0.419400  0.140200  0.854800  1.0  0.1132
  H  H137  1  0.258100  0.841100  0.931400  1.0  0.1124
  H  H138  1  0.156700  0.517700  0.915900  1.0  0.1045
  C  C139  1  0.415400  0.479300  0.085020  1.0  0.8021
  C  C140  1  0.408480  0.733000  0.953820  1.0  0.6474
  C  C141  1  0.409900  0.395000  0.126550  1.0  -0.4259
  C  C142  1  0.403300  0.734400  0.899770  1.0  -0.1213
  C  C143  1  0.392280  0.626300  0.872200  1.0  -0.0175
  C  C144  1  0.408050  0.844800  0.875610  1.0  -0.0168
  C  C145  1  0.384870  0.628400  0.821720  1.0  -0.2031
  C  C146  1  0.401870  0.847100  0.824990  1.0  -0.1933
  C  C147  1  0.126230  0.761100  0.090850  1.0  0.7068
  C  C148  1  0.202360  0.419700  0.117940  1.0  0.7057
  C  C149  1  0.389530  0.738600  0.797930  1.0  0.3049
  C  C150  1  0.145160  0.792800  0.144940  1.0  -0.107
  C  C151  1  0.184440  0.365600  0.162710  1.0  -0.1541
  C  C152  1  0.024330  0.426800  0.935760  1.0  0.7201
  C  C153  1  0.116120  0.895300  0.161880  1.0  -0.0466
  C  C154  1  0.190010  0.717500  0.179210  1.0  -0.0379
  C  C155  1  0.123050  0.296100  0.157800  1.0  -0.07
  C  C156  1  0.224550  0.391900  0.210020  1.0  -0.0222
  C  C157  1  0.374500  0.838600  0.719080  1.0  0.3113
  C  C158  1  0.020950  0.371200  0.886180  1.0  -0.1392
  C  C159  1  0.132090  0.923900  0.211980  1.0  -0.2086
  C  C160  1  0.205830  0.744300  0.229390  1.0  -0.1571
  C  C161  1  0.101880  0.256500  0.199110  1.0  -0.2443
  C  C162  1  0.204560  0.352700  0.251960  1.0  -0.1838
  C  C163  1  0.426490  0.867500  0.695430  1.0  -0.1981
  C  C164  1  0.313300  0.908100  0.711810  1.0  -0.2
  C  C165  1  0.974340  0.419800  0.844270  1.0  -0.0139
  C  C166  1  0.061230  0.270100  0.881250  1.0  -0.0445
  C  C167  1  0.176680  0.847400  0.245200  1.0  0.2801
  C  C168  1  0.142900  0.285500  0.246140  1.0  0.2897
  C  C169  1  0.416950  0.966300  0.663150  1.0  -0.0073
  C  C170  1  0.304970  0.008800  0.680450  1.0  0.0127
  C  C171  1  0.968970  0.368800  0.797590  1.0  -0.1711
  C  C172  1  0.054320  0.215000  0.835650  1.0  -0.2253
  C  C173  1  0.356390  0.038900  0.656060  1.0  -0.1133
  C  C174  1  0.008190  0.265100  0.793900  1.0  0.3059
  C  C175  1  0.250010  0.829000  0.326680  1.0  0.295
  C  C176  1  0.153260  0.272700  0.333430  1.0  0.2906
  C  C177  1  0.347050  0.146200  0.620910  1.0  0.7433
  C  C178  1  0.244360  0.738300  0.359490  1.0  -0.2306
  C  C179  1  0.314600  0.873600  0.324280  1.0  -0.2138
  C  C180  1  0.197800  0.189200  0.361940  1.0  -0.2121
  C  C181  1  0.138000  0.383300  0.352910  1.0  -0.2191
  C  C182  1  0.305900  0.694100  0.391680  1.0  -0.0089
  C  C183  1  0.375320  0.829400  0.356410  1.0  -0.0282
  C  C184  1  0.227330  0.215000  0.411840  1.0  -0.0161
  C  C185  1  0.166900  0.408200  0.402540  1.0  0.0285
  C  C186  1  0.371440  0.741100  0.390760  1.0  -0.1473
  C  C187  1  0.211180  0.324100  0.432680  1.0  -0.1443
  C  C188  1  0.437890  0.695500  0.426440  1.0  0.7063
  C  C189  1  0.237510  0.346600  0.486950  1.0  0.6915
  C  C190  1  0.584600  0.479300  0.414980  1.0  0.8021
  C  C191  1  0.591520  0.733000  0.546180  1.0  0.6462
  C  C192  1  0.590100  0.395000  0.373450  1.0  -0.4271
  C  C193  1  0.596700  0.734400  0.600230  1.0  -0.1205
  C  C194  1  0.607720  0.626300  0.627800  1.0  -0.0172
  C  C195  1  0.591950  0.844800  0.624390  1.0  -0.0165
  C  C196  1  0.615130  0.628400  0.678280  1.0  -0.202
  C  C197  1  0.598130  0.847100  0.675010  1.0  -0.1931
  C  C198  1  0.873770  0.761100  0.409150  1.0  0.7011
  C  C199  1  0.797640  0.419700  0.382060  1.0  0.7056
  C  C200  1  0.610470  0.738600  0.702070  1.0  0.3049
  C  C201  1  0.854840  0.792800  0.355060  1.0  -0.1077
  C  C202  1  0.815560  0.365600  0.337290  1.0  -0.1525
  C  C203  1  0.975670  0.426800  0.564240  1.0  0.7201
  C  C204  1  0.883880  0.895300  0.338120  1.0  -0.0483
  C  C205  1  0.809990  0.717500  0.320790  1.0  -0.0375
  C  C206  1  0.876950  0.296100  0.342200  1.0  -0.0693
  C  C207  1  0.775450  0.391900  0.289980  1.0  -0.0199
  C  C208  1  0.625500  0.838600  0.780920  1.0  0.3118
  C  C209  1  0.979050  0.371200  0.613820  1.0  -0.1377
  C  C210  1  0.867910  0.923900  0.288020  1.0  -0.2102
  C  C211  1  0.794170  0.744300  0.270610  1.0  -0.1563
  C  C212  1  0.898120  0.256500  0.300890  1.0  -0.244
  C  C213  1  0.795440  0.352700  0.248040  1.0  -0.1828
  C  C214  1  0.573510  0.867500  0.804570  1.0  -0.1965
  C  C215  1  0.686700  0.908100  0.788190  1.0  -0.2011
  C  C216  1  0.025660  0.419800  0.655730  1.0  -0.0148
  C  C217  1  0.938770  0.270100  0.618750  1.0  -0.0439
  C  C218  1  0.823320  0.847400  0.254800  1.0  0.2811
  C  C219  1  0.857100  0.285500  0.253860  1.0  0.2914
  C  C220  1  0.583050  0.966300  0.836850  1.0  -0.0084
  C  C221  1  0.695030  0.008800  0.819550  1.0  0.0109
  C  C222  1  0.031030  0.368800  0.702410  1.0  -0.1725
  C  C223  1  0.945680  0.215000  0.664350  1.0  -0.2246
  C  C224  1  0.643610  0.038900  0.843940  1.0  -0.1146
  C  C225  1  0.991810  0.265100  0.706100  1.0  0.3053
  C  C226  1  0.749990  0.829000  0.173320  1.0  0.2967
  C  C227  1  0.846740  0.272700  0.166570  1.0  0.2914
  C  C228  1  0.652950  0.146200  0.879090  1.0  0.743
  C  C229  1  0.755640  0.738300  0.140510  1.0  -0.2293
  C  C230  1  0.685400  0.873600  0.175720  1.0  -0.2139
  C  C231  1  0.802200  0.189200  0.138060  1.0  -0.2119
  C  C232  1  0.862000  0.383300  0.147090  1.0  -0.2183
  C  C233  1  0.694100  0.694100  0.108320  1.0  -0.0084
  C  C234  1  0.624680  0.829400  0.143590  1.0  -0.0289
  C  C235  1  0.772670  0.215000  0.088160  1.0  -0.016
  C  C236  1  0.833100  0.408200  0.097460  1.0  0.0268
  C  C237  1  0.628560  0.741100  0.109240  1.0  -0.147
  C  C238  1  0.788820  0.324100  0.067320  1.0  -0.1437
  C  C239  1  0.562110  0.695500  0.073560  1.0  0.7076
  C  C240  1  0.762490  0.346600  0.013050  1.0  0.6902
  C  C241  1  0.584600  0.520700  0.914980  1.0  0.802
  C  C242  1  0.591520  0.267000  0.046180  1.0  0.6469
  C  C243  1  0.590100  0.605000  0.873450  1.0  -0.427
  C  C244  1  0.596700  0.265600  0.100230  1.0  -0.1207
  C  C245  1  0.607720  0.373700  0.127800  1.0  -0.0179
  C  C246  1  0.591950  0.155200  0.124390  1.0  -0.0157
  C  C247  1  0.615130  0.371600  0.178280  1.0  -0.2019
  C  C248  1  0.598130  0.152900  0.175010  1.0  -0.1938
  C  C249  1  0.873770  0.238900  0.909150  1.0  0.7009
  C  C250  1  0.797640  0.580300  0.882060  1.0  0.7054
  C  C251  1  0.610470  0.261400  0.202070  1.0  0.3045
  C  C252  1  0.854840  0.207200  0.855060  1.0  -0.1087
  C  C253  1  0.815560  0.634400  0.837290  1.0  -0.1526
  C  C254  1  0.975670  0.573200  0.064240  1.0  0.7195
  C  C255  1  0.883880  0.104700  0.838120  1.0  -0.0484
  C  C256  1  0.809990  0.282500  0.820790  1.0  -0.0372
  C  C257  1  0.876950  0.703900  0.842200  1.0  -0.069
  C  C258  1  0.775450  0.608100  0.789980  1.0  -0.0203
  C  C259  1  0.625500  0.161400  0.280920  1.0  0.312
  C  C260  1  0.979050  0.628800  0.113820  1.0  -0.1389
  C  C261  1  0.867910  0.076100  0.788020  1.0  -0.2106
  C  C262  1  0.794170  0.255700  0.770610  1.0  -0.1574
  C  C263  1  0.898120  0.743500  0.800890  1.0  -0.245
  C  C264  1  0.795440  0.647300  0.748040  1.0  -0.1826
  C  C265  1  0.573510  0.132500  0.304570  1.0  -0.196
  C  C266  1  0.686700  0.091900  0.288190  1.0  -0.2008
  C  C267  1  0.025660  0.580200  0.155730  1.0  -0.0145
  C  C268  1  0.938770  0.729900  0.118750  1.0  -0.0437
  C  C269  1  0.823320  0.152600  0.754800  1.0  0.2806
  C  C270  1  0.857100  0.714500  0.753860  1.0  0.2916
  C  C271  1  0.583050  0.033700  0.336850  1.0  -0.0082
  C  C272  1  0.695030  0.991200  0.319550  1.0  0.0102
  C  C273  1  0.031030  0.631200  0.202410  1.0  -0.171
  C  C274  1  0.945680  0.785000  0.164350  1.0  -0.2255
  C  C275  1  0.643610  0.961100  0.343940  1.0  -0.1142
  C  C276  1  0.991810  0.734900  0.206100  1.0  0.3051
  C  C277  1  0.749990  0.171000  0.673320  1.0  0.2956
  C  C278  1  0.846740  0.727300  0.666570  1.0  0.2913
  C  C279  1  0.652950  0.853800  0.379090  1.0  0.7428
  C  C280  1  0.755640  0.261700  0.640510  1.0  -0.2298
  C  C281  1  0.685400  0.126400  0.675720  1.0  -0.2131
  C  C282  1  0.802200  0.810800  0.638060  1.0  -0.2105
  C  C283  1  0.862000  0.616700  0.647090  1.0  -0.2185
  C  C284  1  0.694100  0.305900  0.608320  1.0  -0.0088
  C  C285  1  0.624680  0.170600  0.643590  1.0  -0.0293
  C  C286  1  0.772670  0.785000  0.588160  1.0  -0.0159
  C  C287  1  0.833100  0.591800  0.597460  1.0  0.0269
  C  C288  1  0.628560  0.258900  0.609240  1.0  -0.1471
  C  C289  1  0.788820  0.675900  0.567320  1.0  -0.1432
  C  C290  1  0.562110  0.304500  0.573560  1.0  0.7073
  C  C291  1  0.762490  0.653400  0.513050  1.0  0.6896
  C  C292  1  0.415400  0.520700  0.585020  1.0  0.8015
  C  C293  1  0.408480  0.267000  0.453820  1.0  0.6489
  C  C294  1  0.409900  0.605000  0.626550  1.0  -0.4259
  C  C295  1  0.403300  0.265600  0.399770  1.0  -0.1216
  C  C296  1  0.392280  0.373700  0.372200  1.0  -0.0178
  C  C297  1  0.408050  0.155200  0.375610  1.0  -0.0164
  C  C298  1  0.384870  0.371600  0.321720  1.0  -0.203
  C  C299  1  0.401870  0.152900  0.324990  1.0  -0.1938
  C  C300  1  0.126230  0.238900  0.590850  1.0  0.7027
  C  C301  1  0.202360  0.580300  0.617940  1.0  0.7078
  C  C302  1  0.389530  0.261400  0.297930  1.0  0.3052
  C  C303  1  0.145160  0.207200  0.644940  1.0  -0.1071
  C  C304  1  0.184440  0.634400  0.662710  1.0  -0.1541
  C  C305  1  0.024330  0.573200  0.435760  1.0  0.7188
  C  C306  1  0.116120  0.104700  0.661880  1.0  -0.0466
  C  C307  1  0.190010  0.282500  0.679210  1.0  -0.0384
  C  C308  1  0.123050  0.703900  0.657800  1.0  -0.0692
  C  C309  1  0.224550  0.608100  0.710020  1.0  -0.0223
  C  C310  1  0.374500  0.161400  0.219080  1.0  0.3116
  C  C311  1  0.020950  0.628800  0.386180  1.0  -0.1382
  C  C312  1  0.132090  0.076100  0.711980  1.0  -0.2084
  C  C313  1  0.205830  0.255700  0.729390  1.0  -0.1588
  C  C314  1  0.101880  0.743500  0.699110  1.0  -0.2447
  C  C315  1  0.204560  0.647300  0.751960  1.0  -0.1834
  C  C316  1  0.426490  0.132500  0.195430  1.0  -0.1977
  C  C317  1  0.313300  0.091900  0.211810  1.0  -0.2002
  C  C318  1  0.974340  0.580200  0.344270  1.0  -0.0132
  C  C319  1  0.061230  0.729900  0.381250  1.0  -0.0457
  C  C320  1  0.176680  0.152600  0.745200  1.0  0.2804
  C  C321  1  0.142900  0.714500  0.746140  1.0  0.2896
  C  C322  1  0.416950  0.033700  0.163150  1.0  -0.0081
  C  C323  1  0.304970  0.991200  0.180450  1.0  0.012
  C  C324  1  0.968970  0.631200  0.297590  1.0  -0.1704
  C  C325  1  0.054320  0.785000  0.335650  1.0  -0.2258
  C  C326  1  0.356390  0.961100  0.156060  1.0  -0.1147
  C  C327  1  0.008190  0.734900  0.293900  1.0  0.3058
  C  C328  1  0.250010  0.171000  0.826680  1.0  0.2947
  C  C329  1  0.153260  0.727300  0.833430  1.0  0.2908
  C  C330  1  0.347050  0.853800  0.120910  1.0  0.7431
  C  C331  1  0.244360  0.261700  0.859490  1.0  -0.231
  C  C332  1  0.314600  0.126400  0.824280  1.0  -0.2136
  C  C333  1  0.197800  0.810800  0.861940  1.0  -0.21
  C  C334  1  0.138000  0.616700  0.852910  1.0  -0.2196
  C  C335  1  0.305900  0.305900  0.891680  1.0  -0.0078
  C  C336  1  0.375320  0.170600  0.856410  1.0  -0.0287
  C  C337  1  0.227330  0.785000  0.911840  1.0  -0.0168
  C  C338  1  0.166900  0.591800  0.902540  1.0  0.0281
  C  C339  1  0.371440  0.258900  0.890760  1.0  -0.1474
  C  C340  1  0.211180  0.675900  0.932680  1.0  -0.1444
  C  C341  1  0.437890  0.304500  0.926440  1.0  0.7068
  C  C342  1  0.237510  0.653400  0.986950  1.0  0.691
  O  O343  1  0.458260  0.453100  0.060630  1.0  -0.6036
  O  O344  1  0.416170  0.631510  0.977660  1.0  -0.6534
  O  O345  1  0.430490  0.622000  0.459370  1.0  -0.5903
  O  O346  1  0.375350  0.574300  0.076760  1.0  -0.6409
  O  O347  1  0.402090  0.829800  0.976790  1.0  -0.5512
  O  O348  1  0.495130  0.737400  0.420850  1.0  -0.5806
  O  O349  1  0.384880  0.146200  0.590290  1.0  -0.5997
  O  O350  1  0.279730  0.270800  0.513780  1.0  -0.6887
  O  O351  1  0.159960  0.669600  0.077400  1.0  -0.6693
  O  O352  1  0.257290  0.486200  0.125230  1.0  -0.5819
  O  O353  1  0.302690  0.227100  0.624450  1.0  -0.6059
  O  O354  1  0.216390  0.438500  0.507210  1.0  -0.6606
  O  O355  1  0.161140  0.398600  0.076160  1.0  -0.617
  O  O356  1  0.080190  0.410600  0.970060  1.0  -0.5742
  O  O357  1  0.972170  0.489600  0.940020  1.0  -0.6106
  O  O358  1  0.079370  0.819200  0.061740  1.0  -0.5179
  O  O359  1  0.384290  0.731900  0.747760  1.0  -0.2481
  O  O360  1  0.189070  0.878400  0.295000  1.0  -0.2544
  O  O361  1  0.118290  0.240600  0.284890  1.0  -0.2628
  O  O362  1  0.541740  0.453100  0.439370  1.0  -0.6043
  O  O363  1  0.583830  0.631510  0.522340  1.0  -0.6539
  O  O364  1  0.569510  0.622000  0.040630  1.0  -0.5885
  O  O365  1  0.624650  0.574300  0.423240  1.0  -0.6413
  O  O366  1  0.597910  0.829800  0.523210  1.0  -0.5503
  O  O367  1  0.504870  0.737400  0.079150  1.0  -0.5813
  O  O368  1  0.615120  0.146200  0.909710  1.0  -0.5993
  O  O369  1  0.720270  0.270800  0.986220  1.0  -0.6896
  O  O370  1  0.840040  0.669600  0.422600  1.0  -0.6695
  O  O371  1  0.742710  0.486200  0.374770  1.0  -0.5825
  O  O372  1  0.697310  0.227100  0.875550  1.0  -0.6058
  O  O373  1  0.783610  0.438500  0.992790  1.0  -0.6609
  O  O374  1  0.838860  0.398600  0.423840  1.0  -0.6187
  O  O375  1  0.919810  0.410600  0.529940  1.0  -0.5737
  O  O376  1  0.027830  0.489600  0.559980  1.0  -0.61
  O  O377  1  0.920630  0.819200  0.438260  1.0  -0.5161
  O  O378  1  0.615710  0.731900  0.752240  1.0  -0.2479
  O  O379  1  0.810930  0.878400  0.205000  1.0  -0.2523
  O  O380  1  0.881710  0.240600  0.215110  1.0  -0.2626
  O  O381  1  0.541740  0.546900  0.939370  1.0  -0.6043
  O  O382  1  0.583830  0.368490  0.022340  1.0  -0.6535
  O  O383  1  0.569510  0.378000  0.540630  1.0  -0.5888
  O  O384  1  0.624650  0.425700  0.923240  1.0  -0.6413
  O  O385  1  0.597910  0.170200  0.023210  1.0  -0.5522
  O  O386  1  0.504870  0.262600  0.579150  1.0  -0.5813
  O  O387  1  0.615120  0.853800  0.409710  1.0  -0.6001
  O  O388  1  0.720270  0.729200  0.486220  1.0  -0.6887
  O  O389  1  0.840040  0.330400  0.922600  1.0  -0.6688
  O  O390  1  0.742710  0.513800  0.874770  1.0  -0.582
  O  O391  1  0.697310  0.772900  0.375550  1.0  -0.606
  O  O392  1  0.783610  0.561500  0.492790  1.0  -0.6598
  O  O393  1  0.838860  0.601400  0.923840  1.0  -0.6154
  O  O394  1  0.919810  0.589400  0.029940  1.0  -0.5732
  O  O395  1  0.027830  0.510400  0.059980  1.0  -0.6109
  O  O396  1  0.920630  0.180800  0.938260  1.0  -0.5156
  O  O397  1  0.615710  0.268100  0.252240  1.0  -0.2456
  O  O398  1  0.810930  0.121600  0.705000  1.0  -0.2521
  O  O399  1  0.881710  0.759400  0.715110  1.0  -0.2631
  O  O400  1  0.458260  0.546900  0.560630  1.0  -0.6029
  O  O401  1  0.416170  0.368490  0.477660  1.0  -0.6535
  O  O402  1  0.430490  0.378000  0.959370  1.0  -0.5906
  O  O403  1  0.375350  0.425700  0.576760  1.0  -0.6409
  O  O404  1  0.402090  0.170200  0.476790  1.0  -0.5531
  O  O405  1  0.495130  0.262600  0.920850  1.0  -0.581
  O  O406  1  0.384880  0.853800  0.090290  1.0  -0.6006
  O  O407  1  0.279730  0.729200  0.013780  1.0  -0.6898
  O  O408  1  0.159960  0.330400  0.577400  1.0  -0.6679
  O  O409  1  0.257290  0.513800  0.625230  1.0  -0.5819
  O  O410  1  0.302690  0.772900  0.124450  1.0  -0.6057
  O  O411  1  0.216390  0.561500  0.007210  1.0  -0.6594
  O  O412  1  0.161140  0.601400  0.576160  1.0  -0.6171
  O  O413  1  0.080190  0.589400  0.470060  1.0  -0.5736
  O  O414  1  0.972170  0.510400  0.440020  1.0  -0.611
  O  O415  1  0.079370  0.180800  0.561740  1.0  -0.5173
  O  O416  1  0.384290  0.268100  0.247760  1.0  -0.2461
  O  O417  1  0.189070  0.121600  0.795000  1.0  -0.255
  O  O418  1  0.118290  0.759400  0.784890  1.0  -0.2626
  O  O419  1  0.000000  0.201500  0.750000  1.0  -0.2593
  O  O420  1  0.000000  0.798500  0.250000  1.0  -0.2583
