# generated using pymatgen
data_Cu3H6C14I(NO4)2
_symmetry_space_group_name_H-M   'P 1'
_cell_length_a   17.99380000
_cell_length_b   17.99380000
_cell_length_c   22.18290000
_cell_angle_alpha   90.00000000
_cell_angle_beta   90.00000000
_cell_angle_gamma   90.00000000
_symmetry_Int_Tables_number   1
_chemical_formula_structural   Cu3H6C14I(NO4)2
_chemical_formula_sum   'Cu24 H48 C112 I8 N16 O64'
_cell_volume   7182.30922943
_cell_formula_units_Z   8
loop_
 _symmetry_equiv_pos_site_id
 _symmetry_equiv_pos_as_xyz
  1  'x, y, z'
loop_
 _atom_site_type_symbol
 _atom_site_label
 _atom_site_symmetry_multiplicity
 _atom_site_fract_x
 _atom_site_fract_y
 _atom_site_fract_z
 _atom_site_occupancy
 _atom_site_charge
  Cu  Cu1  1  0.289570  0.289570  0.710550  1.0  0.9006
  Cu  Cu2  1  0.789570  0.789570  0.210550  1.0  0.9006
  Cu  Cu3  1  0.710430  0.710430  0.710550  1.0  0.9023
  Cu  Cu4  1  0.210430  0.210430  0.210550  1.0  0.9023
  Cu  Cu5  1  0.710430  0.289570  0.710550  1.0  0.9015
  Cu  Cu6  1  0.210430  0.789570  0.210550  1.0  0.9015
  Cu  Cu7  1  0.289570  0.710430  0.710550  1.0  0.901
  Cu  Cu8  1  0.789570  0.210430  0.210550  1.0  0.901
  Cu  Cu9  1  0.710430  0.289570  0.289450  1.0  0.9004
  Cu  Cu10  1  0.210430  0.789570  0.789450  1.0  0.9004
  Cu  Cu11  1  0.289570  0.710430  0.289450  1.0  0.9012
  Cu  Cu12  1  0.789570  0.210430  0.789450  1.0  0.9012
  Cu  Cu13  1  0.289570  0.289570  0.289450  1.0  0.9011
  Cu  Cu14  1  0.789570  0.789570  0.789450  1.0  0.9011
  Cu  Cu15  1  0.710430  0.710430  0.289450  1.0  0.9015
  Cu  Cu16  1  0.210430  0.210430  0.789450  1.0  0.9015
  Cu  Cu17  1  0.074040  0.500000  0.000000  1.0  0.2446
  Cu  Cu18  1  0.574040  0.000000  0.500000  1.0  0.2446
  Cu  Cu19  1  0.925960  0.500000  0.000000  1.0  0.2441
  Cu  Cu20  1  0.425960  0.000000  0.500000  1.0  0.2441
  Cu  Cu21  1  0.500000  0.074040  0.000000  1.0  0.2418
  Cu  Cu22  1  0.000000  0.574040  0.500000  1.0  0.2418
  Cu  Cu23  1  0.500000  0.925960  0.000000  1.0  0.2421
  Cu  Cu24  1  0.000000  0.425960  0.500000  1.0  0.2421
  H  H25  1  0.139700  0.390400  0.912400  1.0  0.0997
  H  H26  1  0.639700  0.890400  0.412400  1.0  0.0997
  H  H27  1  0.860300  0.609600  0.912400  1.0  0.0991
  H  H28  1  0.360300  0.109600  0.412400  1.0  0.0991
  H  H29  1  0.609600  0.139700  0.912400  1.0  0.0984
  H  H30  1  0.109600  0.639700  0.412400  1.0  0.0984
  H  H31  1  0.390400  0.860300  0.912400  1.0  0.0983
  H  H32  1  0.890400  0.360300  0.412400  1.0  0.0983
  H  H33  1  0.860300  0.390400  0.087600  1.0  0.0987
  H  H34  1  0.360300  0.890400  0.587600  1.0  0.0987
  H  H35  1  0.139700  0.609600  0.087600  1.0  0.0983
  H  H36  1  0.639700  0.109600  0.587600  1.0  0.0983
  H  H37  1  0.390400  0.139700  0.087600  1.0  0.0981
  H  H38  1  0.890400  0.639700  0.587600  1.0  0.0981
  H  H39  1  0.609600  0.860300  0.087600  1.0  0.0974
  H  H40  1  0.109600  0.360300  0.587600  1.0  0.0974
  H  H41  1  0.860300  0.609600  0.087600  1.0  0.0981
  H  H42  1  0.360300  0.109600  0.587600  1.0  0.0981
  H  H43  1  0.139700  0.390400  0.087600  1.0  0.0991
  H  H44  1  0.639700  0.890400  0.587600  1.0  0.0991
  H  H45  1  0.390400  0.860300  0.087600  1.0  0.0976
  H  H46  1  0.890400  0.360300  0.587600  1.0  0.0976
  H  H47  1  0.609600  0.139700  0.087600  1.0  0.0976
  H  H48  1  0.109600  0.639700  0.587600  1.0  0.0976
  H  H49  1  0.139700  0.609600  0.912400  1.0  0.0992
  H  H50  1  0.639700  0.109600  0.412400  1.0  0.0992
  H  H51  1  0.860300  0.390400  0.912400  1.0  0.0994
  H  H52  1  0.360300  0.890400  0.412400  1.0  0.0994
  H  H53  1  0.609600  0.860300  0.912400  1.0  0.0982
  H  H54  1  0.109600  0.360300  0.412400  1.0  0.0982
  H  H55  1  0.390400  0.139700  0.912400  1.0  0.0987
  H  H56  1  0.890400  0.639700  0.412400  1.0  0.0987
  H  H57  1  0.254200  0.500000  0.784300  1.0  0.1183
  H  H58  1  0.754200  0.000000  0.284300  1.0  0.1183
  H  H59  1  0.745800  0.500000  0.784300  1.0  0.1183
  H  H60  1  0.245800  0.000000  0.284300  1.0  0.1183
  H  H61  1  0.500000  0.254200  0.784300  1.0  0.118
  H  H62  1  0.000000  0.754200  0.284300  1.0  0.118
  H  H63  1  0.500000  0.745800  0.784300  1.0  0.1179
  H  H64  1  0.000000  0.245800  0.284300  1.0  0.1179
  H  H65  1  0.745800  0.500000  0.215700  1.0  0.1185
  H  H66  1  0.245800  0.000000  0.715700  1.0  0.1185
  H  H67  1  0.254200  0.500000  0.215700  1.0  0.1187
  H  H68  1  0.754200  0.000000  0.715700  1.0  0.1187
  H  H69  1  0.500000  0.254200  0.215700  1.0  0.1185
  H  H70  1  0.000000  0.754200  0.715700  1.0  0.1185
  H  H71  1  0.500000  0.745800  0.215700  1.0  0.1183
  H  H72  1  0.000000  0.245800  0.715700  1.0  0.1183
  C  C73  1  0.156200  0.436000  0.895500  1.0  0.1715
  C  C74  1  0.200600  0.434200  0.844200  1.0  -0.1514
  C  C75  1  0.219500  0.362400  0.813500  1.0  0.6806
  C  C76  1  0.656200  0.936000  0.395500  1.0  0.1715
  C  C77  1  0.700600  0.934200  0.344200  1.0  -0.1514
  C  C78  1  0.719500  0.862400  0.313500  1.0  0.6806
  C  C79  1  0.843800  0.564000  0.895500  1.0  0.1708
  C  C80  1  0.799400  0.565800  0.844200  1.0  -0.1517
  C  C81  1  0.780500  0.637600  0.813500  1.0  0.6805
  C  C82  1  0.343800  0.064000  0.395500  1.0  0.1708
  C  C83  1  0.299400  0.065800  0.344200  1.0  -0.1517
  C  C84  1  0.280500  0.137600  0.313500  1.0  0.6805
  C  C85  1  0.564000  0.156200  0.895500  1.0  0.1689
  C  C86  1  0.565800  0.200600  0.844200  1.0  -0.1515
  C  C87  1  0.637600  0.219500  0.813500  1.0  0.6791
  C  C88  1  0.064000  0.656200  0.395500  1.0  0.1689
  C  C89  1  0.065800  0.700600  0.344200  1.0  -0.1515
  C  C90  1  0.137600  0.719500  0.313500  1.0  0.6791
  C  C91  1  0.436000  0.843800  0.895500  1.0  0.1691
  C  C92  1  0.434200  0.799400  0.844200  1.0  -0.1522
  C  C93  1  0.362400  0.780500  0.813500  1.0  0.6786
  C  C94  1  0.936000  0.343800  0.395500  1.0  0.1691
  C  C95  1  0.934200  0.299400  0.344200  1.0  -0.1522
  C  C96  1  0.862400  0.280500  0.313500  1.0  0.6786
  C  C97  1  0.843800  0.436000  0.104500  1.0  0.171
  C  C98  1  0.799400  0.434200  0.155800  1.0  -0.1516
  C  C99  1  0.780500  0.362400  0.186500  1.0  0.6803
  C  C100  1  0.343800  0.936000  0.604500  1.0  0.171
  C  C101  1  0.299400  0.934200  0.655800  1.0  -0.1516
  C  C102  1  0.280500  0.862400  0.686500  1.0  0.6803
  C  C103  1  0.156200  0.564000  0.104500  1.0  0.1715
  C  C104  1  0.200600  0.565800  0.155800  1.0  -0.1519
  C  C105  1  0.219500  0.637600  0.186500  1.0  0.6805
  C  C106  1  0.656200  0.064000  0.604500  1.0  0.1715
  C  C107  1  0.700600  0.065800  0.655800  1.0  -0.1519
  C  C108  1  0.719500  0.137600  0.686500  1.0  0.6805
  C  C109  1  0.436000  0.156200  0.104500  1.0  0.1692
  C  C110  1  0.434200  0.200600  0.155800  1.0  -0.1522
  C  C111  1  0.362400  0.219500  0.186500  1.0  0.6788
  C  C112  1  0.936000  0.656200  0.604500  1.0  0.1692
  C  C113  1  0.934200  0.700600  0.655800  1.0  -0.1522
  C  C114  1  0.862400  0.719500  0.686500  1.0  0.6788
  C  C115  1  0.564000  0.843800  0.104500  1.0  0.1691
  C  C116  1  0.565800  0.799400  0.155800  1.0  -0.1515
  C  C117  1  0.637600  0.780500  0.186500  1.0  0.6788
  C  C118  1  0.064000  0.343800  0.604500  1.0  0.1691
  C  C119  1  0.065800  0.299400  0.655800  1.0  -0.1515
  C  C120  1  0.137600  0.280500  0.686500  1.0  0.6788
  C  C121  1  0.843800  0.564000  0.104500  1.0  0.1709
  C  C122  1  0.799400  0.565800  0.155800  1.0  -0.1517
  C  C123  1  0.780500  0.637600  0.186500  1.0  0.6803
  C  C124  1  0.343800  0.064000  0.604500  1.0  0.1709
  C  C125  1  0.299400  0.065800  0.655800  1.0  -0.1517
  C  C126  1  0.280500  0.137600  0.686500  1.0  0.6803
  C  C127  1  0.156200  0.436000  0.104500  1.0  0.1708
  C  C128  1  0.200600  0.434200  0.155800  1.0  -0.1515
  C  C129  1  0.219500  0.362400  0.186500  1.0  0.6805
  C  C130  1  0.656200  0.936000  0.604500  1.0  0.1708
  C  C131  1  0.700600  0.934200  0.655800  1.0  -0.1515
  C  C132  1  0.719500  0.862400  0.686500  1.0  0.6805
  C  C133  1  0.436000  0.843800  0.104500  1.0  0.169
  C  C134  1  0.434200  0.799400  0.155800  1.0  -0.1524
  C  C135  1  0.362400  0.780500  0.186500  1.0  0.6787
  C  C136  1  0.936000  0.343800  0.604500  1.0  0.169
  C  C137  1  0.934200  0.299400  0.655800  1.0  -0.1524
  C  C138  1  0.862400  0.280500  0.686500  1.0  0.6787
  C  C139  1  0.564000  0.156200  0.104500  1.0  0.1682
  C  C140  1  0.565800  0.200600  0.155800  1.0  -0.1515
  C  C141  1  0.637600  0.219500  0.186500  1.0  0.679
  C  C142  1  0.064000  0.656200  0.604500  1.0  0.1682
  C  C143  1  0.065800  0.700600  0.655800  1.0  -0.1515
  C  C144  1  0.137600  0.719500  0.686500  1.0  0.679
  C  C145  1  0.156200  0.564000  0.895500  1.0  0.1703
  C  C146  1  0.200600  0.565800  0.844200  1.0  -0.1519
  C  C147  1  0.219500  0.637600  0.813500  1.0  0.6806
  C  C148  1  0.656200  0.064000  0.395500  1.0  0.1703
  C  C149  1  0.700600  0.065800  0.344200  1.0  -0.1519
  C  C150  1  0.719500  0.137600  0.313500  1.0  0.6806
  C  C151  1  0.843800  0.436000  0.895500  1.0  0.1712
  C  C152  1  0.799400  0.434200  0.844200  1.0  -0.1515
  C  C153  1  0.780500  0.362400  0.813500  1.0  0.6804
  C  C154  1  0.343800  0.936000  0.395500  1.0  0.1712
  C  C155  1  0.299400  0.934200  0.344200  1.0  -0.1515
  C  C156  1  0.280500  0.862400  0.313500  1.0  0.6804
  C  C157  1  0.564000  0.843800  0.895500  1.0  0.1683
  C  C158  1  0.565800  0.799400  0.844200  1.0  -0.1514
  C  C159  1  0.637600  0.780500  0.813500  1.0  0.679
  C  C160  1  0.064000  0.343800  0.395500  1.0  0.1683
  C  C161  1  0.065800  0.299400  0.344200  1.0  -0.1514
  C  C162  1  0.137600  0.280500  0.313500  1.0  0.679
  C  C163  1  0.436000  0.156200  0.895500  1.0  0.1689
  C  C164  1  0.434200  0.200600  0.844200  1.0  -0.1521
  C  C165  1  0.362400  0.219500  0.813500  1.0  0.6787
  C  C166  1  0.936000  0.656200  0.395500  1.0  0.1689
  C  C167  1  0.934200  0.700600  0.344200  1.0  -0.1521
  C  C168  1  0.862400  0.719500  0.313500  1.0  0.6787
  C  C169  1  0.223200  0.500000  0.819000  1.0  0.0224
  C  C170  1  0.723200  0.000000  0.319000  1.0  0.0224
  C  C171  1  0.776800  0.500000  0.819000  1.0  0.0224
  C  C172  1  0.276800  0.000000  0.319000  1.0  0.0224
  C  C173  1  0.500000  0.223200  0.819000  1.0  0.0223
  C  C174  1  0.000000  0.723200  0.319000  1.0  0.0223
  C  C175  1  0.500000  0.776800  0.819000  1.0  0.0222
  C  C176  1  0.000000  0.276800  0.319000  1.0  0.0222
  C  C177  1  0.776800  0.500000  0.181000  1.0  0.0222
  C  C178  1  0.276800  0.000000  0.681000  1.0  0.0222
  C  C179  1  0.223200  0.500000  0.181000  1.0  0.022
  C  C180  1  0.723200  0.000000  0.681000  1.0  0.022
  C  C181  1  0.500000  0.223200  0.181000  1.0  0.0216
  C  C182  1  0.000000  0.723200  0.681000  1.0  0.0216
  C  C183  1  0.500000  0.776800  0.181000  1.0  0.0222
  C  C184  1  0.000000  0.276800  0.681000  1.0  0.0222
  I  I185  1  0.000000  0.373040  0.000000  1.0  -0.3121
  I  I186  1  0.500000  0.873040  0.500000  1.0  -0.3121
  I  I187  1  0.000000  0.626960  0.000000  1.0  -0.3134
  I  I188  1  0.500000  0.126960  0.500000  1.0  -0.3134
  I  I189  1  0.626960  0.000000  0.000000  1.0  -0.3113
  I  I190  1  0.126960  0.500000  0.500000  1.0  -0.3113
  I  I191  1  0.373040  0.000000  0.000000  1.0  -0.3106
  I  I192  1  0.873040  0.500000  0.500000  1.0  -0.3106
  N  N193  1  0.135700  0.500000  0.921900  1.0  -0.3189
  N  N194  1  0.635700  0.000000  0.421900  1.0  -0.3189
  N  N195  1  0.864300  0.500000  0.921900  1.0  -0.3173
  N  N196  1  0.364300  0.000000  0.421900  1.0  -0.3173
  N  N197  1  0.500000  0.135700  0.921900  1.0  -0.3186
  N  N198  1  0.000000  0.635700  0.421900  1.0  -0.3186
  N  N199  1  0.500000  0.864300  0.921900  1.0  -0.3186
  N  N200  1  0.000000  0.364300  0.421900  1.0  -0.3186
  N  N201  1  0.864300  0.500000  0.078100  1.0  -0.3176
  N  N202  1  0.364300  0.000000  0.578100  1.0  -0.3176
  N  N203  1  0.135700  0.500000  0.078100  1.0  -0.3184
  N  N204  1  0.635700  0.000000  0.578100  1.0  -0.3184
  N  N205  1  0.500000  0.135700  0.078100  1.0  -0.3188
  N  N206  1  0.000000  0.635700  0.578100  1.0  -0.3188
  N  N207  1  0.500000  0.864300  0.078100  1.0  -0.3184
  N  N208  1  0.000000  0.364300  0.578100  1.0  -0.3184
  O  O209  1  0.259500  0.368000  0.766600  1.0  -0.5874
  O  O210  1  0.193500  0.302970  0.834930  1.0  -0.5537
  O  O211  1  0.759500  0.868000  0.266600  1.0  -0.5874
  O  O212  1  0.693500  0.802970  0.334930  1.0  -0.5537
  O  O213  1  0.740500  0.632000  0.766600  1.0  -0.5874
  O  O214  1  0.806500  0.697030  0.834930  1.0  -0.5534
  O  O215  1  0.240500  0.132000  0.266600  1.0  -0.5874
  O  O216  1  0.306500  0.197030  0.334930  1.0  -0.5534
  O  O217  1  0.632000  0.259500  0.766600  1.0  -0.5872
  O  O218  1  0.697030  0.193500  0.834930  1.0  -0.5536
  O  O219  1  0.132000  0.759500  0.266600  1.0  -0.5872
  O  O220  1  0.197030  0.693500  0.334930  1.0  -0.5536
  O  O221  1  0.368000  0.740500  0.766600  1.0  -0.5875
  O  O222  1  0.302970  0.806500  0.834930  1.0  -0.5536
  O  O223  1  0.868000  0.240500  0.266600  1.0  -0.5875
  O  O224  1  0.802970  0.306500  0.334930  1.0  -0.5536
  O  O225  1  0.740500  0.368000  0.233400  1.0  -0.5867
  O  O226  1  0.806500  0.302970  0.165070  1.0  -0.5534
  O  O227  1  0.240500  0.868000  0.733400  1.0  -0.5867
  O  O228  1  0.306500  0.802970  0.665070  1.0  -0.5534
  O  O229  1  0.259500  0.632000  0.233400  1.0  -0.5873
  O  O230  1  0.193500  0.697030  0.165070  1.0  -0.5537
  O  O231  1  0.759500  0.132000  0.733400  1.0  -0.5873
  O  O232  1  0.693500  0.197030  0.665070  1.0  -0.5537
  O  O233  1  0.368000  0.259500  0.233400  1.0  -0.5867
  O  O234  1  0.302970  0.193500  0.165070  1.0  -0.5535
  O  O235  1  0.868000  0.759500  0.733400  1.0  -0.5867
  O  O236  1  0.802970  0.693500  0.665070  1.0  -0.5535
  O  O237  1  0.632000  0.740500  0.233400  1.0  -0.587
  O  O238  1  0.697030  0.806500  0.165070  1.0  -0.5539
  O  O239  1  0.132000  0.240500  0.733400  1.0  -0.587
  O  O240  1  0.197030  0.306500  0.665070  1.0  -0.5539
  O  O241  1  0.740500  0.632000  0.233400  1.0  -0.5865
  O  O242  1  0.806500  0.697030  0.165070  1.0  -0.5541
  O  O243  1  0.240500  0.132000  0.733400  1.0  -0.5865
  O  O244  1  0.306500  0.197030  0.665070  1.0  -0.5541
  O  O245  1  0.259500  0.368000  0.233400  1.0  -0.587
  O  O246  1  0.193500  0.302970  0.165070  1.0  -0.5542
  O  O247  1  0.759500  0.868000  0.733400  1.0  -0.587
  O  O248  1  0.693500  0.802970  0.665070  1.0  -0.5542
  O  O249  1  0.368000  0.740500  0.233400  1.0  -0.5871
  O  O250  1  0.302970  0.806500  0.165070  1.0  -0.5539
  O  O251  1  0.868000  0.240500  0.733400  1.0  -0.5871
  O  O252  1  0.802970  0.306500  0.665070  1.0  -0.5539
  O  O253  1  0.632000  0.259500  0.233400  1.0  -0.5867
  O  O254  1  0.697030  0.193500  0.165070  1.0  -0.5541
  O  O255  1  0.132000  0.759500  0.733400  1.0  -0.5867
  O  O256  1  0.197030  0.693500  0.665070  1.0  -0.5541
  O  O257  1  0.259500  0.632000  0.766600  1.0  -0.5876
  O  O258  1  0.193500  0.697030  0.834930  1.0  -0.554
  O  O259  1  0.759500  0.132000  0.266600  1.0  -0.5876
  O  O260  1  0.693500  0.197030  0.334930  1.0  -0.554
  O  O261  1  0.740500  0.368000  0.766600  1.0  -0.5871
  O  O262  1  0.806500  0.302970  0.834930  1.0  -0.5536
  O  O263  1  0.240500  0.868000  0.266600  1.0  -0.5871
  O  O264  1  0.306500  0.802970  0.334930  1.0  -0.5536
  O  O265  1  0.632000  0.740500  0.766600  1.0  -0.5876
  O  O266  1  0.697030  0.806500  0.834930  1.0  -0.5537
  O  O267  1  0.132000  0.240500  0.266600  1.0  -0.5876
  O  O268  1  0.197030  0.306500  0.334930  1.0  -0.5537
  O  O269  1  0.368000  0.259500  0.766600  1.0  -0.5868
  O  O270  1  0.302970  0.193500  0.834930  1.0  -0.5533
  O  O271  1  0.868000  0.759500  0.266600  1.0  -0.5868
  O  O272  1  0.802970  0.693500  0.334930  1.0  -0.5533
