# generated using pymatgen
data_Cu2H24(C3N)13
_symmetry_space_group_name_H-M   'P 1'
_cell_length_a   22.00230000
_cell_length_b   19.24110000
_cell_length_c   8.73110000
_cell_angle_alpha   90.00000000
_cell_angle_beta   90.00000000
_cell_angle_gamma   90.00000000
_symmetry_Int_Tables_number   1
_chemical_formula_structural   Cu2H24(C3N)13
_chemical_formula_sum   'Cu8 H96 C156 N52'
_cell_volume   3696.29769135
_cell_formula_units_Z   4
loop_
 _symmetry_equiv_pos_site_id
 _symmetry_equiv_pos_as_xyz
  1  'x, y, z'
loop_
 _atom_site_type_symbol
 _atom_site_label
 _atom_site_symmetry_multiplicity
 _atom_site_fract_x
 _atom_site_fract_y
 _atom_site_fract_z
 _atom_site_occupancy
 _atom_site_charge
  Cu  Cu1  1  0.500000  0.104980  0.250000  1.0  0.6207
  Cu  Cu2  1  0.000000  0.604980  0.250000  1.0  0.6207
  Cu  Cu3  1  0.500000  0.231460  0.750000  1.0  0.6069
  Cu  Cu4  1  0.000000  0.731460  0.750000  1.0  0.6069
  Cu  Cu5  1  0.000000  0.395020  0.750000  1.0  0.6195
  Cu  Cu6  1  0.500000  0.895020  0.750000  1.0  0.6195
  Cu  Cu7  1  0.000000  0.268540  0.250000  1.0  0.6076
  Cu  Cu8  1  0.500000  0.768540  0.250000  1.0  0.6076
  H  H9  1  0.464600  0.957100  0.128700  1.0  0.0641
  H  H10  1  0.392600  0.873100  0.181900  1.0  0.062
  H  H11  1  0.371700  0.092400  0.374800  1.0  0.0745
  H  H12  1  0.251300  0.910900  0.476600  1.0  0.101
  H  H13  1  0.167500  0.848600  0.455500  1.0  0.1025
  H  H14  1  0.101200  0.761500  0.527900  1.0  0.0592
  H  H15  1  0.049100  0.867500  0.889000  1.0  0.056
  H  H16  1  0.112000  0.959700  0.824300  1.0  0.0983
  H  H17  1  0.140700  0.053900  0.675000  1.0  0.0993
  H  H18  1  0.093200  0.263700  0.702900  1.0  0.0663
  H  H19  1  0.150500  0.348400  0.585000  1.0  0.0624
  H  H20  1  0.268500  0.207400  0.454400  1.0  0.064
  H  H21  1  0.535400  0.957100  0.371300  1.0  0.0644
  H  H22  1  0.607400  0.873100  0.318100  1.0  0.0617
  H  H23  1  0.628300  0.092400  0.125200  1.0  0.0741
  H  H24  1  0.748700  0.910900  0.023400  1.0  0.1008
  H  H25  1  0.832500  0.848600  0.044500  1.0  0.1019
  H  H26  1  0.898800  0.761500  0.972100  1.0  0.0592
  H  H27  1  0.950900  0.867500  0.611000  1.0  0.0576
  H  H28  1  0.888000  0.959700  0.675700  1.0  0.0989
  H  H29  1  0.859300  0.053900  0.825000  1.0  0.0988
  H  H30  1  0.906800  0.263700  0.797100  1.0  0.0666
  H  H31  1  0.849500  0.348400  0.915000  1.0  0.0625
  H  H32  1  0.731500  0.207400  0.045600  1.0  0.0645
  H  H33  1  0.964600  0.457100  0.371300  1.0  0.0644
  H  H34  1  0.892600  0.373100  0.318100  1.0  0.062
  H  H35  1  0.871700  0.592400  0.125200  1.0  0.0748
  H  H36  1  0.751300  0.410900  0.023400  1.0  0.1008
  H  H37  1  0.667500  0.348600  0.044500  1.0  0.1023
  H  H38  1  0.601200  0.261500  0.972100  1.0  0.0591
  H  H39  1  0.549100  0.367500  0.611000  1.0  0.0564
  H  H40  1  0.612000  0.459700  0.675700  1.0  0.0992
  H  H41  1  0.640700  0.553900  0.825000  1.0  0.0996
  H  H42  1  0.593200  0.763700  0.797100  1.0  0.0662
  H  H43  1  0.650500  0.848400  0.915000  1.0  0.0624
  H  H44  1  0.768500  0.707400  0.045600  1.0  0.0642
  H  H45  1  0.035400  0.457100  0.128700  1.0  0.0643
  H  H46  1  0.107400  0.373100  0.181900  1.0  0.0616
  H  H47  1  0.128300  0.592400  0.374800  1.0  0.0739
  H  H48  1  0.248700  0.410900  0.476600  1.0  0.1009
  H  H49  1  0.332500  0.348600  0.455500  1.0  0.1023
  H  H50  1  0.398800  0.261500  0.527900  1.0  0.0592
  H  H51  1  0.450900  0.367500  0.889000  1.0  0.0572
  H  H52  1  0.388000  0.459700  0.824300  1.0  0.0977
  H  H53  1  0.359300  0.553900  0.675000  1.0  0.0987
  H  H54  1  0.406800  0.763700  0.702900  1.0  0.0667
  H  H55  1  0.349500  0.848400  0.585000  1.0  0.0625
  H  H56  1  0.231500  0.707400  0.454400  1.0  0.0643
  H  H57  1  0.035400  0.542900  0.628700  1.0  0.0645
  H  H58  1  0.107400  0.626900  0.681900  1.0  0.0615
  H  H59  1  0.128300  0.407600  0.874800  1.0  0.0737
  H  H60  1  0.248700  0.589100  0.976600  1.0  0.1011
  H  H61  1  0.332500  0.651400  0.955500  1.0  0.103
  H  H62  1  0.398800  0.738500  0.027900  1.0  0.0596
  H  H63  1  0.450900  0.632500  0.389000  1.0  0.0558
  H  H64  1  0.388000  0.540300  0.324300  1.0  0.0978
  H  H65  1  0.359300  0.446100  0.175000  1.0  0.0988
  H  H66  1  0.406800  0.236300  0.202900  1.0  0.0667
  H  H67  1  0.349500  0.151600  0.085000  1.0  0.0627
  H  H68  1  0.231500  0.292600  0.954400  1.0  0.0642
  H  H69  1  0.964600  0.542900  0.871300  1.0  0.0639
  H  H70  1  0.892600  0.626900  0.818100  1.0  0.0616
  H  H71  1  0.871700  0.407600  0.625200  1.0  0.074
  H  H72  1  0.751300  0.589100  0.523400  1.0  0.1006
  H  H73  1  0.667500  0.651400  0.544500  1.0  0.102
  H  H74  1  0.601200  0.738500  0.472100  1.0  0.0591
  H  H75  1  0.549100  0.632500  0.111000  1.0  0.0576
  H  H76  1  0.612000  0.540300  0.175700  1.0  0.0988
  H  H77  1  0.640700  0.446100  0.325000  1.0  0.0993
  H  H78  1  0.593200  0.236300  0.297100  1.0  0.0666
  H  H79  1  0.650500  0.151600  0.415000  1.0  0.0624
  H  H80  1  0.768500  0.292600  0.545600  1.0  0.064
  H  H81  1  0.535400  0.042900  0.871300  1.0  0.0641
  H  H82  1  0.607400  0.126900  0.818100  1.0  0.0612
  H  H83  1  0.628300  0.907600  0.625200  1.0  0.0737
  H  H84  1  0.748700  0.089100  0.523400  1.0  0.1008
  H  H85  1  0.832500  0.151400  0.544500  1.0  0.1018
  H  H86  1  0.898800  0.238500  0.472100  1.0  0.0592
  H  H87  1  0.950900  0.132500  0.111000  1.0  0.0564
  H  H88  1  0.888000  0.040300  0.175700  1.0  0.0983
  H  H89  1  0.859300  0.946100  0.325000  1.0  0.0986
  H  H90  1  0.906800  0.736300  0.297100  1.0  0.067
  H  H91  1  0.849500  0.651600  0.415000  1.0  0.0627
  H  H92  1  0.731500  0.792600  0.545600  1.0  0.0643
  H  H93  1  0.464600  0.042900  0.628700  1.0  0.0639
  H  H94  1  0.392600  0.126900  0.681900  1.0  0.0618
  H  H95  1  0.371700  0.907600  0.874800  1.0  0.074
  H  H96  1  0.251300  0.089100  0.976600  1.0  0.101
  H  H97  1  0.167500  0.151400  0.955500  1.0  0.1028
  H  H98  1  0.101200  0.238500  0.027900  1.0  0.0596
  H  H99  1  0.049100  0.132500  0.389000  1.0  0.0573
  H  H100  1  0.112000  0.040300  0.324300  1.0  0.0988
  H  H101  1  0.140700  0.946100  0.175000  1.0  0.0993
  H  H102  1  0.093200  0.736300  0.202900  1.0  0.0663
  H  H103  1  0.150500  0.651600  0.085000  1.0  0.0625
  H  H104  1  0.268500  0.792600  0.954400  1.0  0.0639
  C  C105  1  0.498760  0.152720  0.443300  1.0  0.0268
  C  C106  1  0.501430  0.183240  0.556900  1.0  0.0448
  C  C107  1  0.430980  0.968540  0.192300  1.0  0.1076
  C  C108  1  0.387110  0.918560  0.221800  1.0  0.1339
  C  C109  1  0.332010  0.997300  0.357800  1.0  0.1755
  C  C110  1  0.376800  0.047180  0.333000  1.0  0.1522
  C  C111  1  0.276210  0.012490  0.448000  1.0  0.1956
  C  C112  1  0.240360  0.957530  0.499100  1.0  -0.1509
  C  C113  1  0.188150  0.972170  0.583700  1.0  0.0257
  C  C114  1  0.147360  0.914950  0.631800  1.0  0.0717
  C  C115  1  0.143330  0.854150  0.544800  1.0  -0.2255
  C  C116  1  0.103850  0.802070  0.589500  1.0  0.1439
  C  C117  1  0.073270  0.863980  0.799100  1.0  0.1466
  C  C118  1  0.111010  0.919330  0.761800  1.0  -0.2283
  C  C119  1  0.175030  0.041790  0.614700  1.0  -0.1005
  C  C120  1  0.213210  0.093540  0.555800  1.0  0.1376
  C  C121  1  0.196750  0.167960  0.571900  1.0  0.1321
  C  C122  1  0.129360  0.250690  0.650800  1.0  0.0948
  C  C123  1  0.164010  0.301560  0.581300  1.0  0.1236
  C  C124  1  0.231850  0.219950  0.504900  1.0  0.1527
  C  C125  1  0.498570  0.183240  0.943100  1.0  0.0496
  C  C126  1  0.569020  0.968540  0.307700  1.0  0.1081
  C  C127  1  0.612890  0.918560  0.278200  1.0  0.1337
  C  C128  1  0.667990  0.997300  0.142200  1.0  0.1765
  C  C129  1  0.623200  0.047180  0.167000  1.0  0.1523
  C  C130  1  0.723790  0.012490  0.052000  1.0  0.197
  C  C131  1  0.759640  0.957530  0.000900  1.0  -0.1494
  C  C132  1  0.811850  0.972170  0.916300  1.0  0.0267
  C  C133  1  0.852640  0.914950  0.868200  1.0  0.0714
  C  C134  1  0.856670  0.854150  0.955200  1.0  -0.2259
  C  C135  1  0.896150  0.802070  0.910500  1.0  0.1446
  C  C136  1  0.926730  0.863980  0.700900  1.0  0.1453
  C  C137  1  0.888990  0.919330  0.738200  1.0  -0.2281
  C  C138  1  0.824970  0.041790  0.885300  1.0  -0.1002
  C  C139  1  0.786790  0.093540  0.944200  1.0  0.1384
  C  C140  1  0.803250  0.167960  0.928100  1.0  0.1324
  C  C141  1  0.870640  0.250690  0.849200  1.0  0.0942
  C  C142  1  0.835990  0.301560  0.918700  1.0  0.124
  C  C143  1  0.768150  0.219950  0.995100  1.0  0.1527
  C  C144  1  0.998760  0.652720  0.056700  1.0  0.0285
  C  C145  1  0.001430  0.683240  0.943100  1.0  0.0449
  C  C146  1  0.930980  0.468540  0.307700  1.0  0.1076
  C  C147  1  0.887110  0.418560  0.278200  1.0  0.1334
  C  C148  1  0.832010  0.497300  0.142200  1.0  0.1756
  C  C149  1  0.876800  0.547180  0.167000  1.0  0.1524
  C  C150  1  0.776210  0.512490  0.052000  1.0  0.1959
  C  C151  1  0.740360  0.457530  0.000900  1.0  -0.1508
  C  C152  1  0.688150  0.472170  0.916300  1.0  0.026
  C  C153  1  0.647360  0.414950  0.868200  1.0  0.0716
  C  C154  1  0.643330  0.354150  0.955200  1.0  -0.2256
  C  C155  1  0.603850  0.302070  0.910500  1.0  0.144
  C  C156  1  0.573270  0.363980  0.700900  1.0  0.1457
  C  C157  1  0.611010  0.419330  0.738200  1.0  -0.2281
  C  C158  1  0.675030  0.541790  0.885300  1.0  -0.1005
  C  C159  1  0.713210  0.593540  0.944200  1.0  0.1376
  C  C160  1  0.696750  0.667960  0.928100  1.0  0.1321
  C  C161  1  0.629360  0.750690  0.849200  1.0  0.0941
  C  C162  1  0.664010  0.801560  0.918700  1.0  0.1235
  C  C163  1  0.731850  0.719950  0.995100  1.0  0.1523
  C  C164  1  0.998570  0.683240  0.556900  1.0  0.0488
  C  C165  1  0.069020  0.468540  0.192300  1.0  0.108
  C  C166  1  0.112890  0.418560  0.221800  1.0  0.1342
  C  C167  1  0.167990  0.497300  0.357800  1.0  0.1763
  C  C168  1  0.123200  0.547180  0.333000  1.0  0.1518
  C  C169  1  0.223790  0.512490  0.448000  1.0  0.1967
  C  C170  1  0.259640  0.457530  0.499100  1.0  -0.1495
  C  C171  1  0.311850  0.472170  0.583700  1.0  0.0265
  C  C172  1  0.352640  0.414950  0.631800  1.0  0.0714
  C  C173  1  0.356670  0.354150  0.544800  1.0  -0.2258
  C  C174  1  0.396150  0.302070  0.589500  1.0  0.1444
  C  C175  1  0.426730  0.363980  0.799100  1.0  0.146
  C  C176  1  0.388990  0.419330  0.761800  1.0  -0.2282
  C  C177  1  0.324970  0.541790  0.614700  1.0  -0.1003
  C  C178  1  0.286790  0.593540  0.555800  1.0  0.1383
  C  C179  1  0.303250  0.667960  0.571900  1.0  0.1324
  C  C180  1  0.370640  0.750690  0.650800  1.0  0.0946
  C  C181  1  0.335990  0.801560  0.581300  1.0  0.124
  C  C182  1  0.268150  0.719950  0.504900  1.0  0.1529
  C  C183  1  0.001240  0.347280  0.943300  1.0  0.0297
  C  C184  1  0.998570  0.316760  0.056900  1.0  0.0451
  C  C185  1  0.069020  0.531460  0.692300  1.0  0.108
  C  C186  1  0.112890  0.581440  0.721800  1.0  0.134
  C  C187  1  0.167990  0.502700  0.857800  1.0  0.1764
  C  C188  1  0.123200  0.452820  0.833000  1.0  0.1547
  C  C189  1  0.223790  0.487510  0.948000  1.0  0.1967
  C  C190  1  0.259640  0.542470  0.999100  1.0  -0.148
  C  C191  1  0.311850  0.527830  0.083700  1.0  0.0263
  C  C192  1  0.352640  0.585050  0.131800  1.0  0.0715
  C  C193  1  0.356670  0.645850  0.044800  1.0  -0.2254
  C  C194  1  0.396150  0.697930  0.089500  1.0  0.1447
  C  C195  1  0.426730  0.636020  0.299100  1.0  0.1462
  C  C196  1  0.388990  0.580670  0.261800  1.0  -0.2275
  C  C197  1  0.324970  0.458210  0.114700  1.0  -0.0996
  C  C198  1  0.286790  0.406460  0.055800  1.0  0.1381
  C  C199  1  0.303250  0.332040  0.071900  1.0  0.1325
  C  C200  1  0.370640  0.249310  0.150800  1.0  0.0953
  C  C201  1  0.335990  0.198440  0.081300  1.0  0.1239
  C  C202  1  0.268150  0.280050  0.004900  1.0  0.153
  C  C203  1  0.001430  0.316760  0.443100  1.0  0.0495
  C  C204  1  0.930980  0.531460  0.807700  1.0  0.1074
  C  C205  1  0.887110  0.581440  0.778200  1.0  0.1329
  C  C206  1  0.832010  0.502700  0.642200  1.0  0.1757
  C  C207  1  0.876800  0.452820  0.667000  1.0  0.1552
  C  C208  1  0.776210  0.487510  0.552000  1.0  0.1956
  C  C209  1  0.740360  0.542470  0.500900  1.0  -0.1497
  C  C210  1  0.688150  0.527830  0.416300  1.0  0.026
  C  C211  1  0.647360  0.585050  0.368200  1.0  0.0717
  C  C212  1  0.643330  0.645850  0.455200  1.0  -0.2253
  C  C213  1  0.603850  0.697930  0.410500  1.0  0.1447
  C  C214  1  0.573270  0.636020  0.200900  1.0  0.1457
  C  C215  1  0.611010  0.580670  0.238200  1.0  -0.2278
  C  C216  1  0.675030  0.458210  0.385300  1.0  -0.1001
  C  C217  1  0.713210  0.406460  0.444200  1.0  0.1374
  C  C218  1  0.696750  0.332040  0.428100  1.0  0.1322
  C  C219  1  0.629360  0.249310  0.349200  1.0  0.0943
  C  C220  1  0.664010  0.198440  0.418700  1.0  0.1233
  C  C221  1  0.731850  0.280050  0.495100  1.0  0.1519
  C  C222  1  0.501240  0.847280  0.556700  1.0  0.0293
  C  C223  1  0.498570  0.816760  0.443100  1.0  0.0454
  C  C224  1  0.569020  0.031460  0.807700  1.0  0.108
  C  C225  1  0.612890  0.081440  0.778200  1.0  0.1334
  C  C226  1  0.667990  0.002700  0.642200  1.0  0.1765
  C  C227  1  0.623200  0.952820  0.667000  1.0  0.1548
  C  C228  1  0.723790  0.987510  0.552000  1.0  0.197
  C  C229  1  0.759640  0.042470  0.500900  1.0  -0.1482
  C  C230  1  0.811850  0.027830  0.416300  1.0  0.0267
  C  C231  1  0.852640  0.085050  0.368200  1.0  0.0716
  C  C232  1  0.856670  0.145850  0.455200  1.0  -0.2257
  C  C233  1  0.896150  0.197930  0.410500  1.0  0.145
  C  C234  1  0.926730  0.136020  0.200900  1.0  0.1454
  C  C235  1  0.888990  0.080670  0.238200  1.0  -0.2274
  C  C236  1  0.824970  0.958210  0.385300  1.0  -0.0999
  C  C237  1  0.786790  0.906460  0.444200  1.0  0.1382
  C  C238  1  0.803250  0.832040  0.428100  1.0  0.1327
  C  C239  1  0.870640  0.749310  0.349200  1.0  0.0947
  C  C240  1  0.835990  0.698440  0.418700  1.0  0.1237
  C  C241  1  0.768150  0.780050  0.495100  1.0  0.1524
  C  C242  1  0.501430  0.816760  0.056900  1.0  0.0487
  C  C243  1  0.430980  0.031460  0.692300  1.0  0.1075
  C  C244  1  0.387110  0.081440  0.721800  1.0  0.1336
  C  C245  1  0.332010  0.002700  0.857800  1.0  0.1755
  C  C246  1  0.376800  0.952820  0.833000  1.0  0.1551
  C  C247  1  0.276210  0.987510  0.948000  1.0  0.1954
  C  C248  1  0.240360  0.042470  0.999100  1.0  -0.1495
  C  C249  1  0.188150  0.027830  0.083700  1.0  0.0255
  C  C250  1  0.147360  0.085050  0.131800  1.0  0.0717
  C  C251  1  0.143330  0.145850  0.044800  1.0  -0.225
  C  C252  1  0.103850  0.197930  0.089500  1.0  0.1443
  C  C253  1  0.073270  0.136020  0.299100  1.0  0.1466
  C  C254  1  0.111010  0.080670  0.261800  1.0  -0.2279
  C  C255  1  0.175030  0.958210  0.114700  1.0  -0.0999
  C  C256  1  0.213210  0.906460  0.055800  1.0  0.1373
  C  C257  1  0.196750  0.832040  0.071900  1.0  0.1321
  C  C258  1  0.129360  0.749310  0.150800  1.0  0.0951
  C  C259  1  0.164010  0.698440  0.081300  1.0  0.1233
  C  C260  1  0.231850  0.780050  0.004900  1.0  0.1523
  N  N261  1  0.427030  0.032840  0.251440  1.0  -0.3728
  N  N262  1  0.337520  0.932080  0.304200  1.0  -0.4391
  N  N263  1  0.263300  0.079580  0.474300  1.0  -0.4741
  N  N264  1  0.145460  0.183410  0.646700  1.0  -0.4257
  N  N265  1  0.215850  0.286980  0.509200  1.0  -0.442
  N  N266  1  0.069050  0.805870  0.715300  1.0  -0.3409
  N  N267  1  0.501240  0.152720  0.056700  1.0  -0.3663
  N  N268  1  0.572970  0.032840  0.248560  1.0  -0.3738
  N  N269  1  0.662480  0.932080  0.195800  1.0  -0.4372
  N  N270  1  0.736700  0.079580  0.025700  1.0  -0.4761
  N  N271  1  0.854540  0.183410  0.853300  1.0  -0.4253
  N  N272  1  0.784150  0.286980  0.990800  1.0  -0.4411
  N  N273  1  0.930950  0.805870  0.784700  1.0  -0.3394
  N  N274  1  0.927030  0.532840  0.248560  1.0  -0.3731
  N  N275  1  0.837520  0.432080  0.195800  1.0  -0.4388
  N  N276  1  0.763300  0.579580  0.025700  1.0  -0.4745
  N  N277  1  0.645460  0.683410  0.853300  1.0  -0.4254
  N  N278  1  0.715850  0.786980  0.990800  1.0  -0.4424
  N  N279  1  0.569050  0.305870  0.784700  1.0  -0.3408
  N  N280  1  0.001240  0.652720  0.443300  1.0  -0.3674
  N  N281  1  0.072970  0.532840  0.251440  1.0  -0.3735
  N  N282  1  0.162480  0.432080  0.304200  1.0  -0.4375
  N  N283  1  0.236700  0.579580  0.474300  1.0  -0.4754
  N  N284  1  0.354540  0.683410  0.646700  1.0  -0.4257
  N  N285  1  0.284150  0.786980  0.509200  1.0  -0.4408
  N  N286  1  0.430950  0.305870  0.715300  1.0  -0.3393
  N  N287  1  0.072970  0.467160  0.751440  1.0  -0.3742
  N  N288  1  0.162480  0.567920  0.804200  1.0  -0.4396
  N  N289  1  0.236700  0.420420  0.974300  1.0  -0.4773
  N  N290  1  0.354540  0.316590  0.146700  1.0  -0.4266
  N  N291  1  0.284150  0.213020  0.009200  1.0  -0.4421
  N  N292  1  0.430950  0.694130  0.215300  1.0  -0.339
  N  N293  1  0.998760  0.347280  0.556700  1.0  -0.3661
  N  N294  1  0.927030  0.467160  0.748560  1.0  -0.3723
  N  N295  1  0.837520  0.567920  0.695800  1.0  -0.44
  N  N296  1  0.763300  0.420420  0.525700  1.0  -0.475
  N  N297  1  0.645460  0.316590  0.353300  1.0  -0.4247
  N  N298  1  0.715850  0.213020  0.490800  1.0  -0.442
  N  N299  1  0.569050  0.694130  0.284700  1.0  -0.3387
  N  N300  1  0.572970  0.967160  0.748560  1.0  -0.3742
  N  N301  1  0.662480  0.067920  0.695800  1.0  -0.4396
  N  N302  1  0.736700  0.920420  0.525700  1.0  -0.4775
  N  N303  1  0.854540  0.816590  0.353300  1.0  -0.4253
  N  N304  1  0.784150  0.713020  0.490800  1.0  -0.4413
  N  N305  1  0.930950  0.194130  0.284700  1.0  -0.3388
  N  N306  1  0.498760  0.847280  0.943300  1.0  -0.3678
  N  N307  1  0.427030  0.967160  0.751440  1.0  -0.3723
  N  N308  1  0.337520  0.067920  0.804200  1.0  -0.4399
  N  N309  1  0.263300  0.920420  0.974300  1.0  -0.4753
  N  N310  1  0.145460  0.816590  0.146700  1.0  -0.4255
  N  N311  1  0.215850  0.713020  0.009200  1.0  -0.4429
  N  N312  1  0.069050  0.194130  0.215300  1.0  -0.3391
