# generated using pymatgen
data_Cu2H24(C3N)13
_symmetry_space_group_name_H-M   'P 1'
_cell_length_a   21.94150000
_cell_length_b   19.27030000
_cell_length_c   8.90500000
_cell_angle_alpha   90.00000000
_cell_angle_beta   90.00000000
_cell_angle_gamma   90.00000000
_symmetry_Int_Tables_number   1
_chemical_formula_structural   Cu2H24(C3N)13
_chemical_formula_sum   'Cu8 H96 C156 N52'
_cell_volume   3765.20575474
_cell_formula_units_Z   4
loop_
 _symmetry_equiv_pos_site_id
 _symmetry_equiv_pos_as_xyz
  1  'x, y, z'
loop_
 _atom_site_type_symbol
 _atom_site_label
 _atom_site_symmetry_multiplicity
 _atom_site_fract_x
 _atom_site_fract_y
 _atom_site_fract_z
 _atom_site_occupancy
 _atom_site_charge
  Cu  Cu1  1  0.500000  0.109180  0.250000  1.0  0.5056
  Cu  Cu2  1  0.000000  0.609180  0.250000  1.0  0.5056
  Cu  Cu3  1  0.500000  0.226320  0.750000  1.0  0.5584
  Cu  Cu4  1  0.000000  0.726320  0.750000  1.0  0.5584
  Cu  Cu5  1  0.000000  0.390820  0.750000  1.0  0.5045
  Cu  Cu6  1  0.500000  0.890820  0.750000  1.0  0.5045
  Cu  Cu7  1  0.000000  0.273680  0.250000  1.0  0.5597
  Cu  Cu8  1  0.500000  0.773680  0.250000  1.0  0.5597
  H  H9  1  0.462000  0.959900  0.135600  1.0  0.059
  H  H10  1  0.392600  0.875400  0.192700  1.0  0.056
  H  H11  1  0.371100  0.090200  0.380500  1.0  0.0549
  H  H12  1  0.252000  0.911100  0.485500  1.0  0.0865
  H  H13  1  0.163500  0.849700  0.462400  1.0  0.0987
  H  H14  1  0.098800  0.764100  0.531000  1.0  0.0513
  H  H15  1  0.054600  0.861600  0.891600  1.0  0.0507
  H  H16  1  0.116800  0.951000  0.833700  1.0  0.0977
  H  H17  1  0.143400  0.050200  0.684700  1.0  0.0931
  H  H18  1  0.094400  0.259000  0.713100  1.0  0.0688
  H  H19  1  0.150100  0.342000  0.602100  1.0  0.0544
  H  H20  1  0.267900  0.205000  0.477100  1.0  0.0451
  H  H21  1  0.538000  0.959900  0.364400  1.0  0.0592
  H  H22  1  0.607400  0.875400  0.307300  1.0  0.0556
  H  H23  1  0.628900  0.090200  0.119500  1.0  0.0549
  H  H24  1  0.748000  0.911100  0.014500  1.0  0.0868
  H  H25  1  0.836500  0.849700  0.037600  1.0  0.0986
  H  H26  1  0.901200  0.764100  0.969000  1.0  0.0518
  H  H27  1  0.945400  0.861600  0.608400  1.0  0.0519
  H  H28  1  0.883200  0.951000  0.666300  1.0  0.0976
  H  H29  1  0.856600  0.050200  0.815300  1.0  0.0937
  H  H30  1  0.905600  0.259000  0.786900  1.0  0.068
  H  H31  1  0.849900  0.342000  0.897900  1.0  0.0546
  H  H32  1  0.732100  0.205000  0.022900  1.0  0.0456
  H  H33  1  0.962000  0.459900  0.364400  1.0  0.0594
  H  H34  1  0.892600  0.375400  0.307300  1.0  0.0559
  H  H35  1  0.871100  0.590200  0.119500  1.0  0.055
  H  H36  1  0.752000  0.411100  0.014500  1.0  0.0865
  H  H37  1  0.663500  0.349700  0.037600  1.0  0.099
  H  H38  1  0.598800  0.264100  0.969000  1.0  0.0516
  H  H39  1  0.554600  0.361600  0.608400  1.0  0.0516
  H  H40  1  0.616800  0.451000  0.666300  1.0  0.0984
  H  H41  1  0.643400  0.550200  0.815300  1.0  0.0937
  H  H42  1  0.594400  0.759000  0.786900  1.0  0.0682
  H  H43  1  0.650100  0.842000  0.897900  1.0  0.0543
  H  H44  1  0.767900  0.705000  0.022900  1.0  0.0456
  H  H45  1  0.038000  0.459900  0.135600  1.0  0.0589
  H  H46  1  0.107400  0.375400  0.192700  1.0  0.0558
  H  H47  1  0.128900  0.590200  0.380500  1.0  0.0548
  H  H48  1  0.248000  0.411100  0.485500  1.0  0.0868
  H  H49  1  0.336500  0.349700  0.462400  1.0  0.0986
  H  H50  1  0.401200  0.264100  0.531000  1.0  0.0515
  H  H51  1  0.445400  0.361600  0.891600  1.0  0.0507
  H  H52  1  0.383200  0.451000  0.833700  1.0  0.0967
  H  H53  1  0.356600  0.550200  0.684700  1.0  0.0933
  H  H54  1  0.405600  0.759000  0.713100  1.0  0.0685
  H  H55  1  0.349900  0.842000  0.602100  1.0  0.0545
  H  H56  1  0.232100  0.705000  0.477100  1.0  0.045
  H  H57  1  0.038000  0.540100  0.635600  1.0  0.0586
  H  H58  1  0.107400  0.624600  0.692700  1.0  0.0558
  H  H59  1  0.128900  0.409800  0.880500  1.0  0.0548
  H  H60  1  0.248000  0.588900  0.985500  1.0  0.087
  H  H61  1  0.336500  0.650300  0.962400  1.0  0.0991
  H  H62  1  0.401200  0.735900  0.031000  1.0  0.0516
  H  H63  1  0.445400  0.638400  0.391600  1.0  0.051
  H  H64  1  0.383200  0.549000  0.333700  1.0  0.0969
  H  H65  1  0.356600  0.449800  0.184700  1.0  0.0935
  H  H66  1  0.405600  0.241000  0.213100  1.0  0.0687
  H  H67  1  0.349900  0.158000  0.102100  1.0  0.0549
  H  H68  1  0.232100  0.295000  0.977100  1.0  0.045
  H  H69  1  0.962000  0.540100  0.864400  1.0  0.059
  H  H70  1  0.892600  0.624600  0.807300  1.0  0.0559
  H  H71  1  0.871100  0.409800  0.619500  1.0  0.0548
  H  H72  1  0.752000  0.588900  0.514500  1.0  0.0865
  H  H73  1  0.663500  0.650300  0.537600  1.0  0.0988
  H  H74  1  0.598800  0.735900  0.469000  1.0  0.0514
  H  H75  1  0.554600  0.638400  0.108400  1.0  0.0516
  H  H76  1  0.616800  0.549000  0.166300  1.0  0.098
  H  H77  1  0.643400  0.449800  0.315300  1.0  0.0935
  H  H78  1  0.594400  0.241000  0.286900  1.0  0.0681
  H  H79  1  0.650100  0.158000  0.397900  1.0  0.0545
  H  H80  1  0.767900  0.295000  0.522900  1.0  0.0457
  H  H81  1  0.538000  0.040100  0.864400  1.0  0.0585
  H  H82  1  0.607400  0.124600  0.807300  1.0  0.0556
  H  H83  1  0.628900  0.909800  0.619500  1.0  0.0549
  H  H84  1  0.748000  0.088900  0.514500  1.0  0.087
  H  H85  1  0.836500  0.150300  0.537600  1.0  0.0986
  H  H86  1  0.901200  0.235900  0.469000  1.0  0.0515
  H  H87  1  0.945400  0.138400  0.108400  1.0  0.052
  H  H88  1  0.883200  0.049000  0.166300  1.0  0.0971
  H  H89  1  0.856600  0.949800  0.315300  1.0  0.0935
  H  H90  1  0.905600  0.741000  0.286900  1.0  0.0683
  H  H91  1  0.849900  0.658000  0.397900  1.0  0.0548
  H  H92  1  0.732100  0.795000  0.522900  1.0  0.0457
  H  H93  1  0.462000  0.040100  0.635600  1.0  0.059
  H  H94  1  0.392600  0.124600  0.692700  1.0  0.056
  H  H95  1  0.371100  0.909800  0.880500  1.0  0.0547
  H  H96  1  0.252000  0.088900  0.985500  1.0  0.0867
  H  H97  1  0.163500  0.150300  0.962400  1.0  0.0989
  H  H98  1  0.098800  0.235900  0.031000  1.0  0.0514
  H  H99  1  0.054600  0.138400  0.391600  1.0  0.051
  H  H100  1  0.116800  0.049000  0.333700  1.0  0.0981
  H  H101  1  0.143400  0.949800  0.184700  1.0  0.0932
  H  H102  1  0.094400  0.741000  0.213100  1.0  0.0685
  H  H103  1  0.150100  0.658000  0.102100  1.0  0.0545
  H  H104  1  0.267900  0.795000  0.977100  1.0  0.0451
  C  C105  1  0.499230  0.152990  0.443800  1.0  0.0213
  C  C106  1  0.501170  0.180820  0.558600  1.0  0.0224
  C  C107  1  0.429580  0.970450  0.199000  1.0  0.1
  C  C108  1  0.386900  0.919700  0.231400  1.0  0.1538
  C  C109  1  0.332340  0.996650  0.368500  1.0  0.1438
  C  C110  1  0.376120  0.046150  0.339700  1.0  0.1558
  C  C111  1  0.276770  0.010280  0.460700  1.0  0.1667
  C  C112  1  0.241350  0.956530  0.509100  1.0  -0.1351
  C  C113  1  0.189550  0.969550  0.593200  1.0  0.0378
  C  C114  1  0.148100  0.911970  0.639800  1.0  0.075
  C  C115  1  0.141500  0.853800  0.551200  1.0  -0.2323
  C  C116  1  0.102700  0.802400  0.593800  1.0  0.1622
  C  C117  1  0.076840  0.859000  0.802900  1.0  0.1685
  C  C118  1  0.114300  0.913200  0.769100  1.0  -0.2363
  C  C119  1  0.176870  0.038810  0.625600  1.0  -0.0822
  C  C120  1  0.214360  0.090710  0.569200  1.0  0.1698
  C  C121  1  0.198160  0.165070  0.588300  1.0  0.1697
  C  C122  1  0.130000  0.246700  0.662700  1.0  0.1142
  C  C123  1  0.163700  0.296400  0.597700  1.0  0.1619
  C  C124  1  0.231600  0.216800  0.525000  1.0  0.1642
  C  C125  1  0.498830  0.180820  0.941400  1.0  0.0231
  C  C126  1  0.570420  0.970450  0.301000  1.0  0.1001
  C  C127  1  0.613100  0.919700  0.268600  1.0  0.1545
  C  C128  1  0.667660  0.996650  0.131500  1.0  0.1429
  C  C129  1  0.623880  0.046150  0.160300  1.0  0.1556
  C  C130  1  0.723230  0.010280  0.039300  1.0  0.1671
  C  C131  1  0.758650  0.956530  0.990900  1.0  -0.1357
  C  C132  1  0.810450  0.969550  0.906800  1.0  0.0387
  C  C133  1  0.851900  0.911970  0.860200  1.0  0.0748
  C  C134  1  0.858500  0.853800  0.948800  1.0  -0.2325
  C  C135  1  0.897300  0.802400  0.906200  1.0  0.1632
  C  C136  1  0.923160  0.859000  0.697100  1.0  0.1686
  C  C137  1  0.885700  0.913200  0.730900  1.0  -0.2365
  C  C138  1  0.823130  0.038810  0.874400  1.0  -0.0825
  C  C139  1  0.785640  0.090710  0.930800  1.0  0.169
  C  C140  1  0.801840  0.165070  0.911700  1.0  0.1692
  C  C141  1  0.870000  0.246700  0.837300  1.0  0.115
  C  C142  1  0.836300  0.296400  0.902300  1.0  0.1612
  C  C143  1  0.768400  0.216800  0.975000  1.0  0.1635
  C  C144  1  0.999230  0.652990  0.056200  1.0  0.0197
  C  C145  1  0.001170  0.680820  0.941400  1.0  0.0223
  C  C146  1  0.929580  0.470450  0.301000  1.0  0.1005
  C  C147  1  0.886900  0.419700  0.268600  1.0  0.1541
  C  C148  1  0.832340  0.496650  0.131500  1.0  0.1436
  C  C149  1  0.876120  0.546150  0.160300  1.0  0.1559
  C  C150  1  0.776770  0.510280  0.039300  1.0  0.1671
  C  C151  1  0.741350  0.456530  0.990900  1.0  -0.1357
  C  C152  1  0.689550  0.469550  0.906800  1.0  0.0379
  C  C153  1  0.648100  0.411970  0.860200  1.0  0.075
  C  C154  1  0.641500  0.353800  0.948800  1.0  -0.2325
  C  C155  1  0.602700  0.302400  0.906200  1.0  0.163
  C  C156  1  0.576840  0.359000  0.697100  1.0  0.1689
  C  C157  1  0.614300  0.413200  0.730900  1.0  -0.2357
  C  C158  1  0.676870  0.538810  0.874400  1.0  -0.082
  C  C159  1  0.714360  0.590710  0.930800  1.0  0.1697
  C  C160  1  0.698160  0.665070  0.911700  1.0  0.1697
  C  C161  1  0.630000  0.746700  0.837300  1.0  0.1139
  C  C162  1  0.663700  0.796400  0.902300  1.0  0.1617
  C  C163  1  0.731600  0.716800  0.975000  1.0  0.1641
  C  C164  1  0.998830  0.680820  0.558600  1.0  0.0232
  C  C165  1  0.070420  0.470450  0.199000  1.0  0.0995
  C  C166  1  0.113100  0.419700  0.231400  1.0  0.1543
  C  C167  1  0.167660  0.496650  0.368500  1.0  0.1431
  C  C168  1  0.123880  0.546150  0.339700  1.0  0.1554
  C  C169  1  0.223230  0.510280  0.460700  1.0  0.1668
  C  C170  1  0.258650  0.456530  0.509100  1.0  -0.1352
  C  C171  1  0.310450  0.469550  0.593200  1.0  0.0385
  C  C172  1  0.351900  0.411970  0.639800  1.0  0.0749
  C  C173  1  0.358500  0.353800  0.551200  1.0  -0.232
  C  C174  1  0.397300  0.302400  0.593800  1.0  0.1626
  C  C175  1  0.423160  0.359000  0.802900  1.0  0.1679
  C  C176  1  0.385700  0.413200  0.769100  1.0  -0.237
  C  C177  1  0.323130  0.538810  0.625600  1.0  -0.0832
  C  C178  1  0.285640  0.590710  0.569200  1.0  0.1692
  C  C179  1  0.301840  0.665070  0.588300  1.0  0.1692
  C  C180  1  0.370000  0.746700  0.662700  1.0  0.1154
  C  C181  1  0.336300  0.796400  0.597700  1.0  0.1613
  C  C182  1  0.268400  0.716800  0.525000  1.0  0.1637
  C  C183  1  0.000770  0.347010  0.943800  1.0  0.0209
  C  C184  1  0.998830  0.319180  0.058600  1.0  0.0228
  C  C185  1  0.070420  0.529550  0.699000  1.0  0.0994
  C  C186  1  0.113100  0.580300  0.731400  1.0  0.1549
  C  C187  1  0.167660  0.503350  0.868500  1.0  0.1432
  C  C188  1  0.123880  0.453850  0.839700  1.0  0.1562
  C  C189  1  0.223230  0.489720  0.960700  1.0  0.1665
  C  C190  1  0.258650  0.543470  0.009100  1.0  -0.1351
  C  C191  1  0.310450  0.530450  0.093200  1.0  0.0382
  C  C192  1  0.351900  0.588030  0.139800  1.0  0.075
  C  C193  1  0.358500  0.646200  0.051200  1.0  -0.232
  C  C194  1  0.397300  0.697600  0.093800  1.0  0.163
  C  C195  1  0.423160  0.641000  0.302900  1.0  0.1681
  C  C196  1  0.385700  0.586800  0.269100  1.0  -0.237
  C  C197  1  0.323130  0.461190  0.125600  1.0  -0.0825
  C  C198  1  0.285640  0.409290  0.069200  1.0  0.1695
  C  C199  1  0.301840  0.334930  0.088300  1.0  0.1692
  C  C200  1  0.370000  0.253300  0.162700  1.0  0.1156
  C  C201  1  0.336300  0.203600  0.097700  1.0  0.1621
  C  C202  1  0.268400  0.283200  0.025000  1.0  0.1633
  C  C203  1  0.001170  0.319180  0.441400  1.0  0.0233
  C  C204  1  0.929580  0.529550  0.801000  1.0  0.1001
  C  C205  1  0.886900  0.580300  0.768600  1.0  0.1549
  C  C206  1  0.832340  0.503350  0.631500  1.0  0.1437
  C  C207  1  0.876120  0.453850  0.660300  1.0  0.1567
  C  C208  1  0.776770  0.489720  0.539300  1.0  0.1668
  C  C209  1  0.741350  0.543470  0.490900  1.0  -0.1359
  C  C210  1  0.689550  0.530450  0.406800  1.0  0.0378
  C  C211  1  0.648100  0.588030  0.360200  1.0  0.075
  C  C212  1  0.641500  0.646200  0.448800  1.0  -0.2322
  C  C213  1  0.602700  0.697600  0.406200  1.0  0.1629
  C  C214  1  0.576840  0.641000  0.197100  1.0  0.1687
  C  C215  1  0.614300  0.586800  0.230900  1.0  -0.2362
  C  C216  1  0.676870  0.461190  0.374400  1.0  -0.0819
  C  C217  1  0.714360  0.409290  0.430800  1.0  0.1699
  C  C218  1  0.698160  0.334930  0.411700  1.0  0.1697
  C  C219  1  0.630000  0.253300  0.337300  1.0  0.1138
  C  C220  1  0.663700  0.203600  0.402300  1.0  0.1625
  C  C221  1  0.731600  0.283200  0.475000  1.0  0.1633
  C  C222  1  0.500770  0.847010  0.556200  1.0  0.0201
  C  C223  1  0.498830  0.819180  0.441400  1.0  0.0226
  C  C224  1  0.570420  0.029550  0.801000  1.0  0.0999
  C  C225  1  0.613100  0.080300  0.768600  1.0  0.155
  C  C226  1  0.667660  0.003350  0.631500  1.0  0.1429
  C  C227  1  0.623880  0.953850  0.660300  1.0  0.1561
  C  C228  1  0.723230  0.989720  0.539300  1.0  0.1668
  C  C229  1  0.758650  0.043470  0.490900  1.0  -0.1356
  C  C230  1  0.810450  0.030450  0.406800  1.0  0.0384
  C  C231  1  0.851900  0.088030  0.360200  1.0  0.075
  C  C232  1  0.858500  0.146200  0.448800  1.0  -0.2322
  C  C233  1  0.897300  0.197600  0.406200  1.0  0.163
  C  C234  1  0.923160  0.141000  0.197100  1.0  0.1687
  C  C235  1  0.885700  0.086800  0.230900  1.0  -0.2366
  C  C236  1  0.823130  0.961190  0.374400  1.0  -0.0821
  C  C237  1  0.785640  0.909290  0.430800  1.0  0.1694
  C  C238  1  0.801840  0.834930  0.411700  1.0  0.1691
  C  C239  1  0.870000  0.753300  0.337300  1.0  0.1149
  C  C240  1  0.836300  0.703600  0.402300  1.0  0.1617
  C  C241  1  0.768400  0.783200  0.475000  1.0  0.1632
  C  C242  1  0.501170  0.819180  0.058600  1.0  0.0231
  C  C243  1  0.429580  0.029550  0.699000  1.0  0.0997
  C  C244  1  0.386900  0.080300  0.731400  1.0  0.1547
  C  C245  1  0.332340  0.003350  0.868500  1.0  0.1439
  C  C246  1  0.376120  0.953850  0.839700  1.0  0.1568
  C  C247  1  0.276770  0.989720  0.960700  1.0  0.1664
  C  C248  1  0.241350  0.043470  0.009100  1.0  -0.1353
  C  C249  1  0.189550  0.030450  0.093200  1.0  0.0377
  C  C250  1  0.148100  0.088030  0.139800  1.0  0.0749
  C  C251  1  0.141500  0.146200  0.051200  1.0  -0.232
  C  C252  1  0.102700  0.197600  0.093800  1.0  0.1626
  C  C253  1  0.076840  0.141000  0.302900  1.0  0.1684
  C  C254  1  0.114300  0.086800  0.269100  1.0  -0.2365
  C  C255  1  0.176870  0.961190  0.125600  1.0  -0.082
  C  C256  1  0.214360  0.909290  0.069200  1.0  0.1699
  C  C257  1  0.198160  0.834930  0.088300  1.0  0.17
  C  C258  1  0.130000  0.753300  0.162700  1.0  0.1143
  C  C259  1  0.163700  0.703600  0.097700  1.0  0.1628
  C  C260  1  0.231600  0.783200  0.025000  1.0  0.1634
  N  N261  1  0.425300  0.033870  0.256200  1.0  -0.3667
  N  N262  1  0.338030  0.931860  0.315700  1.0  -0.4297
  N  N263  1  0.264370  0.077180  0.487900  1.0  -0.4652
  N  N264  1  0.146140  0.179710  0.656900  1.0  -0.4216
  N  N265  1  0.215400  0.282900  0.527800  1.0  -0.4287
  N  N266  1  0.069830  0.803370  0.720200  1.0  -0.3497
  N  N267  1  0.500770  0.152990  0.056200  1.0  -0.3562
  N  N268  1  0.574700  0.033870  0.243800  1.0  -0.3669
  N  N269  1  0.661970  0.931860  0.184300  1.0  -0.4278
  N  N270  1  0.735630  0.077180  0.012100  1.0  -0.4673
  N  N271  1  0.853860  0.179710  0.843100  1.0  -0.4219
  N  N272  1  0.784600  0.282900  0.972200  1.0  -0.4262
  N  N273  1  0.930170  0.803370  0.779800  1.0  -0.3477
  N  N274  1  0.925300  0.533870  0.243800  1.0  -0.3665
  N  N275  1  0.838030  0.431860  0.184300  1.0  -0.4294
  N  N276  1  0.764370  0.577180  0.012100  1.0  -0.4659
  N  N277  1  0.646140  0.679710  0.843100  1.0  -0.4216
  N  N278  1  0.715400  0.782900  0.972200  1.0  -0.4283
  N  N279  1  0.569830  0.303370  0.779800  1.0  -0.3498
  N  N280  1  0.000770  0.652990  0.443800  1.0  -0.3583
  N  N281  1  0.074700  0.533870  0.256200  1.0  -0.3673
  N  N282  1  0.161970  0.431860  0.315700  1.0  -0.428
  N  N283  1  0.235630  0.577180  0.487900  1.0  -0.4664
  N  N284  1  0.353860  0.679710  0.656900  1.0  -0.4218
  N  N285  1  0.284600  0.782900  0.527800  1.0  -0.4268
  N  N286  1  0.430170  0.303370  0.720200  1.0  -0.3474
  N  N287  1  0.074700  0.466130  0.756200  1.0  -0.3682
  N  N288  1  0.161970  0.568140  0.815700  1.0  -0.4306
  N  N289  1  0.235630  0.422820  0.987900  1.0  -0.4675
  N  N290  1  0.353860  0.320290  0.156900  1.0  -0.4234
  N  N291  1  0.284600  0.217100  0.027800  1.0  -0.428
  N  N292  1  0.430170  0.696630  0.220200  1.0  -0.3477
  N  N293  1  0.999230  0.347010  0.556200  1.0  -0.3557
  N  N294  1  0.925300  0.466130  0.743800  1.0  -0.3662
  N  N295  1  0.838030  0.568140  0.684300  1.0  -0.4308
  N  N296  1  0.764370  0.422820  0.512100  1.0  -0.4658
  N  N297  1  0.646140  0.320290  0.343100  1.0  -0.4222
  N  N298  1  0.715400  0.217100  0.472200  1.0  -0.4281
  N  N299  1  0.569830  0.696630  0.279800  1.0  -0.3483
  N  N300  1  0.574700  0.966130  0.743800  1.0  -0.3679
  N  N301  1  0.661970  0.068140  0.684300  1.0  -0.4304
  N  N302  1  0.735630  0.922820  0.512100  1.0  -0.4678
  N  N303  1  0.853860  0.820290  0.343100  1.0  -0.4228
  N  N304  1  0.784600  0.717100  0.472200  1.0  -0.4267
  N  N305  1  0.930170  0.196630  0.279800  1.0  -0.3478
  N  N306  1  0.499230  0.847010  0.943800  1.0  -0.3583
  N  N307  1  0.425300  0.966130  0.756200  1.0  -0.3663
  N  N308  1  0.338030  0.068140  0.815700  1.0  -0.4309
  N  N309  1  0.264370  0.922820  0.987900  1.0  -0.466
  N  N310  1  0.146140  0.820290  0.156900  1.0  -0.4227
  N  N311  1  0.215400  0.717100  0.027800  1.0  -0.4293
  N  N312  1  0.069830  0.196630  0.220200  1.0  -0.3484
