# generated using pymatgen
data_Zn2H15C27O10
_symmetry_space_group_name_H-M   'P 1'
_cell_length_a   12.28130000
_cell_length_b   27.32050000
_cell_length_c   16.46500000
_cell_angle_alpha   90.00000000
_cell_angle_beta   102.86300000
_cell_angle_gamma   90.00000000
_symmetry_Int_Tables_number   1
_chemical_formula_structural   Zn2H15C27O10
_chemical_formula_sum   'Zn8 H60 C108 O40'
_cell_volume   5385.88513916
_cell_formula_units_Z   4
loop_
 _symmetry_equiv_pos_site_id
 _symmetry_equiv_pos_as_xyz
  1  'x, y, z'
loop_
 _atom_site_type_symbol
 _atom_site_label
 _atom_site_symmetry_multiplicity
 _atom_site_fract_x
 _atom_site_fract_y
 _atom_site_fract_z
 _atom_site_occupancy
 _atom_site_charge
  Zn  Zn1  1  0.057120  0.551430  0.002720  1.0  1.1053
  Zn  Zn2  1  0.231320  0.464970  0.012870  1.0  0.9596
  Zn  Zn3  1  0.942880  0.051430  0.497280  1.0  1.1061
  Zn  Zn4  1  0.768680  0.964970  0.487130  1.0  0.9617
  Zn  Zn5  1  0.942880  0.448570  0.997280  1.0  1.1063
  Zn  Zn6  1  0.768680  0.535030  0.987130  1.0  0.9596
  Zn  Zn7  1  0.057120  0.948570  0.502720  1.0  1.1072
  Zn  Zn8  1  0.231320  0.035030  0.512870  1.0  0.9614
  H  H9  1  0.475200  0.542500  0.904400  1.0  0.1009
  H  H10  1  0.567200  0.585700  0.816700  1.0  0.1078
  H  H11  1  0.304100  0.678100  0.755600  1.0  0.1275
  H  H12  1  0.212800  0.635500  0.844400  1.0  0.1034
  H  H13  1  0.398300  0.473500  0.280600  1.0  0.099
  H  H14  1  0.446600  0.489600  0.423800  1.0  0.1052
  H  H15  1  0.183500  0.580100  0.402500  1.0  0.1227
  H  H16  1  0.135100  0.565800  0.258800  1.0  0.1042
  H  H17  1  0.554900  0.837800  0.452900  1.0  0.091
  H  H18  1  0.481500  0.759200  0.423100  1.0  0.1196
  H  H19  1  0.777600  0.700700  0.537700  1.0  0.1235
  H  H20  1  0.847900  0.779300  0.575000  1.0  0.1065
  H  H21  1  0.384400  0.583800  0.652100  1.0  0.1235
  H  H22  1  0.458900  0.602800  0.425100  1.0  0.1256
  H  H23  1  0.578800  0.698300  0.613500  1.0  0.1267
  H  H24  1  0.524800  0.042500  0.595600  1.0  0.1007
  H  H25  1  0.432800  0.085700  0.683300  1.0  0.1073
  H  H26  1  0.695900  0.178100  0.744400  1.0  0.1264
  H  H27  1  0.787200  0.135500  0.655600  1.0  0.1045
  H  H28  1  0.601700  0.973500  0.219400  1.0  0.0987
  H  H29  1  0.553400  0.989600  0.076200  1.0  0.1051
  H  H30  1  0.816500  0.080100  0.097500  1.0  0.123
  H  H31  1  0.864900  0.065800  0.241200  1.0  0.104
  H  H32  1  0.445100  0.337800  0.047100  1.0  0.0907
  H  H33  1  0.518500  0.259200  0.076900  1.0  0.119
  H  H34  1  0.222400  0.200700  0.962300  1.0  0.1234
  H  H35  1  0.152100  0.279300  0.925000  1.0  0.1068
  H  H36  1  0.615600  0.083800  0.847900  1.0  0.1234
  H  H37  1  0.541100  0.102800  0.074900  1.0  0.1254
  H  H38  1  0.421200  0.198300  0.886500  1.0  0.1269
  H  H39  1  0.524800  0.457500  0.095600  1.0  0.1012
  H  H40  1  0.432800  0.414300  0.183300  1.0  0.1071
  H  H41  1  0.695900  0.321900  0.244400  1.0  0.1264
  H  H42  1  0.787200  0.364500  0.155600  1.0  0.104
  H  H43  1  0.601700  0.526500  0.719400  1.0  0.0989
  H  H44  1  0.553400  0.510400  0.576200  1.0  0.1053
  H  H45  1  0.816500  0.419900  0.597500  1.0  0.1224
  H  H46  1  0.864900  0.434200  0.741200  1.0  0.1039
  H  H47  1  0.445100  0.162200  0.547100  1.0  0.0908
  H  H48  1  0.518500  0.240800  0.576900  1.0  0.1185
  H  H49  1  0.222400  0.299300  0.462300  1.0  0.1249
  H  H50  1  0.152100  0.220700  0.425000  1.0  0.1068
  H  H51  1  0.615600  0.416200  0.347900  1.0  0.1236
  H  H52  1  0.541100  0.397200  0.574900  1.0  0.1256
  H  H53  1  0.421200  0.301700  0.386500  1.0  0.1265
  H  H54  1  0.475200  0.957500  0.404400  1.0  0.101
  H  H55  1  0.567200  0.914300  0.316700  1.0  0.1078
  H  H56  1  0.304100  0.821900  0.255600  1.0  0.126
  H  H57  1  0.212800  0.864500  0.344400  1.0  0.1037
  H  H58  1  0.398300  0.026500  0.780600  1.0  0.0989
  H  H59  1  0.446600  0.010400  0.923800  1.0  0.1053
  H  H60  1  0.183500  0.919900  0.902500  1.0  0.1229
  H  H61  1  0.135100  0.934200  0.758800  1.0  0.1038
  H  H62  1  0.554900  0.662200  0.952900  1.0  0.0914
  H  H63  1  0.481500  0.740800  0.923100  1.0  0.1197
  H  H64  1  0.777600  0.799300  0.037700  1.0  0.1241
  H  H65  1  0.847900  0.720700  0.075000  1.0  0.1065
  H  H66  1  0.384400  0.916200  0.152100  1.0  0.1233
  H  H67  1  0.458900  0.897200  0.925100  1.0  0.1256
  H  H68  1  0.578800  0.801700  0.113500  1.0  0.1269
  C  C69  1  0.272800  0.555370  0.934800  1.0  0.7133
  C  C70  1  0.334100  0.583940  0.881000  1.0  -0.1137
  C  C71  1  0.440000  0.569840  0.873700  1.0  -0.0275
  C  C72  1  0.494700  0.595290  0.821700  1.0  -0.1631
  C  C73  1  0.441900  0.634840  0.777600  1.0  0.2258
  C  C74  1  0.338200  0.650400  0.785600  1.0  -0.2109
  C  C75  1  0.284100  0.624900  0.837900  1.0  -0.0115
  C  C76  1  0.230500  0.510460  0.162700  1.0  0.7035
  C  C77  1  0.261600  0.518530  0.255200  1.0  -0.1316
  C  C78  1  0.354700  0.495500  0.304900  1.0  -0.0302
  C  C79  1  0.383300  0.505000  0.389700  1.0  -0.2038
  C  C80  1  0.319300  0.536600  0.423900  1.0  0.2504
  C  C81  1  0.227400  0.558800  0.377200  1.0  -0.1865
  C  C82  1  0.198600  0.550100  0.292000  1.0  -0.0342
  C  C83  1  0.757300  0.866200  0.536500  1.0  0.7049
  C  C84  1  0.708700  0.815720  0.516500  1.0  -0.1362
  C  C85  1  0.599800  0.809900  0.471300  1.0  -0.0609
  C  C86  1  0.556600  0.763300  0.452900  1.0  -0.1833
  C  C87  1  0.622300  0.723600  0.477900  1.0  0.2383
  C  C88  1  0.732000  0.728700  0.522000  1.0  -0.1792
  C  C89  1  0.774100  0.775300  0.542700  1.0  -0.0227
  C  C90  1  0.483300  0.642850  0.644700  1.0  0.2708
  C  C91  1  0.420700  0.601830  0.616400  1.0  -0.1749
  C  C92  1  0.412200  0.587620  0.534000  1.0  0.3056
  C  C93  1  0.465000  0.612970  0.481100  1.0  -0.1729
  C  C94  1  0.527600  0.653960  0.512900  1.0  0.2775
  C  C95  1  0.537000  0.669850  0.593500  1.0  -0.1481
  C  C96  1  0.727200  0.055370  0.565200  1.0  0.7137
  C  C97  1  0.665900  0.083940  0.619000  1.0  -0.1143
  C  C98  1  0.560000  0.069840  0.626300  1.0  -0.0276
  C  C99  1  0.505300  0.095290  0.678300  1.0  -0.1616
  C  C100  1  0.558100  0.134840  0.722400  1.0  0.2261
  C  C101  1  0.661800  0.150400  0.714400  1.0  -0.2089
  C  C102  1  0.715900  0.124900  0.662100  1.0  -0.0106
  C  C103  1  0.769500  0.010460  0.337300  1.0  0.7045
  C  C104  1  0.738400  0.018530  0.244800  1.0  -0.132
  C  C105  1  0.645300  0.995500  0.195100  1.0  -0.031
  C  C106  1  0.616700  0.005000  0.110300  1.0  -0.2041
  C  C107  1  0.680700  0.036600  0.076100  1.0  0.2532
  C  C108  1  0.772600  0.058800  0.122800  1.0  -0.1844
  C  C109  1  0.801400  0.050100  0.208000  1.0  -0.0332
  C  C110  1  0.242700  0.366200  0.963500  1.0  0.704
  C  C111  1  0.291300  0.315720  0.983500  1.0  -0.1352
  C  C112  1  0.400200  0.309900  0.028700  1.0  -0.0622
  C  C113  1  0.443400  0.263300  0.047100  1.0  -0.1821
  C  C114  1  0.377700  0.223600  0.022100  1.0  0.2361
  C  C115  1  0.268000  0.228700  0.978000  1.0  -0.1802
  C  C116  1  0.225900  0.275300  0.957300  1.0  -0.0241
  C  C117  1  0.516700  0.142850  0.855300  1.0  0.2711
  C  C118  1  0.579300  0.101830  0.883600  1.0  -0.1758
  C  C119  1  0.587800  0.087620  0.966000  1.0  0.3052
  C  C120  1  0.535000  0.112970  0.018900  1.0  -0.1728
  C  C121  1  0.472400  0.153960  0.987100  1.0  0.2767
  C  C122  1  0.463000  0.169850  0.906500  1.0  -0.1487
  C  C123  1  0.727200  0.444630  0.065200  1.0  0.7141
  C  C124  1  0.665900  0.416060  0.119000  1.0  -0.1142
  C  C125  1  0.560000  0.430160  0.126300  1.0  -0.0264
  C  C126  1  0.505300  0.404710  0.178300  1.0  -0.1618
  C  C127  1  0.558100  0.365160  0.222400  1.0  0.2266
  C  C128  1  0.661800  0.349600  0.214400  1.0  -0.2093
  C  C129  1  0.715900  0.375100  0.162100  1.0  -0.01
  C  C130  1  0.769500  0.489540  0.837300  1.0  0.7047
  C  C131  1  0.738400  0.481470  0.744800  1.0  -0.1318
  C  C132  1  0.645300  0.504500  0.695100  1.0  -0.0314
  C  C133  1  0.616700  0.495000  0.610300  1.0  -0.2041
  C  C134  1  0.680700  0.463400  0.576100  1.0  0.2529
  C  C135  1  0.772600  0.441200  0.622800  1.0  -0.1848
  C  C136  1  0.801400  0.449900  0.708000  1.0  -0.0336
  C  C137  1  0.242700  0.133800  0.463500  1.0  0.7022
  C  C138  1  0.291300  0.184280  0.483500  1.0  -0.1359
  C  C139  1  0.400200  0.190100  0.528700  1.0  -0.0613
  C  C140  1  0.443400  0.236700  0.547100  1.0  -0.1825
  C  C141  1  0.377700  0.276400  0.522100  1.0  0.2364
  C  C142  1  0.268000  0.271300  0.478000  1.0  -0.1814
  C  C143  1  0.225900  0.224700  0.457300  1.0  -0.0238
  C  C144  1  0.516700  0.357150  0.355300  1.0  0.2706
  C  C145  1  0.579300  0.398170  0.383600  1.0  -0.1755
  C  C146  1  0.587800  0.412380  0.466000  1.0  0.3055
  C  C147  1  0.535000  0.387030  0.518900  1.0  -0.1721
  C  C148  1  0.472400  0.346040  0.487100  1.0  0.2771
  C  C149  1  0.463000  0.330150  0.406500  1.0  -0.1484
  C  C150  1  0.272800  0.944630  0.434800  1.0  0.7132
  C  C151  1  0.334100  0.916060  0.381000  1.0  -0.1141
  C  C152  1  0.440000  0.930160  0.373700  1.0  -0.0269
  C  C153  1  0.494700  0.904710  0.321700  1.0  -0.1636
  C  C154  1  0.441900  0.865160  0.277600  1.0  0.2256
  C  C155  1  0.338200  0.849600  0.285600  1.0  -0.2113
  C  C156  1  0.284100  0.875100  0.337900  1.0  -0.0113
  C  C157  1  0.230500  0.989540  0.662700  1.0  0.7033
  C  C158  1  0.261600  0.981470  0.755200  1.0  -0.1311
  C  C159  1  0.354700  0.004500  0.804900  1.0  -0.0306
  C  C160  1  0.383300  0.995000  0.889700  1.0  -0.204
  C  C161  1  0.319300  0.963400  0.923900  1.0  0.2501
  C  C162  1  0.227400  0.941200  0.877200  1.0  -0.1861
  C  C163  1  0.198600  0.949900  0.792000  1.0  -0.0333
  C  C164  1  0.757300  0.633800  0.036500  1.0  0.7047
  C  C165  1  0.708700  0.684280  0.016500  1.0  -0.1355
  C  C166  1  0.599800  0.690100  0.971300  1.0  -0.0603
  C  C167  1  0.556600  0.736700  0.952900  1.0  -0.1829
  C  C168  1  0.622300  0.776400  0.977900  1.0  0.2393
  C  C169  1  0.732000  0.771300  0.022000  1.0  -0.1798
  C  C170  1  0.774100  0.724700  0.042700  1.0  -0.0232
  C  C171  1  0.483300  0.857150  0.144700  1.0  0.2706
  C  C172  1  0.420700  0.898170  0.116400  1.0  -0.1747
  C  C173  1  0.412200  0.912380  0.034000  1.0  0.306
  C  C174  1  0.465000  0.887030  0.981100  1.0  -0.1722
  C  C175  1  0.527600  0.846040  0.012900  1.0  0.2775
  C  C176  1  0.537000  0.830150  0.093500  1.0  -0.1477
  O  O177  1  0.187000  0.574850  0.950200  1.0  -0.6582
  O  O178  1  0.312700  0.514180  0.959600  1.0  -0.5909
  O  O179  1  0.496100  0.660700  0.724600  1.0  -0.286
  O  O180  1  0.154900  0.536530  0.121900  1.0  -0.6587
  O  O181  1  0.284200  0.477940  0.133400  1.0  -0.5788
  O  O182  1  0.349100  0.546150  0.510100  1.0  -0.2817
  O  O183  1  0.845400  0.870440  0.589700  1.0  -0.4664
  O  O184  1  0.702900  0.901070  0.495100  1.0  -0.6129
  O  O185  1  0.579600  0.676660  0.457000  1.0  -0.2835
  O  O186  1  0.077300  0.479400  0.960650  1.0  -0.8362
  O  O187  1  0.813000  0.074850  0.549800  1.0  -0.6579
  O  O188  1  0.687300  0.014180  0.540400  1.0  -0.5913
  O  O189  1  0.503900  0.160700  0.775400  1.0  -0.2839
  O  O190  1  0.845100  0.036530  0.378100  1.0  -0.6592
  O  O191  1  0.715800  0.977940  0.366600  1.0  -0.5788
  O  O192  1  0.650900  0.046150  0.989900  1.0  -0.2817
  O  O193  1  0.154600  0.370440  0.910300  1.0  -0.4639
  O  O194  1  0.297100  0.401070  0.004900  1.0  -0.613
  O  O195  1  0.420400  0.176660  0.043000  1.0  -0.2887
  O  O196  1  0.922700  0.979400  0.539350  1.0  -0.8356
  O  O197  1  0.813000  0.425150  0.049800  1.0  -0.6581
  O  O198  1  0.687300  0.485820  0.040400  1.0  -0.5919
  O  O199  1  0.503900  0.339300  0.275400  1.0  -0.2828
  O  O200  1  0.845100  0.463470  0.878100  1.0  -0.6591
  O  O201  1  0.715800  0.522060  0.866600  1.0  -0.578
  O  O202  1  0.650900  0.453850  0.489900  1.0  -0.2824
  O  O203  1  0.154600  0.129560  0.410300  1.0  -0.4644
  O  O204  1  0.297100  0.098930  0.504900  1.0  -0.6119
  O  O205  1  0.420400  0.323340  0.543000  1.0  -0.288
  O  O206  1  0.922700  0.520600  0.039350  1.0  -0.836
  O  O207  1  0.187000  0.925150  0.450200  1.0  -0.6594
  O  O208  1  0.312700  0.985820  0.459600  1.0  -0.592
  O  O209  1  0.496100  0.839300  0.224600  1.0  -0.2844
  O  O210  1  0.154900  0.963470  0.621900  1.0  -0.6592
  O  O211  1  0.284200  0.022060  0.633400  1.0  -0.5784
  O  O212  1  0.349100  0.953850  0.010100  1.0  -0.2825
  O  O213  1  0.845400  0.629560  0.089700  1.0  -0.4669
  O  O214  1  0.702900  0.598930  0.995100  1.0  -0.6118
  O  O215  1  0.579600  0.823340  0.957000  1.0  -0.2845
  O  O216  1  0.077300  0.020600  0.460650  1.0  -0.8367
