# generated using pymatgen
data_Zn2Cu3H30(C3N2)10
_symmetry_space_group_name_H-M   'P 1'
_cell_length_a   11.94600000
_cell_length_b   13.30200000
_cell_length_c   17.77700000
_cell_angle_alpha   90.00000000
_cell_angle_beta   98.35000000
_cell_angle_gamma   90.00000000
_symmetry_Int_Tables_number   1
_chemical_formula_structural   Zn2Cu3H30(C3N2)10
_chemical_formula_sum   'Zn4 Cu6 H60 C60 N40'
_cell_volume   2794.92131365
_cell_formula_units_Z   2
loop_
 _symmetry_equiv_pos_site_id
 _symmetry_equiv_pos_as_xyz
  1  'x, y, z'
loop_
 _atom_site_type_symbol
 _atom_site_label
 _atom_site_symmetry_multiplicity
 _atom_site_fract_x
 _atom_site_fract_y
 _atom_site_fract_z
 _atom_site_occupancy
 _atom_site_charge
  Zn  Zn1  1  0.672460  0.540850  0.203040  1.0  0.7443
  Zn  Zn2  1  0.827540  0.040850  0.296960  1.0  0.7447
  Zn  Zn3  1  0.327540  0.459150  0.796960  1.0  0.7447
  Zn  Zn4  1  0.172460  0.959150  0.703040  1.0  0.7443
  Cu  Cu5  1  0.041360  0.677030  0.442840  1.0  0.6478
  Cu  Cu6  1  0.458640  0.177030  0.057160  1.0  0.6465
  Cu  Cu7  1  0.958640  0.322970  0.557160  1.0  0.6472
  Cu  Cu8  1  0.541360  0.822970  0.942840  1.0  0.648
  Cu  Cu9  1  0.500000  0.500000  0.500000  1.0  0.5714
  Cu  Cu10  1  0.000000  0.000000  0.000000  1.0  0.5714
  H  H11  1  0.531900  0.349600  0.172100  1.0  0.0697
  H  H12  1  0.753900  0.442700  0.050200  1.0  0.1021
  H  H13  1  0.658900  0.296200  0.988700  1.0  0.0983
  H  H14  1  0.660000  0.510200  0.375100  1.0  0.072
  H  H15  1  0.405200  0.531800  0.216600  1.0  0.0945
  H  H16  1  0.332300  0.512500  0.335900  1.0  0.1085
  H  H17  1  0.803900  0.644800  0.349100  1.0  0.0873
  H  H18  1  0.931700  0.474100  0.205800  1.0  0.1039
  H  H19  1  0.086100  0.530000  0.301300  1.0  0.1095
  H  H20  1  0.299100  0.654000  0.478000  1.0  0.065
  H  H21  1  0.084700  0.432700  0.449300  1.0  0.1092
  H  H22  1  0.275200  0.362600  0.477800  1.0  0.103
  H  H23  1  0.082500  0.876700  0.538000  1.0  0.0773
  H  H24  1  0.134000  0.603700  0.614300  1.0  0.1098
  H  H25  1  0.185500  0.719200  0.718700  1.0  0.0974
  H  H26  1  0.968100  0.849600  0.327900  1.0  0.0692
  H  H27  1  0.746100  0.942700  0.449800  1.0  0.1023
  H  H28  1  0.841100  0.796200  0.511300  1.0  0.0977
  H  H29  1  0.840000  0.010200  0.124900  1.0  0.0713
  H  H30  1  0.094800  0.031800  0.283400  1.0  0.0947
  H  H31  1  0.167700  0.012500  0.164100  1.0  0.1075
  H  H32  1  0.696100  0.144800  0.150900  1.0  0.0875
  H  H33  1  0.568300  0.974100  0.294200  1.0  0.1044
  H  H34  1  0.413900  0.030000  0.198700  1.0  0.1099
  H  H35  1  0.200900  0.154000  0.022000  1.0  0.0657
  H  H36  1  0.415300  0.932700  0.050700  1.0  0.1096
  H  H37  1  0.224800  0.862600  0.022200  1.0  0.1024
  H  H38  1  0.417500  0.376700  0.962000  1.0  0.0766
  H  H39  1  0.366000  0.103700  0.885700  1.0  0.1097
  H  H40  1  0.314500  0.219200  0.781300  1.0  0.0968
  H  H41  1  0.468100  0.650400  0.827900  1.0  0.0692
  H  H42  1  0.246100  0.557300  0.949800  1.0  0.1025
  H  H43  1  0.341100  0.703800  0.011300  1.0  0.0979
  H  H44  1  0.340000  0.489800  0.624900  1.0  0.0716
  H  H45  1  0.594800  0.468200  0.783400  1.0  0.0953
  H  H46  1  0.667700  0.487500  0.664100  1.0  0.107
  H  H47  1  0.196100  0.355200  0.650900  1.0  0.0874
  H  H48  1  0.068300  0.525900  0.794200  1.0  0.1042
  H  H49  1  0.913900  0.470000  0.698700  1.0  0.1096
  H  H50  1  0.700900  0.346000  0.522000  1.0  0.0661
  H  H51  1  0.915300  0.567300  0.550700  1.0  0.1098
  H  H52  1  0.724800  0.637400  0.522200  1.0  0.1032
  H  H53  1  0.917500  0.123300  0.462000  1.0  0.0776
  H  H54  1  0.866000  0.396300  0.385700  1.0  0.1101
  H  H55  1  0.814500  0.280800  0.281300  1.0  0.0961
  H  H56  1  0.031900  0.150400  0.672100  1.0  0.0697
  H  H57  1  0.253900  0.057300  0.550200  1.0  0.1018
  H  H58  1  0.158900  0.203800  0.488700  1.0  0.0983
  H  H59  1  0.160000  0.989800  0.875100  1.0  0.0718
  H  H60  1  0.905200  0.968200  0.716600  1.0  0.0945
  H  H61  1  0.832300  0.987500  0.835900  1.0  0.1085
  H  H62  1  0.303900  0.855200  0.849100  1.0  0.0873
  H  H63  1  0.431700  0.025900  0.705800  1.0  0.1036
  H  H64  1  0.586100  0.970000  0.801300  1.0  0.1096
  H  H65  1  0.799100  0.846000  0.978000  1.0  0.0652
  H  H66  1  0.584700  0.067300  0.949300  1.0  0.1099
  H  H67  1  0.775200  0.137400  0.977800  1.0  0.1024
  H  H68  1  0.582500  0.623300  0.038000  1.0  0.0763
  H  H69  1  0.634000  0.896300  0.114300  1.0  0.1105
  H  H70  1  0.685500  0.780800  0.218700  1.0  0.097
  C  C71  1  0.576400  0.354200  0.133500  1.0  0.2585
  C  C72  1  0.697100  0.406100  0.068300  1.0  -0.0306
  C  C73  1  0.643800  0.324200  0.034100  1.0  -0.0302
  C  C74  1  0.586100  0.515300  0.350400  1.0  0.2339
  C  C75  1  0.449200  0.525900  0.264100  1.0  -0.0281
  C  C76  1  0.408400  0.516000  0.330200  1.0  -0.0283
  C  C77  1  0.855500  0.609100  0.325100  1.0  0.2433
  C  C78  1  0.924200  0.515600  0.246900  1.0  -0.0193
  C  C79  1  0.010300  0.547200  0.299600  1.0  -0.0345
  C  C80  1  0.269300  0.589300  0.474200  1.0  0.2503
  C  C81  1  0.151400  0.469600  0.458400  1.0  -0.0572
  C  C82  1  0.257300  0.430700  0.474300  1.0  -0.0674
  C  C83  1  0.102600  0.822600  0.570400  1.0  0.2255
  C  C84  1  0.129800  0.673500  0.611300  1.0  -0.0594
  C  C85  1  0.158900  0.737500  0.668800  1.0  -0.0092
  C  C86  1  0.923600  0.854200  0.366500  1.0  0.2581
  C  C87  1  0.802900  0.906100  0.431700  1.0  -0.0312
  C  C88  1  0.856200  0.824200  0.465900  1.0  -0.0316
  C  C89  1  0.913900  0.015300  0.149600  1.0  0.2345
  C  C90  1  0.050800  0.025900  0.235900  1.0  -0.0285
  C  C91  1  0.091600  0.016000  0.169800  1.0  -0.0275
  C  C92  1  0.644500  0.109100  0.174900  1.0  0.2438
  C  C93  1  0.575800  0.015600  0.253100  1.0  -0.0203
  C  C94  1  0.489700  0.047200  0.200400  1.0  -0.0345
  C  C95  1  0.230700  0.089300  0.025800  1.0  0.2507
  C  C96  1  0.348600  0.969600  0.041600  1.0  -0.0569
  C  C97  1  0.242700  0.930700  0.025700  1.0  -0.0673
  C  C98  1  0.397400  0.322600  0.929600  1.0  0.2256
  C  C99  1  0.370200  0.173500  0.888700  1.0  -0.0592
  C  C100  1  0.341100  0.237500  0.831200  1.0  -0.0096
  C  C101  1  0.423600  0.645800  0.866500  1.0  0.2582
  C  C102  1  0.302900  0.593900  0.931700  1.0  -0.031
  C  C103  1  0.356200  0.675800  0.965900  1.0  -0.0305
  C  C104  1  0.413900  0.484700  0.649600  1.0  0.2344
  C  C105  1  0.550800  0.474100  0.735900  1.0  -0.0279
  C  C106  1  0.591600  0.484000  0.669800  1.0  -0.0274
  C  C107  1  0.144500  0.390900  0.674900  1.0  0.2438
  C  C108  1  0.075800  0.484400  0.753100  1.0  -0.0209
  C  C109  1  0.989700  0.452800  0.700400  1.0  -0.0344
  C  C110  1  0.730700  0.410700  0.525800  1.0  0.2522
  C  C111  1  0.848600  0.530400  0.541600  1.0  -0.057
  C  C112  1  0.742700  0.569300  0.525700  1.0  -0.0681
  C  C113  1  0.897400  0.177400  0.429600  1.0  0.2275
  C  C114  1  0.870200  0.326500  0.388700  1.0  -0.0594
  C  C115  1  0.841100  0.262500  0.331200  1.0  -0.0097
  C  C116  1  0.076400  0.145800  0.633500  1.0  0.2583
  C  C117  1  0.197100  0.093900  0.568300  1.0  -0.0308
  C  C118  1  0.143800  0.175800  0.534100  1.0  -0.0308
  C  C119  1  0.086100  0.984700  0.850400  1.0  0.2339
  C  C120  1  0.949200  0.974100  0.764100  1.0  -0.0283
  C  C121  1  0.908400  0.984000  0.830200  1.0  -0.0281
  C  C122  1  0.355500  0.890900  0.825100  1.0  0.2437
  C  C123  1  0.424200  0.984400  0.746900  1.0  -0.0197
  C  C124  1  0.510300  0.952800  0.799600  1.0  -0.0353
  C  C125  1  0.769300  0.910700  0.974200  1.0  0.2506
  C  C126  1  0.651400  0.030400  0.958400  1.0  -0.0577
  C  C127  1  0.757300  0.069300  0.974300  1.0  -0.0679
  C  C128  1  0.602600  0.677400  0.070400  1.0  0.2256
  C  C129  1  0.629800  0.826500  0.111300  1.0  -0.0594
  C  C130  1  0.658900  0.762500  0.168800  1.0  -0.0083
  N  N131  1  0.653900  0.425400  0.132600  1.0  -0.3918
  N  N132  1  0.566400  0.289500  0.075400  1.0  -0.3972
  N  N133  1  0.563000  0.526200  0.276700  1.0  -0.3993
  N  N134  1  0.497400  0.511800  0.388000  1.0  -0.4484
  N  N135  1  0.826100  0.553600  0.263200  1.0  -0.3959
  N  N136  1  0.967000  0.608200  0.349400  1.0  -0.4158
  N  N137  1  0.159300  0.571200  0.458000  1.0  -0.3749
  N  N138  1  0.333000  0.508000  0.484400  1.0  -0.324
  N  N139  1  0.092900  0.727700  0.547400  1.0  -0.381
  N  N140  1  0.143300  0.833900  0.643100  1.0  -0.4076
  N  N141  1  0.846100  0.925400  0.367400  1.0  -0.3913
  N  N142  1  0.933600  0.789500  0.424600  1.0  -0.396
  N  N143  1  0.937000  0.026200  0.223300  1.0  -0.4001
  N  N144  1  0.002600  0.011800  0.112000  1.0  -0.4474
  N  N145  1  0.673900  0.053600  0.236800  1.0  -0.3952
  N  N146  1  0.533000  0.108200  0.150600  1.0  -0.4172
  N  N147  1  0.340700  0.071200  0.042000  1.0  -0.3746
  N  N148  1  0.167000  0.008000  0.015600  1.0  -0.3233
  N  N149  1  0.407100  0.227700  0.952600  1.0  -0.3802
  N  N150  1  0.356700  0.333900  0.856900  1.0  -0.4061
  N  N151  1  0.346100  0.574600  0.867400  1.0  -0.3901
  N  N152  1  0.433600  0.710500  0.924600  1.0  -0.395
  N  N153  1  0.437000  0.473800  0.723300  1.0  -0.4004
  N  N154  1  0.502600  0.488200  0.612000  1.0  -0.4474
  N  N155  1  0.173900  0.446400  0.736800  1.0  -0.3954
  N  N156  1  0.033000  0.391800  0.650600  1.0  -0.4168
  N  N157  1  0.840700  0.428800  0.542000  1.0  -0.3727
  N  N158  1  0.667000  0.492000  0.515600  1.0  -0.3231
  N  N159  1  0.907100  0.272300  0.452600  1.0  -0.3791
  N  N160  1  0.856700  0.166100  0.356900  1.0  -0.4064
  N  N161  1  0.153900  0.074600  0.632600  1.0  -0.3904
  N  N162  1  0.066400  0.210500  0.575400  1.0  -0.3966
  N  N163  1  0.063000  0.973800  0.776700  1.0  -0.3999
  N  N164  1  0.997400  0.988200  0.888000  1.0  -0.4486
  N  N165  1  0.326100  0.946400  0.763200  1.0  -0.3956
  N  N166  1  0.467000  0.891800  0.849400  1.0  -0.4153
  N  N167  1  0.659300  0.928800  0.958000  1.0  -0.375
  N  N168  1  0.833000  0.992000  0.984400  1.0  -0.3241
  N  N169  1  0.592900  0.772300  0.047400  1.0  -0.3799
  N  N170  1  0.643300  0.666100  0.143100  1.0  -0.4069
