# generated using pymatgen
data_ZnH4(CN5)2
_symmetry_space_group_name_H-M   'P 1'
_cell_length_a   8.95900000
_cell_length_b   10.06920000
_cell_length_c   10.12050000
_cell_angle_alpha   119.75000000
_cell_angle_beta   116.18200000
_cell_angle_gamma   90.16110000
_symmetry_Int_Tables_number   1
_chemical_formula_structural   ZnH4(CN5)2
_chemical_formula_sum   'Zn2 H8 C4 N20'
_cell_volume   681.89227760
_cell_formula_units_Z   2
loop_
 _symmetry_equiv_pos_site_id
 _symmetry_equiv_pos_as_xyz
  1  'x, y, z'
loop_
 _atom_site_type_symbol
 _atom_site_label
 _atom_site_symmetry_multiplicity
 _atom_site_fract_x
 _atom_site_fract_y
 _atom_site_fract_z
 _atom_site_occupancy
 _atom_site_charge
  Zn  Zn1  1  0.169370  0.836020  0.274340  1.0  0.7677
  Zn  Zn2  1  0.395030  0.561680  0.725660  1.0  0.7665
  H  H3  1  0.500400  0.107900  0.657600  1.0  0.383
  H  H4  1  0.546700  0.284900  0.774800  1.0  0.3404
  H  H5  1  0.705800  0.870500  0.897400  1.0  0.3565
  H  H6  1  0.887800  0.946800  0.049200  1.0  0.3495
  H  H7  1  0.342800  0.450300  0.342400  1.0  0.3846
  H  H8  1  0.271900  0.510100  0.225200  1.0  0.342
  H  H9  1  0.308400  0.973100  0.102600  1.0  0.355
  H  H10  1  0.338600  0.897600  0.950800  1.0  0.3482
  C  C11  1  0.341400  0.198000  0.544600  1.0  0.4684
  C  C12  1  0.783000  0.750600  0.000600  1.0  0.6039
  C  C13  1  0.296800  0.653400  0.455400  1.0  0.4683
  C  C14  1  0.282400  0.750000  0.999400  1.0  0.6041
  N  N15  1  0.479800  0.196800  0.675000  1.0  -0.749
  N  N16  1  0.309100  0.330100  0.548200  1.0  -0.3459
  N  N17  1  0.178400  0.276100  0.382800  1.0  -0.095
  N  N18  1  0.129700  0.124700  0.291600  1.0  -0.1206
  N  N19  1  0.232000  0.069500  0.387800  1.0  -0.3241
  N  N20  1  0.793400  0.870000  0.980000  1.0  -0.7357
  N  N21  1  0.912900  0.739200  0.122000  1.0  -0.3513
  N  N22  1  0.846700  0.603800  0.106600  1.0  -0.1431
  N  N23  1  0.692400  0.536900  0.974800  1.0  -0.0955
  N  N24  1  0.645900  0.625200  0.903600  1.0  -0.3039
  N  N25  1  0.304800  0.521800  0.325000  1.0  -0.7493
  N  N26  1  0.260900  0.781900  0.451800  1.0  -0.3439
  N  N27  1  0.295600  0.893300  0.617200  1.0  -0.0972
  N  N28  1  0.338100  0.833100  0.708400  1.0  -0.1234
  N  N29  1  0.344200  0.681700  0.612200  1.0  -0.3229
  N  N30  1  0.313400  0.890000  0.020000  1.0  -0.7356
  N  N31  1  0.290900  0.617200  0.878000  1.0  -0.3526
  N  N32  1  0.240100  0.497200  0.893400  1.0  -0.1452
  N  N33  1  0.217600  0.562100  0.025200  1.0  -0.0952
  N  N34  1  0.242300  0.721600  0.096400  1.0  -0.3084
