# generated using pymatgen
data_RbYFe2C10(N6O)2
_symmetry_space_group_name_H-M   'P 1'
_cell_length_a   9.81200000
_cell_length_b   25.79300000
_cell_length_c   11.77700000
_cell_angle_alpha   90.00000000
_cell_angle_beta   104.68000000
_cell_angle_gamma   90.00000000
_symmetry_Int_Tables_number   1
_chemical_formula_structural   RbYFe2C10(N6O)2
_chemical_formula_sum   'Rb4 Y4 Fe8 C40 N48 O8'
_cell_volume   2883.23820848
_cell_formula_units_Z   4
loop_
 _symmetry_equiv_pos_site_id
 _symmetry_equiv_pos_as_xyz
  1  'x, y, z'
loop_
 _atom_site_type_symbol
 _atom_site_label
 _atom_site_symmetry_multiplicity
 _atom_site_fract_x
 _atom_site_fract_y
 _atom_site_fract_z
 _atom_site_occupancy
 _atom_site_charge
  Rb  Rb1  1  0.544500  0.722780  0.514810  1.0  0.8943
  Rb  Rb2  1  0.955500  0.222780  0.985190  1.0  0.8938
  Rb  Rb3  1  0.455500  0.277220  0.485190  1.0  0.8937
  Rb  Rb4  1  0.044500  0.777220  0.014810  1.0  0.8943
  Y  Y5  1  0.205670  0.101550  0.297930  1.0  1.8199
  Y  Y6  1  0.294330  0.601550  0.202070  1.0  1.8208
  Y  Y7  1  0.794330  0.898450  0.702070  1.0  1.8207
  Y  Y8  1  0.705670  0.398450  0.797930  1.0  1.8199
  Fe  Fe9  1  0.320220  0.894220  0.338050  1.0  0.4632
  Fe  Fe10  1  0.112290  0.744740  0.611090  1.0  0.4891
  Fe  Fe11  1  0.179780  0.394220  0.161950  1.0  0.4613
  Fe  Fe12  1  0.387710  0.244740  0.888910  1.0  0.4846
  Fe  Fe13  1  0.679780  0.105780  0.661950  1.0  0.4621
  Fe  Fe14  1  0.887710  0.255260  0.388910  1.0  0.4845
  Fe  Fe15  1  0.820220  0.605780  0.838050  1.0  0.4638
  Fe  Fe16  1  0.612290  0.755260  0.111090  1.0  0.4891
  C  C17  1  0.291000  0.967700  0.340400  1.0  0.2099
  C  C18  1  0.468400  0.895800  0.482500  1.0  0.2134
  C  C19  1  0.317400  0.818600  0.342100  1.0  0.1447
  C  C20  1  0.155500  0.890100  0.210400  1.0  0.2445
  C  C21  1  0.968100  0.202000  0.312900  1.0  0.1996
  C  C22  1  0.196300  0.684800  0.555200  1.0  0.2208
  C  C23  1  0.936400  0.706500  0.578300  1.0  0.2223
  C  C24  1  0.189000  0.892900  0.435800  1.0  0.2449
  C  C25  1  0.299100  0.776900  0.659300  1.0  0.1896
  C  C26  1  0.659000  0.788900  0.264400  1.0  0.1912
  C  C27  1  0.209000  0.467700  0.159600  1.0  0.2107
  C  C28  1  0.031600  0.395800  0.017500  1.0  0.213
  C  C29  1  0.182600  0.318600  0.157900  1.0  0.1451
  C  C30  1  0.344500  0.390100  0.289600  1.0  0.244
  C  C31  1  0.531900  0.702000  0.187100  1.0  0.1987
  C  C32  1  0.303700  0.184800  0.944800  1.0  0.2209
  C  C33  1  0.563600  0.206500  0.921700  1.0  0.2235
  C  C34  1  0.311000  0.392900  0.064200  1.0  0.2434
  C  C35  1  0.200900  0.276900  0.840700  1.0  0.1899
  C  C36  1  0.841000  0.288900  0.235600  1.0  0.192
  C  C37  1  0.709000  0.032300  0.659600  1.0  0.2113
  C  C38  1  0.531600  0.104200  0.517500  1.0  0.2131
  C  C39  1  0.682600  0.181400  0.657900  1.0  0.1458
  C  C40  1  0.844500  0.109900  0.789600  1.0  0.2435
  C  C41  1  0.031900  0.798000  0.687100  1.0  0.1973
  C  C42  1  0.803700  0.315200  0.444800  1.0  0.2227
  C  C43  1  0.063600  0.293500  0.421700  1.0  0.2226
  C  C44  1  0.811000  0.107100  0.564200  1.0  0.2447
  C  C45  1  0.700900  0.223100  0.340700  1.0  0.1898
  C  C46  1  0.341000  0.211100  0.735600  1.0  0.1919
  C  C47  1  0.791000  0.532300  0.840400  1.0  0.2102
  C  C48  1  0.968400  0.604200  0.982500  1.0  0.2138
  C  C49  1  0.817400  0.681400  0.842100  1.0  0.1457
  C  C50  1  0.655500  0.609900  0.710400  1.0  0.2435
  C  C51  1  0.468100  0.298000  0.812900  1.0  0.1992
  C  C52  1  0.696300  0.815200  0.055200  1.0  0.2224
  C  C53  1  0.436400  0.793500  0.078300  1.0  0.2227
  C  C54  1  0.689000  0.607100  0.935800  1.0  0.2459
  C  C55  1  0.799100  0.723100  0.159300  1.0  0.1901
  C  C56  1  0.159000  0.711100  0.764400  1.0  0.1913
  N  N57  1  0.433800  0.899500  0.254700  1.0  -0.0907
  N  N58  1  0.267700  0.011500  0.337600  1.0  -0.5405
  N  N59  1  0.561400  0.896000  0.564100  1.0  -0.5037
  N  N60  1  0.308500  0.774400  0.340000  1.0  -0.4652
  N  N61  1  0.056900  0.886800  0.133600  1.0  -0.5375
  N  N62  1  0.021600  0.169200  0.271800  1.0  -0.5713
  N  N63  1  0.061700  0.771400  0.478700  1.0  -0.0694
  N  N64  1  0.245100  0.650900  0.517800  1.0  -0.4515
  N  N65  1  0.834200  0.684100  0.551700  1.0  -0.5043
  N  N66  1  0.107400  0.893600  0.491100  1.0  -0.418
  N  N67  1  0.408100  0.794400  0.685500  1.0  -0.4401
  N  N68  1  0.684300  0.808800  0.353200  1.0  -0.4334
  N  N69  1  0.066200  0.399500  0.245300  1.0  -0.0944
  N  N70  1  0.232300  0.511500  0.162400  1.0  -0.5406
  N  N71  1  0.938600  0.396000  0.935900  1.0  -0.5041
  N  N72  1  0.191500  0.274400  0.160000  1.0  -0.4652
  N  N73  1  0.443100  0.386800  0.366400  1.0  -0.5394
  N  N74  1  0.478400  0.669200  0.228200  1.0  -0.5721
  N  N75  1  0.438300  0.271400  0.021300  1.0  -0.0716
  N  N76  1  0.254900  0.150900  0.982200  1.0  -0.4524
  N  N77  1  0.665800  0.184100  0.948300  1.0  -0.5041
  N  N78  1  0.392600  0.393600  0.008900  1.0  -0.4176
  N  N79  1  0.091900  0.294400  0.814500  1.0  -0.4405
  N  N80  1  0.815700  0.308800  0.146800  1.0  -0.4353
  N  N81  1  0.566200  0.100500  0.745300  1.0  -0.0924
  N  N82  1  0.732300  0.988500  0.662400  1.0  -0.539
  N  N83  1  0.438600  0.104000  0.435900  1.0  -0.5048
  N  N84  1  0.691500  0.225600  0.660000  1.0  -0.4684
  N  N85  1  0.943100  0.113200  0.866400  1.0  -0.5396
  N  N86  1  0.978400  0.830800  0.728200  1.0  -0.5759
  N  N87  1  0.938300  0.228600  0.521300  1.0  -0.0716
  N  N88  1  0.754900  0.349100  0.482200  1.0  -0.4553
  N  N89  1  0.165800  0.315900  0.448300  1.0  -0.5055
  N  N90  1  0.892600  0.106400  0.508900  1.0  -0.4168
  N  N91  1  0.591900  0.205600  0.314500  1.0  -0.4401
  N  N92  1  0.315700  0.191200  0.646800  1.0  -0.4357
  N  N93  1  0.933800  0.600500  0.754700  1.0  -0.0893
  N  N94  1  0.767700  0.488500  0.837600  1.0  -0.5387
  N  N95  1  0.061400  0.604000  0.064100  1.0  -0.504
  N  N96  1  0.808500  0.725600  0.840000  1.0  -0.4683
  N  N97  1  0.556900  0.613200  0.633600  1.0  -0.538
  N  N98  1  0.521600  0.330800  0.771800  1.0  -0.5737
  N  N99  1  0.561700  0.728600  0.978700  1.0  -0.0698
  N  N100  1  0.745100  0.849100  0.017800  1.0  -0.4538
  N  N101  1  0.334200  0.815900  0.051700  1.0  -0.5044
  N  N102  1  0.607400  0.606400  0.991100  1.0  -0.4168
  N  N103  1  0.908100  0.705600  0.185500  1.0  -0.4405
  N  N104  1  0.184300  0.691200  0.853200  1.0  -0.4326
  O  O105  1  0.509700  0.905200  0.198800  1.0  -0.313
  O  O106  1  0.017800  0.786900  0.387700  1.0  -0.3992
  O  O107  1  0.990300  0.405200  0.301200  1.0  -0.3128
  O  O108  1  0.482200  0.286900  0.112300  1.0  -0.3995
  O  O109  1  0.490300  0.094800  0.801200  1.0  -0.3113
  O  O110  1  0.982200  0.213100  0.612300  1.0  -0.4002
  O  O111  1  0.009700  0.594800  0.698800  1.0  -0.3109
  O  O112  1  0.517800  0.713100  0.887700  1.0  -0.4001
