# generated using pymatgen
data_Nd2H6(C6O5)3
_symmetry_space_group_name_H-M   'P 1'
_cell_length_a   9.78400000
_cell_length_b   10.59340000
_cell_length_c   13.94560000
_cell_angle_alpha   95.60600000
_cell_angle_beta   105.39900000
_cell_angle_gamma   100.40200000
_symmetry_Int_Tables_number   1
_chemical_formula_structural   Nd2H6(C6O5)3
_chemical_formula_sum   'Nd4 H12 C36 O30'
_cell_volume   1354.35093816
_cell_formula_units_Z   2
loop_
 _symmetry_equiv_pos_site_id
 _symmetry_equiv_pos_as_xyz
  1  'x, y, z'
loop_
 _atom_site_type_symbol
 _atom_site_label
 _atom_site_symmetry_multiplicity
 _atom_site_fract_x
 _atom_site_fract_y
 _atom_site_fract_z
 _atom_site_occupancy
 _atom_site_charge
  Nd  Nd1  1  0.242590  0.014180  0.968550  1.0  2.2822
  Nd  Nd2  1  0.138770  0.553990  0.638800  1.0  2.2605
  Nd  Nd3  1  0.757410  0.985820  0.031450  1.0  2.2801
  Nd  Nd4  1  0.861230  0.446010  0.361200  1.0  2.2622
  H  H5  1  0.485700  0.032400  0.659500  1.0  0.1173
  H  H6  1  0.535400  0.146900  0.516200  1.0  0.1231
  H  H7  1  0.666100  0.603300  0.894400  1.0  0.1075
  H  H8  1  0.792700  0.461600  0.006800  1.0  0.1307
  H  H9  1  0.522700  0.632900  0.570300  1.0  0.1216
  H  H10  1  0.578500  0.753500  0.747600  1.0  0.1125
  H  H11  1  0.514300  0.967600  0.340500  1.0  0.1176
  H  H12  1  0.464600  0.853100  0.483800  1.0  0.123
  H  H13  1  0.333900  0.396700  0.105600  1.0  0.1077
  H  H14  1  0.207300  0.538400  0.993200  1.0  0.1316
  H  H15  1  0.477300  0.367100  0.429700  1.0  0.1214
  H  H16  1  0.421500  0.246500  0.252400  1.0  0.1126
  C  C17  1  0.724800  0.095100  0.842000  1.0  0.6851
  C  C18  1  0.689800  0.129600  0.739000  1.0  0.0757
  C  C19  1  0.570300  0.090100  0.661100  1.0  -0.17
  C  C20  1  0.598100  0.154300  0.580600  1.0  -0.1628
  C  C21  1  0.733300  0.227400  0.616800  1.0  0.0149
  C  C22  1  0.823300  0.320500  0.573300  1.0  0.7583
  C  C23  1  0.358400  0.489500  0.797200  1.0  0.6876
  C  C24  1  0.484500  0.459600  0.868700  1.0  0.036
  C  C25  1  0.624400  0.523000  0.907100  1.0  -0.1619
  C  C26  1  0.695200  0.444000  0.970100  1.0  -0.1713
  C  C27  1  0.592200  0.336300  0.966500  1.0  0.0256
  C  C28  1  0.595400  0.223900  0.020100  1.0  0.6738
  C  C29  1  0.788200  0.613700  0.512000  1.0  0.6867
  C  C30  1  0.743100  0.675300  0.595400  1.0  0.0366
  C  C31  1  0.613900  0.671600  0.613800  1.0  -0.1456
  C  C32  1  0.645600  0.739400  0.713500  1.0  -0.1564
  C  C33  1  0.791400  0.779100  0.748900  1.0  0.0398
  C  C34  1  0.891600  0.849000  0.846300  1.0  0.7083
  C  C35  1  0.275200  0.904900  0.158000  1.0  0.6859
  C  C36  1  0.310200  0.870400  0.261000  1.0  0.0754
  C  C37  1  0.429700  0.909900  0.338900  1.0  -0.1695
  C  C38  1  0.401900  0.845700  0.419400  1.0  -0.1644
  C  C39  1  0.266700  0.772600  0.383200  1.0  0.0149
  C  C40  1  0.176700  0.679500  0.426700  1.0  0.7585
  C  C41  1  0.641600  0.510500  0.202800  1.0  0.6889
  C  C42  1  0.515500  0.540400  0.131300  1.0  0.0352
  C  C43  1  0.375600  0.477000  0.092900  1.0  -0.1606
  C  C44  1  0.304800  0.556000  0.029900  1.0  -0.1724
  C  C45  1  0.407800  0.663700  0.033500  1.0  0.0248
  C  C46  1  0.404600  0.776100  0.979900  1.0  0.6742
  C  C47  1  0.211800  0.386300  0.488000  1.0  0.6858
  C  C48  1  0.256900  0.324700  0.404600  1.0  0.0367
  C  C49  1  0.386100  0.328400  0.386200  1.0  -0.1463
  C  C50  1  0.354400  0.260600  0.286500  1.0  -0.1562
  C  C51  1  0.208600  0.220900  0.251100  1.0  0.0386
  C  C52  1  0.108400  0.151000  0.153700  1.0  0.7085
  O  O53  1  0.622000  0.029100  0.867100  1.0  -0.635
  O  O54  1  0.853000  0.128300  0.900900  1.0  -0.5973
  O  O55  1  0.793300  0.212600  0.714500  1.0  -0.1304
  O  O56  1  0.942700  0.384100  0.632700  1.0  -0.7322
  O  O57  1  0.771300  0.328800  0.482500  1.0  -0.6913
  O  O58  1  0.242400  0.402900  0.762300  1.0  -0.6286
  O  O59  1  0.370900  0.602500  0.774400  1.0  -0.665
  O  O60  1  0.461900  0.343900  0.904000  1.0  -0.132
  O  O61  1  0.477600  0.150000  0.016000  1.0  -0.7951
  O  O62  1  0.719300  0.205800  0.065400  1.0  -0.6315
  O  O63  1  0.920800  0.604800  0.528100  1.0  -0.7909
  O  O64  1  0.694500  0.568200  0.430200  1.0  -0.6375
  O  O65  1  0.855100  0.741300  0.677000  1.0  -0.1211
  O  O66  1  0.838800  0.857600  0.919600  1.0  -0.7584
  O  O67  1  0.021300  0.891000  0.850200  1.0  -0.763
  O  O68  1  0.378000  0.970900  0.132900  1.0  -0.6364
  O  O69  1  0.147000  0.871700  0.099100  1.0  -0.5968
  O  O70  1  0.206700  0.787400  0.285500  1.0  -0.13
  O  O71  1  0.057300  0.615900  0.367300  1.0  -0.7338
  O  O72  1  0.228700  0.671200  0.517500  1.0  -0.6942
  O  O73  1  0.757600  0.597100  0.237700  1.0  -0.6303
  O  O74  1  0.629100  0.397500  0.225600  1.0  -0.6657
  O  O75  1  0.538100  0.656100  0.096000  1.0  -0.1322
  O  O76  1  0.522400  0.850000  0.984000  1.0  -0.7963
  O  O77  1  0.280700  0.794200  0.934600  1.0  -0.6323
  O  O78  1  0.079200  0.395200  0.471900  1.0  -0.7904
  O  O79  1  0.305500  0.431800  0.569800  1.0  -0.6374
  O  O80  1  0.144900  0.258700  0.323000  1.0  -0.1219
  O  O81  1  0.161200  0.142400  0.080400  1.0  -0.7606
  O  O82  1  0.978700  0.109000  0.149800  1.0  -0.7625
