# generated using pymatgen
data_Cd3H29C48(NO8)2
_symmetry_space_group_name_H-M   'P 1'
_cell_length_a   14.76100000
_cell_length_b   15.73900000
_cell_length_c   15.98800000
_cell_angle_alpha   100.51400000
_cell_angle_beta   111.58800000
_cell_angle_gamma   106.82100000
_symmetry_Int_Tables_number   1
_chemical_formula_structural   Cd3H29C48(NO8)2
_chemical_formula_sum   'Cd6 H58 C96 N4 O32'
_cell_volume   3126.99835676
_cell_formula_units_Z   2
loop_
 _symmetry_equiv_pos_site_id
 _symmetry_equiv_pos_as_xyz
  1  'x, y, z'
loop_
 _atom_site_type_symbol
 _atom_site_label
 _atom_site_symmetry_multiplicity
 _atom_site_fract_x
 _atom_site_fract_y
 _atom_site_fract_z
 _atom_site_occupancy
 _atom_site_charge
  Cd  Cd1  1  0.627740  0.775080  0.804970  1.0  1.0676
  Cd  Cd2  1  0.782350  0.767690  0.063280  1.0  1.0754
  Cd  Cd3  1  0.694250  0.580490  0.821890  1.0  1.0621
  Cd  Cd4  1  0.372260  0.224920  0.195030  1.0  1.0689
  Cd  Cd5  1  0.217650  0.232310  0.936720  1.0  1.0758
  Cd  Cd6  1  0.305750  0.419510  0.178110  1.0  1.0635
  H  H7  1  0.073700  0.883500  0.382100  1.0  0.1202
  H  H8  1  0.150900  0.917500  0.544700  1.0  0.1257
  H  H9  1  0.869500  0.878500  0.542100  1.0  0.1189
  H  H10  1  0.791400  0.839200  0.377800  1.0  0.1387
  H  H11  1  0.140000  0.925600  0.689700  1.0  0.0912
  H  H12  1  0.070800  0.983600  0.695400  1.0  0.1031
  H  H13  1  0.964500  0.734800  0.590800  1.0  0.1105
  H  H14  1  0.964600  0.715100  0.683400  1.0  0.1107
  H  H15  1  0.104400  0.735100  0.556200  1.0  0.1008
  H  H16  1  0.272500  0.738900  0.596300  1.0  0.1131
  H  H17  1  0.323500  0.779600  0.868000  1.0  0.133
  H  H18  1  0.153700  0.771400  0.825800  1.0  0.1231
  H  H19  1  0.893000  0.779800  0.773100  1.0  0.1133
  H  H20  1  0.075900  0.939000  0.046100  1.0  0.1189
  H  H21  1  0.164500  0.994000  0.846300  1.0  0.1192
  H  H22  1  0.618100  0.502400  0.587900  1.0  0.107
  H  H23  1  0.671400  0.428900  0.486600  1.0  0.1407
  H  H24  1  0.766100  0.667300  0.428200  1.0  0.1085
  H  H25  1  0.713600  0.739000  0.531700  1.0  0.1119
  H  H26  1  0.842900  0.494600  0.439500  1.0  0.1463
  H  H27  1  0.729200  0.432000  0.358100  1.0  0.1131
  H  H28  1  0.926000  0.675200  0.404600  1.0  0.1309
  H  H29  1  0.901000  0.446200  0.289300  1.0  0.0968
  H  H30  1  0.014100  0.402800  0.238300  1.0  0.1295
  H  H31  1  0.209000  0.674800  0.333333  1.0  0.1181
  H  H32  1  0.093400  0.716100  0.380000  1.0  0.1144
  H  H33  1  0.828600  0.591900  0.189000  1.0  0.1105
  H  H34  1  0.542300  0.421100  0.975800  1.0  0.1224
  H  H35  1  0.602600  0.435300  0.245700  1.0  0.1255
  H  H36  1  0.926300  0.116500  0.617900  1.0  0.1212
  H  H37  1  0.849100  0.082500  0.455300  1.0  0.126
  H  H38  1  0.130500  0.121500  0.457900  1.0  0.1193
  H  H39  1  0.208600  0.160800  0.622200  1.0  0.1387
  H  H40  1  0.860000  0.074400  0.310300  1.0  0.0922
  H  H41  1  0.929200  0.016400  0.304600  1.0  0.1034
  H  H42  1  0.035500  0.265200  0.409200  1.0  0.1097
  H  H43  1  0.035400  0.284900  0.316600  1.0  0.1094
  H  H44  1  0.895600  0.264900  0.443800  1.0  0.101
  H  H45  1  0.727500  0.261100  0.403700  1.0  0.1136
  H  H46  1  0.676500  0.220400  0.132000  1.0  0.133
  H  H47  1  0.846300  0.228600  0.174200  1.0  0.1254
  H  H48  1  0.107000  0.220200  0.226900  1.0  0.1126
  H  H49  1  0.924100  0.061000  0.953900  1.0  0.1201
  H  H50  1  0.835500  0.006000  0.153700  1.0  0.1194
  H  H51  1  0.381900  0.497600  0.412100  1.0  0.1065
  H  H52  1  0.328600  0.571100  0.513400  1.0  0.1402
  H  H53  1  0.233900  0.332700  0.571800  1.0  0.1086
  H  H54  1  0.286400  0.261000  0.468300  1.0  0.1126
  H  H55  1  0.157100  0.505400  0.560500  1.0  0.1486
  H  H56  1  0.270800  0.568000  0.641900  1.0  0.1129
  H  H57  1  0.074000  0.324800  0.595400  1.0  0.1338
  H  H58  1  0.099000  0.553800  0.710700  1.0  0.0967
  H  H59  1  0.985900  0.597200  0.761700  1.0  0.1287
  H  H60  1  0.791000  0.325200  0.666667  1.0  0.118
  H  H61  1  0.906600  0.283900  0.620000  1.0  0.1152
  H  H62  1  0.171400  0.408100  0.811000  1.0  0.111
  H  H63  1  0.457700  0.578900  0.024200  1.0  0.1227
  H  H64  1  0.397400  0.564700  0.754300  1.0  0.1242
  C  C65  1  0.872900  0.826600  0.255800  1.0  0.7027
  C  C66  1  0.926400  0.854700  0.364400  1.0  -0.1449
  C  C67  1  0.031900  0.880100  0.414000  1.0  -0.0215
  C  C68  1  0.078400  0.901300  0.511700  1.0  -0.117
  C  C69  1  0.018700  0.898500  0.560500  1.0  0.0922
  C  C70  1  0.910400  0.877200  0.509600  1.0  -0.0744
  C  C71  1  0.863500  0.854400  0.411600  1.0  -0.0497
  C  C72  1  0.068000  0.922400  0.666800  1.0  -0.0213
  C  C73  1  0.003400  0.757100  0.659700  1.0  -0.0495
  C  C74  1  0.109900  0.752400  0.686900  1.0  0.1142
  C  C75  1  0.148200  0.743700  0.619000  1.0  -0.1217
  C  C76  1  0.249800  0.747500  0.643100  1.0  -0.0295
  C  C77  1  0.317400  0.764000  0.736300  1.0  -0.1393
  C  C78  1  0.279700  0.771200  0.805400  1.0  -0.0426
  C  C79  1  0.177600  0.765800  0.779600  1.0  -0.08
  C  C80  1  0.431300  0.774000  0.765100  1.0  0.7346
  C  C81  1  0.028500  0.880300  0.793300  1.0  0.1997
  C  C82  1  0.954300  0.829600  0.819400  1.0  -0.1353
  C  C83  1  0.970800  0.852300  0.912400  1.0  -0.1451
  C  C84  1  0.062700  0.926000  0.982600  1.0  0.0183
  C  C85  1  0.134700  0.980000  0.957200  1.0  -0.1283
  C  C86  1  0.116700  0.957200  0.863100  1.0  -0.1412
  C  C87  1  0.888400  0.800300  0.938000  1.0  0.7021
  C  C88  1  0.228200  0.065700  0.030600  1.0  0.7175
  C  C89  1  0.666500  0.629700  0.575100  1.0  -0.0708
  C  C90  1  0.650800  0.536600  0.557900  1.0  -0.0037
  C  C91  1  0.682300  0.491900  0.496800  1.0  -0.1058
  C  C92  1  0.730800  0.543000  0.450900  1.0  0.0889
  C  C93  1  0.739100  0.634200  0.462100  1.0  -0.0975
  C  C94  1  0.707200  0.677200  0.524400  1.0  -0.0442
  C  C95  1  0.643500  0.678900  0.649400  1.0  0.6883
  C  C96  1  0.778400  0.496400  0.394700  1.0  -0.1362
  C  C97  1  0.906700  0.614700  0.366300  1.0  0.0925
  C  C98  1  0.982500  0.584700  0.337800  1.0  -0.0113
  C  C99  1  0.962100  0.492500  0.297000  1.0  -0.0712
  C  C100  1  0.030300  0.465800  0.266700  1.0  -0.0517
  C  C101  1  0.124200  0.536000  0.279800  1.0  -0.109
  C  C102  1  0.146600  0.628400  0.323000  1.0  -0.0366
  C  C103  1  0.077100  0.653200  0.351400  1.0  -0.0444
  C  C104  1  0.194300  0.503600  0.244100  1.0  0.713
  C  C105  1  0.731400  0.515300  0.235900  1.0  0.1754
  C  C106  1  0.761100  0.547100  0.168600  1.0  -0.0934
  C  C107  1  0.691100  0.512500  0.073600  1.0  -0.1229
  C  C108  1  0.588200  0.446300  0.040400  1.0  -0.01
  C  C109  1  0.556000  0.418800  0.106800  1.0  -0.127
  C  C110  1  0.625800  0.453300  0.202500  1.0  -0.1247
  C  C111  1  0.443500  0.355100  0.072000  1.0  0.6932
  C  C112  1  0.722100  0.546400  0.002400  1.0  0.7304
  C  C113  1  0.127100  0.173400  0.744200  1.0  0.7021
  C  C114  1  0.073600  0.145300  0.635600  1.0  -0.1451
  C  C115  1  0.968100  0.119900  0.586000  1.0  -0.0218
  C  C116  1  0.921600  0.098700  0.488300  1.0  -0.12
  C  C117  1  0.981300  0.101500  0.439500  1.0  0.0926
  C  C118  1  0.089600  0.122800  0.490400  1.0  -0.0674
  C  C119  1  0.136500  0.145600  0.588400  1.0  -0.0435
  C  C120  1  0.932000  0.077600  0.333200  1.0  -0.0222
  C  C121  1  0.996600  0.242900  0.340300  1.0  -0.0479
  C  C122  1  0.890100  0.247600  0.313100  1.0  0.112
  C  C123  1  0.851800  0.256300  0.381000  1.0  -0.1232
  C  C124  1  0.750200  0.252500  0.356900  1.0  -0.0305
  C  C125  1  0.682600  0.236000  0.263700  1.0  -0.1375
  C  C126  1  0.720300  0.228800  0.194600  1.0  -0.0394
  C  C127  1  0.822400  0.234200  0.220400  1.0  -0.0785
  C  C128  1  0.568700  0.226000  0.234900  1.0  0.7317
  C  C129  1  0.971500  0.119700  0.206700  1.0  0.1989
  C  C130  1  0.045700  0.170400  0.180600  1.0  -0.1357
  C  C131  1  0.029200  0.147700  0.087600  1.0  -0.1453
  C  C132  1  0.937300  0.074000  0.017400  1.0  0.0201
  C  C133  1  0.865300  0.020000  0.042800  1.0  -0.1278
  C  C134  1  0.883300  0.042800  0.136900  1.0  -0.1415
  C  C135  1  0.111600  0.199700  0.062000  1.0  0.7027
  C  C136  1  0.771800  0.934300  0.969400  1.0  0.7143
  C  C137  1  0.333500  0.370300  0.424900  1.0  -0.0699
  C  C138  1  0.349200  0.463400  0.442100  1.0  -0.0037
  C  C139  1  0.317700  0.508100  0.503200  1.0  -0.106
  C  C140  1  0.269200  0.457000  0.549100  1.0  0.0894
  C  C141  1  0.260900  0.365800  0.537900  1.0  -0.0956
  C  C142  1  0.292800  0.322800  0.475600  1.0  -0.036
  C  C143  1  0.356500  0.321100  0.350600  1.0  0.69
  C  C144  1  0.221600  0.503600  0.605300  1.0  -0.1357
  C  C145  1  0.093300  0.385300  0.633700  1.0  0.095
  C  C146  1  0.017500  0.415300  0.662200  1.0  -0.0125
  C  C147  1  0.037900  0.507500  0.703000  1.0  -0.066
  C  C148  1  0.969700  0.534200  0.733300  1.0  -0.0524
  C  C149  1  0.875800  0.464000  0.720200  1.0  -0.1038
  C  C150  1  0.853400  0.371600  0.677000  1.0  -0.0332
  C  C151  1  0.922900  0.346800  0.648600  1.0  -0.046
  C  C152  1  0.805700  0.496400  0.755900  1.0  0.7108
  C  C153  1  0.268600  0.484700  0.764100  1.0  0.1751
  C  C154  1  0.238900  0.452900  0.831400  1.0  -0.094
  C  C155  1  0.308900  0.487500  0.926400  1.0  -0.1221
  C  C156  1  0.411800  0.553700  0.959600  1.0  -0.0101
  C  C157  1  0.444000  0.581200  0.893200  1.0  -0.1261
  C  C158  1  0.374200  0.546700  0.797500  1.0  -0.1253
  C  C159  1  0.556500  0.644900  0.928000  1.0  0.6926
  C  C160  1  0.277900  0.453600  0.997600  1.0  0.7312
  N  N161  1  0.007800  0.852400  0.696300  1.0  -0.2184
  N  N162  1  0.802700  0.543300  0.330100  1.0  -0.1716
  N  N163  1  0.992200  0.147600  0.303700  1.0  -0.2163
  N  N164  1  0.197300  0.456700  0.669900  1.0  -0.172
  O  O165  1  0.929100  0.826000  0.215300  1.0  -0.5945
  O  O166  1  0.780200  0.806600  0.212500  1.0  -0.5813
  O  O167  1  0.492100  0.797000  0.848800  1.0  -0.6015
  O  O168  1  0.457000  0.755800  0.701700  1.0  -0.5902
  O  O169  1  0.797600  0.745700  0.873100  1.0  -0.7196
  O  O170  1  0.913900  0.818300  0.025500  1.0  -0.5979
  O  O171  1  0.276200  0.126600  0.004300  1.0  -0.6788
  O  O172  1  0.256300  0.073400  0.117400  1.0  -0.6024
  O  O173  1  0.658100  0.763700  0.664700  1.0  -0.6044
  O  O174  1  0.612900  0.633700  0.698500  1.0  -0.6858
  O  O175  1  0.283000  0.567300  0.266000  1.0  -0.6506
  O  O176  1  0.167200  0.424700  0.200400  1.0  -0.5361
  O  O177  1  0.389600  0.313700  0.985900  1.0  -0.5668
  O  O178  1  0.408500  0.347900  0.133800  1.0  -0.6849
  O  O179  1  0.666300  0.497500  0.916500  1.0  -0.6027
  O  O180  1  0.798800  0.623600  0.029800  1.0  -0.7132
  O  O181  1  0.070900  0.174000  0.784700  1.0  -0.5962
  O  O182  1  0.219800  0.193400  0.787500  1.0  -0.5737
  O  O183  1  0.507900  0.203000  0.151200  1.0  -0.6029
  O  O184  1  0.543000  0.244200  0.298300  1.0  -0.5938
  O  O185  1  0.202400  0.254300  0.126900  1.0  -0.7194
  O  O186  1  0.086100  0.181700  0.974500  1.0  -0.5986
  O  O187  1  0.723800  0.873400  0.995700  1.0  -0.6785
  O  O188  1  0.743700  0.926600  0.882600  1.0  -0.6016
  O  O189  1  0.341900  0.236300  0.335300  1.0  -0.6027
  O  O190  1  0.387100  0.366300  0.301500  1.0  -0.6865
  O  O191  1  0.717000  0.432700  0.734000  1.0  -0.6513
  O  O192  1  0.832800  0.575300  0.799600  1.0  -0.5374
  O  O193  1  0.610400  0.686300  0.014100  1.0  -0.5677
  O  O194  1  0.591500  0.652100  0.866200  1.0  -0.6898
  O  O195  1  0.333700  0.502500  0.083500  1.0  -0.606
  O  O196  1  0.201200  0.376400  0.970200  1.0  -0.7129
