# generated using pymatgen
data_In2C6O13
_symmetry_space_group_name_H-M   'P 1'
_cell_length_a   15.50740000
_cell_length_b   13.29800000
_cell_length_c   10.65530000
_cell_angle_alpha   90.00000000
_cell_angle_beta   103.13100000
_cell_angle_gamma   90.00000000
_symmetry_Int_Tables_number   1
_chemical_formula_structural   In2C6O13
_chemical_formula_sum   'In8 C24 O52'
_cell_volume   2139.85572457
_cell_formula_units_Z   4
loop_
 _symmetry_equiv_pos_site_id
 _symmetry_equiv_pos_as_xyz
  1  'x, y, z'
loop_
 _atom_site_type_symbol
 _atom_site_label
 _atom_site_symmetry_multiplicity
 _atom_site_fract_x
 _atom_site_fract_y
 _atom_site_fract_z
 _atom_site_occupancy
 _atom_site_charge
  In  In1  1  0.375530  0.664210  0.483040  1.0  1.5645
  In  In2  1  0.120450  0.667080  0.500120  1.0  1.5474
  In  In3  1  0.624470  0.164210  0.016960  1.0  1.5647
  In  In4  1  0.879550  0.167080  0.999880  1.0  1.5476
  In  In5  1  0.624470  0.335790  0.516960  1.0  1.5646
  In  In6  1  0.879550  0.332920  0.499880  1.0  1.5475
  In  In7  1  0.375530  0.835790  0.983040  1.0  1.5645
  In  In8  1  0.120450  0.832920  0.000120  1.0  1.5473
  C  C9  1  0.353700  0.701500  0.200400  1.0  0.6128
  C  C10  1  0.403800  0.793900  0.266300  1.0  0.5952
  C  C11  1  0.089700  0.793600  0.717700  1.0  0.5977
  C  C12  1  0.144500  0.702600  0.782500  1.0  0.6266
  C  C13  1  0.537000  0.538800  0.499300  1.0  0.596
  C  C14  1  0.962800  0.538300  0.505200  1.0  0.6391
  C  C15  1  0.646300  0.201500  0.299600  1.0  0.6121
  C  C16  1  0.596200  0.293900  0.233700  1.0  0.5957
  C  C17  1  0.910300  0.293600  0.782300  1.0  0.5965
  C  C18  1  0.855500  0.202600  0.717500  1.0  0.6269
  C  C19  1  0.463000  0.038800  0.000700  1.0  0.5935
  C  C20  1  0.037200  0.038300  0.994800  1.0  0.6394
  C  C21  1  0.646300  0.298500  0.799600  1.0  0.618
  C  C22  1  0.596200  0.206100  0.733700  1.0  0.5954
  C  C23  1  0.910300  0.206400  0.282300  1.0  0.5976
  C  C24  1  0.855500  0.297400  0.217500  1.0  0.6225
  C  C25  1  0.463000  0.461200  0.500700  1.0  0.5932
  C  C26  1  0.037200  0.461700  0.494800  1.0  0.6394
  C  C27  1  0.353700  0.798500  0.700400  1.0  0.6136
  C  C28  1  0.403800  0.706100  0.766300  1.0  0.5963
  C  C29  1  0.089700  0.706400  0.217700  1.0  0.5968
  C  C30  1  0.144500  0.797400  0.282500  1.0  0.6209
  C  C31  1  0.537000  0.961200  0.999300  1.0  0.5932
  C  C32  1  0.962800  0.961700  0.005200  1.0  0.6391
  O  O33  1  0.333100  0.635600  0.272600  1.0  -0.5139
  O  O34  1  0.337700  0.698700  0.080600  1.0  -0.5443
  O  O35  1  0.418100  0.797500  0.385500  1.0  -0.5098
  O  O36  1  0.427100  0.857800  0.194000  1.0  -0.4876
  O  O37  1  0.077000  0.800100  0.599100  1.0  -0.4945
  O  O38  1  0.061900  0.852700  0.791700  1.0  -0.5015
  O  O39  1  0.169300  0.640800  0.709000  1.0  -0.5212
  O  O40  1  0.159300  0.696500  0.901200  1.0  -0.5227
  O  O41  1  0.514200  0.629400  0.485200  1.0  -0.4987
  O  O42  1  0.613300  0.506300  0.511100  1.0  -0.4824
  O  O43  1  0.984400  0.629600  0.512400  1.0  -0.5066
  O  O44  1  0.889300  0.504500  0.503900  1.0  -0.4938
  O  O45  1  0.246600  0.619300  0.485400  1.0  -0.6933
  O  O46  1  0.666900  0.135600  0.227400  1.0  -0.511
  O  O47  1  0.662300  0.198700  0.419400  1.0  -0.5431
  O  O48  1  0.581900  0.297500  0.114500  1.0  -0.5091
  O  O49  1  0.572900  0.357800  0.306000  1.0  -0.494
  O  O50  1  0.923000  0.300100  0.900900  1.0  -0.4934
  O  O51  1  0.938100  0.352700  0.708300  1.0  -0.4987
  O  O52  1  0.830700  0.140800  0.791000  1.0  -0.5239
  O  O53  1  0.840700  0.196500  0.598800  1.0  -0.5237
  O  O54  1  0.485800  0.129400  0.014800  1.0  -0.5012
  O  O55  1  0.386700  0.006300  0.988900  1.0  -0.4886
  O  O56  1  0.015600  0.129600  0.987600  1.0  -0.5045
  O  O57  1  0.110700  0.004500  0.996100  1.0  -0.4921
  O  O58  1  0.753400  0.119300  0.014600  1.0  -0.6932
  O  O59  1  0.666900  0.364400  0.727400  1.0  -0.5093
  O  O60  1  0.662300  0.301300  0.919400  1.0  -0.5441
  O  O61  1  0.581900  0.202500  0.614500  1.0  -0.5078
  O  O62  1  0.572900  0.142200  0.806000  1.0  -0.4936
  O  O63  1  0.923000  0.199900  0.400900  1.0  -0.4938
  O  O64  1  0.938100  0.147300  0.208300  1.0  -0.4979
  O  O65  1  0.830700  0.359200  0.291000  1.0  -0.5226
  O  O66  1  0.840700  0.303500  0.098800  1.0  -0.5239
  O  O67  1  0.485800  0.370600  0.514800  1.0  -0.5011
  O  O68  1  0.386700  0.493700  0.488900  1.0  -0.4867
  O  O69  1  0.015600  0.370400  0.487600  1.0  -0.5124
  O  O70  1  0.110700  0.495500  0.496100  1.0  -0.494
  O  O71  1  0.753400  0.380700  0.514600  1.0  -0.6973
  O  O72  1  0.333100  0.864400  0.772600  1.0  -0.5113
  O  O73  1  0.337700  0.801300  0.580600  1.0  -0.5449
  O  O74  1  0.418100  0.702500  0.885500  1.0  -0.5098
  O  O75  1  0.427100  0.642200  0.694000  1.0  -0.4888
  O  O76  1  0.077000  0.699900  0.099100  1.0  -0.4909
  O  O77  1  0.061900  0.647300  0.291700  1.0  -0.5024
  O  O78  1  0.169300  0.859200  0.209000  1.0  -0.5205
  O  O79  1  0.159300  0.803500  0.401200  1.0  -0.523
  O  O80  1  0.514200  0.870600  0.985200  1.0  -0.5031
  O  O81  1  0.613300  0.993700  0.011100  1.0  -0.4831
  O  O82  1  0.984400  0.870400  0.012400  1.0  -0.5059
  O  O83  1  0.889300  0.995500  0.003900  1.0  -0.4933
  O  O84  1  0.246600  0.880700  0.985400  1.0  -0.6975
