# generated using pymatgen
data_BaCu6H42C36(N3O10)2
_symmetry_space_group_name_H-M   'P 1'
_cell_length_a   14.40990000
_cell_length_b   14.40990000
_cell_length_c   33.22200000
_cell_angle_alpha   90.00000000
_cell_angle_beta   90.00000000
_cell_angle_gamma   120.00000000
_symmetry_Int_Tables_number   1
_chemical_formula_structural   BaCu6H42C36(N3O10)2
_chemical_formula_sum   'Ba3 Cu18 H126 C108 N18 O60'
_cell_volume   5974.18049394
_cell_formula_units_Z   3
loop_
 _symmetry_equiv_pos_site_id
 _symmetry_equiv_pos_as_xyz
  1  'x, y, z'
loop_
 _atom_site_type_symbol
 _atom_site_label
 _atom_site_symmetry_multiplicity
 _atom_site_fract_x
 _atom_site_fract_y
 _atom_site_fract_z
 _atom_site_occupancy
 _atom_site_charge
  Ba  Ba1  1  0.000000  0.000000  0.936870  1.0  1.5365
  Ba  Ba2  1  0.666667  0.333333  0.270200  1.0  1.5365
  Ba  Ba3  1  0.333333  0.666667  0.603540  1.0  1.537
  Cu  Cu4  1  0.067180  0.154240  0.811920  1.0  0.7432
  Cu  Cu5  1  0.247290  0.512270  0.728480  1.0  0.735
  Cu  Cu6  1  0.733850  0.487570  0.145250  1.0  0.7432
  Cu  Cu7  1  0.913960  0.845600  0.061810  1.0  0.735
  Cu  Cu8  1  0.400510  0.820910  0.478590  1.0  0.7432
  Cu  Cu9  1  0.580620  0.178940  0.395150  1.0  0.735
  Cu  Cu10  1  0.845760  0.912940  0.811920  1.0  0.7422
  Cu  Cu11  1  0.487730  0.735020  0.728480  1.0  0.7343
  Cu  Cu12  1  0.512430  0.246270  0.145250  1.0  0.7422
  Cu  Cu13  1  0.154400  0.068350  0.061810  1.0  0.7343
  Cu  Cu14  1  0.179090  0.579610  0.478590  1.0  0.7422
  Cu  Cu15  1  0.821060  0.401690  0.395150  1.0  0.7343
  Cu  Cu16  1  0.087060  0.932820  0.811920  1.0  0.7419
  Cu  Cu17  1  0.264980  0.752710  0.728480  1.0  0.7351
  Cu  Cu18  1  0.753730  0.266150  0.145250  1.0  0.7419
  Cu  Cu19  1  0.931650  0.086040  0.061810  1.0  0.7351
  Cu  Cu20  1  0.420390  0.599490  0.478590  1.0  0.7419
  Cu  Cu21  1  0.598310  0.419380  0.395150  1.0  0.7351
  H  H22  1  0.236500  0.384800  0.868300  1.0  0.0923
  H  H23  1  0.958400  0.399700  0.875200  1.0  0.1226
  H  H24  1  0.952700  0.286900  0.881600  1.0  0.1259
  H  H25  1  0.978900  0.341600  0.838100  1.0  0.1207
  H  H26  1  0.122900  0.540300  0.896700  1.0  0.1175
  H  H27  1  0.217800  0.551700  0.868400  1.0  0.1043
  H  H28  1  0.206900  0.507500  0.913300  1.0  0.1266
  H  H29  1  0.184300  0.279600  0.670900  1.0  0.0979
  H  H30  1  0.012500  0.389400  0.668800  1.0  0.1285
  H  H31  1  0.945700  0.299800  0.702000  1.0  0.1201
  H  H32  1  0.902800  0.284300  0.656700  1.0  0.1189
  H  H33  1  0.896500  0.112800  0.656900  1.0  0.0966
  H  H34  1  0.969100  0.119300  0.694500  1.0  0.1043
  H  H35  1  0.004900  0.110000  0.649700  1.0  0.1104
  H  H36  1  0.903170  0.718130  0.201630  1.0  0.0923
  H  H37  1  0.625070  0.733030  0.208530  1.0  0.1195
  H  H38  1  0.619370  0.620230  0.214930  1.0  0.1259
  H  H39  1  0.645570  0.674930  0.171430  1.0  0.1207
  H  H40  1  0.789570  0.873630  0.230030  1.0  0.1175
  H  H41  1  0.884470  0.885030  0.201730  1.0  0.1043
  H  H42  1  0.873570  0.840830  0.246630  1.0  0.1251
  H  H43  1  0.850970  0.612930  0.004230  1.0  0.0979
  H  H44  1  0.679170  0.722730  0.002130  1.0  0.1285
  H  H45  1  0.612370  0.633130  0.035330  1.0  0.1201
  H  H46  1  0.569470  0.617630  0.990030  1.0  0.1189
  H  H47  1  0.563170  0.446130  0.990230  1.0  0.0966
  H  H48  1  0.635770  0.452630  0.027830  1.0  0.1043
  H  H49  1  0.671570  0.443330  0.983030  1.0  0.1104
  H  H50  1  0.569830  0.051470  0.534970  1.0  0.0923
  H  H51  1  0.291730  0.066370  0.541870  1.0  0.1226
  H  H52  1  0.286030  0.953570  0.548270  1.0  0.1259
  H  H53  1  0.312230  0.008270  0.504770  1.0  0.1207
  H  H54  1  0.456230  0.206970  0.563370  1.0  0.1175
  H  H55  1  0.551130  0.218370  0.535070  1.0  0.1043
  H  H56  1  0.540230  0.174170  0.579970  1.0  0.1266
  H  H57  1  0.517630  0.946270  0.337570  1.0  0.0979
  H  H58  1  0.345830  0.056070  0.335470  1.0  0.1285
  H  H59  1  0.279030  0.966470  0.368670  1.0  0.1201
  H  H60  1  0.236130  0.950970  0.323370  1.0  0.1197
  H  H61  1  0.229830  0.779470  0.323570  1.0  0.0966
  H  H62  1  0.302430  0.785970  0.361170  1.0  0.1043
  H  H63  1  0.338230  0.776670  0.316370  1.0  0.1059
  H  H64  1  0.615200  0.851700  0.868300  1.0  0.0921
  H  H65  1  0.600300  0.558700  0.875200  1.0  0.1189
  H  H66  1  0.713100  0.665800  0.881600  1.0  0.1254
  H  H67  1  0.658400  0.637300  0.838100  1.0  0.1206
  H  H68  1  0.459700  0.582600  0.896700  1.0  0.1152
  H  H69  1  0.448300  0.666100  0.868400  1.0  0.105
  H  H70  1  0.492500  0.699400  0.913300  1.0  0.124
  H  H71  1  0.720400  0.904700  0.670900  1.0  0.098
  H  H72  1  0.610600  0.623100  0.668800  1.0  0.1276
  H  H73  1  0.700200  0.645900  0.702000  1.0  0.1208
  H  H74  1  0.715700  0.618500  0.656700  1.0  0.123
  H  H75  1  0.887200  0.783700  0.656900  1.0  0.0949
  H  H76  1  0.880700  0.849800  0.694500  1.0  0.1064
  H  H77  1  0.890000  0.894900  0.649700  1.0  0.1087
  H  H78  1  0.281870  0.185030  0.201630  1.0  0.092
  H  H79  1  0.266970  0.892030  0.208530  1.0  0.1223
  H  H80  1  0.379770  0.999130  0.214930  1.0  0.1254
  H  H81  1  0.325070  0.970630  0.171430  1.0  0.1206
  H  H82  1  0.126370  0.915930  0.230030  1.0  0.1152
  H  H83  1  0.114970  0.999430  0.201730  1.0  0.105
  H  H84  1  0.159170  0.032730  0.246630  1.0  0.1239
  H  H85  1  0.387070  0.238030  0.004230  1.0  0.098
  H  H86  1  0.277270  0.956430  0.002130  1.0  0.1276
  H  H87  1  0.366870  0.979230  0.035330  1.0  0.1208
  H  H88  1  0.382370  0.951830  0.990030  1.0  0.123
  H  H89  1  0.553870  0.117030  0.990230  1.0  0.0949
  H  H90  1  0.547370  0.183130  0.027830  1.0  0.1064
  H  H91  1  0.556670  0.228230  0.983030  1.0  0.1087
  H  H92  1  0.948530  0.518370  0.534970  1.0  0.0921
  H  H93  1  0.933630  0.225370  0.541870  1.0  0.1189
  H  H94  1  0.046430  0.332470  0.548270  1.0  0.1254
  H  H95  1  0.991730  0.303970  0.504770  1.0  0.1206
  H  H96  1  0.793030  0.249270  0.563370  1.0  0.1152
  H  H97  1  0.781630  0.332770  0.535070  1.0  0.105
  H  H98  1  0.825830  0.366070  0.579970  1.0  0.124
  H  H99  1  0.053730  0.571370  0.337570  1.0  0.098
  H  H100  1  0.943930  0.289770  0.335470  1.0  0.1277
  H  H101  1  0.033530  0.312570  0.368670  1.0  0.1208
  H  H102  1  0.049030  0.285170  0.323370  1.0  0.1205
  H  H103  1  0.220530  0.450370  0.323570  1.0  0.0949
  H  H104  1  0.214030  0.516470  0.361170  1.0  0.1064
  H  H105  1  0.223330  0.561570  0.316370  1.0  0.1064
  H  H106  1  0.148300  0.763500  0.868300  1.0  0.0922
  H  H107  1  0.441300  0.041600  0.875200  1.0  0.1236
  H  H108  1  0.334200  0.047300  0.881600  1.0  0.1249
  H  H109  1  0.362700  0.021100  0.838100  1.0  0.1217
  H  H110  1  0.417400  0.877100  0.896700  1.0  0.1147
  H  H111  1  0.333900  0.782200  0.868400  1.0  0.1025
  H  H112  1  0.300600  0.793100  0.913300  1.0  0.124
  H  H113  1  0.095300  0.815700  0.670900  1.0  0.0983
  H  H114  1  0.376900  0.987500  0.668800  1.0  0.13
  H  H115  1  0.354100  0.054300  0.702000  1.0  0.1199
  H  H116  1  0.381500  0.097200  0.656700  1.0  0.1203
  H  H117  1  0.216300  0.103500  0.656900  1.0  0.0966
  H  H118  1  0.150200  0.030900  0.694500  1.0  0.1043
  H  H119  1  0.105100  0.995100  0.649700  1.0  0.1073
  H  H120  1  0.814970  0.096830  0.201630  1.0  0.0922
  H  H121  1  0.107970  0.374930  0.208530  1.0  0.1191
  H  H122  1  0.000870  0.380630  0.214930  1.0  0.1249
  H  H123  1  0.029370  0.354430  0.171430  1.0  0.1217
  H  H124  1  0.084070  0.210430  0.230030  1.0  0.1146
  H  H125  1  0.000570  0.115530  0.201730  1.0  0.1025
  H  H126  1  0.967270  0.126430  0.246630  1.0  0.1251
  H  H127  1  0.761970  0.149030  0.004230  1.0  0.0983
  H  H128  1  0.043570  0.320830  0.002130  1.0  0.13
  H  H129  1  0.020770  0.387630  0.035330  1.0  0.1199
  H  H130  1  0.048170  0.430530  0.990030  1.0  0.1203
  H  H131  1  0.882970  0.436830  0.990230  1.0  0.0966
  H  H132  1  0.816870  0.364230  0.027830  1.0  0.1043
  H  H133  1  0.771770  0.328430  0.983030  1.0  0.1073
  H  H134  1  0.481630  0.430170  0.534970  1.0  0.0922
  H  H135  1  0.774630  0.708270  0.541870  1.0  0.1236
  H  H136  1  0.667530  0.713970  0.548270  1.0  0.1249
  H  H137  1  0.696030  0.687770  0.504770  1.0  0.1217
  H  H138  1  0.750730  0.543770  0.563370  1.0  0.1147
  H  H139  1  0.667230  0.448870  0.535070  1.0  0.1025
  H  H140  1  0.633930  0.459770  0.579970  1.0  0.124
  H  H141  1  0.428630  0.482370  0.337570  1.0  0.0982
  H  H142  1  0.710230  0.654170  0.335470  1.0  0.13
  H  H143  1  0.687430  0.720970  0.368670  1.0  0.1199
  H  H144  1  0.714830  0.763870  0.323370  1.0  0.1205
  H  H145  1  0.549630  0.770170  0.323570  1.0  0.0966
  H  H146  1  0.483530  0.697570  0.361170  1.0  0.1043
  H  H147  1  0.438430  0.661770  0.316370  1.0  0.1136
  C  C148  1  0.113600  0.237700  0.889700  1.0  0.6512
  C  C149  1  0.157400  0.341500  0.863800  1.0  0.0402
  C  C150  1  0.106700  0.412500  0.876800  1.0  0.1768
  C  C151  1  0.171900  0.366800  0.789600  1.0  0.6021
  C  C152  1  0.988900  0.355200  0.867100  1.0  -0.3923
  C  C153  1  0.167200  0.509000  0.889600  1.0  -0.3713
  C  C154  1  0.209000  0.428300  0.650600  1.0  0.6493
  C  C155  1  0.149100  0.323300  0.675800  1.0  0.0254
  C  C156  1  0.028800  0.255400  0.663100  1.0  0.0754
  C  C157  1  0.137700  0.300400  0.750600  1.0  0.5701
  C  C158  1  0.966900  0.312300  0.673600  1.0  -0.3732
  C  C159  1  0.969000  0.140000  0.666300  1.0  -0.2941
  C  C160  1  0.780270  0.571030  0.223030  1.0  0.6512
  C  C161  1  0.824070  0.674830  0.197130  1.0  0.0402
  C  C162  1  0.773370  0.745830  0.210130  1.0  0.1768
  C  C163  1  0.838570  0.700130  0.122930  1.0  0.6021
  C  C164  1  0.655570  0.688530  0.200430  1.0  -0.3923
  C  C165  1  0.833870  0.842330  0.222930  1.0  -0.3713
  C  C166  1  0.875670  0.761630  0.983930  1.0  0.6493
  C  C167  1  0.815770  0.656630  0.009130  1.0  0.0254
  C  C168  1  0.695470  0.588730  0.996430  1.0  0.0754
  C  C169  1  0.804370  0.633730  0.083930  1.0  0.5701
  C  C170  1  0.633570  0.645630  0.006930  1.0  -0.3732
  C  C171  1  0.635670  0.473330  0.999630  1.0  -0.2941
  C  C172  1  0.446930  0.904370  0.556370  1.0  0.6512
  C  C173  1  0.490730  0.008170  0.530470  1.0  0.0402
  C  C174  1  0.440030  0.079170  0.543470  1.0  0.1768
  C  C175  1  0.505230  0.033470  0.456270  1.0  0.6021
  C  C176  1  0.322230  0.021870  0.533770  1.0  -0.3923
  C  C177  1  0.500530  0.175670  0.556270  1.0  -0.3713
  C  C178  1  0.542330  0.094970  0.317270  1.0  0.6493
  C  C179  1  0.482430  0.989970  0.342470  1.0  0.0254
  C  C180  1  0.362130  0.922070  0.329770  1.0  0.0754
  C  C181  1  0.471030  0.967070  0.417270  1.0  0.5701
  C  C182  1  0.300230  0.978970  0.340270  1.0  -0.3731
  C  C183  1  0.302330  0.806670  0.332970  1.0  -0.2941
  C  C184  1  0.762300  0.875900  0.889700  1.0  0.6504
  C  C185  1  0.658500  0.815900  0.863800  1.0  0.0364
  C  C186  1  0.587500  0.694200  0.876800  1.0  0.1791
  C  C187  1  0.633200  0.805100  0.789600  1.0  0.6009
  C  C188  1  0.644800  0.633700  0.867100  1.0  -0.3945
  C  C189  1  0.491000  0.658200  0.889600  1.0  -0.3702
  C  C190  1  0.571700  0.780700  0.650600  1.0  0.6508
  C  C191  1  0.676700  0.825800  0.675800  1.0  0.0253
  C  C192  1  0.744600  0.773400  0.663100  1.0  0.0773
  C  C193  1  0.699600  0.837300  0.750600  1.0  0.57
  C  C194  1  0.687700  0.654600  0.673600  1.0  -0.3675
  C  C195  1  0.860000  0.829000  0.666300  1.0  -0.2957
  C  C196  1  0.428970  0.209230  0.223030  1.0  0.6504
  C  C197  1  0.325170  0.149230  0.197130  1.0  0.0364
  C  C198  1  0.254170  0.027530  0.210130  1.0  0.1791
  C  C199  1  0.299870  0.138430  0.122930  1.0  0.6009
  C  C200  1  0.311470  0.967030  0.200430  1.0  -0.3946
  C  C201  1  0.157670  0.991530  0.222930  1.0  -0.3702
  C  C202  1  0.238370  0.114030  0.983930  1.0  0.6508
  C  C203  1  0.343370  0.159130  0.009130  1.0  0.0253
  C  C204  1  0.411270  0.106730  0.996430  1.0  0.0773
  C  C205  1  0.366270  0.170630  0.083930  1.0  0.57
  C  C206  1  0.354370  0.987930  0.006930  1.0  -0.3675
  C  C207  1  0.526670  0.162330  0.999630  1.0  -0.2957
  C  C208  1  0.095630  0.542570  0.556370  1.0  0.6504
  C  C209  1  0.991830  0.482570  0.530470  1.0  0.0364
  C  C210  1  0.920830  0.360870  0.543470  1.0  0.1791
  C  C211  1  0.966530  0.471770  0.456270  1.0  0.6009
  C  C212  1  0.978130  0.300370  0.533770  1.0  -0.3945
  C  C213  1  0.824330  0.324870  0.556270  1.0  -0.3702
  C  C214  1  0.905030  0.447370  0.317270  1.0  0.6506
  C  C215  1  0.010030  0.492470  0.342470  1.0  0.0254
  C  C216  1  0.077930  0.440070  0.329770  1.0  0.0773
  C  C217  1  0.032930  0.503970  0.417270  1.0  0.57
  C  C218  1  0.021030  0.321270  0.340270  1.0  -0.3674
  C  C219  1  0.193330  0.495670  0.332970  1.0  -0.2957
  C  C220  1  0.124100  0.886400  0.889700  1.0  0.6514
  C  C221  1  0.184100  0.842600  0.863800  1.0  0.0374
  C  C222  1  0.305800  0.893300  0.876800  1.0  0.1759
  C  C223  1  0.194900  0.828100  0.789600  1.0  0.6012
  C  C224  1  0.366300  0.011100  0.867100  1.0  -0.3946
  C  C225  1  0.341800  0.832800  0.889600  1.0  -0.3711
  C  C226  1  0.219300  0.791000  0.650600  1.0  0.6467
  C  C227  1  0.174200  0.850900  0.675800  1.0  0.0249
  C  C228  1  0.226600  0.971200  0.663100  1.0  0.075
  C  C229  1  0.162700  0.862300  0.750600  1.0  0.5712
  C  C230  1  0.345400  0.033100  0.673600  1.0  -0.3694
  C  C231  1  0.171000  0.031000  0.666300  1.0  -0.293
  C  C232  1  0.790770  0.219730  0.223030  1.0  0.6516
  C  C233  1  0.850770  0.175930  0.197130  1.0  0.0374
  C  C234  1  0.972470  0.226630  0.210130  1.0  0.1759
  C  C235  1  0.861570  0.161430  0.122930  1.0  0.6012
  C  C236  1  0.032970  0.344430  0.200430  1.0  -0.3945
  C  C237  1  0.008470  0.166130  0.222930  1.0  -0.3712
  C  C238  1  0.885970  0.124330  0.983930  1.0  0.6467
  C  C239  1  0.840870  0.184230  0.009130  1.0  0.0249
  C  C240  1  0.893270  0.304530  0.996430  1.0  0.075
  C  C241  1  0.829370  0.195630  0.083930  1.0  0.5712
  C  C242  1  0.012070  0.366430  0.006930  1.0  -0.3694
  C  C243  1  0.837670  0.364330  0.999630  1.0  -0.293
  C  C244  1  0.457430  0.553070  0.556370  1.0  0.6514
  C  C245  1  0.517430  0.509270  0.530470  1.0  0.0374
  C  C246  1  0.639130  0.559970  0.543470  1.0  0.1759
  C  C247  1  0.528230  0.494770  0.456270  1.0  0.6012
  C  C248  1  0.699630  0.677770  0.533770  1.0  -0.3946
  C  C249  1  0.675130  0.499470  0.556270  1.0  -0.3711
  C  C250  1  0.552630  0.457670  0.317270  1.0  0.6465
  C  C251  1  0.507530  0.517570  0.342470  1.0  0.0249
  C  C252  1  0.559930  0.637870  0.329770  1.0  0.075
  C  C253  1  0.496030  0.528970  0.417270  1.0  0.5712
  C  C254  1  0.678730  0.699770  0.340270  1.0  -0.3693
  C  C255  1  0.504330  0.697670  0.332970  1.0  -0.293
  N  N256  1  0.140000  0.307200  0.822100  1.0  -0.337
  N  N257  1  0.167400  0.359200  0.718700  1.0  -0.3597
  N  N258  1  0.806670  0.640530  0.155430  1.0  -0.337
  N  N259  1  0.834070  0.692530  0.052030  1.0  -0.3597
  N  N260  1  0.473330  0.973870  0.488770  1.0  -0.337
  N  N261  1  0.500730  0.025870  0.385370  1.0  -0.3594
  N  N262  1  0.692800  0.832800  0.822100  1.0  -0.3383
  N  N263  1  0.640800  0.808200  0.718700  1.0  -0.3581
  N  N264  1  0.359470  0.166130  0.155430  1.0  -0.3383
  N  N265  1  0.307470  0.141530  0.052030  1.0  -0.3581
  N  N266  1  0.026130  0.499470  0.488770  1.0  -0.3383
  N  N267  1  0.974130  0.474870  0.385370  1.0  -0.3578
  N  N268  1  0.167200  0.860000  0.822100  1.0  -0.3353
  N  N269  1  0.191800  0.832600  0.718700  1.0  -0.3601
  N  N270  1  0.833870  0.193330  0.155430  1.0  -0.3353
  N  N271  1  0.858470  0.165930  0.052030  1.0  -0.3601
  N  N272  1  0.500530  0.526670  0.488770  1.0  -0.3353
  N  N273  1  0.525130  0.499270  0.385370  1.0  -0.3599
  O  O274  1  0.089700  0.196200  0.753700  1.0  -0.6009
  O  O275  1  0.065300  0.147300  0.871340  1.0  -0.6649
  O  O276  1  0.122000  0.243700  0.927650  1.0  -0.604
  O  O277  1  0.211600  0.422400  0.612930  1.0  -0.6018
  O  O278  1  0.252700  0.519700  0.669100  1.0  -0.6747
  O  O279  1  0.227500  0.469900  0.787000  1.0  -0.5675
  O  O280  1  0.756370  0.529530  0.087030  1.0  -0.6009
  O  O281  1  0.731970  0.480630  0.204670  1.0  -0.6649
  O  O282  1  0.788670  0.577030  0.260980  1.0  -0.604
  O  O283  1  0.878270  0.755730  0.946260  1.0  -0.6018
  O  O284  1  0.919370  0.853030  0.002430  1.0  -0.6747
  O  O285  1  0.894170  0.803230  0.120330  1.0  -0.5675
  O  O286  1  0.423030  0.862870  0.420370  1.0  -0.6009
  O  O287  1  0.398630  0.813970  0.538010  1.0  -0.6649
  O  O288  1  0.455330  0.910370  0.594320  1.0  -0.604
  O  O289  1  0.544930  0.089070  0.279600  1.0  -0.6024
  O  O290  1  0.586030  0.186370  0.335770  1.0  -0.6746
  O  O291  1  0.560830  0.136570  0.453670  1.0  -0.5675
  O  O292  1  0.803800  0.893500  0.753700  1.0  -0.5978
  O  O293  1  0.852700  0.918000  0.871340  1.0  -0.6639
  O  O294  1  0.756300  0.878300  0.927650  1.0  -0.6046
  O  O295  1  0.577600  0.789200  0.612930  1.0  -0.6016
  O  O296  1  0.480300  0.733000  0.669100  1.0  -0.6731
  O  O297  1  0.530100  0.757600  0.787000  1.0  -0.5698
  O  O298  1  0.470470  0.226830  0.087030  1.0  -0.5978
  O  O299  1  0.519370  0.251330  0.204670  1.0  -0.6639
  O  O300  1  0.422970  0.211630  0.260980  1.0  -0.6046
  O  O301  1  0.244270  0.122530  0.946260  1.0  -0.6016
  O  O302  1  0.146970  0.066330  0.002430  1.0  -0.6731
  O  O303  1  0.196770  0.090930  0.120330  1.0  -0.5698
  O  O304  1  0.137130  0.560170  0.420370  1.0  -0.5978
  O  O305  1  0.186030  0.584670  0.538010  1.0  -0.6639
  O  O306  1  0.089630  0.544970  0.594320  1.0  -0.6046
  O  O307  1  0.910930  0.455870  0.279600  1.0  -0.6016
  O  O308  1  0.813630  0.399670  0.335770  1.0  -0.6731
  O  O309  1  0.863430  0.424270  0.453670  1.0  -0.5698
  O  O310  1  0.106500  0.910300  0.753700  1.0  -0.5999
  O  O311  1  0.082000  0.934700  0.871340  1.0  -0.665
  O  O312  1  0.121700  0.878000  0.927650  1.0  -0.6042
  O  O313  1  0.210800  0.788400  0.612930  1.0  -0.6018
  O  O314  1  0.267000  0.747300  0.669100  1.0  -0.6718
  O  O315  1  0.242400  0.772500  0.787000  1.0  -0.5666
  O  O316  1  0.773170  0.243630  0.087030  1.0  -0.5999
  O  O317  1  0.748670  0.268030  0.204670  1.0  -0.6649
  O  O318  1  0.788370  0.211330  0.260980  1.0  -0.6042
  O  O319  1  0.877470  0.121730  0.946260  1.0  -0.6018
  O  O320  1  0.933670  0.080630  0.002430  1.0  -0.6718
  O  O321  1  0.909070  0.105830  0.120330  1.0  -0.5666
  O  O322  1  0.439830  0.576970  0.420370  1.0  -0.5999
  O  O323  1  0.415330  0.601370  0.538010  1.0  -0.665
  O  O324  1  0.455030  0.544670  0.594320  1.0  -0.6042
  O  O325  1  0.544130  0.455070  0.279600  1.0  -0.6024
  O  O326  1  0.600330  0.413970  0.335770  1.0  -0.6718
  O  O327  1  0.575730  0.439170  0.453670  1.0  -0.5666
  O  O328  1  0.000000  0.000000  0.798500  1.0  -0.7788
  O  O329  1  0.666667  0.333333  0.131830  1.0  -0.7788
  O  O330  1  0.333333  0.666667  0.465170  1.0  -0.7787
  O  O331  1  0.333333  0.666667  0.742100  1.0  -0.7894
  O  O332  1  0.000000  0.000000  0.075430  1.0  -0.7894
  O  O333  1  0.666667  0.333333  0.408770  1.0  -0.7894
