# generated using pymatgen
data_BaCu6H27C24(N2O7)3
_symmetry_space_group_name_H-M   'P 1'
_cell_length_a   17.70030000
_cell_length_b   17.70030000
_cell_length_c   13.92080000
_cell_angle_alpha   90.00000000
_cell_angle_beta   90.00000000
_cell_angle_gamma   120.00000000
_symmetry_Int_Tables_number   1
_chemical_formula_structural   BaCu6H27C24(N2O7)3
_chemical_formula_sum   'Ba2 Cu12 H54 C48 N12 O42'
_cell_volume   3777.07910163
_cell_formula_units_Z   2
loop_
 _symmetry_equiv_pos_site_id
 _symmetry_equiv_pos_as_xyz
  1  'x, y, z'
loop_
 _atom_site_type_symbol
 _atom_site_label
 _atom_site_symmetry_multiplicity
 _atom_site_fract_x
 _atom_site_fract_y
 _atom_site_fract_z
 _atom_site_occupancy
 _atom_site_charge
  Ba  Ba1  1  0.666667  0.333333  0.513770  1.0  1.4594
  Ba  Ba2  1  0.333333  0.666667  0.013770  1.0  1.4594
  Cu  Cu3  1  0.874580  0.433530  0.635460  1.0  0.8993
  Cu  Cu4  1  0.873570  0.429280  0.390200  1.0  0.8678
  Cu  Cu5  1  0.566470  0.441050  0.635460  1.0  0.9001
  Cu  Cu6  1  0.570720  0.444290  0.390200  1.0  0.8676
  Cu  Cu7  1  0.558950  0.125420  0.635460  1.0  0.8996
  Cu  Cu8  1  0.555710  0.126430  0.390200  1.0  0.867
  Cu  Cu9  1  0.125420  0.566470  0.135460  1.0  0.8992
  Cu  Cu10  1  0.126430  0.570720  0.890200  1.0  0.867
  Cu  Cu11  1  0.433530  0.558950  0.135460  1.0  0.8989
  Cu  Cu12  1  0.429280  0.555710  0.890200  1.0  0.8671
  Cu  Cu13  1  0.441050  0.874580  0.135460  1.0  0.9003
  Cu  Cu14  1  0.444290  0.873570  0.890200  1.0  0.867
  H  H15  1  0.839000  0.326000  0.511000  1.0  0.5095
  H  H16  1  0.175500  0.488200  0.351700  1.0  0.099
  H  H17  1  0.059800  0.335000  0.317000  1.0  0.1158
  H  H18  1  0.151600  0.344900  0.287200  1.0  0.1129
  H  H19  1  0.088300  0.346900  0.206500  1.0  0.1177
  H  H20  1  0.865400  0.582400  0.221200  1.0  0.0942
  H  H21  1  0.839700  0.479900  0.089800  1.0  0.1169
  H  H22  1  0.746800  0.467700  0.119200  1.0  0.1071
  H  H23  1  0.774400  0.399100  0.155400  1.0  0.1108
  H  H24  1  0.674000  0.513000  0.511000  1.0  0.5136
  H  H25  1  0.511800  0.687300  0.351700  1.0  0.1005
  H  H26  1  0.665000  0.724800  0.317000  1.0  0.1153
  H  H27  1  0.655100  0.806700  0.287200  1.0  0.1212
  H  H28  1  0.653100  0.741400  0.206500  1.0  0.117
  H  H29  1  0.417600  0.283000  0.221200  1.0  0.0933
  H  H30  1  0.520100  0.359800  0.089800  1.0  0.1172
  H  H31  1  0.532300  0.279100  0.119200  1.0  0.1097
  H  H32  1  0.600900  0.375300  0.155400  1.0  0.1094
  H  H33  1  0.487000  0.161000  0.511000  1.0  0.5091
  H  H34  1  0.312700  0.824500  0.351700  1.0  0.0995
  H  H35  1  0.275200  0.940200  0.317000  1.0  0.1169
  H  H36  1  0.193300  0.848400  0.287200  1.0  0.1182
  H  H37  1  0.258600  0.911700  0.206500  1.0  0.1183
  H  H38  1  0.717000  0.134600  0.221200  1.0  0.0946
  H  H39  1  0.640200  0.160300  0.089800  1.0  0.1167
  H  H40  1  0.720900  0.253200  0.119200  1.0  0.1097
  H  H41  1  0.624700  0.225600  0.155400  1.0  0.1088
  H  H42  1  0.161000  0.674000  0.011000  1.0  0.5118
  H  H43  1  0.824500  0.511800  0.851700  1.0  0.0998
  H  H44  1  0.940200  0.665000  0.817000  1.0  0.1166
  H  H45  1  0.848400  0.655100  0.787200  1.0  0.1164
  H  H46  1  0.911700  0.653100  0.706500  1.0  0.1173
  H  H47  1  0.134600  0.417600  0.721200  1.0  0.0922
  H  H48  1  0.160300  0.520100  0.589800  1.0  0.1169
  H  H49  1  0.253200  0.532300  0.619200  1.0  0.1092
  H  H50  1  0.225600  0.600900  0.655400  1.0  0.1097
  H  H51  1  0.326000  0.487000  0.011000  1.0  0.5108
  H  H52  1  0.488200  0.312700  0.851700  1.0  0.0995
  H  H53  1  0.335000  0.275200  0.817000  1.0  0.1138
  H  H54  1  0.344900  0.193300  0.787200  1.0  0.1189
  H  H55  1  0.346900  0.258600  0.706500  1.0  0.1175
  H  H56  1  0.582400  0.717000  0.721200  1.0  0.0966
  H  H57  1  0.479900  0.640200  0.589800  1.0  0.1171
  H  H58  1  0.467700  0.720900  0.619200  1.0  0.1105
  H  H59  1  0.399100  0.624700  0.655400  1.0  0.1092
  H  H60  1  0.513000  0.839000  0.011000  1.0  0.5096
  H  H61  1  0.687300  0.175500  0.851700  1.0  0.0993
  H  H62  1  0.724800  0.059800  0.817000  1.0  0.1174
  H  H63  1  0.806700  0.151600  0.787200  1.0  0.1209
  H  H64  1  0.741400  0.088300  0.706500  1.0  0.1186
  H  H65  1  0.283000  0.865400  0.721200  1.0  0.0919
  H  H66  1  0.359800  0.839700  0.589800  1.0  0.1169
  H  H67  1  0.279100  0.746800  0.619200  1.0  0.1084
  H  H68  1  0.375300  0.774400  0.655400  1.0  0.11
  C  C69  1  0.233700  0.509300  0.212800  1.0  0.6933
  C  C70  1  0.155600  0.469500  0.284200  1.0  0.0035
  C  C71  1  0.109100  0.363400  0.272500  1.0  -0.3581
  C  C72  1  0.975600  0.518300  0.235000  1.0  0.5504
  C  C73  1  0.023700  0.481400  0.290300  1.0  0.5372
  C  C74  1  0.767700  0.491600  0.311100  1.0  0.651
  C  C75  1  0.838500  0.518800  0.236100  1.0  0.0129
  C  C76  1  0.795600  0.460600  0.140700  1.0  -0.3406
  C  C77  1  0.490700  0.724400  0.212800  1.0  0.6963
  C  C78  1  0.530500  0.686100  0.284200  1.0  0.0018
  C  C79  1  0.636600  0.745700  0.272500  1.0  -0.3584
  C  C80  1  0.481700  0.457300  0.235000  1.0  0.5505
  C  C81  1  0.518600  0.542300  0.290300  1.0  0.5368
  C  C82  1  0.508400  0.276100  0.311100  1.0  0.649
  C  C83  1  0.481200  0.319700  0.236100  1.0  0.0126
  C  C84  1  0.539400  0.335000  0.140700  1.0  -0.3413
  C  C85  1  0.275600  0.766300  0.212800  1.0  0.6956
  C  C86  1  0.313900  0.844400  0.284200  1.0  0.0032
  C  C87  1  0.254300  0.890900  0.272500  1.0  -0.3592
  C  C88  1  0.542700  0.024400  0.235000  1.0  0.5501
  C  C89  1  0.457700  0.976300  0.290300  1.0  0.5367
  C  C90  1  0.723900  0.232300  0.311100  1.0  0.6482
  C  C91  1  0.680300  0.161500  0.236100  1.0  0.0141
  C  C92  1  0.665000  0.204400  0.140700  1.0  -0.3414
  C  C93  1  0.766300  0.490700  0.712800  1.0  0.6937
  C  C94  1  0.844400  0.530500  0.784200  1.0  0.0032
  C  C95  1  0.890900  0.636600  0.772500  1.0  -0.355
  C  C96  1  0.024400  0.481700  0.735000  1.0  0.5502
  C  C97  1  0.976300  0.518600  0.790300  1.0  0.537
  C  C98  1  0.232300  0.508400  0.811100  1.0  0.6528
  C  C99  1  0.161500  0.481200  0.736100  1.0  0.0141
  C  C100  1  0.204400  0.539400  0.640700  1.0  -0.3414
  C  C101  1  0.509300  0.275600  0.712800  1.0  0.6954
  C  C102  1  0.469500  0.313900  0.784200  1.0  0.0032
  C  C103  1  0.363400  0.254300  0.772500  1.0  -0.357
  C  C104  1  0.518300  0.542700  0.735000  1.0  0.5508
  C  C105  1  0.481400  0.457700  0.790300  1.0  0.5374
  C  C106  1  0.491600  0.723900  0.811100  1.0  0.6502
  C  C107  1  0.518800  0.680300  0.736100  1.0  0.0134
  C  C108  1  0.460600  0.665000  0.640700  1.0  -0.342
  C  C109  1  0.724400  0.233700  0.712800  1.0  0.6961
  C  C110  1  0.686100  0.155600  0.784200  1.0  0.0009
  C  C111  1  0.745700  0.109100  0.772500  1.0  -0.3599
  C  C112  1  0.457300  0.975600  0.735000  1.0  0.5502
  C  C113  1  0.542300  0.023700  0.790300  1.0  0.5368
  C  C114  1  0.276100  0.767700  0.811100  1.0  0.6489
  C  C115  1  0.319700  0.838500  0.736100  1.0  0.0137
  C  C116  1  0.335000  0.795600  0.640700  1.0  -0.3419
  N  N117  1  0.903500  0.499500  0.276500  1.0  -0.3196
  N  N118  1  0.097900  0.500300  0.251800  1.0  -0.3477
  N  N119  1  0.500500  0.404000  0.276500  1.0  -0.3161
  N  N120  1  0.499700  0.597600  0.251800  1.0  -0.3466
  N  N121  1  0.596000  0.096500  0.276500  1.0  -0.3202
  N  N122  1  0.402400  0.902100  0.251800  1.0  -0.3449
  N  N123  1  0.096500  0.500500  0.776500  1.0  -0.3206
  N  N124  1  0.902100  0.499700  0.751800  1.0  -0.3461
  N  N125  1  0.499500  0.596000  0.776500  1.0  -0.3189
  N  N126  1  0.500300  0.402400  0.751800  1.0  -0.3461
  N  N127  1  0.404000  0.903500  0.776500  1.0  -0.3193
  N  N128  1  0.597600  0.097900  0.751800  1.0  -0.3447
  O  O129  1  0.843500  0.374900  0.511500  1.0  -0.9603
  O  O130  1  0.228400  0.548000  0.140500  1.0  -0.6507
  O  O131  1  0.296100  0.495600  0.228500  1.0  -0.6747
  O  O132  1  0.011500  0.560500  0.159400  1.0  -0.5759
  O  O133  1  0.773800  0.450500  0.386500  1.0  -0.6891
  O  O134  1  0.990200  0.436400  0.368000  1.0  -0.5854
  O  O135  1  0.705600  0.502700  0.297100  1.0  -0.5947
  O  O136  1  0.625100  0.468600  0.511500  1.0  -0.9615
  O  O137  1  0.452000  0.680400  0.140500  1.0  -0.6523
  O  O138  1  0.504400  0.800500  0.228500  1.0  -0.6756
  O  O139  1  0.439500  0.451000  0.159400  1.0  -0.5762
  O  O140  1  0.549500  0.323300  0.386500  1.0  -0.6891
  O  O141  1  0.563600  0.553800  0.368000  1.0  -0.5842
  O  O142  1  0.497300  0.202900  0.297100  1.0  -0.5928
  O  O143  1  0.531400  0.156500  0.511500  1.0  -0.9591
  O  O144  1  0.319600  0.771600  0.140500  1.0  -0.6531
  O  O145  1  0.199500  0.703900  0.228500  1.0  -0.6725
  O  O146  1  0.549000  0.988500  0.159400  1.0  -0.5773
  O  O147  1  0.676700  0.226200  0.386500  1.0  -0.6888
  O  O148  1  0.446200  0.009800  0.368000  1.0  -0.5862
  O  O149  1  0.797100  0.294400  0.297100  1.0  -0.5875
  O  O150  1  0.156500  0.625100  0.011500  1.0  -0.9612
  O  O151  1  0.771600  0.452000  0.640500  1.0  -0.6513
  O  O152  1  0.703900  0.504400  0.728500  1.0  -0.6743
  O  O153  1  0.988500  0.439500  0.659400  1.0  -0.5759
  O  O154  1  0.226200  0.549500  0.886500  1.0  -0.6895
  O  O155  1  0.009800  0.563600  0.868000  1.0  -0.5855
  O  O156  1  0.294400  0.497300  0.797100  1.0  -0.5938
  O  O157  1  0.374900  0.531400  0.011500  1.0  -0.9593
  O  O158  1  0.548000  0.319600  0.640500  1.0  -0.6531
  O  O159  1  0.495600  0.199500  0.728500  1.0  -0.6728
  O  O160  1  0.560500  0.549000  0.659400  1.0  -0.5765
  O  O161  1  0.450500  0.676700  0.886500  1.0  -0.6892
  O  O162  1  0.436400  0.446200  0.868000  1.0  -0.5846
  O  O163  1  0.502700  0.797100  0.797100  1.0  -0.5922
  O  O164  1  0.468600  0.843500  0.011500  1.0  -0.9583
  O  O165  1  0.680400  0.228400  0.640500  1.0  -0.6524
  O  O166  1  0.800500  0.296100  0.728500  1.0  -0.6758
  O  O167  1  0.451000  0.011500  0.659400  1.0  -0.5762
  O  O168  1  0.323300  0.773800  0.886500  1.0  -0.6889
  O  O169  1  0.553800  0.990200  0.868000  1.0  -0.5851
  O  O170  1  0.202900  0.705600  0.797100  1.0  -0.5904
