# generated using pymatgen
data_Eu(CO2)4
_symmetry_space_group_name_H-M   'P 1'
_cell_length_a   9.88730000
_cell_length_b   14.77680000
_cell_length_c   19.22540000
_cell_angle_alpha   90.00000000
_cell_angle_beta   97.97680000
_cell_angle_gamma   90.00000000
_symmetry_Int_Tables_number   1
_chemical_formula_structural   Eu(CO2)4
_chemical_formula_sum   'Eu8 C32 O64'
_cell_volume   2781.70419242
_cell_formula_units_Z   8
loop_
 _symmetry_equiv_pos_site_id
 _symmetry_equiv_pos_as_xyz
  1  'x, y, z'
loop_
 _atom_site_type_symbol
 _atom_site_label
 _atom_site_symmetry_multiplicity
 _atom_site_fract_x
 _atom_site_fract_y
 _atom_site_fract_z
 _atom_site_occupancy
 _atom_site_charge
  Eu  Eu1  1  0.405680  0.073870  0.637650  1.0  2.0256
  Eu  Eu2  1  0.543030  0.484780  0.666150  1.0  2.09
  Eu  Eu3  1  0.094320  0.573870  0.862350  1.0  2.0273
  Eu  Eu4  1  0.956970  0.984780  0.833850  1.0  2.0903
  Eu  Eu5  1  0.594320  0.926130  0.362350  1.0  2.0275
  Eu  Eu6  1  0.456970  0.515220  0.333850  1.0  2.0906
  Eu  Eu7  1  0.905680  0.426130  0.137650  1.0  2.0259
  Eu  Eu8  1  0.043030  0.015220  0.166150  1.0  2.0905
  C  C9  1  0.511800  0.049600  0.487900  1.0  0.5683
  C  C10  1  0.533800  0.271000  0.678800  1.0  0.5692
  C  C11  1  0.406400  0.293000  0.624900  1.0  0.5811
  C  C12  1  0.564000  0.470000  0.498700  1.0  0.5813
  C  C13  1  0.859600  0.503600  0.738400  1.0  0.5755
  C  C14  1  0.776200  0.526700  0.798900  1.0  0.5843
  C  C15  1  0.306200  0.569500  0.748300  1.0  0.5799
  C  C16  1  0.314500  0.471500  0.778200  1.0  0.5778
  C  C17  1  0.988200  0.549600  0.012100  1.0  0.5683
  C  C18  1  0.966200  0.771000  0.821200  1.0  0.5693
  C  C19  1  0.093600  0.793000  0.875100  1.0  0.5817
  C  C20  1  0.936000  0.970000  0.001300  1.0  0.5822
  C  C21  1  0.640400  0.003600  0.761600  1.0  0.5738
  C  C22  1  0.723800  0.026700  0.701100  1.0  0.5841
  C  C23  1  0.193800  0.069500  0.751700  1.0  0.5799
  C  C24  1  0.185500  0.971500  0.721800  1.0  0.5777
  C  C25  1  0.488200  0.950400  0.512100  1.0  0.5695
  C  C26  1  0.466200  0.729000  0.321200  1.0  0.5699
  C  C27  1  0.593600  0.707000  0.375100  1.0  0.5816
  C  C28  1  0.436000  0.530000  0.501300  1.0  0.5832
  C  C29  1  0.140400  0.496400  0.261600  1.0  0.5735
  C  C30  1  0.223800  0.473300  0.201100  1.0  0.584
  C  C31  1  0.693800  0.430500  0.251700  1.0  0.5814
  C  C32  1  0.685500  0.528500  0.221800  1.0  0.5764
  C  C33  1  0.011800  0.450400  0.987900  1.0  0.5685
  C  C34  1  0.033800  0.229000  0.178800  1.0  0.5691
  C  C35  1  0.906400  0.207000  0.124900  1.0  0.5809
  C  C36  1  0.064000  0.030000  0.998700  1.0  0.5817
  C  C37  1  0.359600  0.996400  0.238400  1.0  0.576
  C  C38  1  0.276200  0.973300  0.298900  1.0  0.5843
  C  C39  1  0.806200  0.930500  0.248300  1.0  0.5808
  C  C40  1  0.814500  0.028500  0.278200  1.0  0.5751
  O  O41  1  0.474100  0.111300  0.525000  1.0  -0.5381
  O  O42  1  0.569200  0.059000  0.434400  1.0  -0.5265
  O  O43  1  0.549000  0.190800  0.698800  1.0  -0.5117
  O  O44  1  0.613100  0.335800  0.698200  1.0  -0.5451
  O  O45  1  0.332000  0.227800  0.604500  1.0  -0.5643
  O  O46  1  0.390600  0.373500  0.607100  1.0  -0.5048
  O  O47  1  0.632800  0.451300  0.556700  1.0  -0.557
  O  O48  1  0.588700  0.445600  0.439300  1.0  -0.5553
  O  O49  1  0.792600  0.482900  0.680400  1.0  -0.5538
  O  O50  1  0.987700  0.505700  0.752000  1.0  -0.54
  O  O51  1  0.649500  0.528000  0.782700  1.0  -0.5492
  O  O52  1  0.843400  0.538000  0.858000  1.0  -0.5371
  O  O53  1  0.373400  0.585100  0.699000  1.0  -0.6444
  O  O54  1  0.233800  0.624300  0.775400  1.0  -0.5568
  O  O55  1  0.395900  0.419400  0.753800  1.0  -0.5104
  O  O56  1  0.240500  0.454600  0.824400  1.0  -0.5378
  O  O57  1  0.025900  0.611300  0.975000  1.0  -0.5375
  O  O58  1  0.930800  0.559000  0.065600  1.0  -0.5277
  O  O59  1  0.951000  0.690800  0.801200  1.0  -0.5103
  O  O60  1  0.886900  0.835800  0.801800  1.0  -0.5442
  O  O61  1  0.168000  0.727800  0.895500  1.0  -0.5665
  O  O62  1  0.109400  0.873500  0.892900  1.0  -0.5039
  O  O63  1  0.867200  0.951300  0.943300  1.0  -0.5555
  O  O64  1  0.911300  0.945600  0.060700  1.0  -0.555
  O  O65  1  0.707400  0.982900  0.819600  1.0  -0.5554
  O  O66  1  0.512300  0.005700  0.748000  1.0  -0.5394
  O  O67  1  0.850500  0.028000  0.717300  1.0  -0.5487
  O  O68  1  0.656600  0.038000  0.642000  1.0  -0.5398
  O  O69  1  0.126600  0.085100  0.801000  1.0  -0.6441
  O  O70  1  0.266200  0.124300  0.724600  1.0  -0.5571
  O  O71  1  0.104100  0.919400  0.746200  1.0  -0.5101
  O  O72  1  0.259500  0.954600  0.675600  1.0  -0.5391
  O  O73  1  0.525900  0.888700  0.475000  1.0  -0.5386
  O  O74  1  0.430800  0.941000  0.565600  1.0  -0.5269
  O  O75  1  0.451000  0.809200  0.301200  1.0  -0.5094
  O  O76  1  0.386900  0.664200  0.301800  1.0  -0.5436
  O  O77  1  0.668000  0.772200  0.395500  1.0  -0.5678
  O  O78  1  0.609400  0.626500  0.392900  1.0  -0.5062
  O  O79  1  0.367200  0.548700  0.443300  1.0  -0.5555
  O  O80  1  0.411300  0.554400  0.560700  1.0  -0.5554
  O  O81  1  0.207400  0.517100  0.319600  1.0  -0.5555
  O  O82  1  0.012300  0.494300  0.248000  1.0  -0.5389
  O  O83  1  0.350500  0.472000  0.217300  1.0  -0.5483
  O  O84  1  0.156600  0.462000  0.142000  1.0  -0.5402
  O  O85  1  0.626600  0.414900  0.301000  1.0  -0.6452
  O  O86  1  0.766200  0.375700  0.224600  1.0  -0.5565
  O  O87  1  0.604100  0.580600  0.246200  1.0  -0.5088
  O  O88  1  0.759500  0.545400  0.175600  1.0  -0.5402
  O  O89  1  0.974100  0.388700  0.025000  1.0  -0.538
  O  O90  1  0.069200  0.441000  0.934400  1.0  -0.5271
  O  O91  1  0.049000  0.309200  0.198800  1.0  -0.5108
  O  O92  1  0.113100  0.164200  0.198200  1.0  -0.5448
  O  O93  1  0.832000  0.272200  0.104500  1.0  -0.5649
  O  O94  1  0.890600  0.126500  0.107100  1.0  -0.5049
  O  O95  1  0.132800  0.048700  0.056700  1.0  -0.5568
  O  O96  1  0.088700  0.054400  0.939300  1.0  -0.5545
  O  O97  1  0.292600  0.017100  0.180400  1.0  -0.5536
  O  O98  1  0.487700  0.994300  0.252000  1.0  -0.5399
  O  O99  1  0.149500  0.972000  0.282700  1.0  -0.5488
  O  O100  1  0.343400  0.962000  0.358000  1.0  -0.5376
  O  O101  1  0.873400  0.914900  0.199000  1.0  -0.6467
  O  O102  1  0.733800  0.875700  0.275400  1.0  -0.557
  O  O103  1  0.895900  0.080600  0.253800  1.0  -0.5097
  O  O104  1  0.740500  0.045400  0.324400  1.0  -0.5392
