# generated using pymatgen
data_MgH8C14(NO2)2
_symmetry_space_group_name_H-M   'P 1'
_cell_length_a   24.83260000
_cell_length_b   17.41850000
_cell_length_c   17.06340000
_cell_angle_alpha   90.00000000
_cell_angle_beta   113.42800000
_cell_angle_gamma   90.00000000
_symmetry_Int_Tables_number   1
_chemical_formula_structural   MgH8C14(NO2)2
_chemical_formula_sum   'Mg12 H96 C168 N24 O48'
_cell_volume   6772.25332676
_cell_formula_units_Z   12
loop_
 _symmetry_equiv_pos_site_id
 _symmetry_equiv_pos_as_xyz
  1  'x, y, z'
loop_
 _atom_site_type_symbol
 _atom_site_label
 _atom_site_symmetry_multiplicity
 _atom_site_fract_x
 _atom_site_fract_y
 _atom_site_fract_z
 _atom_site_occupancy
 _atom_site_charge
  Mg  Mg1  1  0.170160  0.200440  0.782950  1.0  1.588
  Mg  Mg2  1  0.670160  0.700440  0.782950  1.0  1.588
  Mg  Mg3  1  0.829840  0.200440  0.717050  1.0  1.5851
  Mg  Mg4  1  0.329840  0.700440  0.717050  1.0  1.5851
  Mg  Mg5  1  0.829840  0.799560  0.217050  1.0  1.5849
  Mg  Mg6  1  0.329840  0.299560  0.217050  1.0  1.5849
  Mg  Mg7  1  0.170160  0.799560  0.282950  1.0  1.5877
  Mg  Mg8  1  0.670160  0.299560  0.282950  1.0  1.5877
  Mg  Mg9  1  0.250000  0.250000  0.000000  1.0  1.5281
  Mg  Mg10  1  0.750000  0.250000  0.500000  1.0  1.5281
  Mg  Mg11  1  0.750000  0.750000  0.000000  1.0  1.5281
  Mg  Mg12  1  0.250000  0.750000  0.500000  1.0  1.5281
  H  H13  1  0.005300  0.276600  0.827700  1.0  0.0877
  H  H14  1  0.312000  0.207100  0.718400  1.0  0.0854
  H  H15  1  0.392500  0.216200  0.683500  1.0  0.0971
  H  H16  1  0.154800  0.384900  0.969900  1.0  0.08
  H  H17  1  0.953600  0.358900  0.877800  1.0  0.1065
  H  H18  1  0.103200  0.469100  0.018700  1.0  0.11
  H  H19  1  0.411200  0.264500  0.959800  1.0  0.0806
  H  H20  1  0.493400  0.269000  0.927900  1.0  0.1133
  H  H21  1  0.297100  0.891200  0.103200  1.0  0.099
  H  H22  1  0.279900  0.019600  0.067200  1.0  0.0869
  H  H23  1  0.162300  0.960200  0.837800  1.0  0.0974
  H  H24  1  0.180600  0.832300  0.875600  1.0  0.08
  H  H25  1  0.505300  0.776600  0.827700  1.0  0.0877
  H  H26  1  0.812000  0.707100  0.718400  1.0  0.0854
  H  H27  1  0.892500  0.716200  0.683500  1.0  0.0971
  H  H28  1  0.654800  0.884900  0.969900  1.0  0.08
  H  H29  1  0.453600  0.858900  0.877800  1.0  0.1065
  H  H30  1  0.603200  0.969100  0.018700  1.0  0.11
  H  H31  1  0.911200  0.764500  0.959800  1.0  0.0806
  H  H32  1  0.993400  0.769000  0.927900  1.0  0.1133
  H  H33  1  0.797100  0.391200  0.103200  1.0  0.099
  H  H34  1  0.779900  0.519600  0.067200  1.0  0.0869
  H  H35  1  0.662300  0.460200  0.837800  1.0  0.0974
  H  H36  1  0.680600  0.332300  0.875600  1.0  0.08
  H  H37  1  0.994700  0.276600  0.672300  1.0  0.0882
  H  H38  1  0.688000  0.207100  0.781600  1.0  0.0853
  H  H39  1  0.607500  0.216200  0.816500  1.0  0.0973
  H  H40  1  0.845200  0.384900  0.530100  1.0  0.0796
  H  H41  1  0.046400  0.358900  0.622200  1.0  0.1043
  H  H42  1  0.896800  0.469100  0.481300  1.0  0.1099
  H  H43  1  0.588800  0.264500  0.540200  1.0  0.0816
  H  H44  1  0.506600  0.269000  0.572100  1.0  0.1138
  H  H45  1  0.702900  0.891200  0.396800  1.0  0.0992
  H  H46  1  0.720100  0.019600  0.432800  1.0  0.0873
  H  H47  1  0.837700  0.960200  0.662200  1.0  0.0972
  H  H48  1  0.819400  0.832300  0.624400  1.0  0.0803
  H  H49  1  0.494700  0.776600  0.672300  1.0  0.0882
  H  H50  1  0.188000  0.707100  0.781600  1.0  0.0853
  H  H51  1  0.107500  0.716200  0.816500  1.0  0.0973
  H  H52  1  0.345200  0.884900  0.530100  1.0  0.0796
  H  H53  1  0.546400  0.858900  0.622200  1.0  0.1043
  H  H54  1  0.396800  0.969100  0.481300  1.0  0.1099
  H  H55  1  0.088800  0.764500  0.540200  1.0  0.0816
  H  H56  1  0.006600  0.769000  0.572100  1.0  0.1138
  H  H57  1  0.202900  0.391200  0.396800  1.0  0.0992
  H  H58  1  0.220100  0.519600  0.432800  1.0  0.0873
  H  H59  1  0.337700  0.460200  0.662200  1.0  0.0972
  H  H60  1  0.319400  0.332300  0.624400  1.0  0.0803
  H  H61  1  0.994700  0.723400  0.172300  1.0  0.0885
  H  H62  1  0.688000  0.792900  0.281600  1.0  0.085
  H  H63  1  0.607500  0.783800  0.316500  1.0  0.0974
  H  H64  1  0.845200  0.615100  0.030100  1.0  0.079
  H  H65  1  0.046400  0.641100  0.122200  1.0  0.1042
  H  H66  1  0.896800  0.530900  0.981300  1.0  0.1098
  H  H67  1  0.588800  0.735500  0.040200  1.0  0.0816
  H  H68  1  0.506600  0.731000  0.072100  1.0  0.1136
  H  H69  1  0.702900  0.108800  0.896800  1.0  0.0995
  H  H70  1  0.720100  0.980400  0.932800  1.0  0.0875
  H  H71  1  0.837700  0.039800  0.162200  1.0  0.0975
  H  H72  1  0.819400  0.167700  0.124400  1.0  0.0805
  H  H73  1  0.494700  0.223400  0.172300  1.0  0.0885
  H  H74  1  0.188000  0.292900  0.281600  1.0  0.085
  H  H75  1  0.107500  0.283800  0.316500  1.0  0.0974
  H  H76  1  0.345200  0.115100  0.030100  1.0  0.079
  H  H77  1  0.546400  0.141100  0.122200  1.0  0.1042
  H  H78  1  0.396800  0.030900  0.981300  1.0  0.1098
  H  H79  1  0.088800  0.235500  0.040200  1.0  0.0816
  H  H80  1  0.006600  0.231000  0.072100  1.0  0.1136
  H  H81  1  0.202900  0.608800  0.896800  1.0  0.0995
  H  H82  1  0.220100  0.480400  0.932800  1.0  0.0875
  H  H83  1  0.337700  0.539800  0.162200  1.0  0.0975
  H  H84  1  0.319400  0.667700  0.124400  1.0  0.0805
  H  H85  1  0.005300  0.723400  0.327700  1.0  0.0884
  H  H86  1  0.312000  0.792900  0.218400  1.0  0.0854
  H  H87  1  0.392500  0.783800  0.183500  1.0  0.0972
  H  H88  1  0.154800  0.615100  0.469900  1.0  0.0799
  H  H89  1  0.953600  0.641100  0.377800  1.0  0.1063
  H  H90  1  0.103200  0.530900  0.518700  1.0  0.1105
  H  H91  1  0.411200  0.735500  0.459800  1.0  0.0807
  H  H92  1  0.493400  0.731000  0.427900  1.0  0.1133
  H  H93  1  0.297100  0.108800  0.603200  1.0  0.0994
  H  H94  1  0.279900  0.980400  0.567200  1.0  0.0875
  H  H95  1  0.162300  0.039800  0.337800  1.0  0.0974
  H  H96  1  0.180600  0.167700  0.375600  1.0  0.0801
  H  H97  1  0.505300  0.223400  0.327700  1.0  0.0884
  H  H98  1  0.812000  0.292900  0.218400  1.0  0.0854
  H  H99  1  0.892500  0.283800  0.183500  1.0  0.0972
  H  H100  1  0.654800  0.115100  0.469900  1.0  0.0799
  H  H101  1  0.453600  0.141100  0.377800  1.0  0.1063
  H  H102  1  0.603200  0.030900  0.518700  1.0  0.1105
  H  H103  1  0.911200  0.235500  0.459800  1.0  0.0807
  H  H104  1  0.993400  0.231000  0.427900  1.0  0.1133
  H  H105  1  0.797100  0.608800  0.603200  1.0  0.0994
  H  H106  1  0.779900  0.480400  0.567200  1.0  0.0875
  H  H107  1  0.662300  0.539800  0.337800  1.0  0.0974
  H  H108  1  0.680600  0.667700  0.375600  1.0  0.0801
  C  C109  1  0.118040  0.272120  0.856700  1.0  0.6769
  C  C110  1  0.210230  0.086590  0.923900  1.0  0.7257
  C  C111  1  0.085440  0.323360  0.893000  1.0  -0.1432
  C  C112  1  0.353370  0.234900  0.842400  1.0  -0.1467
  C  C113  1  0.299740  0.229800  0.863400  1.0  0.711
  C  C114  1  0.024870  0.315300  0.865900  1.0  -0.0411
  C  C115  1  0.348350  0.220300  0.760300  1.0  -0.0386
  C  C116  1  0.396620  0.224900  0.739400  1.0  -0.1044
  C  C117  1  0.023200  0.422700  0.952000  1.0  0.1645
  C  C118  1  0.114270  0.380300  0.950700  1.0  -0.0127
  C  C119  1  0.993980  0.364600  0.895600  1.0  -0.1479
  C  C120  1  0.451210  0.242700  0.802100  1.0  0.1695
  C  C121  1  0.083610  0.430500  0.980300  1.0  -0.0784
  C  C122  1  0.219560  0.003900  0.948100  1.0  -0.1528
  C  C123  1  0.407670  0.253900  0.904500  1.0  -0.0505
  C  C124  1  0.456900  0.257200  0.885500  1.0  -0.1478
  C  C125  1  0.269800  0.905000  0.049400  1.0  -0.1467
  C  C126  1  0.259500  0.982200  0.027600  1.0  -0.0525
  C  C127  1  0.189900  0.947200  0.891600  1.0  -0.0637
  C  C128  1  0.200800  0.870200  0.914600  1.0  -0.0663
  C  C129  1  0.240100  0.849800  0.992300  1.0  0.0772
  C  C130  1  0.618040  0.772120  0.856700  1.0  0.6769
  C  C131  1  0.710230  0.586590  0.923900  1.0  0.7257
  C  C132  1  0.585440  0.823360  0.893000  1.0  -0.1432
  C  C133  1  0.853370  0.734900  0.842400  1.0  -0.1467
  C  C134  1  0.799740  0.729800  0.863400  1.0  0.711
  C  C135  1  0.524870  0.815300  0.865900  1.0  -0.0411
  C  C136  1  0.848350  0.720300  0.760300  1.0  -0.0386
  C  C137  1  0.896620  0.724900  0.739400  1.0  -0.1044
  C  C138  1  0.523200  0.922700  0.952000  1.0  0.1645
  C  C139  1  0.614270  0.880300  0.950700  1.0  -0.0127
  C  C140  1  0.493980  0.864600  0.895600  1.0  -0.1479
  C  C141  1  0.951210  0.742700  0.802100  1.0  0.1695
  C  C142  1  0.583610  0.930500  0.980300  1.0  -0.0784
  C  C143  1  0.719560  0.503900  0.948100  1.0  -0.1528
  C  C144  1  0.907670  0.753900  0.904500  1.0  -0.0505
  C  C145  1  0.956900  0.757200  0.885500  1.0  -0.1478
  C  C146  1  0.769800  0.405000  0.049400  1.0  -0.1467
  C  C147  1  0.759500  0.482200  0.027600  1.0  -0.0525
  C  C148  1  0.689900  0.447200  0.891600  1.0  -0.0637
  C  C149  1  0.700800  0.370200  0.914600  1.0  -0.0663
  C  C150  1  0.740100  0.349800  0.992300  1.0  0.0772
  C  C151  1  0.881960  0.272120  0.643300  1.0  0.6784
  C  C152  1  0.789770  0.086590  0.576100  1.0  0.7238
  C  C153  1  0.914560  0.323360  0.607000  1.0  -0.141
  C  C154  1  0.646630  0.234900  0.657600  1.0  -0.1468
  C  C155  1  0.700260  0.229800  0.636600  1.0  0.7098
  C  C156  1  0.975130  0.315300  0.634100  1.0  -0.0412
  C  C157  1  0.651650  0.220300  0.739700  1.0  -0.0401
  C  C158  1  0.603380  0.224900  0.760600  1.0  -0.1057
  C  C159  1  0.976800  0.422700  0.548000  1.0  0.164
  C  C160  1  0.885730  0.380300  0.549300  1.0  -0.0122
  C  C161  1  0.006020  0.364600  0.604400  1.0  -0.1489
  C  C162  1  0.548790  0.242700  0.697900  1.0  0.1693
  C  C163  1  0.916390  0.430500  0.519700  1.0  -0.0791
  C  C164  1  0.780440  0.003900  0.551900  1.0  -0.1529
  C  C165  1  0.592330  0.253900  0.595500  1.0  -0.0491
  C  C166  1  0.543100  0.257200  0.614500  1.0  -0.1484
  C  C167  1  0.730200  0.905000  0.450600  1.0  -0.146
  C  C168  1  0.740500  0.982200  0.472400  1.0  -0.053
  C  C169  1  0.810100  0.947200  0.608400  1.0  -0.063
  C  C170  1  0.799200  0.870200  0.585400  1.0  -0.0654
  C  C171  1  0.759900  0.849800  0.507700  1.0  0.0769
  C  C172  1  0.381960  0.772120  0.643300  1.0  0.6784
  C  C173  1  0.289770  0.586590  0.576100  1.0  0.7238
  C  C174  1  0.414560  0.823360  0.607000  1.0  -0.141
  C  C175  1  0.146630  0.734900  0.657600  1.0  -0.1468
  C  C176  1  0.200260  0.729800  0.636600  1.0  0.7098
  C  C177  1  0.475130  0.815300  0.634100  1.0  -0.0412
  C  C178  1  0.151650  0.720300  0.739700  1.0  -0.0401
  C  C179  1  0.103380  0.724900  0.760600  1.0  -0.1057
  C  C180  1  0.476800  0.922700  0.548000  1.0  0.164
  C  C181  1  0.385730  0.880300  0.549300  1.0  -0.0122
  C  C182  1  0.506020  0.864600  0.604400  1.0  -0.1489
  C  C183  1  0.048790  0.742700  0.697900  1.0  0.1693
  C  C184  1  0.416390  0.930500  0.519700  1.0  -0.0791
  C  C185  1  0.280440  0.503900  0.551900  1.0  -0.1529
  C  C186  1  0.092330  0.753900  0.595500  1.0  -0.0491
  C  C187  1  0.043100  0.757200  0.614500  1.0  -0.1484
  C  C188  1  0.230200  0.405000  0.450600  1.0  -0.146
  C  C189  1  0.240500  0.482200  0.472400  1.0  -0.053
  C  C190  1  0.310100  0.447200  0.608400  1.0  -0.063
  C  C191  1  0.299200  0.370200  0.585400  1.0  -0.0654
  C  C192  1  0.259900  0.349800  0.507700  1.0  0.0769
  C  C193  1  0.881960  0.727880  0.143300  1.0  0.6782
  C  C194  1  0.789770  0.913410  0.076100  1.0  0.7242
  C  C195  1  0.914560  0.676640  0.107000  1.0  -0.1417
  C  C196  1  0.646630  0.765100  0.157600  1.0  -0.1472
  C  C197  1  0.700260  0.770200  0.136600  1.0  0.7104
  C  C198  1  0.975130  0.684700  0.134100  1.0  -0.0422
  C  C199  1  0.651650  0.779700  0.239700  1.0  -0.0404
  C  C200  1  0.603380  0.775100  0.260600  1.0  -0.1064
  C  C201  1  0.976800  0.577300  0.048000  1.0  0.1651
  C  C202  1  0.885730  0.619700  0.049300  1.0  -0.0125
  C  C203  1  0.006020  0.635400  0.104400  1.0  -0.1489
  C  C204  1  0.548790  0.757300  0.197900  1.0  0.1694
  C  C205  1  0.916390  0.569500  0.019700  1.0  -0.08
  C  C206  1  0.780440  0.996100  0.051900  1.0  -0.1528
  C  C207  1  0.592330  0.746100  0.095500  1.0  -0.0485
  C  C208  1  0.543100  0.742800  0.114500  1.0  -0.1483
  C  C209  1  0.730200  0.095000  0.950600  1.0  -0.146
  C  C210  1  0.740500  0.017800  0.972400  1.0  -0.0518
  C  C211  1  0.810100  0.052800  0.108400  1.0  -0.0624
  C  C212  1  0.799200  0.129800  0.085400  1.0  -0.0659
  C  C213  1  0.759900  0.150200  0.007700  1.0  0.0773
  C  C214  1  0.381960  0.227880  0.143300  1.0  0.6782
  C  C215  1  0.289770  0.413410  0.076100  1.0  0.7242
  C  C216  1  0.414560  0.176640  0.107000  1.0  -0.1417
  C  C217  1  0.146630  0.265100  0.157600  1.0  -0.1472
  C  C218  1  0.200260  0.270200  0.136600  1.0  0.7104
  C  C219  1  0.475130  0.184700  0.134100  1.0  -0.0422
  C  C220  1  0.151650  0.279700  0.239700  1.0  -0.0404
  C  C221  1  0.103380  0.275100  0.260600  1.0  -0.1064
  C  C222  1  0.476800  0.077300  0.048000  1.0  0.1651
  C  C223  1  0.385730  0.119700  0.049300  1.0  -0.0125
  C  C224  1  0.506020  0.135400  0.104400  1.0  -0.1489
  C  C225  1  0.048790  0.257300  0.197900  1.0  0.1694
  C  C226  1  0.416390  0.069500  0.019700  1.0  -0.08
  C  C227  1  0.280440  0.496100  0.051900  1.0  -0.1528
  C  C228  1  0.092330  0.246100  0.095500  1.0  -0.0485
  C  C229  1  0.043100  0.242800  0.114500  1.0  -0.1483
  C  C230  1  0.230200  0.595000  0.950600  1.0  -0.146
  C  C231  1  0.240500  0.517800  0.972400  1.0  -0.0518
  C  C232  1  0.310100  0.552800  0.108400  1.0  -0.0624
  C  C233  1  0.299200  0.629800  0.085400  1.0  -0.0659
  C  C234  1  0.259900  0.650200  0.007700  1.0  0.0773
  C  C235  1  0.118040  0.727880  0.356700  1.0  0.6769
  C  C236  1  0.210230  0.913410  0.423900  1.0  0.7253
  C  C237  1  0.085440  0.676640  0.393000  1.0  -0.1424
  C  C238  1  0.353370  0.765100  0.342400  1.0  -0.1472
  C  C239  1  0.299740  0.770200  0.363400  1.0  0.7116
  C  C240  1  0.024870  0.684700  0.365900  1.0  -0.041
  C  C241  1  0.348350  0.779700  0.260300  1.0  -0.0384
  C  C242  1  0.396620  0.775100  0.239400  1.0  -0.1059
  C  C243  1  0.023200  0.577300  0.452000  1.0  0.1645
  C  C244  1  0.114270  0.619700  0.450700  1.0  -0.0135
  C  C245  1  0.993980  0.635400  0.395600  1.0  -0.1475
  C  C246  1  0.451210  0.757300  0.302100  1.0  0.1686
  C  C247  1  0.083610  0.569500  0.480300  1.0  -0.0795
  C  C248  1  0.219560  0.996100  0.448100  1.0  -0.1526
  C  C249  1  0.407670  0.746100  0.404500  1.0  -0.0497
  C  C250  1  0.456900  0.742800  0.385500  1.0  -0.1473
  C  C251  1  0.269800  0.095000  0.549400  1.0  -0.1466
  C  C252  1  0.259500  0.017800  0.527600  1.0  -0.0524
  C  C253  1  0.189900  0.052800  0.391600  1.0  -0.0633
  C  C254  1  0.200800  0.129800  0.414600  1.0  -0.0668
  C  C255  1  0.240100  0.150200  0.492300  1.0  0.0778
  C  C256  1  0.618040  0.227880  0.356700  1.0  0.6769
  C  C257  1  0.710230  0.413410  0.423900  1.0  0.7253
  C  C258  1  0.585440  0.176640  0.393000  1.0  -0.1424
  C  C259  1  0.853370  0.265100  0.342400  1.0  -0.1472
  C  C260  1  0.799740  0.270200  0.363400  1.0  0.7116
  C  C261  1  0.524870  0.184700  0.365900  1.0  -0.041
  C  C262  1  0.848350  0.279700  0.260300  1.0  -0.0384
  C  C263  1  0.896620  0.275100  0.239400  1.0  -0.1059
  C  C264  1  0.523200  0.077300  0.452000  1.0  0.1645
  C  C265  1  0.614270  0.119700  0.450700  1.0  -0.0135
  C  C266  1  0.493980  0.135400  0.395600  1.0  -0.1475
  C  C267  1  0.951210  0.257300  0.302100  1.0  0.1686
  C  C268  1  0.583610  0.069500  0.480300  1.0  -0.0795
  C  C269  1  0.719560  0.496100  0.448100  1.0  -0.1526
  C  C270  1  0.907670  0.246100  0.404500  1.0  -0.0497
  C  C271  1  0.956900  0.242800  0.385500  1.0  -0.1473
  C  C272  1  0.769800  0.595000  0.549400  1.0  -0.1466
  C  C273  1  0.759500  0.517800  0.527600  1.0  -0.0524
  C  C274  1  0.689900  0.552800  0.391600  1.0  -0.0633
  C  C275  1  0.700800  0.629800  0.414600  1.0  -0.0668
  C  C276  1  0.740100  0.650200  0.492300  1.0  0.0778
  N  N277  1  0.986220  0.473060  0.975500  1.0  -0.2403
  N  N278  1  0.504210  0.245600  0.788000  1.0  -0.1641
  N  N279  1  0.262100  0.768700  0.027200  1.0  -0.2538
  N  N280  1  0.486220  0.973060  0.975500  1.0  -0.2403
  N  N281  1  0.004210  0.745600  0.788000  1.0  -0.1641
  N  N282  1  0.762100  0.268700  0.027200  1.0  -0.2538
  N  N283  1  0.013780  0.473060  0.524500  1.0  -0.2404
  N  N284  1  0.495790  0.245600  0.712000  1.0  -0.1652
  N  N285  1  0.737900  0.768700  0.472800  1.0  -0.2541
  N  N286  1  0.513780  0.973060  0.524500  1.0  -0.2404
  N  N287  1  0.995790  0.745600  0.712000  1.0  -0.1652
  N  N288  1  0.237900  0.268700  0.472800  1.0  -0.2541
  N  N289  1  0.013780  0.526940  0.024500  1.0  -0.2405
  N  N290  1  0.495790  0.754400  0.212000  1.0  -0.1656
  N  N291  1  0.737900  0.231300  0.972800  1.0  -0.2542
  N  N292  1  0.513780  0.026940  0.024500  1.0  -0.2405
  N  N293  1  0.995790  0.254400  0.212000  1.0  -0.1656
  N  N294  1  0.237900  0.731300  0.972800  1.0  -0.2542
  N  N295  1  0.986220  0.526940  0.475500  1.0  -0.2397
  N  N296  1  0.504210  0.754400  0.288000  1.0  -0.1643
  N  N297  1  0.262100  0.231300  0.527200  1.0  -0.254
  N  N298  1  0.486220  0.026940  0.475500  1.0  -0.2397
  N  N299  1  0.004210  0.254400  0.288000  1.0  -0.1643
  N  N300  1  0.762100  0.731300  0.527200  1.0  -0.254
  O  O301  1  0.255470  0.198550  0.807180  1.0  -0.6558
  O  O302  1  0.302960  0.256710  0.932560  1.0  -0.6479
  O  O303  1  0.238300  0.133740  0.979320  1.0  -0.6375
  O  O304  1  0.175340  0.101610  0.848170  1.0  -0.6656
  O  O305  1  0.090520  0.231650  0.793070  1.0  -0.6101
  O  O306  1  0.174100  0.272750  0.888380  1.0  -0.7302
  O  O307  1  0.755470  0.698550  0.807180  1.0  -0.6558
  O  O308  1  0.802960  0.756710  0.932560  1.0  -0.6479
  O  O309  1  0.738300  0.633740  0.979320  1.0  -0.6375
  O  O310  1  0.675340  0.601610  0.848170  1.0  -0.6656
  O  O311  1  0.590520  0.731650  0.793070  1.0  -0.6101
  O  O312  1  0.674100  0.772750  0.888380  1.0  -0.7302
  O  O313  1  0.744530  0.198550  0.692820  1.0  -0.6568
  O  O314  1  0.697040  0.256710  0.567440  1.0  -0.6476
  O  O315  1  0.761700  0.133740  0.520680  1.0  -0.6375
  O  O316  1  0.824660  0.101610  0.651830  1.0  -0.665
  O  O317  1  0.909480  0.231650  0.706930  1.0  -0.609
  O  O318  1  0.825900  0.272750  0.611620  1.0  -0.7289
  O  O319  1  0.244530  0.698550  0.692820  1.0  -0.6568
  O  O320  1  0.197040  0.756710  0.567440  1.0  -0.6476
  O  O321  1  0.261700  0.633740  0.520680  1.0  -0.6375
  O  O322  1  0.324660  0.601610  0.651830  1.0  -0.665
  O  O323  1  0.409480  0.731650  0.706930  1.0  -0.609
  O  O324  1  0.325900  0.772750  0.611620  1.0  -0.7289
  O  O325  1  0.744530  0.801450  0.192820  1.0  -0.6566
  O  O326  1  0.697040  0.743290  0.067440  1.0  -0.6472
  O  O327  1  0.761700  0.866260  0.020680  1.0  -0.6371
  O  O328  1  0.824660  0.898390  0.151830  1.0  -0.6649
  O  O329  1  0.909480  0.768350  0.206930  1.0  -0.6083
  O  O330  1  0.825900  0.727250  0.111620  1.0  -0.7291
  O  O331  1  0.244530  0.301450  0.192820  1.0  -0.6566
  O  O332  1  0.197040  0.243290  0.067440  1.0  -0.6472
  O  O333  1  0.261700  0.366260  0.020680  1.0  -0.6371
  O  O334  1  0.324660  0.398390  0.151830  1.0  -0.6649
  O  O335  1  0.409480  0.268350  0.206930  1.0  -0.6083
  O  O336  1  0.325900  0.227250  0.111620  1.0  -0.7291
  O  O337  1  0.255470  0.801450  0.307180  1.0  -0.6556
  O  O338  1  0.302960  0.743290  0.432560  1.0  -0.6477
  O  O339  1  0.238300  0.866260  0.479320  1.0  -0.6385
  O  O340  1  0.175340  0.898390  0.348170  1.0  -0.6663
  O  O341  1  0.090520  0.768350  0.293070  1.0  -0.6111
  O  O342  1  0.174100  0.727250  0.388380  1.0  -0.7305
  O  O343  1  0.755470  0.301450  0.307180  1.0  -0.6556
  O  O344  1  0.802960  0.243290  0.432560  1.0  -0.6477
  O  O345  1  0.738300  0.366260  0.479320  1.0  -0.6385
  O  O346  1  0.675340  0.398390  0.348170  1.0  -0.6663
  O  O347  1  0.590520  0.268350  0.293070  1.0  -0.6111
  O  O348  1  0.674100  0.227250  0.388380  1.0  -0.7305
