# generated using pymatgen
data_MgH8C14(NO2)2
_symmetry_space_group_name_H-M   'P 1'
_cell_length_a   12.97850000
_cell_length_b   11.71970000
_cell_length_c   27.08700000
_cell_angle_alpha   90.00000000
_cell_angle_beta   105.69900000
_cell_angle_gamma   90.00000000
_symmetry_Int_Tables_number   1
_chemical_formula_structural   MgH8C14(NO2)2
_chemical_formula_sum   'Mg6 H48 C84 N12 O24'
_cell_volume   3966.35226704
_cell_formula_units_Z   6
loop_
 _symmetry_equiv_pos_site_id
 _symmetry_equiv_pos_as_xyz
  1  'x, y, z'
loop_
 _atom_site_type_symbol
 _atom_site_label
 _atom_site_symmetry_multiplicity
 _atom_site_fract_x
 _atom_site_fract_y
 _atom_site_fract_z
 _atom_site_occupancy
 _atom_site_charge
  Mg  Mg1  1  0.929780  0.248310  0.056310  1.0  1.5921
  Mg  Mg2  1  0.070220  0.248310  0.443690  1.0  1.5967
  Mg  Mg3  1  0.070220  0.751690  0.943690  1.0  1.5935
  Mg  Mg4  1  0.929780  0.751690  0.556310  1.0  1.5934
  Mg  Mg5  1  0.000000  0.500000  0.000000  1.0  1.532
  Mg  Mg6  1  0.000000  0.500000  0.500000  1.0  1.532
  H  H7  1  0.161900  0.041200  0.013400  1.0  0.0834
  H  H8  1  0.319100  0.952500  0.010000  1.0  0.0882
  H  H9  1  0.748600  0.534400  0.944800  1.0  0.077
  H  H10  1  0.498600  0.280600  0.850500  1.0  0.0931
  H  H11  1  0.606600  0.600900  0.879800  1.0  0.104
  H  H12  1  0.275500  0.341600  0.982300  1.0  0.0838
  H  H13  1  0.155000  0.369700  0.645000  1.0  0.0867
  H  H14  1  0.288600  0.312100  0.715400  1.0  0.1079
  H  H15  1  0.640100  0.215100  0.916500  1.0  0.0802
  H  H16  1  0.431100  0.254500  0.975900  1.0  0.1055
  H  H17  1  0.188700  0.691000  0.693800  1.0  0.0836
  H  H18  1  0.328400  0.636700  0.763700  1.0  0.098
  H  H19  1  0.838100  0.041200  0.486600  1.0  0.0835
  H  H20  1  0.680900  0.952500  0.490000  1.0  0.0881
  H  H21  1  0.251400  0.534400  0.555200  1.0  0.0779
  H  H22  1  0.501400  0.280600  0.649500  1.0  0.0931
  H  H23  1  0.393400  0.600900  0.620200  1.0  0.1035
  H  H24  1  0.724500  0.341600  0.517700  1.0  0.084
  H  H25  1  0.845000  0.369700  0.855000  1.0  0.0866
  H  H26  1  0.711400  0.312100  0.784600  1.0  0.1075
  H  H27  1  0.359900  0.215100  0.583500  1.0  0.0799
  H  H28  1  0.568900  0.254500  0.524100  1.0  0.1043
  H  H29  1  0.811300  0.691000  0.806200  1.0  0.084
  H  H30  1  0.671600  0.636700  0.736300  1.0  0.0985
  H  H31  1  0.838100  0.958800  0.986600  1.0  0.0836
  H  H32  1  0.680900  0.047500  0.990000  1.0  0.0876
  H  H33  1  0.251400  0.465600  0.055200  1.0  0.0773
  H  H34  1  0.501400  0.719400  0.149500  1.0  0.0931
  H  H35  1  0.393400  0.399100  0.120200  1.0  0.1036
  H  H36  1  0.724500  0.658400  0.017700  1.0  0.0838
  H  H37  1  0.845000  0.630300  0.355000  1.0  0.087
  H  H38  1  0.711400  0.687900  0.284600  1.0  0.1083
  H  H39  1  0.359900  0.784900  0.083500  1.0  0.0801
  H  H40  1  0.568900  0.745500  0.024100  1.0  0.1047
  H  H41  1  0.811300  0.309000  0.306200  1.0  0.0839
  H  H42  1  0.671600  0.363300  0.236300  1.0  0.0971
  H  H43  1  0.161900  0.958800  0.513400  1.0  0.0833
  H  H44  1  0.319100  0.047500  0.510000  1.0  0.0879
  H  H45  1  0.748600  0.465600  0.444800  1.0  0.0777
  H  H46  1  0.498600  0.719400  0.350500  1.0  0.0937
  H  H47  1  0.606600  0.399100  0.379800  1.0  0.1036
  H  H48  1  0.275500  0.658400  0.482300  1.0  0.0838
  H  H49  1  0.155000  0.630300  0.145000  1.0  0.0876
  H  H50  1  0.288600  0.687900  0.215400  1.0  0.1083
  H  H51  1  0.640100  0.784900  0.416500  1.0  0.0805
  H  H52  1  0.431100  0.745500  0.475900  1.0  0.1053
  H  H53  1  0.188700  0.309000  0.193800  1.0  0.083
  H  H54  1  0.328400  0.363300  0.263700  1.0  0.0978
  C  C55  1  0.104800  0.259600  0.005290  1.0  0.7312
  C  C56  1  0.798300  0.323900  0.979130  1.0  0.6664
  C  C57  1  0.204500  0.201900  0.999030  1.0  -0.1637
  C  C58  1  0.708700  0.367800  0.936690  1.0  -0.1592
  C  C59  1  0.217000  0.083900  0.006740  1.0  -0.0566
  C  C60  1  0.159300  0.535800  0.661540  1.0  -0.1191
  C  C61  1  0.310500  0.030700  0.004420  1.0  -0.0719
  C  C62  1  0.698500  0.483400  0.925710  1.0  -0.0782
  C  C63  1  0.390900  0.094700  0.993810  1.0  0.1547
  C  C64  1  0.549300  0.331700  0.869040  1.0  -0.1082
  C  C65  1  0.614100  0.523100  0.886530  1.0  -0.1451
  C  C66  1  0.284300  0.263400  0.987790  1.0  -0.0279
  C  C67  1  0.189500  0.423700  0.668910  1.0  -0.0406
  C  C68  1  0.077400  0.572500  0.613230  1.0  0.6815
  C  C69  1  0.540600  0.446500  0.857200  1.0  0.1618
  C  C70  1  0.269800  0.388700  0.710970  1.0  -0.243
  C  C71  1  0.634000  0.292500  0.908800  1.0  -0.0556
  C  C72  1  0.377800  0.212000  0.984370  1.0  -0.1543
  C  C73  1  0.321800  0.468700  0.746370  1.0  0.1921
  C  C74  1  0.210000  0.615000  0.697710  1.0  -0.0644
  C  C75  1  0.293000  0.582500  0.740050  1.0  -0.0798
  C  C76  1  0.895200  0.259600  0.494710  1.0  0.73
  C  C77  1  0.201700  0.323900  0.520870  1.0  0.6657
  C  C78  1  0.795500  0.201900  0.500970  1.0  -0.1617
  C  C79  1  0.291300  0.367800  0.563310  1.0  -0.1596
  C  C80  1  0.783000  0.083900  0.493260  1.0  -0.058
  C  C81  1  0.840700  0.535800  0.838460  1.0  -0.1204
  C  C82  1  0.689500  0.030700  0.495580  1.0  -0.0722
  C  C83  1  0.301500  0.483400  0.574290  1.0  -0.0777
  C  C84  1  0.609100  0.094700  0.506190  1.0  0.1532
  C  C85  1  0.450700  0.331700  0.630960  1.0  -0.1076
  C  C86  1  0.385900  0.523100  0.613470  1.0  -0.1475
  C  C87  1  0.715700  0.263400  0.512210  1.0  -0.0276
  C  C88  1  0.810500  0.423700  0.831090  1.0  -0.0411
  C  C89  1  0.922600  0.572500  0.886770  1.0  0.6829
  C  C90  1  0.459400  0.446500  0.642800  1.0  0.1598
  C  C91  1  0.730200  0.388700  0.789030  1.0  -0.241
  C  C92  1  0.366000  0.292500  0.591200  1.0  -0.0564
  C  C93  1  0.622200  0.212000  0.515630  1.0  -0.1544
  C  C94  1  0.678200  0.468700  0.753630  1.0  0.1887
  C  C95  1  0.790000  0.615000  0.802290  1.0  -0.0625
  C  C96  1  0.707000  0.582500  0.759950  1.0  -0.0821
  C  C97  1  0.895200  0.740400  0.994710  1.0  0.7298
  C  C98  1  0.201700  0.676100  0.020870  1.0  0.6658
  C  C99  1  0.795500  0.798100  0.000970  1.0  -0.1617
  C  C100  1  0.291300  0.632200  0.063310  1.0  -0.1592
  C  C101  1  0.783000  0.916100  0.993260  1.0  -0.0581
  C  C102  1  0.840700  0.464200  0.338460  1.0  -0.1196
  C  C103  1  0.689500  0.969300  0.995580  1.0  -0.0729
  C  C104  1  0.301500  0.516600  0.074290  1.0  -0.077
  C  C105  1  0.609100  0.905300  0.006190  1.0  0.1531
  C  C106  1  0.450700  0.668300  0.130960  1.0  -0.1073
  C  C107  1  0.385900  0.476900  0.113470  1.0  -0.147
  C  C108  1  0.715700  0.736600  0.012210  1.0  -0.026
  C  C109  1  0.810500  0.576300  0.331090  1.0  -0.0406
  C  C110  1  0.922600  0.427500  0.386770  1.0  0.683
  C  C111  1  0.459400  0.553500  0.142800  1.0  0.1597
  C  C112  1  0.730200  0.611300  0.289030  1.0  -0.2419
  C  C113  1  0.366000  0.707500  0.091200  1.0  -0.0577
  C  C114  1  0.622200  0.788000  0.015630  1.0  -0.1539
  C  C115  1  0.678200  0.531300  0.253630  1.0  0.1893
  C  C116  1  0.790000  0.385000  0.302290  1.0  -0.0638
  C  C117  1  0.707000  0.417500  0.259950  1.0  -0.0805
  C  C118  1  0.104800  0.740400  0.505290  1.0  0.7309
  C  C119  1  0.798300  0.676100  0.479130  1.0  0.6662
  C  C120  1  0.204500  0.798100  0.499030  1.0  -0.1632
  C  C121  1  0.708700  0.632200  0.436690  1.0  -0.1598
  C  C122  1  0.217000  0.916100  0.506740  1.0  -0.0574
  C  C123  1  0.159300  0.464200  0.161540  1.0  -0.1194
  C  C124  1  0.310500  0.969300  0.504420  1.0  -0.0725
  C  C125  1  0.698500  0.516600  0.425710  1.0  -0.078
  C  C126  1  0.390900  0.905300  0.493810  1.0  0.1545
  C  C127  1  0.549300  0.668300  0.369040  1.0  -0.1086
  C  C128  1  0.614100  0.476900  0.386530  1.0  -0.1445
  C  C129  1  0.284300  0.736600  0.487790  1.0  -0.0262
  C  C130  1  0.189500  0.576300  0.168910  1.0  -0.0412
  C  C131  1  0.077400  0.427500  0.113230  1.0  0.6812
  C  C132  1  0.540600  0.553500  0.357200  1.0  0.1616
  C  C133  1  0.269800  0.611300  0.210970  1.0  -0.2424
  C  C134  1  0.634000  0.707500  0.408800  1.0  -0.0568
  C  C135  1  0.377800  0.788000  0.484370  1.0  -0.1546
  C  C136  1  0.321800  0.531300  0.246370  1.0  0.192
  C  C137  1  0.210000  0.385000  0.197710  1.0  -0.065
  C  C138  1  0.293000  0.417500  0.240050  1.0  -0.0815
  N  N139  1  0.458700  0.496700  0.816220  1.0  -0.1491
  N  N140  1  0.404500  0.422100  0.788160  1.0  -0.1525
  N  N141  1  0.491400  0.049400  0.991070  1.0  -0.2081
  N  N142  1  0.541300  0.496700  0.683780  1.0  -0.1486
  N  N143  1  0.595500  0.422100  0.711840  1.0  -0.152
  N  N144  1  0.508600  0.049400  0.508930  1.0  -0.2091
  N  N145  1  0.541300  0.503300  0.183780  1.0  -0.1484
  N  N146  1  0.595500  0.577900  0.211840  1.0  -0.1517
  N  N147  1  0.508600  0.950600  0.008930  1.0  -0.2088
  N  N148  1  0.458700  0.503300  0.316220  1.0  -0.1477
  N  N149  1  0.404500  0.577900  0.288160  1.0  -0.152
  N  N150  1  0.491400  0.950600  0.491070  1.0  -0.2084
  O  O151  1  0.798080  0.220570  0.991930  1.0  -0.5845
  O  O152  1  0.872790  0.389320  0.003310  1.0  -0.7443
  O  O153  1  0.049570  0.498140  0.578340  1.0  -0.6644
  O  O154  1  0.043400  0.672500  0.610840  1.0  -0.6759
  O  O155  1  0.097460  0.363770  0.997620  1.0  -0.6381
  O  O156  1  0.037170  0.198030  0.018300  1.0  -0.6465
  O  O157  1  0.201920  0.220570  0.508070  1.0  -0.5843
  O  O158  1  0.127210  0.389320  0.496690  1.0  -0.7441
  O  O159  1  0.950430  0.498140  0.921660  1.0  -0.665
  O  O160  1  0.956600  0.672500  0.889160  1.0  -0.6776
  O  O161  1  0.902540  0.363770  0.502380  1.0  -0.6402
  O  O162  1  0.962830  0.198030  0.481700  1.0  -0.6463
  O  O163  1  0.201920  0.779430  0.008070  1.0  -0.5859
  O  O164  1  0.127210  0.610680  0.996690  1.0  -0.7446
  O  O165  1  0.950430  0.501860  0.421660  1.0  -0.6659
  O  O166  1  0.956600  0.327500  0.389160  1.0  -0.6743
  O  O167  1  0.902540  0.636230  0.002380  1.0  -0.6403
  O  O168  1  0.962830  0.801970  0.981700  1.0  -0.6471
  O  O169  1  0.798080  0.779430  0.491930  1.0  -0.585
  O  O170  1  0.872790  0.610680  0.503310  1.0  -0.7447
  O  O171  1  0.049570  0.501860  0.078340  1.0  -0.6645
  O  O172  1  0.043400  0.327500  0.110840  1.0  -0.679
  O  O173  1  0.097460  0.636230  0.497620  1.0  -0.6374
  O  O174  1  0.037170  0.801970  0.518300  1.0  -0.6475
