# generated using pymatgen
data_NiH6(C5N2)2
_symmetry_space_group_name_H-M   'P 1'
_cell_length_a   18.54900000
_cell_length_b   18.54900000
_cell_length_c   18.54900000
_cell_angle_alpha   90.00000000
_cell_angle_beta   90.00000000
_cell_angle_gamma   90.00000000
_symmetry_Int_Tables_number   1
_chemical_formula_structural   NiH6(C5N2)2
_chemical_formula_sum   'Ni12 H72 C120 N48'
_cell_volume   6382.06912315
_cell_formula_units_Z   12
loop_
 _symmetry_equiv_pos_site_id
 _symmetry_equiv_pos_as_xyz
  1  'x, y, z'
loop_
 _atom_site_type_symbol
 _atom_site_label
 _atom_site_symmetry_multiplicity
 _atom_site_fract_x
 _atom_site_fract_y
 _atom_site_fract_z
 _atom_site_occupancy
 _atom_site_charge
  Ni  Ni1  1  0.000000  0.618850  0.500000  1.0  0.2614
  Ni  Ni2  1  0.000000  0.381150  0.500000  1.0  0.2617
  Ni  Ni3  1  0.500000  0.000000  0.618850  1.0  0.2627
  Ni  Ni4  1  0.500000  0.000000  0.381150  1.0  0.2631
  Ni  Ni5  1  0.618850  0.500000  0.000000  1.0  0.2659
  Ni  Ni6  1  0.381150  0.500000  0.000000  1.0  0.2633
  Ni  Ni7  1  0.618850  0.000000  0.500000  1.0  0.2633
  Ni  Ni8  1  0.381150  0.000000  0.500000  1.0  0.261
  Ni  Ni9  1  0.000000  0.500000  0.381150  1.0  0.2601
  Ni  Ni10  1  0.000000  0.500000  0.618850  1.0  0.2598
  Ni  Ni11  1  0.500000  0.618850  0.000000  1.0  0.2587
  Ni  Ni12  1  0.500000  0.381150  0.000000  1.0  0.2592
  H  H13  1  0.854500  0.713150  0.560380  1.0  0.1069
  H  H14  1  0.145500  0.286850  0.560380  1.0  0.1018
  H  H15  1  0.145500  0.713150  0.439620  1.0  0.1034
  H  H16  1  0.854500  0.286850  0.439620  1.0  0.1064
  H  H17  1  0.560380  0.854500  0.713150  1.0  0.1081
  H  H18  1  0.560380  0.145500  0.286850  1.0  0.1022
  H  H19  1  0.439620  0.145500  0.713150  1.0  0.1049
  H  H20  1  0.439620  0.854500  0.286850  1.0  0.1069
  H  H21  1  0.713150  0.560380  0.854500  1.0  0.1071
  H  H22  1  0.286850  0.560380  0.145500  1.0  0.1016
  H  H23  1  0.713150  0.439620  0.145500  1.0  0.1047
  H  H24  1  0.286850  0.439620  0.854500  1.0  0.1073
  H  H25  1  0.713150  0.854500  0.439620  1.0  0.1065
  H  H26  1  0.286850  0.145500  0.439620  1.0  0.1018
  H  H27  1  0.713150  0.145500  0.560380  1.0  0.104
  H  H28  1  0.286850  0.854500  0.560380  1.0  0.1071
  H  H29  1  0.854500  0.560380  0.286850  1.0  0.1069
  H  H30  1  0.145500  0.560380  0.713150  1.0  0.1048
  H  H31  1  0.145500  0.439620  0.286850  1.0  0.1014
  H  H32  1  0.854500  0.439620  0.713150  1.0  0.1074
  H  H33  1  0.560380  0.713150  0.145500  1.0  0.1049
  H  H34  1  0.560380  0.286850  0.854500  1.0  0.1074
  H  H35  1  0.439620  0.713150  0.854500  1.0  0.107
  H  H36  1  0.439620  0.286850  0.145500  1.0  0.1022
  H  H37  1  0.145500  0.286850  0.439620  1.0  0.1016
  H  H38  1  0.854500  0.713150  0.439620  1.0  0.1067
  H  H39  1  0.854500  0.286850  0.560380  1.0  0.1066
  H  H40  1  0.145500  0.713150  0.560380  1.0  0.1036
  H  H41  1  0.439620  0.145500  0.286850  1.0  0.1017
  H  H42  1  0.439620  0.854500  0.713150  1.0  0.1075
  H  H43  1  0.560380  0.854500  0.286850  1.0  0.1073
  H  H44  1  0.560380  0.145500  0.713150  1.0  0.1051
  H  H45  1  0.286850  0.439620  0.145500  1.0  0.1019
  H  H46  1  0.713150  0.439620  0.854500  1.0  0.1073
  H  H47  1  0.286850  0.560380  0.854500  1.0  0.1073
  H  H48  1  0.713150  0.560380  0.145500  1.0  0.1045
  H  H49  1  0.286850  0.145500  0.560380  1.0  0.1018
  H  H50  1  0.713150  0.854500  0.560380  1.0  0.1068
  H  H51  1  0.286850  0.854500  0.439620  1.0  0.1069
  H  H52  1  0.713150  0.145500  0.439620  1.0  0.104
  H  H53  1  0.145500  0.439620  0.713150  1.0  0.1045
  H  H54  1  0.854500  0.439620  0.286850  1.0  0.1068
  H  H55  1  0.854500  0.560380  0.713150  1.0  0.1076
  H  H56  1  0.145500  0.560380  0.286850  1.0  0.1016
  H  H57  1  0.439620  0.286850  0.854500  1.0  0.1071
  H  H58  1  0.439620  0.713150  0.145500  1.0  0.1045
  H  H59  1  0.560380  0.286850  0.145500  1.0  0.1024
  H  H60  1  0.560380  0.713150  0.854500  1.0  0.1077
  H  H61  1  0.772110  0.772110  0.618170  1.0  0.1086
  H  H62  1  0.227880  0.227880  0.618170  1.0  0.1083
  H  H63  1  0.227880  0.772110  0.381830  1.0  0.1098
  H  H64  1  0.772110  0.227880  0.381830  1.0  0.1098
  H  H65  1  0.618170  0.772110  0.772110  1.0  0.1095
  H  H66  1  0.618170  0.227880  0.227880  1.0  0.1089
  H  H67  1  0.381830  0.227880  0.772110  1.0  0.1098
  H  H68  1  0.381830  0.772110  0.227880  1.0  0.1099
  H  H69  1  0.772110  0.618170  0.772110  1.0  0.1087
  H  H70  1  0.227880  0.618170  0.227880  1.0  0.1086
  H  H71  1  0.772110  0.381830  0.227880  1.0  0.1098
  H  H72  1  0.227880  0.381830  0.772110  1.0  0.1097
  H  H73  1  0.772110  0.772110  0.381830  1.0  0.1089
  H  H74  1  0.227880  0.227880  0.381830  1.0  0.1086
  H  H75  1  0.772110  0.227880  0.618170  1.0  0.1095
  H  H76  1  0.227880  0.772110  0.618170  1.0  0.1099
  H  H77  1  0.772110  0.618170  0.227880  1.0  0.1098
  H  H78  1  0.227880  0.618170  0.772110  1.0  0.11
  H  H79  1  0.227880  0.381830  0.227880  1.0  0.1087
  H  H80  1  0.772110  0.381830  0.772110  1.0  0.1087
  H  H81  1  0.618170  0.772110  0.227880  1.0  0.1102
  H  H82  1  0.618170  0.227880  0.772110  1.0  0.1101
  H  H83  1  0.381830  0.772110  0.772110  1.0  0.109
  H  H84  1  0.381830  0.227880  0.227880  1.0  0.1086
  C  C85  1  0.865690  0.670800  0.586910  1.0  -0.021
  C  C86  1  0.134310  0.329200  0.586910  1.0  -0.0205
  C  C87  1  0.134310  0.670800  0.413090  1.0  -0.0206
  C  C88  1  0.865690  0.329200  0.413090  1.0  -0.0205
  C  C89  1  0.586910  0.865690  0.670800  1.0  -0.0221
  C  C90  1  0.586910  0.134310  0.329200  1.0  -0.0214
  C  C91  1  0.413090  0.134310  0.670800  1.0  -0.0212
  C  C92  1  0.413090  0.865690  0.329200  1.0  -0.0217
  C  C93  1  0.670800  0.586910  0.865690  1.0  -0.0215
  C  C94  1  0.329200  0.586910  0.134310  1.0  -0.0213
  C  C95  1  0.670800  0.413090  0.134310  1.0  -0.0213
  C  C96  1  0.329200  0.413090  0.865690  1.0  -0.0218
  C  C97  1  0.670800  0.865690  0.413090  1.0  -0.0203
  C  C98  1  0.329200  0.134310  0.413090  1.0  -0.0205
  C  C99  1  0.670800  0.134310  0.586910  1.0  -0.0214
  C  C100  1  0.329200  0.865690  0.586910  1.0  -0.0215
  C  C101  1  0.865690  0.586910  0.329200  1.0  -0.0218
  C  C102  1  0.134310  0.586910  0.670800  1.0  -0.021
  C  C103  1  0.134310  0.413090  0.329200  1.0  -0.0208
  C  C104  1  0.865690  0.413090  0.670800  1.0  -0.0218
  C  C105  1  0.586910  0.670800  0.134310  1.0  -0.022
  C  C106  1  0.586910  0.329200  0.865690  1.0  -0.0219
  C  C107  1  0.413090  0.670800  0.865690  1.0  -0.0215
  C  C108  1  0.413090  0.329200  0.134310  1.0  -0.0209
  C  C109  1  0.134310  0.329200  0.413090  1.0  -0.0191
  C  C110  1  0.865690  0.670800  0.413090  1.0  -0.021
  C  C111  1  0.865690  0.329200  0.586910  1.0  -0.0216
  C  C112  1  0.134310  0.670800  0.586910  1.0  -0.0203
  C  C113  1  0.413090  0.134310  0.329200  1.0  -0.0211
  C  C114  1  0.413090  0.865690  0.670800  1.0  -0.0212
  C  C115  1  0.586910  0.865690  0.329200  1.0  -0.0219
  C  C116  1  0.586910  0.134310  0.670800  1.0  -0.0219
  C  C117  1  0.329200  0.413090  0.134310  1.0  -0.0212
  C  C118  1  0.670800  0.413090  0.865690  1.0  -0.0213
  C  C119  1  0.329200  0.586910  0.865690  1.0  -0.0218
  C  C120  1  0.670800  0.586910  0.134310  1.0  -0.0215
  C  C121  1  0.329200  0.134310  0.586910  1.0  -0.0206
  C  C122  1  0.670800  0.865690  0.586910  1.0  -0.0212
  C  C123  1  0.329200  0.865690  0.413090  1.0  -0.0212
  C  C124  1  0.670800  0.134310  0.413090  1.0  -0.0204
  C  C125  1  0.134310  0.413090  0.670800  1.0  -0.0212
  C  C126  1  0.865690  0.413090  0.329200  1.0  -0.0218
  C  C127  1  0.865690  0.586910  0.670800  1.0  -0.0214
  C  C128  1  0.134310  0.586910  0.329200  1.0  -0.0208
  C  C129  1  0.413090  0.329200  0.865690  1.0  -0.0214
  C  C130  1  0.413090  0.670800  0.134310  1.0  -0.0214
  C  C131  1  0.586910  0.329200  0.134310  1.0  -0.0213
  C  C132  1  0.586910  0.670800  0.865690  1.0  -0.0219
  C  C133  1  0.779940  0.689490  0.689490  1.0  0.1074
  C  C134  1  0.835220  0.650400  0.650400  1.0  -0.1058
  C  C135  1  0.220060  0.310510  0.689490  1.0  0.1249
  C  C136  1  0.164780  0.349600  0.650400  1.0  -0.1023
  C  C137  1  0.220060  0.689490  0.310510  1.0  0.1253
  C  C138  1  0.164780  0.650400  0.349600  1.0  -0.1019
  C  C139  1  0.779940  0.310510  0.310510  1.0  0.1076
  C  C140  1  0.835220  0.349600  0.349600  1.0  -0.106
  C  C141  1  0.689490  0.779940  0.689490  1.0  0.1071
  C  C142  1  0.650400  0.835220  0.650400  1.0  -0.1066
  C  C143  1  0.689490  0.220060  0.310510  1.0  0.1255
  C  C144  1  0.650400  0.164780  0.349600  1.0  -0.1027
  C  C145  1  0.310510  0.220060  0.689490  1.0  0.1252
  C  C146  1  0.349600  0.164780  0.650400  1.0  -0.103
  C  C147  1  0.310510  0.779940  0.310510  1.0  0.1073
  C  C148  1  0.349600  0.835220  0.349600  1.0  -0.1067
  C  C149  1  0.689490  0.689490  0.779940  1.0  0.1065
  C  C150  1  0.650400  0.650400  0.835220  1.0  -0.107
  C  C151  1  0.310510  0.689490  0.220060  1.0  0.126
  C  C152  1  0.349600  0.650400  0.164780  1.0  -0.1035
  C  C153  1  0.689490  0.310510  0.220060  1.0  0.126
  C  C154  1  0.650400  0.349600  0.164780  1.0  -0.1036
  C  C155  1  0.310510  0.310510  0.779940  1.0  0.1066
  C  C156  1  0.349600  0.349600  0.835220  1.0  -0.1074
  C  C157  1  0.689490  0.779940  0.310510  1.0  0.1076
  C  C158  1  0.650400  0.835220  0.349600  1.0  -0.1063
  C  C159  1  0.310510  0.220060  0.310510  1.0  0.1258
  C  C160  1  0.349600  0.164780  0.349600  1.0  -0.1026
  C  C161  1  0.689490  0.220060  0.689490  1.0  0.124
  C  C162  1  0.650400  0.164780  0.650400  1.0  -0.1026
  C  C163  1  0.310510  0.779940  0.689490  1.0  0.1074
  C  C164  1  0.349600  0.835220  0.650400  1.0  -0.1066
  C  C165  1  0.779940  0.689490  0.310510  1.0  0.1079
  C  C166  1  0.835220  0.650400  0.349600  1.0  -0.1055
  C  C167  1  0.220060  0.689490  0.689490  1.0  0.1238
  C  C168  1  0.164780  0.650400  0.650400  1.0  -0.1019
  C  C169  1  0.220060  0.310510  0.310510  1.0  0.1256
  C  C170  1  0.164780  0.349600  0.349600  1.0  -0.102
  C  C171  1  0.779940  0.310510  0.689490  1.0  0.1078
  C  C172  1  0.835220  0.349600  0.650400  1.0  -0.1058
  C  C173  1  0.689490  0.689490  0.220060  1.0  0.1249
  C  C174  1  0.650400  0.650400  0.164780  1.0  -0.1032
  C  C175  1  0.689490  0.310510  0.779940  1.0  0.1069
  C  C176  1  0.650400  0.349600  0.835220  1.0  -0.107
  C  C177  1  0.310510  0.689490  0.779940  1.0  0.1069
  C  C178  1  0.349600  0.650400  0.835220  1.0  -0.1069
  C  C179  1  0.310510  0.310510  0.220060  1.0  0.1263
  C  C180  1  0.349600  0.349600  0.164780  1.0  -0.1035
  C  C181  1  0.753780  0.753780  0.662330  1.0  -0.2039
  C  C182  1  0.246220  0.246220  0.662330  1.0  -0.2123
  C  C183  1  0.246220  0.753780  0.337670  1.0  -0.2125
  C  C184  1  0.753780  0.246220  0.337670  1.0  -0.2113
  C  C185  1  0.662330  0.753780  0.753780  1.0  -0.2061
  C  C186  1  0.662330  0.246220  0.246220  1.0  -0.2119
  C  C187  1  0.337670  0.246220  0.753780  1.0  -0.2112
  C  C188  1  0.337670  0.753780  0.246220  1.0  -0.2101
  C  C189  1  0.753780  0.662330  0.753780  1.0  -0.2035
  C  C190  1  0.246220  0.662330  0.246220  1.0  -0.2103
  C  C191  1  0.753780  0.337670  0.246220  1.0  -0.2112
  C  C192  1  0.246220  0.337670  0.753780  1.0  -0.2127
  C  C193  1  0.753780  0.753780  0.337670  1.0  -0.2043
  C  C194  1  0.246220  0.246220  0.337670  1.0  -0.2126
  C  C195  1  0.753780  0.246220  0.662330  1.0  -0.2109
  C  C196  1  0.246220  0.753780  0.662330  1.0  -0.2119
  C  C197  1  0.753780  0.662330  0.246220  1.0  -0.2102
  C  C198  1  0.246220  0.662330  0.753780  1.0  -0.2125
  C  C199  1  0.246220  0.337670  0.246220  1.0  -0.2109
  C  C200  1  0.753780  0.337670  0.753780  1.0  -0.2037
  C  C201  1  0.662330  0.753780  0.246220  1.0  -0.2114
  C  C202  1  0.662330  0.246220  0.753780  1.0  -0.212
  C  C203  1  0.337670  0.753780  0.753780  1.0  -0.2047
  C  C204  1  0.337670  0.246220  0.246220  1.0  -0.2104
  N  N205  1  0.915000  0.619910  0.568070  1.0  -0.1049
  N  N206  1  0.085000  0.380090  0.568070  1.0  -0.1038
  N  N207  1  0.085000  0.619910  0.431930  1.0  -0.1051
  N  N208  1  0.915000  0.380090  0.431930  1.0  -0.1046
  N  N209  1  0.568070  0.915000  0.619910  1.0  -0.1046
  N  N210  1  0.568070  0.085000  0.380090  1.0  -0.1049
  N  N211  1  0.431930  0.085000  0.619910  1.0  -0.1052
  N  N212  1  0.431930  0.915000  0.380090  1.0  -0.1049
  N  N213  1  0.619910  0.568070  0.915000  1.0  -0.1052
  N  N214  1  0.380090  0.568070  0.085000  1.0  -0.1055
  N  N215  1  0.619910  0.431930  0.085000  1.0  -0.1051
  N  N216  1  0.380090  0.431930  0.915000  1.0  -0.1055
  N  N217  1  0.619910  0.915000  0.431930  1.0  -0.1052
  N  N218  1  0.380090  0.085000  0.431930  1.0  -0.1059
  N  N219  1  0.619910  0.085000  0.568070  1.0  -0.1045
  N  N220  1  0.380090  0.915000  0.568070  1.0  -0.1044
  N  N221  1  0.915000  0.568070  0.380090  1.0  -0.1054
  N  N222  1  0.085000  0.568070  0.619910  1.0  -0.1051
  N  N223  1  0.085000  0.431930  0.380090  1.0  -0.1049
  N  N224  1  0.915000  0.431930  0.619910  1.0  -0.1051
  N  N225  1  0.568070  0.619910  0.085000  1.0  -0.1047
  N  N226  1  0.568070  0.380090  0.915000  1.0  -0.1045
  N  N227  1  0.431930  0.619910  0.915000  1.0  -0.1052
  N  N228  1  0.431930  0.380090  0.085000  1.0  -0.1046
  N  N229  1  0.085000  0.380090  0.431930  1.0  -0.1045
  N  N230  1  0.915000  0.619910  0.431930  1.0  -0.1055
  N  N231  1  0.915000  0.380090  0.568070  1.0  -0.1042
  N  N232  1  0.085000  0.619910  0.568070  1.0  -0.1041
  N  N233  1  0.431930  0.085000  0.380090  1.0  -0.1052
  N  N234  1  0.431930  0.915000  0.619910  1.0  -0.1048
  N  N235  1  0.568070  0.915000  0.380090  1.0  -0.1046
  N  N236  1  0.568070  0.085000  0.619910  1.0  -0.1049
  N  N237  1  0.380090  0.431930  0.085000  1.0  -0.1052
  N  N238  1  0.619910  0.431930  0.915000  1.0  -0.1052
  N  N239  1  0.380090  0.568070  0.915000  1.0  -0.1055
  N  N240  1  0.619910  0.568070  0.085000  1.0  -0.1053
  N  N241  1  0.380090  0.085000  0.568070  1.0  -0.1047
  N  N242  1  0.619910  0.915000  0.568070  1.0  -0.1041
  N  N243  1  0.380090  0.915000  0.431930  1.0  -0.1055
  N  N244  1  0.619910  0.085000  0.431930  1.0  -0.1056
  N  N245  1  0.085000  0.431930  0.619910  1.0  -0.1047
  N  N246  1  0.915000  0.431930  0.380090  1.0  -0.1054
  N  N247  1  0.915000  0.568070  0.619910  1.0  -0.1053
  N  N248  1  0.085000  0.568070  0.380090  1.0  -0.1051
  N  N249  1  0.431930  0.380090  0.915000  1.0  -0.1045
  N  N250  1  0.431930  0.619910  0.085000  1.0  -0.1052
  N  N251  1  0.568070  0.380090  0.085000  1.0  -0.1044
  N  N252  1  0.568070  0.619910  0.915000  1.0  -0.1048
