# generated using pymatgen
data_CoH6(C5N2)2
_symmetry_space_group_name_H-M   'P 1'
_cell_length_a   15.46250000
_cell_length_b   15.46250000
_cell_length_c   20.04740000
_cell_angle_alpha   90.00000000
_cell_angle_beta   90.00000000
_cell_angle_gamma   90.00000000
_symmetry_Int_Tables_number   1
_chemical_formula_structural   CoH6(C5N2)2
_chemical_formula_sum   'Co12 H72 C120 N48'
_cell_volume   4793.11093916
_cell_formula_units_Z   12
loop_
 _symmetry_equiv_pos_site_id
 _symmetry_equiv_pos_as_xyz
  1  'x, y, z'
loop_
 _atom_site_type_symbol
 _atom_site_label
 _atom_site_symmetry_multiplicity
 _atom_site_fract_x
 _atom_site_fract_y
 _atom_site_fract_z
 _atom_site_occupancy
 _atom_site_charge
  Co  Co1  1  0.250000  0.750000  0.000000  1.0  0.7104
  Co  Co2  1  0.750000  0.250000  0.500000  1.0  0.7104
  Co  Co3  1  0.750000  0.250000  0.000000  1.0  0.7105
  Co  Co4  1  0.250000  0.750000  0.500000  1.0  0.7104
  Co  Co5  1  0.085750  0.914250  0.000000  1.0  0.6853
  Co  Co6  1  0.414250  0.585750  0.000000  1.0  0.6853
  Co  Co7  1  0.585750  0.085750  0.500000  1.0  0.685
  Co  Co8  1  0.914250  0.414250  0.500000  1.0  0.6854
  Co  Co9  1  0.914250  0.085750  0.000000  1.0  0.6853
  Co  Co10  1  0.585750  0.414250  0.000000  1.0  0.6853
  Co  Co11  1  0.414250  0.914250  0.500000  1.0  0.6854
  Co  Co12  1  0.085750  0.585750  0.500000  1.0  0.685
  H  H13  1  0.153070  0.967770  0.741020  1.0  0.1152
  H  H14  1  0.137120  0.953990  0.848330  1.0  0.1049
  H  H15  1  0.220600  0.053420  0.076820  1.0  0.1134
  H  H16  1  0.355090  0.840750  0.124740  1.0  0.1065
  H  H17  1  0.346930  0.532230  0.741020  1.0  0.1144
  H  H18  1  0.362880  0.546010  0.848330  1.0  0.1067
  H  H19  1  0.279400  0.446580  0.076820  1.0  0.1112
  H  H20  1  0.144910  0.659250  0.124740  1.0  0.1108
  H  H21  1  0.532230  0.153070  0.241020  1.0  0.1153
  H  H22  1  0.546010  0.137120  0.348330  1.0  0.1053
  H  H23  1  0.446580  0.220600  0.576820  1.0  0.1085
  H  H24  1  0.659250  0.355090  0.624740  1.0  0.1074
  H  H25  1  0.967770  0.346930  0.241020  1.0  0.1145
  H  H26  1  0.953990  0.362880  0.348330  1.0  0.1069
  H  H27  1  0.053420  0.279400  0.576820  1.0  0.1115
  H  H28  1  0.840750  0.144910  0.624740  1.0  0.1114
  H  H29  1  0.846930  0.467770  0.758980  1.0  0.1148
  H  H30  1  0.862880  0.453990  0.651670  1.0  0.1046
  H  H31  1  0.779400  0.553420  0.423180  1.0  0.1111
  H  H32  1  0.644910  0.340750  0.375260  1.0  0.11
  H  H33  1  0.653070  0.032230  0.758980  1.0  0.1153
  H  H34  1  0.637120  0.046010  0.651670  1.0  0.1043
  H  H35  1  0.720600  0.946580  0.423180  1.0  0.1114
  H  H36  1  0.855090  0.159250  0.375260  1.0  0.1068
  H  H37  1  0.467770  0.653070  0.258980  1.0  0.1156
  H  H38  1  0.453990  0.637120  0.151670  1.0  0.1051
  H  H39  1  0.553420  0.720600  0.923180  1.0  0.1106
  H  H40  1  0.340750  0.855090  0.875260  1.0  0.1077
  H  H41  1  0.032230  0.846930  0.258980  1.0  0.1151
  H  H42  1  0.046010  0.862880  0.151670  1.0  0.1051
  H  H43  1  0.946580  0.779400  0.923180  1.0  0.1077
  H  H44  1  0.159250  0.644910  0.875260  1.0  0.111
  H  H45  1  0.846930  0.032230  0.258980  1.0  0.115
  H  H46  1  0.862880  0.046010  0.151670  1.0  0.107
  H  H47  1  0.779400  0.946580  0.923180  1.0  0.1092
  H  H48  1  0.644910  0.159250  0.875260  1.0  0.1085
  H  H49  1  0.653070  0.467770  0.258980  1.0  0.1144
  H  H50  1  0.637120  0.453990  0.151670  1.0  0.1068
  H  H51  1  0.720600  0.553420  0.923180  1.0  0.1112
  H  H52  1  0.855090  0.340750  0.875260  1.0  0.1053
  H  H53  1  0.467770  0.846930  0.758980  1.0  0.1146
  H  H54  1  0.453990  0.862880  0.651670  1.0  0.1072
  H  H55  1  0.553420  0.779400  0.423180  1.0  0.1082
  H  H56  1  0.340750  0.644910  0.375260  1.0  0.1085
  H  H57  1  0.032230  0.653070  0.758980  1.0  0.115
  H  H58  1  0.046010  0.637120  0.651670  1.0  0.1075
  H  H59  1  0.946580  0.720600  0.423180  1.0  0.108
  H  H60  1  0.159250  0.855090  0.375260  1.0  0.1066
  H  H61  1  0.153070  0.532230  0.241020  1.0  0.1145
  H  H62  1  0.137120  0.546010  0.348330  1.0  0.1068
  H  H63  1  0.220600  0.446580  0.576820  1.0  0.111
  H  H64  1  0.355090  0.659250  0.624740  1.0  0.106
  H  H65  1  0.346930  0.967770  0.241020  1.0  0.1152
  H  H66  1  0.362880  0.953990  0.348330  1.0  0.1048
  H  H67  1  0.279400  0.053420  0.576820  1.0  0.1111
  H  H68  1  0.144910  0.840750  0.624740  1.0  0.1112
  H  H69  1  0.532230  0.346930  0.741020  1.0  0.1149
  H  H70  1  0.546010  0.362880  0.848330  1.0  0.1077
  H  H71  1  0.446580  0.279400  0.076820  1.0  0.1081
  H  H72  1  0.659250  0.144910  0.124740  1.0  0.1119
  H  H73  1  0.967770  0.153070  0.741020  1.0  0.1153
  H  H74  1  0.953990  0.137120  0.848330  1.0  0.1055
  H  H75  1  0.053420  0.220600  0.076820  1.0  0.1106
  H  H76  1  0.840750  0.355090  0.124740  1.0  0.107
  H  H77  1  0.084920  0.084920  0.567940  1.0  0.1173
  H  H78  1  0.415080  0.415080  0.567940  1.0  0.1174
  H  H79  1  0.415080  0.084920  0.067940  1.0  0.1175
  H  H80  1  0.084920  0.415080  0.067940  1.0  0.1172
  H  H81  1  0.915080  0.584920  0.932060  1.0  0.1176
  H  H82  1  0.584920  0.915080  0.932060  1.0  0.1175
  H  H83  1  0.584920  0.584920  0.432060  1.0  0.1174
  H  H84  1  0.915080  0.915080  0.432060  1.0  0.1178
  C  C85  1  0.118910  0.008840  0.717610  1.0  -0.2109
  C  C86  1  0.128430  0.018310  0.649050  1.0  0.112
  C  C87  1  0.094020  0.993540  0.862830  1.0  0.018
  C  C88  1  0.190500  0.965500  0.613260  1.0  -0.0911
  C  C89  1  0.238350  0.994780  0.080380  1.0  0.0087
  C  C90  1  0.312200  0.878010  0.106690  1.0  0.0173
  C  C91  1  0.381090  0.491160  0.717610  1.0  -0.2085
  C  C92  1  0.371570  0.481690  0.649050  1.0  0.1119
  C  C93  1  0.405980  0.506460  0.862830  1.0  0.0181
  C  C94  1  0.309500  0.534500  0.613260  1.0  -0.0906
  C  C95  1  0.261650  0.505220  0.080380  1.0  0.009
  C  C96  1  0.187800  0.621990  0.106690  1.0  0.0185
  C  C97  1  0.491160  0.118910  0.217610  1.0  -0.2099
  C  C98  1  0.481690  0.128430  0.149050  1.0  0.1122
  C  C99  1  0.506460  0.094020  0.362830  1.0  0.0183
  C  C100  1  0.534500  0.190500  0.113260  1.0  -0.0909
  C  C101  1  0.505220  0.238350  0.580380  1.0  0.0088
  C  C102  1  0.621990  0.312200  0.606690  1.0  0.0205
  C  C103  1  0.008840  0.381090  0.217610  1.0  -0.2136
  C  C104  1  0.018310  0.371570  0.149050  1.0  0.112
  C  C105  1  0.993540  0.405980  0.362830  1.0  0.0202
  C  C106  1  0.965500  0.309500  0.113260  1.0  -0.0905
  C  C107  1  0.994780  0.261650  0.580380  1.0  0.0077
  C  C108  1  0.878010  0.187800  0.606690  1.0  0.0192
  C  C109  1  0.881090  0.508840  0.782390  1.0  -0.2085
  C  C110  1  0.871570  0.518310  0.850950  1.0  0.1116
  C  C111  1  0.905980  0.493540  0.637170  1.0  0.0237
  C  C112  1  0.809500  0.465500  0.886740  1.0  -0.0907
  C  C113  1  0.761650  0.494780  0.419620  1.0  0.0095
  C  C114  1  0.687800  0.378010  0.393310  1.0  0.0161
  C  C115  1  0.618910  0.991160  0.782390  1.0  -0.2115
  C  C116  1  0.628430  0.981690  0.850950  1.0  0.1117
  C  C117  1  0.594020  0.006460  0.637170  1.0  0.0191
  C  C118  1  0.690500  0.034500  0.886740  1.0  -0.0909
  C  C119  1  0.738350  0.005220  0.419620  1.0  0.0094
  C  C120  1  0.812200  0.121990  0.393310  1.0  0.0142
  C  C121  1  0.508840  0.618910  0.282390  1.0  -0.2139
  C  C122  1  0.518310  0.628430  0.350950  1.0  0.1118
  C  C123  1  0.493540  0.594020  0.137170  1.0  0.017
  C  C124  1  0.465500  0.690500  0.386740  1.0  -0.0906
  C  C125  1  0.494780  0.738350  0.919620  1.0  0.0088
  C  C126  1  0.378010  0.812200  0.893310  1.0  0.0149
  C  C127  1  0.991160  0.881090  0.282390  1.0  -0.2118
  C  C128  1  0.981690  0.871570  0.350950  1.0  0.1118
  C  C129  1  0.006460  0.905980  0.137170  1.0  0.0179
  C  C130  1  0.034500  0.809500  0.386740  1.0  -0.091
  C  C131  1  0.005220  0.761650  0.919620  1.0  0.0079
  C  C132  1  0.121990  0.687800  0.893310  1.0  0.0153
  C  C133  1  0.881090  0.991160  0.282390  1.0  -0.2095
  C  C134  1  0.871570  0.981690  0.350950  1.0  0.1116
  C  C135  1  0.905980  0.006460  0.137170  1.0  0.0202
  C  C136  1  0.809500  0.034500  0.386740  1.0  -0.0906
  C  C137  1  0.761650  0.005220  0.919620  1.0  0.0097
  C  C138  1  0.687800  0.121990  0.893310  1.0  0.0139
  C  C139  1  0.618910  0.508840  0.282390  1.0  -0.2113
  C  C140  1  0.628430  0.518310  0.350950  1.0  0.1116
  C  C141  1  0.594020  0.493540  0.137170  1.0  0.0183
  C  C142  1  0.690500  0.465500  0.386740  1.0  -0.0912
  C  C143  1  0.738350  0.494780  0.919620  1.0  0.0084
  C  C144  1  0.812200  0.378010  0.893310  1.0  0.0133
  C  C145  1  0.508840  0.881090  0.782390  1.0  -0.2075
  C  C146  1  0.518310  0.871570  0.850950  1.0  0.1117
  C  C147  1  0.493540  0.905980  0.637170  1.0  0.0219
  C  C148  1  0.465500  0.809500  0.886740  1.0  -0.0906
  C  C149  1  0.494780  0.761650  0.419620  1.0  0.0076
  C  C150  1  0.378010  0.687800  0.393310  1.0  0.0151
  C  C151  1  0.991160  0.618910  0.782390  1.0  -0.2102
  C  C152  1  0.981690  0.628430  0.850950  1.0  0.1118
  C  C153  1  0.006460  0.594020  0.637170  1.0  0.0181
  C  C154  1  0.034500  0.690500  0.886740  1.0  -0.0909
  C  C155  1  0.005220  0.738350  0.419620  1.0  0.0091
  C  C156  1  0.121990  0.812200  0.393310  1.0  0.0182
  C  C157  1  0.118910  0.491160  0.217610  1.0  -0.2113
  C  C158  1  0.128430  0.481690  0.149050  1.0  0.112
  C  C159  1  0.094020  0.506460  0.362830  1.0  0.0202
  C  C160  1  0.190500  0.534500  0.113260  1.0  -0.091
  C  C161  1  0.238350  0.505220  0.580380  1.0  0.0089
  C  C162  1  0.312200  0.621990  0.606690  1.0  0.0176
  C  C163  1  0.381090  0.008840  0.217610  1.0  -0.2151
  C  C164  1  0.371570  0.018310  0.149050  1.0  0.1119
  C  C165  1  0.405980  0.993540  0.362830  1.0  0.0204
  C  C166  1  0.309500  0.965500  0.113260  1.0  -0.0906
  C  C167  1  0.261650  0.994780  0.580380  1.0  0.0095
  C  C168  1  0.187800  0.878010  0.606690  1.0  0.0188
  C  C169  1  0.491160  0.381090  0.717610  1.0  -0.2106
  C  C170  1  0.481690  0.371570  0.649050  1.0  0.1121
  C  C171  1  0.506460  0.405980  0.862830  1.0  0.0185
  C  C172  1  0.534500  0.309500  0.613260  1.0  -0.091
  C  C173  1  0.505220  0.261650  0.080380  1.0  0.0081
  C  C174  1  0.621990  0.187800  0.106690  1.0  0.021
  C  C175  1  0.008840  0.118910  0.717610  1.0  -0.2124
  C  C176  1  0.018310  0.128430  0.649050  1.0  0.1121
  C  C177  1  0.993540  0.094020  0.862830  1.0  0.018
  C  C178  1  0.965500  0.190500  0.613260  1.0  -0.0905
  C  C179  1  0.994780  0.238350  0.080380  1.0  0.0084
  C  C180  1  0.878010  0.312200  0.106690  1.0  0.0191
  C  C181  1  0.059430  0.059430  0.751910  1.0  0.1082
  C  C182  1  0.078430  0.078430  0.614800  1.0  -0.2174
  C  C183  1  0.049530  0.049530  0.823430  1.0  -0.1188
  C  C184  1  0.440570  0.440570  0.751910  1.0  0.1089
  C  C185  1  0.421570  0.421570  0.614800  1.0  -0.2127
  C  C186  1  0.450480  0.450470  0.823430  1.0  -0.1134
  C  C187  1  0.440570  0.059430  0.251910  1.0  0.1087
  C  C188  1  0.421570  0.078430  0.114800  1.0  -0.214
  C  C189  1  0.450470  0.049530  0.323430  1.0  -0.1187
  C  C190  1  0.059430  0.440570  0.251910  1.0  0.1086
  C  C191  1  0.078430  0.421570  0.114800  1.0  -0.2166
  C  C192  1  0.049530  0.450480  0.323430  1.0  -0.1134
  C  C193  1  0.940570  0.559430  0.748090  1.0  0.1122
  C  C194  1  0.921570  0.578430  0.885200  1.0  -0.2172
  C  C195  1  0.950470  0.549520  0.676570  1.0  -0.1177
  C  C196  1  0.559430  0.940570  0.748090  1.0  0.1118
  C  C197  1  0.578430  0.921570  0.885200  1.0  -0.2196
  C  C198  1  0.549530  0.950480  0.676570  1.0  -0.1183
  C  C199  1  0.559430  0.559430  0.248090  1.0  0.1118
  C  C200  1  0.578430  0.578430  0.385200  1.0  -0.2204
  C  C201  1  0.549520  0.549530  0.176570  1.0  -0.1181
  C  C202  1  0.940570  0.940570  0.248090  1.0  0.1123
  C  C203  1  0.921570  0.921570  0.385200  1.0  -0.216
  C  C204  1  0.950480  0.950470  0.176570  1.0  -0.118
  N  N205  1  0.066050  0.004050  0.926630  1.0  -0.2431
  N  N206  1  0.197090  0.925370  0.053480  1.0  -0.2326
  N  N207  1  0.242730  0.853200  0.069750  1.0  -0.2844
  N  N208  1  0.433950  0.495950  0.926630  1.0  -0.2433
  N  N209  1  0.302910  0.574630  0.053480  1.0  -0.2328
  N  N210  1  0.257270  0.646800  0.069750  1.0  -0.2838
  N  N211  1  0.495950  0.066050  0.426630  1.0  -0.2443
  N  N212  1  0.574630  0.197090  0.553480  1.0  -0.2327
  N  N213  1  0.646800  0.242730  0.569750  1.0  -0.2869
  N  N214  1  0.004050  0.433950  0.426630  1.0  -0.2441
  N  N215  1  0.925370  0.302910  0.553480  1.0  -0.2332
  N  N216  1  0.853200  0.257270  0.569750  1.0  -0.2867
  N  N217  1  0.933950  0.504050  0.573370  1.0  -0.2431
  N  N218  1  0.802910  0.425370  0.446520  1.0  -0.2331
  N  N219  1  0.757270  0.353200  0.430250  1.0  -0.2844
  N  N220  1  0.566050  0.995950  0.573370  1.0  -0.2419
  N  N221  1  0.697090  0.074630  0.446520  1.0  -0.2328
  N  N222  1  0.742730  0.146800  0.430250  1.0  -0.2831
  N  N223  1  0.504050  0.566050  0.073370  1.0  -0.243
  N  N224  1  0.425370  0.697090  0.946520  1.0  -0.2327
  N  N225  1  0.353200  0.742730  0.930250  1.0  -0.287
  N  N226  1  0.995950  0.933950  0.073370  1.0  -0.2449
  N  N227  1  0.074630  0.802910  0.946520  1.0  -0.2336
  N  N228  1  0.146800  0.757270  0.930250  1.0  -0.288
  N  N229  1  0.933950  0.995950  0.073370  1.0  -0.2427
  N  N230  1  0.802910  0.074630  0.946520  1.0  -0.2327
  N  N231  1  0.757270  0.146800  0.930250  1.0  -0.2838
  N  N232  1  0.566050  0.504050  0.073370  1.0  -0.2426
  N  N233  1  0.697090  0.425370  0.946520  1.0  -0.233
  N  N234  1  0.742730  0.353200  0.930250  1.0  -0.2845
  N  N235  1  0.504050  0.933950  0.573370  1.0  -0.244
  N  N236  1  0.425370  0.802910  0.446520  1.0  -0.2336
  N  N237  1  0.353200  0.757270  0.430250  1.0  -0.2867
  N  N238  1  0.995950  0.566050  0.573370  1.0  -0.2443
  N  N239  1  0.074630  0.697090  0.446520  1.0  -0.2328
  N  N240  1  0.146800  0.742730  0.430250  1.0  -0.2867
  N  N241  1  0.066050  0.495950  0.426630  1.0  -0.2424
  N  N242  1  0.197090  0.574630  0.553480  1.0  -0.2327
  N  N243  1  0.242730  0.646800  0.569750  1.0  -0.283
  N  N244  1  0.433950  0.004050  0.426630  1.0  -0.2435
  N  N245  1  0.302910  0.925370  0.553480  1.0  -0.2329
  N  N246  1  0.257270  0.853200  0.569750  1.0  -0.2848
  N  N247  1  0.495950  0.433950  0.926630  1.0  -0.2444
  N  N248  1  0.574630  0.302910  0.053480  1.0  -0.2334
  N  N249  1  0.646800  0.257270  0.069750  1.0  -0.2882
  N  N250  1  0.004050  0.066050  0.926630  1.0  -0.2435
  N  N251  1  0.925370  0.197090  0.053480  1.0  -0.2326
  N  N252  1  0.853200  0.242730  0.069750  1.0  -0.2871
