# generated using pymatgen
data_EuH16C25(NO2)3
_symmetry_space_group_name_H-M   'P 1'
_cell_length_a   19.80600000
_cell_length_b   9.13800000
_cell_length_c   32.33930000
_cell_angle_alpha   90.00000000
_cell_angle_beta   107.56600000
_cell_angle_gamma   90.00000000
_symmetry_Int_Tables_number   1
_chemical_formula_structural   EuH16C25(NO2)3
_chemical_formula_sum   'Eu8 H128 C200 N24 O48'
_cell_volume   5580.07444969
_cell_formula_units_Z   8
loop_
 _symmetry_equiv_pos_site_id
 _symmetry_equiv_pos_as_xyz
  1  'x, y, z'
loop_
 _atom_site_type_symbol
 _atom_site_label
 _atom_site_symmetry_multiplicity
 _atom_site_fract_x
 _atom_site_fract_y
 _atom_site_fract_z
 _atom_site_occupancy
 _atom_site_charge
  Eu  Eu1  1  0.961770  0.979600  0.799320  1.0  2.1147
  Eu  Eu2  1  0.461770  0.479600  0.799320  1.0  2.1147
  Eu  Eu3  1  0.038230  0.979600  0.700680  1.0  2.1145
  Eu  Eu4  1  0.538230  0.479600  0.700680  1.0  2.1145
  Eu  Eu5  1  0.038230  0.020400  0.200680  1.0  2.1144
  Eu  Eu6  1  0.538230  0.520400  0.200680  1.0  2.1144
  Eu  Eu7  1  0.961770  0.020400  0.299320  1.0  2.1154
  Eu  Eu8  1  0.461770  0.520400  0.299320  1.0  2.1154
  H  H9  1  0.821700  0.924100  0.898300  1.0  0.1043
  H  H10  1  0.619900  0.789900  0.868700  1.0  0.1007
  H  H11  1  0.534400  0.169000  0.914200  1.0  0.1124
  H  H12  1  0.993200  0.948400  0.091400  1.0  0.0805
  H  H13  1  0.723300  0.763800  0.780100  1.0  0.0992
  H  H14  1  0.612900  0.995700  0.909700  1.0  0.1114
  H  H15  1  0.136700  0.602200  0.811900  1.0  0.1289
  H  H16  1  0.122600  0.643200  0.763000  1.0  0.1338
  H  H17  1  0.072000  0.533900  0.776500  1.0  0.1292
  H  H18  1  0.814800  0.885600  0.969200  1.0  0.1092
  H  H19  1  0.905500  0.923700  0.027300  1.0  0.1093
  H  H20  1  0.859800  0.091300  0.148300  1.0  0.0678
  H  H21  1  0.769500  0.082800  0.085600  1.0  0.1137
  H  H22  1  0.607500  0.106900  0.042600  1.0  0.1213
  H  H23  1  0.434100  0.267600  0.923800  1.0  0.0664
  H  H24  1  0.505000  0.206700  0.047600  1.0  0.0726
  H  H25  1  0.321700  0.424100  0.898300  1.0  0.1043
  H  H26  1  0.119900  0.289900  0.868700  1.0  0.1007
  H  H27  1  0.034400  0.669000  0.914200  1.0  0.1124
  H  H28  1  0.493200  0.448400  0.091400  1.0  0.0805
  H  H29  1  0.223300  0.263800  0.780100  1.0  0.0992
  H  H30  1  0.112900  0.495700  0.909700  1.0  0.1114
  H  H31  1  0.636700  0.102200  0.811900  1.0  0.1289
  H  H32  1  0.622600  0.143200  0.763000  1.0  0.1338
  H  H33  1  0.572000  0.033900  0.776500  1.0  0.1292
  H  H34  1  0.314800  0.385600  0.969200  1.0  0.1092
  H  H35  1  0.405500  0.423700  0.027300  1.0  0.1093
  H  H36  1  0.359800  0.591300  0.148300  1.0  0.0678
  H  H37  1  0.269500  0.582800  0.085600  1.0  0.1137
  H  H38  1  0.107500  0.606900  0.042600  1.0  0.1213
  H  H39  1  0.934100  0.767600  0.923800  1.0  0.0664
  H  H40  1  0.005000  0.706700  0.047600  1.0  0.0726
  H  H41  1  0.178300  0.924100  0.601700  1.0  0.1043
  H  H42  1  0.380100  0.789900  0.631300  1.0  0.1009
  H  H43  1  0.465600  0.169000  0.585800  1.0  0.1126
  H  H44  1  0.006800  0.948400  0.408600  1.0  0.0807
  H  H45  1  0.276700  0.763800  0.719900  1.0  0.099
  H  H46  1  0.387100  0.995700  0.590300  1.0  0.1102
  H  H47  1  0.863300  0.602200  0.688100  1.0  0.1289
  H  H48  1  0.877400  0.643200  0.737000  1.0  0.1347
  H  H49  1  0.928000  0.533900  0.723500  1.0  0.129
  H  H50  1  0.185200  0.885600  0.530800  1.0  0.1092
  H  H51  1  0.094500  0.923700  0.472700  1.0  0.1088
  H  H52  1  0.140200  0.091300  0.351700  1.0  0.0687
  H  H53  1  0.230500  0.082800  0.414400  1.0  0.114
  H  H54  1  0.392500  0.106900  0.457400  1.0  0.1207
  H  H55  1  0.565900  0.267600  0.576200  1.0  0.0665
  H  H56  1  0.495000  0.206700  0.452400  1.0  0.0736
  H  H57  1  0.678300  0.424100  0.601700  1.0  0.1043
  H  H58  1  0.880100  0.289900  0.631300  1.0  0.1009
  H  H59  1  0.965600  0.669000  0.585800  1.0  0.1126
  H  H60  1  0.506800  0.448400  0.408600  1.0  0.0807
  H  H61  1  0.776700  0.263800  0.719900  1.0  0.099
  H  H62  1  0.887100  0.495700  0.590300  1.0  0.1102
  H  H63  1  0.363300  0.102200  0.688100  1.0  0.1289
  H  H64  1  0.377400  0.143200  0.737000  1.0  0.1347
  H  H65  1  0.428000  0.033900  0.723500  1.0  0.129
  H  H66  1  0.685200  0.385600  0.530800  1.0  0.1092
  H  H67  1  0.594500  0.423700  0.472700  1.0  0.1088
  H  H68  1  0.640200  0.591300  0.351700  1.0  0.0687
  H  H69  1  0.730500  0.582800  0.414400  1.0  0.114
  H  H70  1  0.892500  0.606900  0.457400  1.0  0.1207
  H  H71  1  0.065900  0.767600  0.576200  1.0  0.0665
  H  H72  1  0.995000  0.706700  0.452400  1.0  0.0736
  H  H73  1  0.178300  0.075900  0.101700  1.0  0.1043
  H  H74  1  0.380100  0.210100  0.131300  1.0  0.1008
  H  H75  1  0.465600  0.831000  0.085800  1.0  0.1125
  H  H76  1  0.006800  0.051600  0.908600  1.0  0.0805
  H  H77  1  0.276700  0.236200  0.219900  1.0  0.0987
  H  H78  1  0.387100  0.004300  0.090300  1.0  0.1102
  H  H79  1  0.863300  0.397800  0.188100  1.0  0.1288
  H  H80  1  0.877400  0.356800  0.237000  1.0  0.1343
  H  H81  1  0.928000  0.466100  0.223500  1.0  0.1286
  H  H82  1  0.185200  0.114400  0.030800  1.0  0.1091
  H  H83  1  0.094500  0.076300  0.972700  1.0  0.1086
  H  H84  1  0.140200  0.908700  0.851700  1.0  0.0688
  H  H85  1  0.230500  0.917200  0.914400  1.0  0.1138
  H  H86  1  0.392500  0.893100  0.957400  1.0  0.1208
  H  H87  1  0.565900  0.732400  0.076200  1.0  0.0664
  H  H88  1  0.495000  0.793300  0.952400  1.0  0.0735
  H  H89  1  0.678300  0.575900  0.101700  1.0  0.1043
  H  H90  1  0.880100  0.710100  0.131300  1.0  0.1008
  H  H91  1  0.965600  0.331000  0.085800  1.0  0.1125
  H  H92  1  0.506800  0.551600  0.908600  1.0  0.0805
  H  H93  1  0.776700  0.736200  0.219900  1.0  0.0987
  H  H94  1  0.887100  0.504300  0.090300  1.0  0.1102
  H  H95  1  0.363300  0.897800  0.188100  1.0  0.1288
  H  H96  1  0.377400  0.856800  0.237000  1.0  0.1343
  H  H97  1  0.428000  0.966100  0.223500  1.0  0.1286
  H  H98  1  0.685200  0.614400  0.030800  1.0  0.1091
  H  H99  1  0.594500  0.576300  0.972700  1.0  0.1086
  H  H100  1  0.640200  0.408700  0.851700  1.0  0.0688
  H  H101  1  0.730500  0.417200  0.914400  1.0  0.1138
  H  H102  1  0.892500  0.393100  0.957400  1.0  0.1208
  H  H103  1  0.065900  0.232400  0.076200  1.0  0.0664
  H  H104  1  0.995000  0.293300  0.952400  1.0  0.0735
  H  H105  1  0.821700  0.075900  0.398300  1.0  0.1045
  H  H106  1  0.619900  0.210100  0.368700  1.0  0.1006
  H  H107  1  0.534400  0.831000  0.414200  1.0  0.1124
  H  H108  1  0.993200  0.051600  0.591400  1.0  0.0808
  H  H109  1  0.723300  0.236200  0.280100  1.0  0.0993
  H  H110  1  0.612900  0.004300  0.409700  1.0  0.1112
  H  H111  1  0.136700  0.397800  0.311900  1.0  0.1289
  H  H112  1  0.122600  0.356800  0.263000  1.0  0.1342
  H  H113  1  0.072000  0.466100  0.276500  1.0  0.1295
  H  H114  1  0.814800  0.114400  0.469200  1.0  0.1091
  H  H115  1  0.905500  0.076300  0.527300  1.0  0.1089
  H  H116  1  0.859800  0.908700  0.648300  1.0  0.0679
  H  H117  1  0.769500  0.917200  0.585600  1.0  0.1141
  H  H118  1  0.607500  0.893100  0.542600  1.0  0.1212
  H  H119  1  0.434100  0.732400  0.423800  1.0  0.0663
  H  H120  1  0.505000  0.793300  0.547600  1.0  0.0726
  H  H121  1  0.321700  0.575900  0.398300  1.0  0.1045
  H  H122  1  0.119900  0.710100  0.368700  1.0  0.1006
  H  H123  1  0.034400  0.331000  0.414200  1.0  0.1124
  H  H124  1  0.493200  0.551600  0.591400  1.0  0.0808
  H  H125  1  0.223300  0.736200  0.280100  1.0  0.0993
  H  H126  1  0.112900  0.504300  0.409700  1.0  0.1112
  H  H127  1  0.636700  0.897800  0.311900  1.0  0.1289
  H  H128  1  0.622600  0.856800  0.263000  1.0  0.1342
  H  H129  1  0.572000  0.966100  0.276500  1.0  0.1295
  H  H130  1  0.314800  0.614400  0.469200  1.0  0.1091
  H  H131  1  0.405500  0.576300  0.527300  1.0  0.1089
  H  H132  1  0.359800  0.408700  0.648300  1.0  0.0679
  H  H133  1  0.269500  0.417200  0.585600  1.0  0.1141
  H  H134  1  0.107500  0.393100  0.542600  1.0  0.1212
  H  H135  1  0.934100  0.232400  0.423800  1.0  0.0663
  H  H136  1  0.005000  0.293300  0.547600  1.0  0.0726
  C  C137  1  0.848830  0.865400  0.824110  1.0  0.7237
  C  C138  1  0.781240  0.886400  0.878400  1.0  -0.0791
  C  C139  1  0.782890  0.845800  0.837310  1.0  -0.1533
  C  C140  1  0.055350  0.745200  0.790060  1.0  0.7231
  C  C141  1  0.599420  0.686900  0.788530  1.0  0.6904
  C  C142  1  0.719090  0.871100  0.890030  1.0  0.0144
  C  C143  1  0.661940  0.763000  0.819790  1.0  -0.172
  C  C144  1  0.715210  0.930400  0.932030  1.0  0.0348
  C  C145  1  0.660630  0.805500  0.860680  1.0  -0.0824
  C  C146  1  0.529870  0.174800  0.941910  1.0  -0.2116
  C  C147  1  0.649350  0.054600  0.973120  1.0  0.2187
  C  C148  1  0.947320  0.974600  0.090300  1.0  0.1617
  C  C149  1  0.722810  0.787200  0.807990  1.0  0.0017
  C  C150  1  0.583300  0.123300  0.977070  1.0  0.0014
  C  C151  1  0.652480  0.993800  0.934150  1.0  -0.0803
  C  C152  1  0.100740  0.619900  0.784900  1.0  -0.425
  C  C153  1  0.772410  0.928900  0.969330  1.0  -0.0618
  C  C154  1  0.894730  0.960400  0.051350  1.0  -0.2031
  C  C155  1  0.869540  0.059600  0.123360  1.0  0.1733
  C  C156  1  0.814480  0.052700  0.085860  1.0  -0.1624
  C  C157  1  0.765940  0.992900  0.007150  1.0  0.2236
  C  C158  1  0.573000  0.138100  0.017670  1.0  -0.1712
  C  C159  1  0.825660  0.000700  0.047970  1.0  -0.0323
  C  C160  1  0.469510  0.235300  0.948130  1.0  0.1786
  C  C161  1  0.511200  0.199500  0.020280  1.0  0.1669
  C  C162  1  0.348830  0.365400  0.824110  1.0  0.7237
  C  C163  1  0.281240  0.386400  0.878400  1.0  -0.0791
  C  C164  1  0.282890  0.345800  0.837310  1.0  -0.1533
  C  C165  1  0.555350  0.245200  0.790060  1.0  0.7231
  C  C166  1  0.099420  0.186900  0.788530  1.0  0.6904
  C  C167  1  0.219090  0.371100  0.890030  1.0  0.0144
  C  C168  1  0.161940  0.263000  0.819790  1.0  -0.172
  C  C169  1  0.215210  0.430400  0.932030  1.0  0.0348
  C  C170  1  0.160630  0.305500  0.860680  1.0  -0.0824
  C  C171  1  0.029870  0.674800  0.941910  1.0  -0.2116
  C  C172  1  0.149350  0.554600  0.973120  1.0  0.2187
  C  C173  1  0.447320  0.474600  0.090300  1.0  0.1617
  C  C174  1  0.222810  0.287200  0.807990  1.0  0.0017
  C  C175  1  0.083300  0.623300  0.977070  1.0  0.0014
  C  C176  1  0.152480  0.493800  0.934150  1.0  -0.0803
  C  C177  1  0.600740  0.119900  0.784900  1.0  -0.425
  C  C178  1  0.272410  0.428900  0.969330  1.0  -0.0618
  C  C179  1  0.394730  0.460400  0.051350  1.0  -0.2031
  C  C180  1  0.369540  0.559600  0.123360  1.0  0.1733
  C  C181  1  0.314480  0.552700  0.085860  1.0  -0.1624
  C  C182  1  0.265940  0.492900  0.007150  1.0  0.2236
  C  C183  1  0.073000  0.638100  0.017670  1.0  -0.1712
  C  C184  1  0.325660  0.500700  0.047970  1.0  -0.0323
  C  C185  1  0.969510  0.735300  0.948130  1.0  0.1786
  C  C186  1  0.011200  0.699500  0.020280  1.0  0.1669
  C  C187  1  0.151170  0.865400  0.675890  1.0  0.724
  C  C188  1  0.218760  0.886400  0.621600  1.0  -0.0799
  C  C189  1  0.217110  0.845800  0.662690  1.0  -0.1528
  C  C190  1  0.944650  0.745200  0.709940  1.0  0.7212
  C  C191  1  0.400580  0.686900  0.711470  1.0  0.6898
  C  C192  1  0.280910  0.871100  0.609970  1.0  0.0137
  C  C193  1  0.338060  0.763000  0.680210  1.0  -0.1704
  C  C194  1  0.284790  0.930400  0.567970  1.0  0.0343
  C  C195  1  0.339370  0.805500  0.639320  1.0  -0.0835
  C  C196  1  0.470130  0.174800  0.558090  1.0  -0.2137
  C  C197  1  0.350650  0.054600  0.526880  1.0  0.2182
  C  C198  1  0.052680  0.974600  0.409700  1.0  0.1622
  C  C199  1  0.277190  0.787200  0.692010  1.0  0.0029
  C  C200  1  0.416700  0.123300  0.522930  1.0  0.0005
  C  C201  1  0.347520  0.993800  0.565850  1.0  -0.0795
  C  C202  1  0.899260  0.619900  0.715100  1.0  -0.4239
  C  C203  1  0.227590  0.928900  0.530670  1.0  -0.0627
  C  C204  1  0.105270  0.960400  0.448650  1.0  -0.2033
  C  C205  1  0.130460  0.059600  0.376640  1.0  0.1729
  C  C206  1  0.185520  0.052700  0.414140  1.0  -0.162
  C  C207  1  0.234060  0.992900  0.492850  1.0  0.224
  C  C208  1  0.427000  0.138100  0.482330  1.0  -0.1706
  C  C209  1  0.174340  0.000700  0.452030  1.0  -0.0319
  C  C210  1  0.530490  0.235300  0.551870  1.0  0.1803
  C  C211  1  0.488800  0.199500  0.479720  1.0  0.1678
  C  C212  1  0.651170  0.365400  0.675890  1.0  0.724
  C  C213  1  0.718760  0.386400  0.621600  1.0  -0.0799
  C  C214  1  0.717110  0.345800  0.662690  1.0  -0.1528
  C  C215  1  0.444650  0.245200  0.709940  1.0  0.7212
  C  C216  1  0.900580  0.186900  0.711470  1.0  0.6898
  C  C217  1  0.780910  0.371100  0.609970  1.0  0.0137
  C  C218  1  0.838060  0.263000  0.680210  1.0  -0.1704
  C  C219  1  0.784790  0.430400  0.567970  1.0  0.0343
  C  C220  1  0.839370  0.305500  0.639320  1.0  -0.0835
  C  C221  1  0.970130  0.674800  0.558090  1.0  -0.2137
  C  C222  1  0.850650  0.554600  0.526880  1.0  0.2182
  C  C223  1  0.552680  0.474600  0.409700  1.0  0.1622
  C  C224  1  0.777190  0.287200  0.692010  1.0  0.0029
  C  C225  1  0.916700  0.623300  0.522930  1.0  0.0005
  C  C226  1  0.847520  0.493800  0.565850  1.0  -0.0795
  C  C227  1  0.399260  0.119900  0.715100  1.0  -0.4239
  C  C228  1  0.727590  0.428900  0.530670  1.0  -0.0627
  C  C229  1  0.605270  0.460400  0.448650  1.0  -0.2033
  C  C230  1  0.630460  0.559600  0.376640  1.0  0.1729
  C  C231  1  0.685520  0.552700  0.414140  1.0  -0.162
  C  C232  1  0.734060  0.492900  0.492850  1.0  0.224
  C  C233  1  0.927000  0.638100  0.482330  1.0  -0.1706
  C  C234  1  0.674340  0.500700  0.452030  1.0  -0.0319
  C  C235  1  0.030490  0.735300  0.551870  1.0  0.1803
  C  C236  1  0.988800  0.699500  0.479720  1.0  0.1678
  C  C237  1  0.151170  0.134600  0.175890  1.0  0.7241
  C  C238  1  0.218760  0.113600  0.121600  1.0  -0.0791
  C  C239  1  0.217110  0.154200  0.162690  1.0  -0.1528
  C  C240  1  0.944650  0.254800  0.209940  1.0  0.7208
  C  C241  1  0.400580  0.313100  0.211470  1.0  0.6902
  C  C242  1  0.280910  0.128900  0.109970  1.0  0.0137
  C  C243  1  0.338060  0.237000  0.180210  1.0  -0.1711
  C  C244  1  0.284790  0.069600  0.067970  1.0  0.0345
  C  C245  1  0.339370  0.194500  0.139320  1.0  -0.0835
  C  C246  1  0.470130  0.825200  0.058090  1.0  -0.2141
  C  C247  1  0.350650  0.945400  0.026880  1.0  0.2181
  C  C248  1  0.052680  0.025400  0.909700  1.0  0.162
  C  C249  1  0.277190  0.212800  0.192010  1.0  0.0034
  C  C250  1  0.416700  0.876700  0.022930  1.0  0.0004
  C  C251  1  0.347520  0.006200  0.065850  1.0  -0.0794
  C  C252  1  0.899260  0.380100  0.215100  1.0  -0.4243
  C  C253  1  0.227590  0.071100  0.030670  1.0  -0.0628
  C  C254  1  0.105270  0.039600  0.948650  1.0  -0.2035
  C  C255  1  0.130460  0.940400  0.876640  1.0  0.1732
  C  C256  1  0.185520  0.947300  0.914140  1.0  -0.1621
  C  C257  1  0.234060  0.007100  0.992850  1.0  0.2237
  C  C258  1  0.427000  0.861900  0.982330  1.0  -0.171
  C  C259  1  0.174340  0.999300  0.952030  1.0  -0.032
  C  C260  1  0.530490  0.764700  0.051870  1.0  0.1803
  C  C261  1  0.488800  0.800500  0.979720  1.0  0.1685
  C  C262  1  0.651170  0.634600  0.175890  1.0  0.7241
  C  C263  1  0.718760  0.613600  0.121600  1.0  -0.0791
  C  C264  1  0.717110  0.654200  0.162690  1.0  -0.1528
  C  C265  1  0.444650  0.754800  0.209940  1.0  0.7208
  C  C266  1  0.900580  0.813100  0.211470  1.0  0.6902
  C  C267  1  0.780910  0.628900  0.109970  1.0  0.0137
  C  C268  1  0.838060  0.737000  0.180210  1.0  -0.1711
  C  C269  1  0.784790  0.569600  0.067970  1.0  0.0345
  C  C270  1  0.839370  0.694500  0.139320  1.0  -0.0835
  C  C271  1  0.970130  0.325200  0.058090  1.0  -0.2141
  C  C272  1  0.850650  0.445400  0.026880  1.0  0.2181
  C  C273  1  0.552680  0.525400  0.909700  1.0  0.162
  C  C274  1  0.777190  0.712800  0.192010  1.0  0.0034
  C  C275  1  0.916700  0.376700  0.022930  1.0  0.0004
  C  C276  1  0.847520  0.506200  0.065850  1.0  -0.0794
  C  C277  1  0.399260  0.880100  0.215100  1.0  -0.4243
  C  C278  1  0.727590  0.571100  0.030670  1.0  -0.0628
  C  C279  1  0.605270  0.539600  0.948650  1.0  -0.2035
  C  C280  1  0.630460  0.440400  0.876640  1.0  0.1732
  C  C281  1  0.685520  0.447300  0.914140  1.0  -0.1621
  C  C282  1  0.734060  0.507100  0.992850  1.0  0.2237
  C  C283  1  0.927000  0.361900  0.982330  1.0  -0.171
  C  C284  1  0.674340  0.499300  0.952030  1.0  -0.032
  C  C285  1  0.030490  0.264700  0.051870  1.0  0.1803
  C  C286  1  0.988800  0.300500  0.979720  1.0  0.1685
  C  C287  1  0.848830  0.134600  0.324110  1.0  0.7237
  C  C288  1  0.781240  0.113600  0.378400  1.0  -0.0781
  C  C289  1  0.782890  0.154200  0.337310  1.0  -0.1533
  C  C290  1  0.055350  0.254800  0.290060  1.0  0.7235
  C  C291  1  0.599420  0.313100  0.288530  1.0  0.6906
  C  C292  1  0.719090  0.128900  0.390030  1.0  0.0146
  C  C293  1  0.661940  0.237000  0.319790  1.0  -0.1711
  C  C294  1  0.715210  0.069600  0.432030  1.0  0.0352
  C  C295  1  0.660630  0.194500  0.360680  1.0  -0.0825
  C  C296  1  0.529870  0.825200  0.441910  1.0  -0.2124
  C  C297  1  0.649350  0.945400  0.473120  1.0  0.2186
  C  C298  1  0.947320  0.025400  0.590300  1.0  0.161
  C  C299  1  0.722810  0.212800  0.307990  1.0  0.0006
  C  C300  1  0.583300  0.876700  0.477070  1.0  0.0013
  C  C301  1  0.652480  0.006200  0.434150  1.0  -0.0801
  C  C302  1  0.100740  0.380100  0.284900  1.0  -0.4257
  C  C303  1  0.772410  0.071100  0.469330  1.0  -0.0623
  C  C304  1  0.894730  0.039600  0.551350  1.0  -0.203
  C  C305  1  0.869540  0.940400  0.623360  1.0  0.1739
  C  C306  1  0.814480  0.947300  0.585860  1.0  -0.1619
  C  C307  1  0.765940  0.007100  0.507150  1.0  0.2235
  C  C308  1  0.573000  0.861900  0.517670  1.0  -0.1715
  C  C309  1  0.825660  0.999300  0.547970  1.0  -0.0324
  C  C310  1  0.469510  0.764700  0.448130  1.0  0.1784
  C  C311  1  0.511200  0.800500  0.520280  1.0  0.1668
  C  C312  1  0.348830  0.634600  0.324110  1.0  0.7237
  C  C313  1  0.281240  0.613600  0.378400  1.0  -0.0781
  C  C314  1  0.282890  0.654200  0.337310  1.0  -0.1533
  C  C315  1  0.555350  0.754800  0.290060  1.0  0.7235
  C  C316  1  0.099420  0.813100  0.288530  1.0  0.6906
  C  C317  1  0.219090  0.628900  0.390030  1.0  0.0146
  C  C318  1  0.161940  0.737000  0.319790  1.0  -0.1711
  C  C319  1  0.215210  0.569600  0.432030  1.0  0.0352
  C  C320  1  0.160630  0.694500  0.360680  1.0  -0.0825
  C  C321  1  0.029870  0.325200  0.441910  1.0  -0.2124
  C  C322  1  0.149350  0.445400  0.473120  1.0  0.2186
  C  C323  1  0.447320  0.525400  0.590300  1.0  0.161
  C  C324  1  0.222810  0.712800  0.307990  1.0  0.0006
  C  C325  1  0.083300  0.376700  0.477070  1.0  0.0013
  C  C326  1  0.152480  0.506200  0.434150  1.0  -0.0801
  C  C327  1  0.600740  0.880100  0.284900  1.0  -0.4257
  C  C328  1  0.272410  0.571100  0.469330  1.0  -0.0623
  C  C329  1  0.394730  0.539600  0.551350  1.0  -0.203
  C  C330  1  0.369540  0.440400  0.623360  1.0  0.1739
  C  C331  1  0.314480  0.447300  0.585860  1.0  -0.1619
  C  C332  1  0.265940  0.507100  0.507150  1.0  0.2235
  C  C333  1  0.073000  0.361900  0.517670  1.0  -0.1715
  C  C334  1  0.325660  0.499300  0.547970  1.0  -0.0324
  C  C335  1  0.969510  0.264700  0.448130  1.0  0.1784
  C  C336  1  0.011200  0.300500  0.520280  1.0  0.1668
  N  N337  1  0.936250  0.024100  0.126690  1.0  -0.3819
  N  N338  1  0.705130  0.054100  0.009050  1.0  -0.4277
  N  N339  1  0.458890  0.250000  0.986350  1.0  -0.4216
  N  N340  1  0.436250  0.524100  0.126690  1.0  -0.3819
  N  N341  1  0.205130  0.554100  0.009050  1.0  -0.4277
  N  N342  1  0.958890  0.750000  0.986350  1.0  -0.4216
  N  N343  1  0.063750  0.024100  0.373310  1.0  -0.3806
  N  N344  1  0.294870  0.054100  0.490950  1.0  -0.4264
  N  N345  1  0.541110  0.250000  0.513650  1.0  -0.4212
  N  N346  1  0.563750  0.524100  0.373310  1.0  -0.3806
  N  N347  1  0.794870  0.554100  0.490950  1.0  -0.4264
  N  N348  1  0.041110  0.750000  0.513650  1.0  -0.4212
  N  N349  1  0.063750  0.975900  0.873310  1.0  -0.3813
  N  N350  1  0.294870  0.945900  0.990950  1.0  -0.4285
  N  N351  1  0.541110  0.750000  0.013650  1.0  -0.4213
  N  N352  1  0.563750  0.475900  0.873310  1.0  -0.3813
  N  N353  1  0.794870  0.445900  0.990950  1.0  -0.4285
  N  N354  1  0.041110  0.250000  0.013650  1.0  -0.4213
  N  N355  1  0.936250  0.975900  0.626690  1.0  -0.3818
  N  N356  1  0.705130  0.945900  0.509050  1.0  -0.428
  N  N357  1  0.458890  0.750000  0.486350  1.0  -0.4218
  N  N358  1  0.436250  0.475900  0.626690  1.0  -0.3818
  N  N359  1  0.205130  0.445900  0.509050  1.0  -0.428
  N  N360  1  0.958890  0.250000  0.486350  1.0  -0.4218
  O  O361  1  0.066050  0.872700  0.776590  1.0  -0.7476
  O  O362  1  0.908170  0.873500  0.852910  1.0  -0.6398
  O  O363  1  0.606710  0.645490  0.753200  1.0  -0.6583
  O  O364  1  0.842940  0.876600  0.784400  1.0  -0.6039
  O  O365  1  0.007890  0.726000  0.807520  1.0  -0.6371
  O  O366  1  0.544720  0.669030  0.800310  1.0  -0.7301
  O  O367  1  0.566050  0.372700  0.776590  1.0  -0.7476
  O  O368  1  0.408170  0.373500  0.852910  1.0  -0.6401
  O  O369  1  0.106710  0.145490  0.753200  1.0  -0.6583
  O  O370  1  0.342940  0.376600  0.784400  1.0  -0.6039
  O  O371  1  0.507890  0.226000  0.807520  1.0  -0.6371
  O  O372  1  0.044720  0.169030  0.800310  1.0  -0.7306
  O  O373  1  0.933950  0.872700  0.723410  1.0  -0.7483
  O  O374  1  0.091830  0.873500  0.647090  1.0  -0.6388
  O  O375  1  0.393290  0.645490  0.746800  1.0  -0.664
  O  O376  1  0.157060  0.876600  0.715600  1.0  -0.6078
  O  O377  1  0.992110  0.726000  0.692480  1.0  -0.6375
  O  O378  1  0.455280  0.669030  0.699690  1.0  -0.7309
  O  O379  1  0.433950  0.372700  0.723410  1.0  -0.7483
  O  O380  1  0.591830  0.373500  0.647090  1.0  -0.639
  O  O381  1  0.893290  0.145490  0.746800  1.0  -0.664
  O  O382  1  0.657060  0.376600  0.715600  1.0  -0.6078
  O  O383  1  0.492110  0.226000  0.692480  1.0  -0.6375
  O  O384  1  0.955280  0.169030  0.699690  1.0  -0.7316
  O  O385  1  0.933950  0.127300  0.223410  1.0  -0.7478
  O  O386  1  0.091830  0.126500  0.147090  1.0  -0.639
  O  O387  1  0.393290  0.354510  0.246800  1.0  -0.6645
  O  O388  1  0.157060  0.123400  0.215600  1.0  -0.6075
  O  O389  1  0.992110  0.274000  0.192480  1.0  -0.6363
  O  O390  1  0.455280  0.330970  0.199690  1.0  -0.7319
  O  O391  1  0.433950  0.627300  0.223410  1.0  -0.7478
  O  O392  1  0.591830  0.626500  0.147090  1.0  -0.6392
  O  O393  1  0.893290  0.854510  0.246800  1.0  -0.6645
  O  O394  1  0.657060  0.623400  0.215600  1.0  -0.6075
  O  O395  1  0.492110  0.774000  0.192480  1.0  -0.6363
  O  O396  1  0.955280  0.830970  0.199690  1.0  -0.7325
  O  O397  1  0.066050  0.127300  0.276590  1.0  -0.7486
  O  O398  1  0.908170  0.126500  0.352910  1.0  -0.6398
  O  O399  1  0.606710  0.354510  0.253200  1.0  -0.658
  O  O400  1  0.842940  0.123400  0.284400  1.0  -0.6038
  O  O401  1  0.007890  0.274000  0.307520  1.0  -0.6377
  O  O402  1  0.544720  0.330970  0.300310  1.0  -0.7296
  O  O403  1  0.566050  0.627300  0.276590  1.0  -0.7486
  O  O404  1  0.408170  0.626500  0.352910  1.0  -0.64
  O  O405  1  0.106710  0.854510  0.253200  1.0  -0.658
  O  O406  1  0.342940  0.623400  0.284400  1.0  -0.6038
  O  O407  1  0.507890  0.774000  0.307520  1.0  -0.6377
  O  O408  1  0.044720  0.830970  0.300310  1.0  -0.7301
