# generated using pymatgen
data_Li5H20C20(N4O)4
_symmetry_space_group_name_H-M   'P 1'
_cell_length_a   11.69850000
_cell_length_b   11.69850000
_cell_length_c   27.66900000
_cell_angle_alpha   90.00000000
_cell_angle_beta   90.00000000
_cell_angle_gamma   90.00000000
_symmetry_Int_Tables_number   1
_chemical_formula_structural   Li5H20C20(N4O)4
_chemical_formula_sum   'Li20 H80 C80 N64 O16'
_cell_volume   3786.63829036
_cell_formula_units_Z   4
loop_
 _symmetry_equiv_pos_site_id
 _symmetry_equiv_pos_as_xyz
  1  'x, y, z'
loop_
 _atom_site_type_symbol
 _atom_site_label
 _atom_site_symmetry_multiplicity
 _atom_site_fract_x
 _atom_site_fract_y
 _atom_site_fract_z
 _atom_site_occupancy
 _atom_site_charge
  Li  Li1  1  0.228200  0.216200  0.081500  1.0  0.8002
  Li  Li2  1  0.728200  0.716200  0.581500  1.0  0.8002
  Li  Li3  1  0.271800  0.783800  0.581500  1.0  0.8013
  Li  Li4  1  0.771800  0.283800  0.081500  1.0  0.8013
  Li  Li5  1  0.533800  0.478200  0.331500  1.0  0.8054
  Li  Li6  1  0.033800  0.978200  0.831500  1.0  0.8054
  Li  Li7  1  0.966200  0.521800  0.831500  1.0  0.8079
  Li  Li8  1  0.466200  0.021800  0.331500  1.0  0.8079
  Li  Li9  1  0.771800  0.783800  0.918500  1.0  0.8013
  Li  Li10  1  0.271800  0.283800  0.418500  1.0  0.8013
  Li  Li11  1  0.728200  0.216200  0.418500  1.0  0.7991
  Li  Li12  1  0.228200  0.716200  0.918500  1.0  0.7991
  Li  Li13  1  0.466200  0.521800  0.668500  1.0  0.8066
  Li  Li14  1  0.966200  0.021800  0.168500  1.0  0.8066
  Li  Li15  1  0.033800  0.478200  0.168500  1.0  0.8031
  Li  Li16  1  0.533800  0.978200  0.668500  1.0  0.8031
  Li  Li17  1  0.000000  0.250000  0.125000  1.0  0.758
  Li  Li18  1  0.500000  0.750000  0.625000  1.0  0.758
  Li  Li19  1  0.500000  0.250000  0.375000  1.0  0.758
  Li  Li20  1  0.000000  0.750000  0.875000  1.0  0.758
  H  H21  1  0.103500  0.688900  0.107500  1.0  0.0138
  H  H22  1  0.188400  0.456800  0.914400  1.0  0.0321
  H  H23  1  0.087100  0.513200  0.132100  1.0  0.1434
  H  H24  1  0.152400  0.738500  0.032600  1.0  0.1634
  H  H25  1  0.190100  0.645700  0.944600  1.0  0.1561
  H  H26  1  0.603500  0.188900  0.607500  1.0  0.0138
  H  H27  1  0.688400  0.956800  0.414400  1.0  0.0321
  H  H28  1  0.587100  0.013200  0.632100  1.0  0.1434
  H  H29  1  0.652400  0.238500  0.532600  1.0  0.1634
  H  H30  1  0.690100  0.145700  0.444600  1.0  0.1561
  H  H31  1  0.396500  0.311100  0.607500  1.0  0.0149
  H  H32  1  0.311600  0.543200  0.414400  1.0  0.0323
  H  H33  1  0.412900  0.486800  0.632100  1.0  0.1433
  H  H34  1  0.347600  0.261500  0.532600  1.0  0.1634
  H  H35  1  0.309900  0.354300  0.444600  1.0  0.1583
  H  H36  1  0.896500  0.811100  0.107500  1.0  0.0149
  H  H37  1  0.811600  0.043200  0.914400  1.0  0.0323
  H  H38  1  0.912900  0.986800  0.132100  1.0  0.1433
  H  H39  1  0.847600  0.761500  0.032600  1.0  0.1634
  H  H40  1  0.809900  0.854300  0.944600  1.0  0.1583
  H  H41  1  0.061100  0.353500  0.357500  1.0  0.015
  H  H42  1  0.293200  0.438400  0.164400  1.0  0.0327
  H  H43  1  0.236800  0.337100  0.382100  1.0  0.1481
  H  H44  1  0.011500  0.402400  0.282600  1.0  0.1628
  H  H45  1  0.104300  0.440100  0.194600  1.0  0.1541
  H  H46  1  0.561100  0.853500  0.857500  1.0  0.015
  H  H47  1  0.793200  0.938400  0.664400  1.0  0.0327
  H  H48  1  0.736800  0.837100  0.882100  1.0  0.1481
  H  H49  1  0.511500  0.902400  0.782600  1.0  0.1628
  H  H50  1  0.604300  0.940100  0.694600  1.0  0.1541
  H  H51  1  0.438900  0.646500  0.857500  1.0  0.0153
  H  H52  1  0.206800  0.561600  0.664400  1.0  0.033
  H  H53  1  0.263200  0.662900  0.882100  1.0  0.146
  H  H54  1  0.488500  0.597600  0.782600  1.0  0.1659
  H  H55  1  0.395700  0.559900  0.694600  1.0  0.1593
  H  H56  1  0.938900  0.146500  0.357500  1.0  0.0153
  H  H57  1  0.706800  0.061600  0.164400  1.0  0.033
  H  H58  1  0.763200  0.162900  0.382100  1.0  0.146
  H  H59  1  0.988500  0.097600  0.282600  1.0  0.1659
  H  H60  1  0.895700  0.059900  0.194600  1.0  0.1593
  H  H61  1  0.896500  0.311100  0.892500  1.0  0.0142
  H  H62  1  0.811600  0.543200  0.085600  1.0  0.0325
  H  H63  1  0.912900  0.486800  0.867900  1.0  0.1457
  H  H64  1  0.847600  0.261500  0.967400  1.0  0.1623
  H  H65  1  0.809900  0.354300  0.055400  1.0  0.1581
  H  H66  1  0.396500  0.811100  0.392500  1.0  0.0142
  H  H67  1  0.311600  0.043200  0.585600  1.0  0.0325
  H  H68  1  0.412900  0.986800  0.367900  1.0  0.1457
  H  H69  1  0.347600  0.761500  0.467400  1.0  0.1623
  H  H70  1  0.309900  0.854300  0.555400  1.0  0.1581
  H  H71  1  0.603500  0.688900  0.392500  1.0  0.0144
  H  H72  1  0.688400  0.456800  0.585600  1.0  0.032
  H  H73  1  0.587100  0.513200  0.367900  1.0  0.1466
  H  H74  1  0.652400  0.738500  0.467400  1.0  0.1626
  H  H75  1  0.690100  0.645700  0.555400  1.0  0.1563
  H  H76  1  0.103500  0.188900  0.892500  1.0  0.0144
  H  H77  1  0.188400  0.956800  0.085600  1.0  0.032
  H  H78  1  0.087100  0.013200  0.867900  1.0  0.1466
  H  H79  1  0.152400  0.238500  0.967400  1.0  0.1626
  H  H80  1  0.190100  0.145700  0.055400  1.0  0.1563
  H  H81  1  0.938900  0.646500  0.642500  1.0  0.0154
  H  H82  1  0.706800  0.561600  0.835600  1.0  0.0329
  H  H83  1  0.763200  0.662900  0.617900  1.0  0.1476
  H  H84  1  0.988500  0.597600  0.717400  1.0  0.1647
  H  H85  1  0.895700  0.559900  0.805400  1.0  0.1604
  H  H86  1  0.438900  0.146500  0.142500  1.0  0.0154
  H  H87  1  0.206800  0.061600  0.335600  1.0  0.0329
  H  H88  1  0.263200  0.162900  0.117900  1.0  0.1476
  H  H89  1  0.488500  0.097600  0.217400  1.0  0.1647
  H  H90  1  0.395700  0.059900  0.305400  1.0  0.1604
  H  H91  1  0.561100  0.353500  0.142500  1.0  0.015
  H  H92  1  0.793200  0.438400  0.335600  1.0  0.0327
  H  H93  1  0.736800  0.337100  0.117900  1.0  0.1517
  H  H94  1  0.511500  0.402400  0.217400  1.0  0.162
  H  H95  1  0.604300  0.440100  0.305400  1.0  0.1545
  H  H96  1  0.061100  0.853500  0.642500  1.0  0.015
  H  H97  1  0.293200  0.938400  0.835600  1.0  0.0327
  H  H98  1  0.236800  0.837100  0.617900  1.0  0.1517
  H  H99  1  0.011500  0.902400  0.717400  1.0  0.162
  H  H100  1  0.104300  0.940100  0.805400  1.0  0.1545
  C  C101  1  0.152100  0.576300  0.010060  1.0  0.297
  C  C102  1  0.138500  0.463000  0.022940  1.0  -0.0864
  C  C103  1  0.117600  0.433600  0.071850  1.0  0.5076
  C  C104  1  0.115600  0.630800  0.085100  1.0  0.0137
  C  C105  1  0.175000  0.477300  0.946400  1.0  0.1076
  C  C106  1  0.652100  0.076300  0.510060  1.0  0.297
  C  C107  1  0.638500  0.963000  0.522940  1.0  -0.0864
  C  C108  1  0.617600  0.933600  0.571850  1.0  0.5076
  C  C109  1  0.615600  0.130800  0.585100  1.0  0.0137
  C  C110  1  0.675000  0.977300  0.446400  1.0  0.1076
  C  C111  1  0.347900  0.423700  0.510060  1.0  0.2968
  C  C112  1  0.361500  0.537000  0.522940  1.0  -0.0872
  C  C113  1  0.382400  0.566400  0.571850  1.0  0.5064
  C  C114  1  0.384400  0.369200  0.585100  1.0  0.0125
  C  C115  1  0.325000  0.522700  0.446400  1.0  0.108
  C  C116  1  0.847900  0.923700  0.010060  1.0  0.2968
  C  C117  1  0.861500  0.037000  0.022940  1.0  -0.0872
  C  C118  1  0.882400  0.066400  0.071850  1.0  0.5064
  C  C119  1  0.884400  0.869200  0.085100  1.0  0.0125
  C  C120  1  0.825000  0.022700  0.946400  1.0  0.108
  C  C121  1  0.173700  0.402100  0.260060  1.0  0.2979
  C  C122  1  0.287000  0.388500  0.272940  1.0  -0.085
  C  C123  1  0.316400  0.367600  0.321850  1.0  0.5088
  C  C124  1  0.119200  0.365600  0.335100  1.0  0.0077
  C  C125  1  0.272700  0.425000  0.196400  1.0  0.1117
  C  C126  1  0.673700  0.902100  0.760060  1.0  0.2979
  C  C127  1  0.787000  0.888500  0.772940  1.0  -0.085
  C  C128  1  0.816400  0.867600  0.821850  1.0  0.5088
  C  C129  1  0.619200  0.865600  0.835100  1.0  0.0077
  C  C130  1  0.772700  0.925000  0.696400  1.0  0.1117
  C  C131  1  0.326300  0.597900  0.760060  1.0  0.2993
  C  C132  1  0.213000  0.611500  0.772940  1.0  -0.0847
  C  C133  1  0.183600  0.632400  0.821850  1.0  0.5083
  C  C134  1  0.380800  0.634400  0.835100  1.0  0.01
  C  C135  1  0.227300  0.575000  0.696400  1.0  0.1092
  C  C136  1  0.826300  0.097900  0.260060  1.0  0.2993
  C  C137  1  0.713000  0.111500  0.272940  1.0  -0.0847
  C  C138  1  0.683600  0.132400  0.321850  1.0  0.5083
  C  C139  1  0.880800  0.134400  0.335100  1.0  0.01
  C  C140  1  0.727300  0.075000  0.196400  1.0  0.1092
  C  C141  1  0.847900  0.423700  0.989940  1.0  0.2965
  C  C142  1  0.861500  0.537000  0.977060  1.0  -0.0866
  C  C143  1  0.882400  0.566400  0.928150  1.0  0.5059
  C  C144  1  0.884400  0.369200  0.914900  1.0  0.0123
  C  C145  1  0.825000  0.522700  0.053600  1.0  0.1087
  C  C146  1  0.347900  0.923700  0.489940  1.0  0.2965
  C  C147  1  0.361500  0.037000  0.477060  1.0  -0.0866
  C  C148  1  0.382400  0.066400  0.428150  1.0  0.5059
  C  C149  1  0.384400  0.869200  0.414900  1.0  0.0123
  C  C150  1  0.325000  0.022700  0.553600  1.0  0.1087
  C  C151  1  0.652100  0.576300  0.489940  1.0  0.2971
  C  C152  1  0.638500  0.463000  0.477060  1.0  -0.0856
  C  C153  1  0.617600  0.433600  0.428150  1.0  0.5062
  C  C154  1  0.615600  0.630800  0.414900  1.0  0.013
  C  C155  1  0.675000  0.477300  0.553600  1.0  0.1092
  C  C156  1  0.152100  0.076300  0.989940  1.0  0.2971
  C  C157  1  0.138500  0.963000  0.977060  1.0  -0.0856
  C  C158  1  0.117600  0.933600  0.928150  1.0  0.5062
  C  C159  1  0.115600  0.130800  0.914900  1.0  0.013
  C  C160  1  0.175000  0.977300  0.053600  1.0  0.1092
  C  C161  1  0.826300  0.597900  0.739940  1.0  0.299
  C  C162  1  0.713000  0.611500  0.727060  1.0  -0.0842
  C  C163  1  0.683600  0.632400  0.678150  1.0  0.5077
  C  C164  1  0.880800  0.634400  0.664900  1.0  0.0092
  C  C165  1  0.727300  0.575000  0.803600  1.0  0.1104
  C  C166  1  0.326300  0.097900  0.239940  1.0  0.299
  C  C167  1  0.213000  0.111500  0.227060  1.0  -0.0842
  C  C168  1  0.183600  0.132400  0.178150  1.0  0.5077
  C  C169  1  0.380800  0.134400  0.164900  1.0  0.0092
  C  C170  1  0.227300  0.075000  0.303600  1.0  0.1104
  C  C171  1  0.673700  0.402100  0.239940  1.0  0.2982
  C  C172  1  0.787000  0.388500  0.227060  1.0  -0.0848
  C  C173  1  0.816400  0.367600  0.178150  1.0  0.5079
  C  C174  1  0.619200  0.365600  0.164900  1.0  0.0071
  C  C175  1  0.772700  0.425000  0.303600  1.0  0.1122
  C  C176  1  0.173700  0.902100  0.739940  1.0  0.2982
  C  C177  1  0.287000  0.888500  0.727060  1.0  -0.0848
  C  C178  1  0.316400  0.867600  0.678150  1.0  0.5079
  C  C179  1  0.119200  0.865600  0.664900  1.0  0.0071
  C  C180  1  0.272700  0.925000  0.803600  1.0  0.1122
  N  N181  1  0.103600  0.524400  0.102210  1.0  -0.2946
  N  N182  1  0.142100  0.664900  0.041030  1.0  -0.3156
  N  N183  1  0.152500  0.399700  0.981040  1.0  -0.5057
  N  N184  1  0.176800  0.585100  0.961250  1.0  -0.3683
  N  N185  1  0.603600  0.024400  0.602210  1.0  -0.2946
  N  N186  1  0.642100  0.164900  0.541030  1.0  -0.3156
  N  N187  1  0.652500  0.899700  0.481040  1.0  -0.5057
  N  N188  1  0.676800  0.085100  0.461250  1.0  -0.3683
  N  N189  1  0.396400  0.475600  0.602210  1.0  -0.296
  N  N190  1  0.357900  0.335100  0.541030  1.0  -0.3187
  N  N191  1  0.347500  0.600300  0.481040  1.0  -0.5061
  N  N192  1  0.323200  0.414900  0.461250  1.0  -0.3691
  N  N193  1  0.896400  0.975600  0.102210  1.0  -0.296
  N  N194  1  0.857900  0.835100  0.041030  1.0  -0.3187
  N  N195  1  0.847500  0.100300  0.981040  1.0  -0.5061
  N  N196  1  0.823200  0.914900  0.961250  1.0  -0.3691
  N  N197  1  0.225600  0.353600  0.352210  1.0  -0.2949
  N  N198  1  0.085100  0.392100  0.291030  1.0  -0.3172
  N  N199  1  0.350300  0.402500  0.231040  1.0  -0.505
  N  N200  1  0.164900  0.426800  0.211250  1.0  -0.3694
  N  N201  1  0.725600  0.853600  0.852210  1.0  -0.2949
  N  N202  1  0.585100  0.892100  0.791030  1.0  -0.3172
  N  N203  1  0.850300  0.902500  0.731040  1.0  -0.505
  N  N204  1  0.664900  0.926800  0.711250  1.0  -0.3694
  N  N205  1  0.274400  0.646400  0.852210  1.0  -0.2941
  N  N206  1  0.414900  0.607900  0.791030  1.0  -0.3188
  N  N207  1  0.149700  0.597500  0.731040  1.0  -0.5023
  N  N208  1  0.335100  0.573200  0.711250  1.0  -0.369
  N  N209  1  0.774400  0.146400  0.352210  1.0  -0.2941
  N  N210  1  0.914900  0.107900  0.291030  1.0  -0.3188
  N  N211  1  0.649700  0.097500  0.231040  1.0  -0.5023
  N  N212  1  0.835100  0.073200  0.211250  1.0  -0.369
  N  N213  1  0.896400  0.475600  0.897790  1.0  -0.2965
  N  N214  1  0.857900  0.335100  0.958970  1.0  -0.3181
  N  N215  1  0.847500  0.600300  0.018960  1.0  -0.5067
  N  N216  1  0.823200  0.414900  0.038750  1.0  -0.3702
  N  N217  1  0.396400  0.975600  0.397790  1.0  -0.2965
  N  N218  1  0.357900  0.835100  0.458970  1.0  -0.3181
  N  N219  1  0.347500  0.100300  0.518960  1.0  -0.5067
  N  N220  1  0.323200  0.914900  0.538750  1.0  -0.3702
  N  N221  1  0.603600  0.524400  0.397790  1.0  -0.2947
  N  N222  1  0.642100  0.664900  0.458970  1.0  -0.3165
  N  N223  1  0.652500  0.399700  0.518960  1.0  -0.5064
  N  N224  1  0.676800  0.585100  0.538750  1.0  -0.3697
  N  N225  1  0.103600  0.024400  0.897790  1.0  -0.2947
  N  N226  1  0.142100  0.164900  0.958970  1.0  -0.3165
  N  N227  1  0.152500  0.899700  0.018960  1.0  -0.5064
  N  N228  1  0.176800  0.085100  0.038750  1.0  -0.3697
  N  N229  1  0.774400  0.646400  0.647790  1.0  -0.2949
  N  N230  1  0.914900  0.607900  0.708970  1.0  -0.3188
  N  N231  1  0.649700  0.597500  0.768960  1.0  -0.5024
  N  N232  1  0.835100  0.573200  0.788750  1.0  -0.3691
  N  N233  1  0.274400  0.146400  0.147790  1.0  -0.2949
  N  N234  1  0.414900  0.107900  0.208970  1.0  -0.3188
  N  N235  1  0.149700  0.097500  0.268960  1.0  -0.5024
  N  N236  1  0.335100  0.073200  0.288750  1.0  -0.3691
  N  N237  1  0.725600  0.353600  0.147790  1.0  -0.2961
  N  N238  1  0.585100  0.392100  0.208970  1.0  -0.3178
  N  N239  1  0.850300  0.402500  0.268960  1.0  -0.5064
  N  N240  1  0.664900  0.426800  0.288750  1.0  -0.3709
  N  N241  1  0.225600  0.853600  0.647790  1.0  -0.2961
  N  N242  1  0.085100  0.892100  0.708970  1.0  -0.3178
  N  N243  1  0.350300  0.902500  0.768960  1.0  -0.5064
  N  N244  1  0.164900  0.926800  0.788750  1.0  -0.3709
  O  O245  1  0.111900  0.331800  0.087310  1.0  -0.8619
  O  O246  1  0.611900  0.831800  0.587310  1.0  -0.8619
  O  O247  1  0.388100  0.668200  0.587310  1.0  -0.8614
  O  O248  1  0.888100  0.168200  0.087310  1.0  -0.8614
  O  O249  1  0.418200  0.361900  0.337310  1.0  -0.8596
  O  O250  1  0.918200  0.861900  0.837310  1.0  -0.8596
  O  O251  1  0.081800  0.638100  0.837310  1.0  -0.8572
  O  O252  1  0.581800  0.138100  0.337310  1.0  -0.8572
  O  O253  1  0.888100  0.668200  0.912690  1.0  -0.8581
  O  O254  1  0.388100  0.168200  0.412690  1.0  -0.8581
  O  O255  1  0.611900  0.331800  0.412690  1.0  -0.8589
  O  O256  1  0.111900  0.831800  0.912690  1.0  -0.8589
  O  O257  1  0.581800  0.638100  0.662690  1.0  -0.8576
  O  O258  1  0.081800  0.138100  0.162690  1.0  -0.8576
  O  O259  1  0.918200  0.361900  0.162690  1.0  -0.8598
  O  O260  1  0.418200  0.861900  0.662690  1.0  -0.8598
