# generated using pymatgen
data_Li5H20C20(N4O)4
_symmetry_space_group_name_H-M   'P 1'
_cell_length_a   11.68440000
_cell_length_b   11.68440000
_cell_length_c   27.55500000
_cell_angle_alpha   90.00000000
_cell_angle_beta   90.00000000
_cell_angle_gamma   90.00000000
_symmetry_Int_Tables_number   1
_chemical_formula_structural   Li5H20C20(N4O)4
_chemical_formula_sum   'Li20 H80 C80 N64 O16'
_cell_volume   3761.95197858
_cell_formula_units_Z   4
loop_
 _symmetry_equiv_pos_site_id
 _symmetry_equiv_pos_as_xyz
  1  'x, y, z'
loop_
 _atom_site_type_symbol
 _atom_site_label
 _atom_site_symmetry_multiplicity
 _atom_site_fract_x
 _atom_site_fract_y
 _atom_site_fract_z
 _atom_site_occupancy
 _atom_site_charge
  Li  Li1  1  0.229700  0.283000  0.081700  1.0  0.7892
  Li  Li2  1  0.729700  0.783000  0.581700  1.0  0.7892
  Li  Li3  1  0.270300  0.717000  0.581700  1.0  0.788
  Li  Li4  1  0.770300  0.217000  0.081700  1.0  0.788
  Li  Li5  1  0.467000  0.479700  0.331700  1.0  0.7913
  Li  Li6  1  0.967000  0.979700  0.831700  1.0  0.7913
  Li  Li7  1  0.033000  0.520300  0.831700  1.0  0.7912
  Li  Li8  1  0.533000  0.020300  0.331700  1.0  0.7912
  Li  Li9  1  0.770300  0.717000  0.918300  1.0  0.7856
  Li  Li10  1  0.270300  0.217000  0.418300  1.0  0.7856
  Li  Li11  1  0.729700  0.283000  0.418300  1.0  0.7894
  Li  Li12  1  0.229700  0.783000  0.918300  1.0  0.7894
  Li  Li13  1  0.533000  0.520300  0.668300  1.0  0.7914
  Li  Li14  1  0.033000  0.020300  0.168300  1.0  0.7914
  Li  Li15  1  0.967000  0.479700  0.168300  1.0  0.7898
  Li  Li16  1  0.467000  0.979700  0.668300  1.0  0.7898
  Li  Li17  1  0.000000  0.250000  0.125000  1.0  0.7862
  Li  Li18  1  0.500000  0.750000  0.625000  1.0  0.7862
  Li  Li19  1  0.500000  0.250000  0.375000  1.0  0.7862
  Li  Li20  1  0.000000  0.750000  0.875000  1.0  0.7862
  H  H21  1  0.101300  0.811300  0.107500  1.0  0.0813
  H  H22  1  0.188600  0.044600  0.914200  1.0  0.0672
  H  H23  1  0.163000  0.949000  0.117000  1.0  0.1637
  H  H24  1  0.242000  0.871000  0.952000  1.0  0.1464
  H  H25  1  0.146000  0.176000  0.973000  1.0  0.1565
  H  H26  1  0.601300  0.311300  0.607500  1.0  0.0813
  H  H27  1  0.688600  0.544600  0.414200  1.0  0.0672
  H  H28  1  0.663000  0.449000  0.617000  1.0  0.1637
  H  H29  1  0.742000  0.371000  0.452000  1.0  0.1464
  H  H30  1  0.646000  0.676000  0.473000  1.0  0.1565
  H  H31  1  0.398700  0.188700  0.607500  1.0  0.0819
  H  H32  1  0.311400  0.955400  0.414200  1.0  0.0673
  H  H33  1  0.337000  0.051000  0.617000  1.0  0.162
  H  H34  1  0.258000  0.129000  0.452000  1.0  0.1437
  H  H35  1  0.354000  0.824000  0.473000  1.0  0.1542
  H  H36  1  0.898700  0.688700  0.107500  1.0  0.0819
  H  H37  1  0.811400  0.455400  0.914200  1.0  0.0673
  H  H38  1  0.837000  0.551000  0.117000  1.0  0.162
  H  H39  1  0.758000  0.629000  0.952000  1.0  0.1437
  H  H40  1  0.854000  0.324000  0.973000  1.0  0.1542
  H  H41  1  0.938700  0.351300  0.357500  1.0  0.0824
  H  H42  1  0.705400  0.438600  0.164200  1.0  0.0674
  H  H43  1  0.801000  0.413000  0.367000  1.0  0.1637
  H  H44  1  0.879000  0.492000  0.202000  1.0  0.1435
  H  H45  1  0.574000  0.396000  0.223000  1.0  0.1558
  H  H46  1  0.438700  0.851300  0.857500  1.0  0.0824
  H  H47  1  0.205400  0.938600  0.664200  1.0  0.0674
  H  H48  1  0.301000  0.913000  0.867000  1.0  0.1637
  H  H49  1  0.379000  0.992000  0.702000  1.0  0.1435
  H  H50  1  0.074000  0.896000  0.723000  1.0  0.1558
  H  H51  1  0.561300  0.648700  0.857500  1.0  0.0836
  H  H52  1  0.794600  0.561400  0.664200  1.0  0.068
  H  H53  1  0.699000  0.587000  0.867000  1.0  0.1601
  H  H54  1  0.621000  0.508000  0.702000  1.0  0.1428
  H  H55  1  0.926000  0.604000  0.723000  1.0  0.156
  H  H56  1  0.061300  0.148700  0.357500  1.0  0.0836
  H  H57  1  0.294600  0.061400  0.164200  1.0  0.068
  H  H58  1  0.199000  0.087000  0.367000  1.0  0.1601
  H  H59  1  0.121000  0.008000  0.202000  1.0  0.1428
  H  H60  1  0.426000  0.104000  0.223000  1.0  0.156
  H  H61  1  0.898700  0.188700  0.892500  1.0  0.0833
  H  H62  1  0.811400  0.955400  0.085800  1.0  0.0666
  H  H63  1  0.837000  0.051000  0.883000  1.0  0.1624
  H  H64  1  0.758000  0.129000  0.048000  1.0  0.1444
  H  H65  1  0.854000  0.824000  0.027000  1.0  0.1545
  H  H66  1  0.398700  0.688700  0.392500  1.0  0.0833
  H  H67  1  0.311400  0.455400  0.585800  1.0  0.0666
  H  H68  1  0.337000  0.551000  0.383000  1.0  0.1624
  H  H69  1  0.258000  0.629000  0.548000  1.0  0.1444
  H  H70  1  0.354000  0.324000  0.527000  1.0  0.1545
  H  H71  1  0.601300  0.811300  0.392500  1.0  0.0827
  H  H72  1  0.688600  0.044600  0.585800  1.0  0.0663
  H  H73  1  0.663000  0.949000  0.383000  1.0  0.1638
  H  H74  1  0.742000  0.871000  0.548000  1.0  0.1469
  H  H75  1  0.646000  0.176000  0.527000  1.0  0.1559
  H  H76  1  0.101300  0.311300  0.892500  1.0  0.0827
  H  H77  1  0.188600  0.544600  0.085800  1.0  0.0663
  H  H78  1  0.163000  0.449000  0.883000  1.0  0.1638
  H  H79  1  0.242000  0.371000  0.048000  1.0  0.1469
  H  H80  1  0.146000  0.676000  0.027000  1.0  0.1559
  H  H81  1  0.061300  0.648700  0.642500  1.0  0.0862
  H  H82  1  0.294600  0.561400  0.835800  1.0  0.0671
  H  H83  1  0.199000  0.587000  0.633000  1.0  0.1602
  H  H84  1  0.121000  0.508000  0.798000  1.0  0.1434
  H  H85  1  0.426000  0.604000  0.777000  1.0  0.1554
  H  H86  1  0.561300  0.148700  0.142500  1.0  0.0862
  H  H87  1  0.794600  0.061400  0.335800  1.0  0.0671
  H  H88  1  0.699000  0.087000  0.133000  1.0  0.1602
  H  H89  1  0.621000  0.008000  0.298000  1.0  0.1434
  H  H90  1  0.926000  0.104000  0.277000  1.0  0.1554
  H  H91  1  0.438700  0.351300  0.142500  1.0  0.0838
  H  H92  1  0.205400  0.438600  0.335800  1.0  0.067
  H  H93  1  0.301000  0.413000  0.133000  1.0  0.1644
  H  H94  1  0.379000  0.492000  0.298000  1.0  0.1439
  H  H95  1  0.074000  0.396000  0.277000  1.0  0.1554
  H  H96  1  0.938700  0.851300  0.642500  1.0  0.0838
  H  H97  1  0.705400  0.938600  0.835800  1.0  0.067
  H  H98  1  0.801000  0.913000  0.633000  1.0  0.1644
  H  H99  1  0.879000  0.992000  0.798000  1.0  0.1439
  H  H100  1  0.574000  0.896000  0.777000  1.0  0.1554
  C  C101  1  0.114200  0.869300  0.085060  1.0  -0.1634
  C  C102  1  0.152600  0.923600  0.009440  1.0  0.3241
  C  C103  1  0.138300  0.036500  0.022770  1.0  0.0339
  C  C104  1  0.117100  0.066900  0.071480  1.0  0.5066
  C  C105  1  0.175400  0.023600  0.946230  1.0  0.0077
  C  C106  1  0.614200  0.369300  0.585060  1.0  -0.1634
  C  C107  1  0.652600  0.423600  0.509440  1.0  0.3241
  C  C108  1  0.638300  0.536500  0.522770  1.0  0.0339
  C  C109  1  0.617100  0.566900  0.571480  1.0  0.5066
  C  C110  1  0.675400  0.523600  0.446230  1.0  0.0077
  C  C111  1  0.385800  0.130700  0.585060  1.0  -0.1654
  C  C112  1  0.347400  0.076400  0.509440  1.0  0.3244
  C  C113  1  0.361700  0.963500  0.522770  1.0  0.0329
  C  C114  1  0.382900  0.933100  0.571480  1.0  0.5052
  C  C115  1  0.324600  0.976400  0.446230  1.0  0.0073
  C  C116  1  0.885800  0.630700  0.085060  1.0  -0.1654
  C  C117  1  0.847400  0.576400  0.009440  1.0  0.3244
  C  C118  1  0.861700  0.463500  0.022770  1.0  0.0329
  C  C119  1  0.882900  0.433100  0.071480  1.0  0.5052
  C  C120  1  0.824600  0.476400  0.946230  1.0  0.0073
  C  C121  1  0.880700  0.364200  0.335060  1.0  -0.167
  C  C122  1  0.826400  0.402600  0.259440  1.0  0.3243
  C  C123  1  0.713500  0.388300  0.272770  1.0  0.0344
  C  C124  1  0.683100  0.367100  0.321480  1.0  0.5098
  C  C125  1  0.726400  0.425400  0.196230  1.0  0.008
  C  C126  1  0.380700  0.864200  0.835060  1.0  -0.167
  C  C127  1  0.326400  0.902600  0.759440  1.0  0.3243
  C  C128  1  0.213500  0.888300  0.772770  1.0  0.0344
  C  C129  1  0.183100  0.867100  0.821480  1.0  0.5098
  C  C130  1  0.226400  0.925400  0.696230  1.0  0.008
  C  C131  1  0.619300  0.635800  0.835060  1.0  -0.1649
  C  C132  1  0.673600  0.597400  0.759440  1.0  0.3248
  C  C133  1  0.786500  0.611700  0.772770  1.0  0.033
  C  C134  1  0.816900  0.632900  0.821480  1.0  0.5112
  C  C135  1  0.773600  0.574600  0.696230  1.0  0.0093
  C  C136  1  0.119300  0.135800  0.335060  1.0  -0.1649
  C  C137  1  0.173600  0.097400  0.259440  1.0  0.3248
  C  C138  1  0.286500  0.111700  0.272770  1.0  0.033
  C  C139  1  0.316900  0.132900  0.321480  1.0  0.5112
  C  C140  1  0.273600  0.074600  0.196230  1.0  0.0093
  C  C141  1  0.885800  0.130700  0.914940  1.0  -0.1689
  C  C142  1  0.847400  0.076400  0.990560  1.0  0.324
  C  C143  1  0.861700  0.963500  0.977230  1.0  0.0318
  C  C144  1  0.882900  0.933100  0.928520  1.0  0.5053
  C  C145  1  0.824600  0.976400  0.053770  1.0  0.0089
  C  C146  1  0.385800  0.630700  0.414940  1.0  -0.1689
  C  C147  1  0.347400  0.576400  0.490560  1.0  0.324
  C  C148  1  0.361700  0.463500  0.477230  1.0  0.0318
  C  C149  1  0.382900  0.433100  0.428520  1.0  0.5053
  C  C150  1  0.324600  0.476400  0.553770  1.0  0.0089
  C  C151  1  0.614200  0.869300  0.414940  1.0  -0.1691
  C  C152  1  0.652600  0.923600  0.490560  1.0  0.3237
  C  C153  1  0.638300  0.036500  0.477230  1.0  0.0333
  C  C154  1  0.617100  0.066900  0.428520  1.0  0.5065
  C  C155  1  0.675400  0.023600  0.553770  1.0  0.0081
  C  C156  1  0.114200  0.369300  0.914940  1.0  -0.1691
  C  C157  1  0.152600  0.423600  0.990560  1.0  0.3237
  C  C158  1  0.138300  0.536500  0.977230  1.0  0.0333
  C  C159  1  0.117100  0.566900  0.928520  1.0  0.5065
  C  C160  1  0.175400  0.523600  0.053770  1.0  0.0081
  C  C161  1  0.119300  0.635800  0.664940  1.0  -0.1698
  C  C162  1  0.173600  0.597400  0.740560  1.0  0.3244
  C  C163  1  0.286500  0.611700  0.727230  1.0  0.0326
  C  C164  1  0.316900  0.632900  0.678520  1.0  0.5107
  C  C165  1  0.273600  0.574600  0.803770  1.0  0.0103
  C  C166  1  0.619300  0.135800  0.164940  1.0  -0.1698
  C  C167  1  0.673600  0.097400  0.240560  1.0  0.3244
  C  C168  1  0.786500  0.111700  0.227230  1.0  0.0326
  C  C169  1  0.816900  0.132900  0.178520  1.0  0.5107
  C  C170  1  0.773600  0.074600  0.303770  1.0  0.0103
  C  C171  1  0.380700  0.364200  0.164940  1.0  -0.1706
  C  C172  1  0.326400  0.402600  0.240560  1.0  0.3239
  C  C173  1  0.213500  0.388300  0.227230  1.0  0.0334
  C  C174  1  0.183100  0.367100  0.178520  1.0  0.5097
  C  C175  1  0.226400  0.425400  0.303770  1.0  0.0086
  C  C176  1  0.880700  0.864200  0.664940  1.0  -0.1706
  C  C177  1  0.826400  0.902600  0.740560  1.0  0.3239
  C  C178  1  0.713500  0.888300  0.727230  1.0  0.0334
  C  C179  1  0.683100  0.867100  0.678520  1.0  0.5097
  C  C180  1  0.726400  0.925400  0.803770  1.0  0.0086
  N  N181  1  0.101900  0.976100  0.102010  1.0  -0.3268
  N  N182  1  0.141900  0.834800  0.041010  1.0  -0.3535
  N  N183  1  0.176700  0.915500  0.961040  1.0  -0.4058
  N  N184  1  0.153400  0.099600  0.981100  1.0  -0.3673
  N  N185  1  0.601900  0.476100  0.602010  1.0  -0.3268
  N  N186  1  0.641900  0.334800  0.541010  1.0  -0.3535
  N  N187  1  0.676700  0.415500  0.461040  1.0  -0.4058
  N  N188  1  0.653400  0.599600  0.481100  1.0  -0.3673
  N  N189  1  0.398100  0.023900  0.602010  1.0  -0.3261
  N  N190  1  0.358100  0.165200  0.541010  1.0  -0.3539
  N  N191  1  0.323300  0.084500  0.461040  1.0  -0.4062
  N  N192  1  0.346600  0.900400  0.481100  1.0  -0.3691
  N  N193  1  0.898100  0.523900  0.102010  1.0  -0.3261
  N  N194  1  0.858100  0.665200  0.041010  1.0  -0.3539
  N  N195  1  0.823300  0.584500  0.961040  1.0  -0.4062
  N  N196  1  0.846600  0.400400  0.981100  1.0  -0.3691
  N  N197  1  0.773900  0.351900  0.352010  1.0  -0.3208
  N  N198  1  0.915200  0.391900  0.291010  1.0  -0.355
  N  N199  1  0.834500  0.426700  0.211040  1.0  -0.4084
  N  N200  1  0.650400  0.403400  0.231100  1.0  -0.369
  N  N201  1  0.273900  0.851900  0.852010  1.0  -0.3208
  N  N202  1  0.415200  0.891900  0.791010  1.0  -0.355
  N  N203  1  0.334500  0.926700  0.711040  1.0  -0.4084
  N  N204  1  0.150400  0.903400  0.731100  1.0  -0.369
  N  N205  1  0.726100  0.648100  0.852010  1.0  -0.3223
  N  N206  1  0.584800  0.608100  0.791010  1.0  -0.3565
  N  N207  1  0.665500  0.573300  0.711040  1.0  -0.4093
  N  N208  1  0.849600  0.596600  0.731100  1.0  -0.3708
  N  N209  1  0.226100  0.148100  0.352010  1.0  -0.3223
  N  N210  1  0.084800  0.108100  0.291010  1.0  -0.3565
  N  N211  1  0.165500  0.073300  0.211040  1.0  -0.4093
  N  N212  1  0.349600  0.096600  0.231100  1.0  -0.3708
  N  N213  1  0.898100  0.023900  0.897990  1.0  -0.3254
  N  N214  1  0.858100  0.165200  0.958990  1.0  -0.3541
  N  N215  1  0.823300  0.084500  0.038960  1.0  -0.4066
  N  N216  1  0.846600  0.900400  0.018900  1.0  -0.3701
  N  N217  1  0.398100  0.523900  0.397990  1.0  -0.3254
  N  N218  1  0.358100  0.665200  0.458990  1.0  -0.3541
  N  N219  1  0.323300  0.584500  0.538960  1.0  -0.4066
  N  N220  1  0.346600  0.400400  0.518900  1.0  -0.3701
  N  N221  1  0.601900  0.976100  0.397990  1.0  -0.3259
  N  N222  1  0.641900  0.834800  0.458990  1.0  -0.3541
  N  N223  1  0.676700  0.915500  0.538960  1.0  -0.4059
  N  N224  1  0.653400  0.099600  0.518900  1.0  -0.3691
  N  N225  1  0.101900  0.476100  0.897990  1.0  -0.3259
  N  N226  1  0.141900  0.334800  0.958990  1.0  -0.3541
  N  N227  1  0.176700  0.415500  0.038960  1.0  -0.4059
  N  N228  1  0.153400  0.599600  0.018900  1.0  -0.3691
  N  N229  1  0.226100  0.648100  0.647990  1.0  -0.3226
  N  N230  1  0.084800  0.608100  0.708990  1.0  -0.3568
  N  N231  1  0.165500  0.573300  0.788960  1.0  -0.4095
  N  N232  1  0.349600  0.596600  0.768900  1.0  -0.3723
  N  N233  1  0.726100  0.148100  0.147990  1.0  -0.3226
  N  N234  1  0.584800  0.108100  0.208990  1.0  -0.3568
  N  N235  1  0.665500  0.073300  0.288960  1.0  -0.4095
  N  N236  1  0.849600  0.096600  0.268900  1.0  -0.3723
  N  N237  1  0.273900  0.351900  0.147990  1.0  -0.3207
  N  N238  1  0.415200  0.391900  0.208990  1.0  -0.3559
  N  N239  1  0.334500  0.426700  0.288960  1.0  -0.4081
  N  N240  1  0.150400  0.403400  0.268900  1.0  -0.3698
  N  N241  1  0.773900  0.851900  0.647990  1.0  -0.3207
  N  N242  1  0.915200  0.891900  0.708990  1.0  -0.3559
  N  N243  1  0.834500  0.926700  0.788960  1.0  -0.4081
  N  N244  1  0.650400  0.903400  0.768900  1.0  -0.3698
  O  O245  1  0.112000  0.167900  0.087350  1.0  -0.8517
  O  O246  1  0.612000  0.667900  0.587350  1.0  -0.8517
  O  O247  1  0.388000  0.832100  0.587350  1.0  -0.8485
  O  O248  1  0.888000  0.332100  0.087350  1.0  -0.8485
  O  O249  1  0.582100  0.362000  0.337350  1.0  -0.8485
  O  O250  1  0.082100  0.862000  0.837350  1.0  -0.8485
  O  O251  1  0.917900  0.638000  0.837350  1.0  -0.8493
  O  O252  1  0.417900  0.138000  0.337350  1.0  -0.8493
  O  O253  1  0.888000  0.832100  0.912650  1.0  -0.848
  O  O254  1  0.388000  0.332100  0.412650  1.0  -0.848
  O  O255  1  0.612000  0.167900  0.412650  1.0  -0.8512
  O  O256  1  0.112000  0.667900  0.912650  1.0  -0.8512
  O  O257  1  0.417900  0.638000  0.662650  1.0  -0.8488
  O  O258  1  0.917900  0.138000  0.162650  1.0  -0.8488
  O  O259  1  0.082100  0.362000  0.162650  1.0  -0.8483
  O  O260  1  0.582100  0.862000  0.662650  1.0  -0.8483
