# generated using pymatgen
data_LaH39C24(NO2)6
_symmetry_space_group_name_H-M   'P 1'
_cell_length_a   14.57790000
_cell_length_b   14.57790000
_cell_length_c   36.70610000
_cell_angle_alpha   90.00000000
_cell_angle_beta   90.00000000
_cell_angle_gamma   90.00000000
_symmetry_Int_Tables_number   1
_chemical_formula_structural   LaH39C24(NO2)6
_chemical_formula_sum   'La8 H312 C192 N48 O96'
_cell_volume   7800.60302317
_cell_formula_units_Z   8
loop_
 _symmetry_equiv_pos_site_id
 _symmetry_equiv_pos_as_xyz
  1  'x, y, z'
loop_
 _atom_site_type_symbol
 _atom_site_label
 _atom_site_symmetry_multiplicity
 _atom_site_fract_x
 _atom_site_fract_y
 _atom_site_fract_z
 _atom_site_occupancy
 _atom_site_charge
  La  La1  1  0.138130  0.738940  0.094240  1.0  2.1905
  La  La2  1  0.861870  0.261060  0.594240  1.0  2.1914
  La  La3  1  0.761060  0.638130  0.344240  1.0  2.1899
  La  La4  1  0.238940  0.361870  0.844240  1.0  2.1918
  La  La5  1  0.361870  0.238940  0.155760  1.0  2.1912
  La  La6  1  0.638130  0.761060  0.655760  1.0  2.19
  La  La7  1  0.738940  0.138130  0.905760  1.0  2.1906
  La  La8  1  0.261060  0.861870  0.405760  1.0  2.1903
  H  H9  1  0.312400  0.663200  0.156800  1.0  0.1626
  H  H10  1  0.341300  0.692900  0.196200  1.0  0.1381
  H  H11  1  0.298600  0.595600  0.189600  1.0  0.135
  H  H12  1  0.205100  0.669000  0.241800  1.0  0.1156
  H  H13  1  0.003500  0.764000  0.278700  1.0  0.1399
  H  H14  1  0.060600  0.673800  0.283900  1.0  0.1501
  H  H15  1  0.108200  0.769600  0.288300  1.0  0.1334
  H  H16  1  0.924800  0.813500  0.243700  1.0  0.0884
  H  H17  1  0.952500  0.940200  0.205900  1.0  0.1053
  H  H18  1  0.926800  0.882900  0.171200  1.0  0.1017
  H  H19  1  0.799800  0.973900  0.188100  1.0  0.0975
  H  H20  1  0.800100  0.930200  0.227200  1.0  0.0986
  H  H21  1  0.687400  0.860800  0.191700  1.0  0.0955
  H  H22  1  0.761200  0.833000  0.162600  1.0  0.0986
  H  H23  1  0.883000  0.709100  0.180400  1.0  0.0872
  H  H24  1  0.307000  0.889200  0.053200  1.0  0.1552
  H  H25  1  0.331800  0.903400  0.012000  1.0  0.1399
  H  H26  1  0.297900  0.986600  0.035500  1.0  0.1431
  H  H27  1  0.193200  0.982600  0.977100  1.0  0.1251
  H  H28  1  0.976100  0.957200  0.936700  1.0  0.1399
  H  H29  1  0.042000  0.039200  0.945700  1.0  0.1316
  H  H30  1  0.077600  0.955900  0.922700  1.0  0.1343
  H  H31  1  0.898100  0.876600  0.961700  1.0  0.0887
  H  H32  1  0.922800  0.721800  0.969800  1.0  0.1075
  H  H33  1  0.912600  0.730900  0.012200  1.0  0.0985
  H  H34  1  0.777200  0.670200  0.988900  1.0  0.0988
  H  H35  1  0.767500  0.752700  0.961700  1.0  0.0896
  H  H36  1  0.918400  0.444800  0.333900  1.0  0.1552
  H  H37  1  0.929800  0.376100  0.301400  1.0  0.1476
  H  H38  1  0.013100  0.436300  0.313900  1.0  0.1469
  H  H39  1  0.993300  0.458400  0.243300  1.0  0.1223
  H  H40  1  0.956900  0.603900  0.168700  1.0  0.1486
  H  H41  1  0.041500  0.554300  0.186200  1.0  0.1356
  H  H42  1  0.954400  0.497600  0.175200  1.0  0.1387
  H  H43  1  0.752300  0.761200  0.234300  1.0  0.0917
  H  H44  1  0.729700  0.705400  0.198800  1.0  0.1057
  H  H45  1  0.050200  0.782500  0.190000  1.0  0.3129
  H  H46  1  0.033200  0.839500  0.011000  1.0  0.3213
  H  H47  1  0.854300  0.642700  0.248800  1.0  0.3119
  H  H48  1  0.687600  0.336800  0.656800  1.0  0.162
  H  H49  1  0.658700  0.307100  0.696200  1.0  0.1378
  H  H50  1  0.701400  0.404400  0.689600  1.0  0.1351
  H  H51  1  0.794900  0.331000  0.741800  1.0  0.1154
  H  H52  1  0.996500  0.236000  0.778700  1.0  0.1423
  H  H53  1  0.939400  0.326200  0.783900  1.0  0.1499
  H  H54  1  0.891800  0.230400  0.788300  1.0  0.1335
  H  H55  1  0.075200  0.186500  0.743700  1.0  0.0893
  H  H56  1  0.047500  0.059800  0.705900  1.0  0.1044
  H  H57  1  0.073200  0.117100  0.671200  1.0  0.1022
  H  H58  1  0.200200  0.026100  0.688100  1.0  0.0967
  H  H59  1  0.199900  0.069800  0.727200  1.0  0.0996
  H  H60  1  0.312600  0.139200  0.691700  1.0  0.0956
  H  H61  1  0.238800  0.167000  0.662600  1.0  0.1
  H  H62  1  0.117000  0.290900  0.680400  1.0  0.0886
  H  H63  1  0.693000  0.110800  0.553200  1.0  0.155
  H  H64  1  0.668200  0.096600  0.512000  1.0  0.1399
  H  H65  1  0.702100  0.013400  0.535500  1.0  0.1429
  H  H66  1  0.806800  0.017400  0.477100  1.0  0.1251
  H  H67  1  0.023900  0.042800  0.436700  1.0  0.1395
  H  H68  1  0.958000  0.960800  0.445700  1.0  0.1285
  H  H69  1  0.922400  0.044100  0.422700  1.0  0.1324
  H  H70  1  0.101900  0.123400  0.461700  1.0  0.0884
  H  H71  1  0.077200  0.278200  0.469800  1.0  0.1099
  H  H72  1  0.087400  0.269100  0.512200  1.0  0.0992
  H  H73  1  0.222800  0.329800  0.488900  1.0  0.0985
  H  H74  1  0.232500  0.247300  0.461700  1.0  0.0911
  H  H75  1  0.081600  0.555200  0.833900  1.0  0.1559
  H  H76  1  0.070200  0.623900  0.801400  1.0  0.1478
  H  H77  1  0.986900  0.563700  0.813900  1.0  0.1514
  H  H78  1  0.006700  0.541600  0.743300  1.0  0.1231
  H  H79  1  0.043100  0.396100  0.668700  1.0  0.1476
  H  H80  1  0.958500  0.445700  0.686200  1.0  0.1316
  H  H81  1  0.045600  0.502400  0.675200  1.0  0.1399
  H  H82  1  0.247700  0.238800  0.734300  1.0  0.0918
  H  H83  1  0.270300  0.294600  0.698800  1.0  0.1054
  H  H84  1  0.949800  0.217500  0.690000  1.0  0.3119
  H  H85  1  0.966800  0.160500  0.511000  1.0  0.3193
  H  H86  1  0.145700  0.357300  0.748800  1.0  0.3118
  H  H87  1  0.836800  0.812400  0.406800  1.0  0.1607
  H  H88  1  0.807100  0.841300  0.446200  1.0  0.1375
  H  H89  1  0.904400  0.798600  0.439600  1.0  0.1353
  H  H90  1  0.831000  0.705100  0.491800  1.0  0.1146
  H  H91  1  0.736000  0.503500  0.528700  1.0  0.1419
  H  H92  1  0.826200  0.560600  0.533900  1.0  0.1472
  H  H93  1  0.730400  0.608200  0.538300  1.0  0.1337
  H  H94  1  0.686500  0.424800  0.493700  1.0  0.0896
  H  H95  1  0.559800  0.452500  0.455900  1.0  0.1028
  H  H96  1  0.617100  0.426800  0.421200  1.0  0.1045
  H  H97  1  0.526100  0.299800  0.438100  1.0  0.0987
  H  H98  1  0.569800  0.300100  0.477200  1.0  0.103
  H  H99  1  0.639200  0.187400  0.441700  1.0  0.0993
  H  H100  1  0.667000  0.261200  0.412600  1.0  0.0958
  H  H101  1  0.790900  0.383000  0.430400  1.0  0.0883
  H  H102  1  0.610800  0.807000  0.303200  1.0  0.1542
  H  H103  1  0.596600  0.831800  0.262000  1.0  0.1403
  H  H104  1  0.513400  0.797900  0.285500  1.0  0.1417
  H  H105  1  0.517400  0.693200  0.227100  1.0  0.125
  H  H106  1  0.542800  0.476100  0.186700  1.0  0.1382
  H  H107  1  0.460800  0.542000  0.195700  1.0  0.1288
  H  H108  1  0.544100  0.577600  0.172700  1.0  0.1334
  H  H109  1  0.623400  0.398100  0.211700  1.0  0.0895
  H  H110  1  0.778200  0.422800  0.219800  1.0  0.1091
  H  H111  1  0.769100  0.412600  0.262200  1.0  0.0997
  H  H112  1  0.829800  0.277200  0.238900  1.0  0.097
  H  H113  1  0.747300  0.267500  0.211700  1.0  0.0915
  H  H114  1  0.055200  0.418400  0.583900  1.0  0.1542
  H  H115  1  0.123900  0.429800  0.551400  1.0  0.1436
  H  H116  1  0.063700  0.513100  0.563900  1.0  0.1494
  H  H117  1  0.041600  0.493300  0.493300  1.0  0.1225
  H  H118  1  0.896100  0.456900  0.418700  1.0  0.1504
  H  H119  1  0.945700  0.541500  0.436200  1.0  0.1371
  H  H120  1  0.002400  0.454400  0.425200  1.0  0.1421
  H  H121  1  0.738800  0.252300  0.484300  1.0  0.0901
  H  H122  1  0.794600  0.229700  0.448800  1.0  0.1024
  H  H123  1  0.717500  0.550200  0.440000  1.0  0.3122
  H  H124  1  0.660500  0.533200  0.261000  1.0  0.3193
  H  H125  1  0.857300  0.354300  0.498800  1.0  0.3116
  H  H126  1  0.163200  0.187600  0.906800  1.0  0.1596
  H  H127  1  0.192900  0.158700  0.946200  1.0  0.1368
  H  H128  1  0.095600  0.201400  0.939600  1.0  0.1344
  H  H129  1  0.169000  0.294900  0.991800  1.0  0.1152
  H  H130  1  0.264000  0.496500  0.028700  1.0  0.1408
  H  H131  1  0.173800  0.439400  0.033900  1.0  0.1483
  H  H132  1  0.269600  0.391800  0.038300  1.0  0.1344
  H  H133  1  0.313500  0.575200  0.993700  1.0  0.0899
  H  H134  1  0.440200  0.547500  0.955900  1.0  0.1024
  H  H135  1  0.382900  0.573200  0.921200  1.0  0.1047
  H  H136  1  0.473900  0.700200  0.938100  1.0  0.1002
  H  H137  1  0.430200  0.699900  0.977200  1.0  0.1013
  H  H138  1  0.360800  0.812600  0.941700  1.0  0.1001
  H  H139  1  0.333000  0.738800  0.912600  1.0  0.0958
  H  H140  1  0.209100  0.617000  0.930400  1.0  0.088
  H  H141  1  0.389200  0.193000  0.803200  1.0  0.1544
  H  H142  1  0.403400  0.168200  0.762000  1.0  0.14
  H  H143  1  0.486600  0.202100  0.785500  1.0  0.1434
  H  H144  1  0.482600  0.306800  0.727100  1.0  0.1248
  H  H145  1  0.457200  0.523900  0.686700  1.0  0.1381
  H  H146  1  0.539200  0.458000  0.695700  1.0  0.1325
  H  H147  1  0.455900  0.422400  0.672700  1.0  0.1332
  H  H148  1  0.376600  0.601900  0.711700  1.0  0.0885
  H  H149  1  0.221800  0.577200  0.719800  1.0  0.1107
  H  H150  1  0.230900  0.587400  0.762200  1.0  0.1
  H  H151  1  0.170200  0.722800  0.738900  1.0  0.0969
  H  H152  1  0.252700  0.732500  0.711700  1.0  0.0922
  H  H153  1  0.944800  0.581600  0.083900  1.0  0.1537
  H  H154  1  0.876100  0.570200  0.051400  1.0  0.1476
  H  H155  1  0.936300  0.486900  0.063900  1.0  0.1484
  H  H156  1  0.958400  0.506700  0.993300  1.0  0.1226
  H  H157  1  0.103900  0.543100  0.918700  1.0  0.149
  H  H158  1  0.054300  0.458500  0.936200  1.0  0.1359
  H  H159  1  0.997600  0.545600  0.925200  1.0  0.1397
  H  H160  1  0.261200  0.747700  0.984300  1.0  0.0909
  H  H161  1  0.205400  0.770300  0.948800  1.0  0.104
  H  H162  1  0.282500  0.449800  0.940000  1.0  0.3124
  H  H163  1  0.339500  0.466800  0.761000  1.0  0.3198
  H  H164  1  0.142700  0.645700  0.998800  1.0  0.3118
  H  H165  1  0.187600  0.163200  0.093200  1.0  0.1622
  H  H166  1  0.158700  0.192900  0.053800  1.0  0.139
  H  H167  1  0.201400  0.095600  0.060400  1.0  0.1358
  H  H168  1  0.294900  0.169000  0.008200  1.0  0.1154
  H  H169  1  0.496500  0.264000  0.971300  1.0  0.1395
  H  H170  1  0.439400  0.173800  0.966100  1.0  0.15
  H  H171  1  0.391800  0.269600  0.961700  1.0  0.1328
  H  H172  1  0.575200  0.313500  0.006300  1.0  0.0886
  H  H173  1  0.547500  0.440200  0.044100  1.0  0.1052
  H  H174  1  0.573200  0.382900  0.078800  1.0  0.1004
  H  H175  1  0.700200  0.473900  0.061900  1.0  0.0963
  H  H176  1  0.699900  0.430200  0.022800  1.0  0.1004
  H  H177  1  0.812600  0.360800  0.058300  1.0  0.0935
  H  H178  1  0.738800  0.333000  0.087400  1.0  0.0987
  H  H179  1  0.617000  0.209100  0.069600  1.0  0.0886
  H  H180  1  0.193000  0.389200  0.196800  1.0  0.1553
  H  H181  1  0.168200  0.403400  0.238000  1.0  0.1395
  H  H182  1  0.202100  0.486600  0.214500  1.0  0.1418
  H  H183  1  0.306800  0.482600  0.272900  1.0  0.1258
  H  H184  1  0.523900  0.457200  0.313300  1.0  0.1413
  H  H185  1  0.458000  0.539200  0.304300  1.0  0.1301
  H  H186  1  0.422400  0.455900  0.327300  1.0  0.1356
  H  H187  1  0.601900  0.376600  0.288300  1.0  0.09
  H  H188  1  0.577200  0.221800  0.280200  1.0  0.1102
  H  H189  1  0.587400  0.230900  0.237800  1.0  0.0999
  H  H190  1  0.722800  0.170200  0.261100  1.0  0.0996
  H  H191  1  0.732500  0.252700  0.288300  1.0  0.0887
  H  H192  1  0.581600  0.944800  0.916100  1.0  0.1554
  H  H193  1  0.570200  0.876100  0.948600  1.0  0.147
  H  H194  1  0.486900  0.936300  0.936100  1.0  0.1513
  H  H195  1  0.506700  0.958400  0.006700  1.0  0.1229
  H  H196  1  0.543100  0.103900  0.081300  1.0  0.1509
  H  H197  1  0.458500  0.054300  0.063800  1.0  0.1317
  H  H198  1  0.545600  0.997600  0.074800  1.0  0.1407
  H  H199  1  0.747700  0.261200  0.015700  1.0  0.0916
  H  H200  1  0.770300  0.205400  0.051200  1.0  0.1057
  H  H201  1  0.449800  0.282500  0.060000  1.0  0.3108
  H  H202  1  0.466800  0.339500  0.239000  1.0  0.3197
  H  H203  1  0.645700  0.142700  0.001200  1.0  0.312
  H  H204  1  0.812400  0.836800  0.593200  1.0  0.1618
  H  H205  1  0.841300  0.807100  0.553800  1.0  0.1386
  H  H206  1  0.798600  0.904400  0.560400  1.0  0.1354
  H  H207  1  0.705100  0.831000  0.508200  1.0  0.1154
  H  H208  1  0.503500  0.736000  0.471300  1.0  0.1375
  H  H209  1  0.560600  0.826200  0.466100  1.0  0.1512
  H  H210  1  0.608200  0.730400  0.461700  1.0  0.1328
  H  H211  1  0.424800  0.686500  0.506300  1.0  0.0886
  H  H212  1  0.452500  0.559800  0.544100  1.0  0.1034
  H  H213  1  0.426800  0.617100  0.578800  1.0  0.1025
  H  H214  1  0.299800  0.526100  0.561900  1.0  0.0974
  H  H215  1  0.300100  0.569800  0.522800  1.0  0.1001
  H  H216  1  0.187400  0.639200  0.558300  1.0  0.0977
  H  H217  1  0.261200  0.667000  0.587400  1.0  0.1
  H  H218  1  0.383000  0.790900  0.569600  1.0  0.0872
  H  H219  1  0.807000  0.610800  0.696800  1.0  0.1558
  H  H220  1  0.831800  0.596600  0.738000  1.0  0.1394
  H  H221  1  0.797900  0.513400  0.714500  1.0  0.1431
  H  H222  1  0.693200  0.517400  0.772900  1.0  0.1261
  H  H223  1  0.476100  0.542800  0.813300  1.0  0.1418
  H  H224  1  0.542000  0.460800  0.804300  1.0  0.1311
  H  H225  1  0.577600  0.544100  0.827300  1.0  0.1337
  H  H226  1  0.398100  0.623400  0.788300  1.0  0.0891
  H  H227  1  0.422800  0.778200  0.780200  1.0  0.1084
  H  H228  1  0.412600  0.769100  0.737800  1.0  0.099
  H  H229  1  0.277200  0.829800  0.761100  1.0  0.0996
  H  H230  1  0.267500  0.747300  0.788300  1.0  0.0908
  H  H231  1  0.418400  0.055200  0.416100  1.0  0.1564
  H  H232  1  0.429800  0.123900  0.448600  1.0  0.1474
  H  H233  1  0.513100  0.063700  0.436100  1.0  0.1485
  H  H234  1  0.493300  0.041600  0.506700  1.0  0.1225
  H  H235  1  0.456900  0.896100  0.581300  1.0  0.1482
  H  H236  1  0.541500  0.945700  0.563800  1.0  0.1344
  H  H237  1  0.454400  0.002400  0.574800  1.0  0.1391
  H  H238  1  0.252300  0.738800  0.515700  1.0  0.0922
  H  H239  1  0.229700  0.794600  0.551200  1.0  0.1064
  H  H240  1  0.550200  0.717500  0.560000  1.0  0.3118
  H  H241  1  0.533200  0.660500  0.739000  1.0  0.32
  H  H242  1  0.354300  0.857300  0.501200  1.0  0.3117
  H  H243  1  0.663200  0.312400  0.843200  1.0  0.1585
  H  H244  1  0.692900  0.341300  0.803800  1.0  0.1376
  H  H245  1  0.595600  0.298600  0.810400  1.0  0.1355
  H  H246  1  0.669000  0.205100  0.758200  1.0  0.1151
  H  H247  1  0.764000  0.003500  0.721300  1.0  0.1383
  H  H248  1  0.673800  0.060600  0.716100  1.0  0.1475
  H  H249  1  0.769600  0.108200  0.711700  1.0  0.1333
  H  H250  1  0.813500  0.924800  0.756300  1.0  0.0901
  H  H251  1  0.940200  0.952500  0.794100  1.0  0.1025
  H  H252  1  0.882900  0.926800  0.828800  1.0  0.1041
  H  H253  1  0.973900  0.799800  0.811900  1.0  0.0999
  H  H254  1  0.930200  0.800100  0.772800  1.0  0.1019
  H  H255  1  0.860800  0.687400  0.808300  1.0  0.0999
  H  H256  1  0.833000  0.761200  0.837400  1.0  0.0971
  H  H257  1  0.709100  0.883000  0.819600  1.0  0.0888
  H  H258  1  0.889200  0.307000  0.946800  1.0  0.1545
  H  H259  1  0.903400  0.331800  0.988000  1.0  0.1392
  H  H260  1  0.986600  0.297900  0.964500  1.0  0.1425
  H  H261  1  0.982600  0.193200  0.022900  1.0  0.1256
  H  H262  1  0.957200  0.976100  0.063300  1.0  0.1403
  H  H263  1  0.039200  0.042000  0.054300  1.0  0.1309
  H  H264  1  0.955900  0.077600  0.077300  1.0  0.1345
  H  H265  1  0.876600  0.898100  0.038300  1.0  0.0906
  H  H266  1  0.721800  0.922800  0.030200  1.0  0.1108
  H  H267  1  0.730900  0.912600  0.987800  1.0  0.1004
  H  H268  1  0.670200  0.777200  0.011100  1.0  0.0964
  H  H269  1  0.752700  0.767500  0.038300  1.0  0.0925
  H  H270  1  0.444800  0.918400  0.666100  1.0  0.155
  H  H271  1  0.376100  0.929800  0.698600  1.0  0.1475
  H  H272  1  0.436300  0.013100  0.686100  1.0  0.1499
  H  H273  1  0.458400  0.993300  0.756700  1.0  0.123
  H  H274  1  0.603900  0.956900  0.831300  1.0  0.1513
  H  H275  1  0.554300  0.041500  0.813800  1.0  0.1373
  H  H276  1  0.497600  0.954400  0.824800  1.0  0.1431
  H  H277  1  0.761200  0.752300  0.765700  1.0  0.0907
  H  H278  1  0.705400  0.729700  0.801200  1.0  0.104
  H  H279  1  0.782500  0.050200  0.810000  1.0  0.3103
  H  H280  1  0.839500  0.033200  0.989000  1.0  0.3193
  H  H281  1  0.642700  0.854300  0.751200  1.0  0.3126
  H  H282  1  0.336800  0.687600  0.343200  1.0  0.1602
  H  H283  1  0.307100  0.658700  0.303800  1.0  0.1383
  H  H284  1  0.404400  0.701400  0.310400  1.0  0.1355
  H  H285  1  0.331000  0.794900  0.258200  1.0  0.1149
  H  H286  1  0.236000  0.996500  0.221300  1.0  0.1394
  H  H287  1  0.326200  0.939400  0.216100  1.0  0.1491
  H  H288  1  0.230400  0.891800  0.211700  1.0  0.1336
  H  H289  1  0.186500  0.075200  0.256300  1.0  0.0902
  H  H290  1  0.059800  0.047500  0.294100  1.0  0.102
  H  H291  1  0.117100  0.073200  0.328800  1.0  0.1034
  H  H292  1  0.026100  0.200200  0.311900  1.0  0.0982
  H  H293  1  0.069800  0.199900  0.272800  1.0  0.1032
  H  H294  1  0.139200  0.312600  0.308300  1.0  0.1
  H  H295  1  0.167000  0.238800  0.337400  1.0  0.0962
  H  H296  1  0.290900  0.117000  0.319600  1.0  0.088
  H  H297  1  0.110800  0.693000  0.446800  1.0  0.1547
  H  H298  1  0.096600  0.668200  0.488000  1.0  0.1404
  H  H299  1  0.013400  0.702100  0.464500  1.0  0.14
  H  H300  1  0.017400  0.806800  0.522900  1.0  0.1258
  H  H301  1  0.042800  0.023900  0.563300  1.0  0.1394
  H  H302  1  0.960800  0.958000  0.554300  1.0  0.1291
  H  H303  1  0.044100  0.922400  0.577300  1.0  0.1349
  H  H304  1  0.123400  0.101900  0.538300  1.0  0.0903
  H  H305  1  0.278200  0.077200  0.530200  1.0  0.1094
  H  H306  1  0.269100  0.087400  0.487800  1.0  0.1011
  H  H307  1  0.329800  0.222800  0.511100  1.0  0.0954
  H  H308  1  0.247300  0.232500  0.538300  1.0  0.0901
  H  H309  1  0.555200  0.081600  0.166100  1.0  0.1537
  H  H310  1  0.623900  0.070200  0.198600  1.0  0.1438
  H  H311  1  0.563700  0.986900  0.186100  1.0  0.1486
  H  H312  1  0.541600  0.006700  0.256700  1.0  0.1222
  H  H313  1  0.396100  0.043100  0.331300  1.0  0.1515
  H  H314  1  0.445700  0.958500  0.313800  1.0  0.1364
  H  H315  1  0.502400  0.045600  0.324800  1.0  0.1407
  H  H316  1  0.238800  0.247700  0.265700  1.0  0.0904
  H  H317  1  0.294600  0.270300  0.301200  1.0  0.1031
  H  H318  1  0.217500  0.949800  0.310000  1.0  0.3112
  H  H319  1  0.160500  0.966800  0.489000  1.0  0.3182
  H  H320  1  0.357300  0.145700  0.251200  1.0  0.31
  C  C321  1  0.297400  0.658800  0.182210  1.0  -0.3765
  C  C322  1  0.202680  0.697610  0.188520  1.0  0.3099
  C  C323  1  0.169280  0.697200  0.224050  1.0  -0.1363
  C  C324  1  0.085620  0.735900  0.235210  1.0  0.1917
  C  C325  1  0.062400  0.735800  0.275180  1.0  -0.3592
  C  C326  1  0.933670  0.802300  0.217650  1.0  0.1173
  C  C327  1  0.913500  0.891400  0.196830  1.0  -0.1387
  C  C328  1  0.812400  0.918200  0.201660  1.0  -0.104
  C  C329  1  0.750900  0.842700  0.188460  1.0  -0.0922
  C  C330  1  0.869700  0.724900  0.205760  1.0  0.1348
  C  C331  1  0.291500  0.921900  0.031370  1.0  -0.3923
  C  C332  1  0.194210  0.900710  0.020980  1.0  0.2983
  C  C333  1  0.156400  0.941800  0.989950  1.0  -0.123
  C  C334  1  0.067770  0.926450  0.976770  1.0  0.2045
  C  C335  1  0.038200  0.974000  0.942360  1.0  -0.367
  C  C336  1  0.912300  0.855600  0.986410  1.0  0.1548
  C  C337  1  0.890600  0.754200  0.989050  1.0  -0.1506
  C  C338  1  0.788500  0.735300  0.985780  1.0  -0.126
  C  C339  1  0.947700  0.434800  0.310840  1.0  -0.3761
  C  C340  1  0.919360  0.508440  0.284810  1.0  0.3142
  C  C341  1  0.954280  0.506580  0.249260  1.0  -0.1312
  C  C342  1  0.935730  0.570650  0.222010  1.0  0.1913
  C  C343  1  0.975800  0.555200  0.184630  1.0  -0.3575
  C  C344  1  0.768300  0.753400  0.208850  1.0  -0.1508
  C  C345  1  0.702600  0.341200  0.682210  1.0  -0.3746
  C  C346  1  0.797320  0.302390  0.688520  1.0  0.3102
  C  C347  1  0.830720  0.302800  0.724050  1.0  -0.1364
  C  C348  1  0.914380  0.264100  0.735210  1.0  0.1899
  C  C349  1  0.937600  0.264200  0.775180  1.0  -0.3594
  C  C350  1  0.066330  0.197700  0.717650  1.0  0.1167
  C  C351  1  0.086500  0.108600  0.696830  1.0  -0.1352
  C  C352  1  0.187600  0.081800  0.701660  1.0  -0.0987
  C  C353  1  0.249100  0.157300  0.688460  1.0  -0.0943
  C  C354  1  0.130300  0.275100  0.705760  1.0  0.134
  C  C355  1  0.708500  0.078100  0.531370  1.0  -0.3914
  C  C356  1  0.805790  0.099290  0.520980  1.0  0.2978
  C  C357  1  0.843600  0.058200  0.489950  1.0  -0.1237
  C  C358  1  0.932230  0.073550  0.476770  1.0  0.2018
  C  C359  1  0.961800  0.026000  0.442360  1.0  -0.3668
  C  C360  1  0.087700  0.144400  0.486410  1.0  0.1555
  C  C361  1  0.109400  0.245800  0.489050  1.0  -0.1513
  C  C362  1  0.211500  0.264700  0.485780  1.0  -0.1328
  C  C363  1  0.052300  0.565200  0.810840  1.0  -0.3755
  C  C364  1  0.080640  0.491560  0.784810  1.0  0.3129
  C  C365  1  0.045720  0.493420  0.749260  1.0  -0.1302
  C  C366  1  0.064270  0.429350  0.722010  1.0  0.1915
  C  C367  1  0.024200  0.444800  0.684630  1.0  -0.3565
  C  C368  1  0.231700  0.246600  0.708850  1.0  -0.1546
  C  C369  1  0.841200  0.797400  0.432210  1.0  -0.3771
  C  C370  1  0.802390  0.702680  0.438520  1.0  0.3093
  C  C371  1  0.802800  0.669280  0.474050  1.0  -0.1366
  C  C372  1  0.764100  0.585620  0.485210  1.0  0.1909
  C  C373  1  0.764200  0.562400  0.525180  1.0  -0.3589
  C  C374  1  0.697700  0.433670  0.467650  1.0  0.1174
  C  C375  1  0.608600  0.413500  0.446830  1.0  -0.1446
  C  C376  1  0.581800  0.312400  0.451660  1.0  -0.0983
  C  C377  1  0.657300  0.250900  0.438460  1.0  -0.0938
  C  C378  1  0.775100  0.369700  0.455760  1.0  0.1347
  C  C379  1  0.578100  0.791500  0.281370  1.0  -0.39
  C  C380  1  0.599290  0.694210  0.270980  1.0  0.2966
  C  C381  1  0.558200  0.656400  0.239950  1.0  -0.1248
  C  C382  1  0.573550  0.567770  0.226770  1.0  0.2023
  C  C383  1  0.526000  0.538200  0.192360  1.0  -0.3658
  C  C384  1  0.644400  0.412300  0.236410  1.0  0.1534
  C  C385  1  0.745800  0.390600  0.239050  1.0  -0.1574
  C  C386  1  0.764700  0.288500  0.235780  1.0  -0.1265
  C  C387  1  0.065200  0.447700  0.560840  1.0  -0.375
  C  C388  1  0.991560  0.419360  0.534810  1.0  0.3136
  C  C389  1  0.993420  0.454280  0.499260  1.0  -0.1286
  C  C390  1  0.929350  0.435730  0.472010  1.0  0.1922
  C  C391  1  0.944800  0.475800  0.434630  1.0  -0.3645
  C  C392  1  0.746600  0.268300  0.458850  1.0  -0.1463
  C  C393  1  0.158800  0.202600  0.932210  1.0  -0.3777
  C  C394  1  0.197610  0.297320  0.938520  1.0  0.3096
  C  C395  1  0.197200  0.330720  0.974050  1.0  -0.1375
  C  C396  1  0.235900  0.414380  0.985210  1.0  0.1897
  C  C397  1  0.235800  0.437600  0.025180  1.0  -0.3586
  C  C398  1  0.302300  0.566330  0.967650  1.0  0.1148
  C  C399  1  0.391400  0.586500  0.946830  1.0  -0.1442
  C  C400  1  0.418200  0.687600  0.951660  1.0  -0.1011
  C  C401  1  0.342700  0.749100  0.938460  1.0  -0.0958
  C  C402  1  0.224900  0.630300  0.955760  1.0  0.1337
  C  C403  1  0.421900  0.208500  0.781370  1.0  -0.3907
  C  C404  1  0.400710  0.305790  0.770980  1.0  0.2971
  C  C405  1  0.441800  0.343600  0.739950  1.0  -0.1244
  C  C406  1  0.426450  0.432230  0.726770  1.0  0.2019
  C  C407  1  0.474000  0.461800  0.692360  1.0  -0.3673
  C  C408  1  0.355600  0.587700  0.736410  1.0  0.1547
  C  C409  1  0.254200  0.609400  0.739050  1.0  -0.1532
  C  C410  1  0.235300  0.711500  0.735780  1.0  -0.1246
  C  C411  1  0.934800  0.552300  0.060840  1.0  -0.3747
  C  C412  1  0.008440  0.580640  0.034810  1.0  0.3149
  C  C413  1  0.006580  0.545720  0.999260  1.0  -0.1286
  C  C414  1  0.070650  0.564270  0.972010  1.0  0.1902
  C  C415  1  0.055200  0.524200  0.934630  1.0  -0.3613
  C  C416  1  0.253400  0.731700  0.958850  1.0  -0.1478
  C  C417  1  0.202600  0.158800  0.067790  1.0  -0.3761
  C  C418  1  0.297320  0.197610  0.061480  1.0  0.3096
  C  C419  1  0.330720  0.197200  0.025950  1.0  -0.1366
  C  C420  1  0.414380  0.235900  0.014790  1.0  0.1898
  C  C421  1  0.437600  0.235800  0.974820  1.0  -0.3569
  C  C422  1  0.566330  0.302300  0.032350  1.0  0.1172
  C  C423  1  0.586500  0.391400  0.053170  1.0  -0.1395
  C  C424  1  0.687600  0.418200  0.048340  1.0  -0.1043
  C  C425  1  0.749100  0.342700  0.061540  1.0  -0.0935
  C  C426  1  0.630300  0.224900  0.044240  1.0  0.135
  C  C427  1  0.208500  0.421900  0.218630  1.0  -0.3914
  C  C428  1  0.305790  0.400710  0.229020  1.0  0.298
  C  C429  1  0.343600  0.441800  0.260050  1.0  -0.1222
  C  C430  1  0.432230  0.426450  0.273230  1.0  0.203
  C  C431  1  0.461800  0.474000  0.307640  1.0  -0.3676
  C  C432  1  0.587700  0.355600  0.263590  1.0  0.1578
  C  C433  1  0.609400  0.254200  0.260950  1.0  -0.1503
  C  C434  1  0.711500  0.235300  0.264220  1.0  -0.1293
  C  C435  1  0.552300  0.934800  0.939160  1.0  -0.3741
  C  C436  1  0.580640  0.008440  0.965190  1.0  0.3154
  C  C437  1  0.545720  0.006580  0.000740  1.0  -0.1314
  C  C438  1  0.564270  0.070650  0.027990  1.0  0.1912
  C  C439  1  0.524200  0.055200  0.065370  1.0  -0.3575
  C  C440  1  0.731700  0.253400  0.041150  1.0  -0.1507
  C  C441  1  0.797400  0.841200  0.567790  1.0  -0.3764
  C  C442  1  0.702680  0.802390  0.561480  1.0  0.3088
  C  C443  1  0.669280  0.802800  0.525950  1.0  -0.1361
  C  C444  1  0.585620  0.764100  0.514790  1.0  0.1918
  C  C445  1  0.562400  0.764200  0.474820  1.0  -0.3577
  C  C446  1  0.433670  0.697700  0.532350  1.0  0.1168
  C  C447  1  0.413500  0.608600  0.553170  1.0  -0.1349
  C  C448  1  0.312400  0.581800  0.548340  1.0  -0.0974
  C  C449  1  0.250900  0.657300  0.561540  1.0  -0.0921
  C  C450  1  0.369700  0.775100  0.544240  1.0  0.136
  C  C451  1  0.791500  0.578100  0.718630  1.0  -0.3931
  C  C452  1  0.694210  0.599290  0.729020  1.0  0.2995
  C  C453  1  0.656400  0.558200  0.760050  1.0  -0.1226
  C  C454  1  0.567770  0.573550  0.773230  1.0  0.2048
  C  C455  1  0.538200  0.526000  0.807640  1.0  -0.3665
  C  C456  1  0.412300  0.644400  0.763590  1.0  0.1565
  C  C457  1  0.390600  0.745800  0.760950  1.0  -0.1522
  C  C458  1  0.288500  0.764700  0.764220  1.0  -0.1315
  C  C459  1  0.447700  0.065200  0.439160  1.0  -0.3766
  C  C460  1  0.419360  0.991560  0.465190  1.0  0.3161
  C  C461  1  0.454280  0.993420  0.500740  1.0  -0.1304
  C  C462  1  0.435730  0.929350  0.527990  1.0  0.1923
  C  C463  1  0.475800  0.944800  0.565370  1.0  -0.3575
  C  C464  1  0.268300  0.746600  0.541150  1.0  -0.1498
  C  C465  1  0.658800  0.297400  0.817790  1.0  -0.3779
  C  C466  1  0.697610  0.202680  0.811480  1.0  0.3093
  C  C467  1  0.697200  0.169280  0.775950  1.0  -0.1374
  C  C468  1  0.735900  0.085620  0.764790  1.0  0.1902
  C  C469  1  0.735800  0.062400  0.724820  1.0  -0.356
  C  C470  1  0.802300  0.933670  0.782350  1.0  0.1163
  C  C471  1  0.891400  0.913500  0.803170  1.0  -0.1431
  C  C472  1  0.918200  0.812400  0.798340  1.0  -0.0994
  C  C473  1  0.842700  0.750900  0.811540  1.0  -0.0942
  C  C474  1  0.724900  0.869700  0.794240  1.0  0.1348
  C  C475  1  0.921900  0.291500  0.968630  1.0  -0.39
  C  C476  1  0.900710  0.194210  0.979020  1.0  0.2976
  C  C477  1  0.941800  0.156400  0.010050  1.0  -0.1241
  C  C478  1  0.926450  0.067770  0.023230  1.0  0.2024
  C  C479  1  0.974000  0.038200  0.057640  1.0  -0.3674
  C  C480  1  0.855600  0.912300  0.013590  1.0  0.1573
  C  C481  1  0.754200  0.890600  0.010950  1.0  -0.1552
  C  C482  1  0.735300  0.788500  0.014220  1.0  -0.1228
  C  C483  1  0.434800  0.947700  0.689160  1.0  -0.3731
  C  C484  1  0.508440  0.919360  0.715190  1.0  0.3163
  C  C485  1  0.506580  0.954280  0.750740  1.0  -0.1285
  C  C486  1  0.570650  0.935730  0.777990  1.0  0.1904
  C  C487  1  0.555200  0.975800  0.815370  1.0  -0.3624
  C  C488  1  0.753400  0.768300  0.791150  1.0  -0.144
  C  C489  1  0.341200  0.702600  0.317790  1.0  -0.379
  C  C490  1  0.302390  0.797320  0.311480  1.0  0.3083
  C  C491  1  0.302800  0.830720  0.275950  1.0  -0.1366
  C  C492  1  0.264100  0.914380  0.264790  1.0  0.1901
  C  C493  1  0.264200  0.937600  0.224820  1.0  -0.3571
  C  C494  1  0.197700  0.066330  0.282350  1.0  0.1157
  C  C495  1  0.108600  0.086500  0.303170  1.0  -0.142
  C  C496  1  0.081800  0.187600  0.298340  1.0  -0.0978
  C  C497  1  0.157300  0.249100  0.311540  1.0  -0.0965
  C  C498  1  0.275100  0.130300  0.294240  1.0  0.1356
  C  C499  1  0.078100  0.708500  0.468630  1.0  -0.3917
  C  C500  1  0.099290  0.805790  0.479020  1.0  0.2982
  C  C501  1  0.058200  0.843600  0.510050  1.0  -0.1238
  C  C502  1  0.073550  0.932230  0.523230  1.0  0.2023
  C  C503  1  0.026000  0.961800  0.557640  1.0  -0.3657
  C  C504  1  0.144400  0.087700  0.513590  1.0  0.1555
  C  C505  1  0.245800  0.109400  0.510950  1.0  -0.1562
  C  C506  1  0.264700  0.211500  0.514220  1.0  -0.1274
  C  C507  1  0.565200  0.052300  0.189160  1.0  -0.3753
  C  C508  1  0.491560  0.080640  0.215190  1.0  0.3159
  C  C509  1  0.493420  0.045720  0.250740  1.0  -0.1283
  C  C510  1  0.429350  0.064270  0.277990  1.0  0.1927
  C  C511  1  0.444800  0.024200  0.315370  1.0  -0.3642
  C  C512  1  0.246600  0.231700  0.291150  1.0  -0.1454
  N  N513  1  0.028850  0.773650  0.211540  1.0  -0.3873
  N  N514  1  0.010210  0.871110  0.993440  1.0  -0.4595
  N  N515  1  0.149780  0.932750  0.129410  1.0  0.8483
  N  N516  1  0.930350  0.761600  0.100750  1.0  0.6704
  N  N517  1  0.332900  0.695850  0.066540  1.0  0.7315
  N  N518  1  0.883760  0.643410  0.228510  1.0  -0.3766
  N  N519  1  0.971150  0.226350  0.711540  1.0  -0.3885
  N  N520  1  0.989790  0.128890  0.493440  1.0  -0.4593
  N  N521  1  0.850220  0.067250  0.629410  1.0  0.8485
  N  N522  1  0.069650  0.238400  0.600750  1.0  0.6699
  N  N523  1  0.667100  0.304150  0.566540  1.0  0.7316
  N  N524  1  0.116240  0.356590  0.728510  1.0  -0.3758
  N  N525  1  0.726350  0.528850  0.461540  1.0  -0.3846
  N  N526  1  0.628890  0.510210  0.243440  1.0  -0.4566
  N  N527  1  0.567250  0.649780  0.379410  1.0  0.8486
  N  N528  1  0.738400  0.430350  0.350750  1.0  0.6698
  N  N529  1  0.804150  0.832900  0.316540  1.0  0.7365
  N  N530  1  0.856590  0.383760  0.478510  1.0  -0.3778
  N  N531  1  0.273650  0.471150  0.961540  1.0  -0.3859
  N  N532  1  0.371110  0.489790  0.743440  1.0  -0.4576
  N  N533  1  0.432750  0.350220  0.879410  1.0  0.8489
  N  N534  1  0.261600  0.569650  0.850750  1.0  0.6707
  N  N535  1  0.195850  0.167100  0.816540  1.0  0.7369
  N  N536  1  0.143410  0.616240  0.978510  1.0  -0.3776
  N  N537  1  0.471150  0.273650  0.038460  1.0  -0.3863
  N  N538  1  0.489790  0.371110  0.256560  1.0  -0.4593
  N  N539  1  0.350220  0.432750  0.120590  1.0  0.8486
  N  N540  1  0.569650  0.261600  0.149250  1.0  0.67
  N  N541  1  0.167100  0.195850  0.183460  1.0  0.735
  N  N542  1  0.616240  0.143410  0.021490  1.0  -0.3779
  N  N543  1  0.528850  0.726350  0.538460  1.0  -0.3871
  N  N544  1  0.510210  0.628890  0.756560  1.0  -0.4582
  N  N545  1  0.649780  0.567250  0.620590  1.0  0.8485
  N  N546  1  0.430350  0.738400  0.649250  1.0  0.6697
  N  N547  1  0.832900  0.804150  0.683460  1.0  0.7321
  N  N548  1  0.383760  0.856590  0.521490  1.0  -0.3765
  N  N549  1  0.773650  0.028850  0.788460  1.0  -0.3833
  N  N550  1  0.871110  0.010210  0.006560  1.0  -0.4563
  N  N551  1  0.932750  0.149780  0.870590  1.0  0.8483
  N  N552  1  0.761600  0.930350  0.899250  1.0  0.6698
  N  N553  1  0.695850  0.332900  0.933460  1.0  0.7393
  N  N554  1  0.643410  0.883760  0.771490  1.0  -0.3782
  N  N555  1  0.226350  0.971150  0.288460  1.0  -0.3842
  N  N556  1  0.128890  0.989790  0.506560  1.0  -0.4575
  N  N557  1  0.067250  0.850220  0.370590  1.0  0.8489
  N  N558  1  0.238400  0.069650  0.399250  1.0  0.6703
  N  N559  1  0.304150  0.667100  0.433460  1.0  0.7386
  N  N560  1  0.356590  0.116240  0.271490  1.0  -0.3786
  O  O561  1  0.159790  0.731070  0.161750  1.0  -0.5732
  O  O562  1  0.149470  0.844420  0.040920  1.0  -0.5893
  O  O563  1  0.220380  0.892180  0.117970  1.0  -0.6803
  O  O564  1  0.074210  0.892600  0.125310  1.0  -0.6233
  O  O565  1  0.973530  0.796070  0.074660  1.0  -0.6283
  O  O566  1  0.977240  0.713850  0.123500  1.0  -0.6639
  O  O567  1  0.319530  0.735160  0.097150  1.0  -0.7156
  O  O568  1  0.263170  0.668820  0.050290  1.0  -0.6531
  O  O569  1  0.863650  0.569820  0.295770  1.0  -0.5882
  O  O570  1  0.154850  0.008520  0.143960  1.0  -0.4592
  O  O571  1  0.848800  0.773500  0.104850  1.0  -0.4839
  O  O572  1  0.410200  0.687000  0.054240  1.0  -0.4427
  O  O573  1  0.840210  0.268930  0.661750  1.0  -0.5726
  O  O574  1  0.850530  0.155580  0.540920  1.0  -0.5905
  O  O575  1  0.779620  0.107820  0.617970  1.0  -0.6812
  O  O576  1  0.925790  0.107400  0.625310  1.0  -0.6237
  O  O577  1  0.026470  0.203930  0.574660  1.0  -0.6281
  O  O578  1  0.022760  0.286150  0.623500  1.0  -0.6651
  O  O579  1  0.680470  0.264840  0.597150  1.0  -0.7153
  O  O580  1  0.736830  0.331180  0.550290  1.0  -0.6546
  O  O581  1  0.136350  0.430180  0.795770  1.0  -0.5883
  O  O582  1  0.845150  0.991480  0.643960  1.0  -0.4586
  O  O583  1  0.151200  0.226500  0.604850  1.0  -0.4841
  O  O584  1  0.589800  0.313000  0.554240  1.0  -0.4454
  O  O585  1  0.768930  0.659790  0.411750  1.0  -0.5721
  O  O586  1  0.655580  0.649470  0.290920  1.0  -0.5889
  O  O587  1  0.607820  0.720380  0.367970  1.0  -0.6787
  O  O588  1  0.607400  0.574210  0.375310  1.0  -0.6261
  O  O589  1  0.703930  0.473530  0.324660  1.0  -0.6281
  O  O590  1  0.786150  0.477240  0.373500  1.0  -0.6646
  O  O591  1  0.764840  0.819530  0.347150  1.0  -0.714
  O  O592  1  0.831180  0.763170  0.300290  1.0  -0.651
  O  O593  1  0.930180  0.363650  0.545770  1.0  -0.5879
  O  O594  1  0.491480  0.654850  0.393960  1.0  -0.4642
  O  O595  1  0.726500  0.348800  0.354850  1.0  -0.4779
  O  O596  1  0.813000  0.910200  0.304240  1.0  -0.443
  O  O597  1  0.231070  0.340210  0.911750  1.0  -0.5714
  O  O598  1  0.344420  0.350530  0.790920  1.0  -0.589
  O  O599  1  0.392180  0.279620  0.867970  1.0  -0.6783
  O  O600  1  0.392600  0.425790  0.875310  1.0  -0.6254
  O  O601  1  0.296070  0.526470  0.824660  1.0  -0.6281
  O  O602  1  0.213850  0.522760  0.873500  1.0  -0.6652
  O  O603  1  0.235160  0.180470  0.847150  1.0  -0.714
  O  O604  1  0.168820  0.236830  0.800290  1.0  -0.6513
  O  O605  1  0.069820  0.636350  0.045770  1.0  -0.586
  O  O606  1  0.508520  0.345150  0.893960  1.0  -0.4637
  O  O607  1  0.273500  0.651200  0.854850  1.0  -0.4748
  O  O608  1  0.187000  0.089800  0.804240  1.0  -0.4422
  O  O609  1  0.340210  0.231070  0.088250  1.0  -0.5738
  O  O610  1  0.350530  0.344420  0.209080  1.0  -0.5893
  O  O611  1  0.279620  0.392180  0.132030  1.0  -0.6815
  O  O612  1  0.425790  0.392600  0.124690  1.0  -0.6243
  O  O613  1  0.526470  0.296070  0.175340  1.0  -0.6269
  O  O614  1  0.522760  0.213850  0.126500  1.0  -0.6617
  O  O615  1  0.180470  0.235160  0.152850  1.0  -0.7159
  O  O616  1  0.236830  0.168820  0.199710  1.0  -0.6546
  O  O617  1  0.636350  0.069820  0.954230  1.0  -0.5878
  O  O618  1  0.345150  0.508520  0.106040  1.0  -0.4597
  O  O619  1  0.651200  0.273500  0.145150  1.0  -0.4836
  O  O620  1  0.089800  0.187000  0.195760  1.0  -0.4437
  O  O621  1  0.659790  0.768930  0.588250  1.0  -0.5725
  O  O622  1  0.649470  0.655580  0.709080  1.0  -0.5883
  O  O623  1  0.720380  0.607820  0.632030  1.0  -0.6814
  O  O624  1  0.574210  0.607400  0.624690  1.0  -0.6222
  O  O625  1  0.473530  0.703930  0.675340  1.0  -0.6273
  O  O626  1  0.477240  0.786150  0.626500  1.0  -0.6637
  O  O627  1  0.819530  0.764840  0.652850  1.0  -0.7148
  O  O628  1  0.763170  0.831180  0.699710  1.0  -0.6536
  O  O629  1  0.363650  0.930180  0.454230  1.0  -0.5889
  O  O630  1  0.654850  0.491480  0.606040  1.0  -0.4597
  O  O631  1  0.348800  0.726500  0.645150  1.0  -0.4836
  O  O632  1  0.910200  0.813000  0.695760  1.0  -0.4424
  O  O633  1  0.731070  0.159790  0.838250  1.0  -0.5718
  O  O634  1  0.844420  0.149470  0.959080  1.0  -0.5876
  O  O635  1  0.892180  0.220380  0.882030  1.0  -0.6785
  O  O636  1  0.892600  0.074210  0.874690  1.0  -0.6253
  O  O637  1  0.796070  0.973530  0.925340  1.0  -0.6276
  O  O638  1  0.713850  0.977240  0.876500  1.0  -0.6646
  O  O639  1  0.735160  0.319530  0.902850  1.0  -0.7122
  O  O640  1  0.668820  0.263170  0.949710  1.0  -0.6516
  O  O641  1  0.569820  0.863650  0.704230  1.0  -0.5867
  O  O642  1  0.008520  0.154850  0.856040  1.0  -0.4643
  O  O643  1  0.773500  0.848800  0.895150  1.0  -0.4768
  O  O644  1  0.687000  0.410200  0.945760  1.0  -0.4422
  O  O645  1  0.268930  0.840210  0.338250  1.0  -0.5722
  O  O646  1  0.155580  0.850530  0.459080  1.0  -0.5883
  O  O647  1  0.107820  0.779620  0.382030  1.0  -0.678
  O  O648  1  0.107400  0.925790  0.374690  1.0  -0.6278
  O  O649  1  0.203930  0.026470  0.425340  1.0  -0.627
  O  O650  1  0.286150  0.022760  0.376500  1.0  -0.6617
  O  O651  1  0.264840  0.680470  0.402850  1.0  -0.7146
  O  O652  1  0.331180  0.736830  0.449710  1.0  -0.6511
  O  O653  1  0.430180  0.136350  0.204230  1.0  -0.5869
  O  O654  1  0.991480  0.845150  0.356040  1.0  -0.465
  O  O655  1  0.226500  0.151200  0.395150  1.0  -0.4747
  O  O656  1  0.313000  0.589800  0.445760  1.0  -0.4413
