# generated using pymatgen
data_Cu2H5C9N6O7
_symmetry_space_group_name_H-M   'P 1'
_cell_length_a   6.40940000
_cell_length_b   14.85700000
_cell_length_c   16.06600000
_cell_angle_alpha   90.00000000
_cell_angle_beta   90.00000000
_cell_angle_gamma   90.00000000
_symmetry_Int_Tables_number   1
_chemical_formula_structural   Cu2H5C9N6O7
_chemical_formula_sum   'Cu8 H20 C36 N24 O28'
_cell_volume   1529.87610688
_cell_formula_units_Z   4
loop_
 _symmetry_equiv_pos_site_id
 _symmetry_equiv_pos_as_xyz
  1  'x, y, z'
loop_
 _atom_site_type_symbol
 _atom_site_label
 _atom_site_symmetry_multiplicity
 _atom_site_fract_x
 _atom_site_fract_y
 _atom_site_fract_z
 _atom_site_occupancy
 _atom_site_charge
  Cu  Cu1  1  0.757700  0.591840  0.636070  1.0  1.0119
  Cu  Cu2  1  0.010370  0.757040  0.505510  1.0  0.8485
  Cu  Cu3  1  0.742300  0.408160  0.136070  1.0  1.0123
  Cu  Cu4  1  0.489630  0.242960  0.005510  1.0  0.8486
  Cu  Cu5  1  0.242300  0.091840  0.863930  1.0  1.0118
  Cu  Cu6  1  0.989630  0.257040  0.994490  1.0  0.8493
  Cu  Cu7  1  0.257700  0.908160  0.363930  1.0  1.0121
  Cu  Cu8  1  0.510370  0.742960  0.494490  1.0  0.8491
  H  H9  1  0.140700  0.482800  0.741900  1.0  0.3882
  H  H10  1  0.373000  0.485100  0.742300  1.0  0.3819
  H  H11  1  0.734900  0.576000  0.899600  1.0  0.1157
  H  H12  1  0.734600  0.735700  0.103600  1.0  0.125
  H  H13  1  0.735800  0.845300  0.873900  1.0  0.1055
  H  H14  1  0.359300  0.517200  0.241900  1.0  0.3874
  H  H15  1  0.127000  0.514900  0.242300  1.0  0.3831
  H  H16  1  0.765100  0.424000  0.399600  1.0  0.1155
  H  H17  1  0.765400  0.264300  0.603600  1.0  0.1251
  H  H18  1  0.764200  0.154700  0.373900  1.0  0.1051
  H  H19  1  0.859300  0.982800  0.758100  1.0  0.3876
  H  H20  1  0.627000  0.985100  0.757700  1.0  0.3835
  H  H21  1  0.265100  0.076000  0.600400  1.0  0.116
  H  H22  1  0.265400  0.235700  0.396400  1.0  0.1251
  H  H23  1  0.264200  0.345300  0.626100  1.0  0.1052
  H  H24  1  0.640700  0.017200  0.258100  1.0  0.3887
  H  H25  1  0.873000  0.014900  0.257700  1.0  0.3798
  H  H26  1  0.234900  0.924000  0.100400  1.0  0.1153
  H  H27  1  0.234600  0.764300  0.896400  1.0  0.1252
  H  H28  1  0.235800  0.654700  0.126100  1.0  0.1053
  C  C29  1  0.739100  0.708900  0.872400  1.0  -0.1194
  C  C30  1  0.735100  0.633000  0.923500  1.0  0.0136
  C  C31  1  0.731400  0.641300  0.010300  1.0  -0.1465
  C  C32  1  0.733000  0.728100  0.046200  1.0  -0.036
  C  C33  1  0.732000  0.800900  0.993100  1.0  -0.0561
  C  C34  1  0.735700  0.794200  0.907300  1.0  -0.0017
  C  C35  1  0.737300  0.698100  0.778000  1.0  0.6541
  C  C36  1  0.728400  0.561100  0.066600  1.0  0.6316
  C  C37  1  0.253200  0.569600  0.664700  1.0  0.6224
  C  C38  1  0.760900  0.291100  0.372400  1.0  -0.1194
  C  C39  1  0.764900  0.367000  0.423500  1.0  0.0113
  C  C40  1  0.768600  0.358700  0.510300  1.0  -0.1463
  C  C41  1  0.767000  0.271900  0.546200  1.0  -0.0363
  C  C42  1  0.768000  0.199100  0.493100  1.0  -0.0561
  C  C43  1  0.764300  0.205800  0.407300  1.0  -1e-04
  C  C44  1  0.762700  0.301900  0.278000  1.0  0.6539
  C  C45  1  0.771600  0.438900  0.566600  1.0  0.6309
  C  C46  1  0.246800  0.430400  0.164700  1.0  0.6228
  C  C47  1  0.260900  0.208900  0.627600  1.0  -0.1187
  C  C48  1  0.264900  0.133000  0.576500  1.0  0.0149
  C  C49  1  0.268600  0.141300  0.489700  1.0  -0.1466
  C  C50  1  0.267000  0.228100  0.453800  1.0  -0.0352
  C  C51  1  0.268000  0.300900  0.506900  1.0  -0.0562
  C  C52  1  0.264300  0.294200  0.592700  1.0  -0.0011
  C  C53  1  0.262700  0.198100  0.722000  1.0  0.6523
  C  C54  1  0.271600  0.061100  0.433400  1.0  0.6307
  C  C55  1  0.746800  0.069600  0.835300  1.0  0.6223
  C  C56  1  0.239100  0.791100  0.127600  1.0  -0.1188
  C  C57  1  0.235100  0.867000  0.076500  1.0  0.0131
  C  C58  1  0.231400  0.858700  0.989700  1.0  -0.1459
  C  C59  1  0.233000  0.771900  0.953800  1.0  -0.0352
  C  C60  1  0.232000  0.699100  0.006900  1.0  -0.0564
  C  C61  1  0.235700  0.705800  0.092700  1.0  0.0002
  C  C62  1  0.237300  0.801900  0.222000  1.0  0.6527
  C  C63  1  0.228400  0.938900  0.933400  1.0  0.6304
  C  C64  1  0.753200  0.930400  0.335300  1.0  0.6223
  N  N65  1  0.084200  0.605300  0.630500  1.0  -0.3298
  N  N66  1  0.433000  0.604900  0.629600  1.0  -0.3556
  N  N67  1  0.358900  0.662200  0.571800  1.0  0.0077
  N  N68  1  0.157100  0.664700  0.574700  1.0  0.0056
  N  N69  1  0.256000  0.504700  0.723400  1.0  -0.7188
  N  N70  1  0.730600  0.891900  0.032500  1.0  0.5881
  N  N71  1  0.415800  0.394700  0.130500  1.0  -0.3304
  N  N72  1  0.067000  0.395100  0.129600  1.0  -0.3554
  N  N73  1  0.141100  0.337800  0.071800  1.0  0.0044
  N  N74  1  0.342900  0.335300  0.074700  1.0  0.0047
  N  N75  1  0.244000  0.495300  0.223400  1.0  -0.7183
  N  N76  1  0.769400  0.108100  0.532500  1.0  0.5881
  N  N77  1  0.915800  0.105300  0.869500  1.0  -0.331
  N  N78  1  0.567000  0.104900  0.870400  1.0  -0.3555
  N  N79  1  0.641100  0.162200  0.928200  1.0  0.0065
  N  N80  1  0.842900  0.164700  0.925300  1.0  0.0053
  N  N81  1  0.744000  0.004700  0.776600  1.0  -0.7184
  N  N82  1  0.269400  0.391900  0.467500  1.0  0.5887
  N  N83  1  0.584200  0.894700  0.369500  1.0  -0.3296
  N  N84  1  0.933000  0.895100  0.370400  1.0  -0.3551
  N  N85  1  0.858900  0.837800  0.428200  1.0  0.007
  N  N86  1  0.657100  0.835300  0.425300  1.0  0.0045
  N  N87  1  0.756000  0.995300  0.276600  1.0  -0.7178
  N  N88  1  0.230600  0.608100  0.967500  1.0  0.5867
  O  O89  1  0.757500  0.618200  0.752500  1.0  -0.58
  O  O90  1  0.737300  0.482500  0.032800  1.0  -0.5737
  O  O91  1  0.754900  0.726300  0.563400  1.0  -0.7987
  O  O92  1  0.719300  0.571500  0.142200  1.0  -0.5567
  O  O93  1  0.722000  0.765800  0.733100  1.0  -0.5058
  O  O94  1  0.730700  0.896100  0.107800  1.0  -0.3592
  O  O95  1  0.740700  0.956700  0.985800  1.0  -0.3603
  O  O96  1  0.742500  0.381800  0.252500  1.0  -0.5807
  O  O97  1  0.762700  0.517500  0.532800  1.0  -0.5734
  O  O98  1  0.745100  0.273700  0.063400  1.0  -0.7985
  O  O99  1  0.780700  0.428500  0.642200  1.0  -0.5561
  O  O100  1  0.778000  0.234200  0.233100  1.0  -0.5066
  O  O101  1  0.769300  0.103900  0.607800  1.0  -0.3597
  O  O102  1  0.759300  0.043300  0.485800  1.0  -0.3613
  O  O103  1  0.242500  0.118200  0.747500  1.0  -0.5805
  O  O104  1  0.262700  0.982500  0.467200  1.0  -0.5737
  O  O105  1  0.245100  0.226300  0.936600  1.0  -0.7977
  O  O106  1  0.280700  0.071500  0.357800  1.0  -0.5544
  O  O107  1  0.278000  0.265800  0.766900  1.0  -0.5051
  O  O108  1  0.269300  0.396100  0.392200  1.0  -0.3602
  O  O109  1  0.259300  0.456700  0.514200  1.0  -0.3608
  O  O110  1  0.257500  0.881800  0.247500  1.0  -0.5813
  O  O111  1  0.237300  0.017500  0.967200  1.0  -0.5729
  O  O112  1  0.254900  0.773700  0.436600  1.0  -0.7975
  O  O113  1  0.219300  0.928500  0.857800  1.0  -0.5552
  O  O114  1  0.222000  0.734200  0.266900  1.0  -0.5053
  O  O115  1  0.230700  0.603900  0.892200  1.0  -0.3606
  O  O116  1  0.240700  0.543300  0.014200  1.0  -0.3617
