# generated using pymatgen
data_Cu2H6C9N6O7
_symmetry_space_group_name_H-M   'P 1'
_cell_length_a   6.40210000
_cell_length_b   14.92950000
_cell_length_c   15.89010000
_cell_angle_alpha   90.00000000
_cell_angle_beta   90.00000000
_cell_angle_gamma   90.00000000
_symmetry_Int_Tables_number   1
_chemical_formula_structural   Cu2H6C9N6O7
_chemical_formula_sum   'Cu8 H24 C36 N24 O28'
_cell_volume   1518.77817250
_cell_formula_units_Z   4
loop_
 _symmetry_equiv_pos_site_id
 _symmetry_equiv_pos_as_xyz
  1  'x, y, z'
loop_
 _atom_site_type_symbol
 _atom_site_label
 _atom_site_symmetry_multiplicity
 _atom_site_fract_x
 _atom_site_fract_y
 _atom_site_fract_z
 _atom_site_occupancy
 _atom_site_charge
  Cu  Cu1  1  0.263380  0.408780  0.865240  1.0  0.9573
  Cu  Cu2  1  0.514480  0.243750  0.994680  1.0  0.7879
  Cu  Cu3  1  0.236620  0.591220  0.365240  1.0  0.9569
  Cu  Cu4  1  0.985520  0.756250  0.494680  1.0  0.7883
  Cu  Cu5  1  0.736620  0.908780  0.634760  1.0  0.9575
  Cu  Cu6  1  0.485520  0.743750  0.505320  1.0  0.7881
  Cu  Cu7  1  0.763380  0.091220  0.134760  1.0  0.9573
  Cu  Cu8  1  0.014480  0.256250  0.005320  1.0  0.7879
  H  H9  1  0.246300  0.247800  0.893100  1.0  0.3987
  H  H10  1  0.650500  0.517400  0.747900  1.0  0.3921
  H  H11  1  0.882100  0.502400  0.750700  1.0  0.3428
  H  H12  1  0.270400  0.577200  0.102800  1.0  0.1157
  H  H13  1  0.274900  0.847800  0.126700  1.0  0.1105
  H  H14  1  0.281400  0.733400  0.893900  1.0  0.1247
  H  H15  1  0.253700  0.752200  0.393100  1.0  0.3981
  H  H16  1  0.849500  0.482600  0.247900  1.0  0.3919
  H  H17  1  0.617900  0.497600  0.250700  1.0  0.3456
  H  H18  1  0.229600  0.422800  0.602800  1.0  0.1143
  H  H19  1  0.225100  0.152200  0.626700  1.0  0.1112
  H  H20  1  0.218600  0.266600  0.393900  1.0  0.1248
  H  H21  1  0.753700  0.747800  0.606900  1.0  0.3987
  H  H22  1  0.349500  0.017400  0.752100  1.0  0.3918
  H  H23  1  0.117900  0.002400  0.749300  1.0  0.3461
  H  H24  1  0.729600  0.077200  0.397200  1.0  0.1158
  H  H25  1  0.725100  0.347800  0.373300  1.0  0.1106
  H  H26  1  0.718600  0.233400  0.606100  1.0  0.1244
  H  H27  1  0.746300  0.252200  0.106900  1.0  0.3976
  H  H28  1  0.150500  0.982600  0.252100  1.0  0.3918
  H  H29  1  0.382100  0.997600  0.249300  1.0  0.3441
  H  H30  1  0.770400  0.922800  0.897200  1.0  0.1147
  H  H31  1  0.774900  0.652200  0.873300  1.0  0.1105
  H  H32  1  0.781400  0.766600  0.106100  1.0  0.1247
  C  C33  1  0.761500  0.432970  0.836000  1.0  0.6291
  C  C34  1  0.276200  0.642710  0.990430  1.0  -0.1379
  C  C35  1  0.272400  0.634900  0.077680  1.0  -0.0006
  C  C36  1  0.271400  0.711160  0.128830  1.0  -0.1241
  C  C37  1  0.274900  0.795480  0.092760  1.0  -0.0154
  C  C38  1  0.278600  0.801600  0.005570  1.0  -0.056
  C  C39  1  0.279100  0.727000  0.953370  1.0  -0.0443
  C  C40  1  0.275100  0.560950  0.935060  1.0  0.6385
  C  C41  1  0.263900  0.700360  0.224070  1.0  0.6576
  C  C42  1  0.738500  0.567030  0.336000  1.0  0.6293
  C  C43  1  0.223800  0.357290  0.490430  1.0  -0.1376
  C  C44  1  0.227600  0.365100  0.577680  1.0  -0.0026
  C  C45  1  0.228600  0.288840  0.628830  1.0  -0.1245
  C  C46  1  0.225100  0.204520  0.592760  1.0  -0.0094
  C  C47  1  0.221400  0.198400  0.505570  1.0  -0.056
  C  C48  1  0.220900  0.273000  0.453370  1.0  -0.0449
  C  C49  1  0.224900  0.439050  0.435060  1.0  0.6381
  C  C50  1  0.236100  0.299640  0.724070  1.0  0.6581
  C  C51  1  0.238500  0.932970  0.664000  1.0  0.6293
  C  C52  1  0.723800  0.142710  0.509570  1.0  -0.1379
  C  C53  1  0.727600  0.134900  0.422320  1.0  -0.0011
  C  C54  1  0.728600  0.211160  0.371170  1.0  -0.1259
  C  C55  1  0.725100  0.295480  0.407240  1.0  -0.0167
  C  C56  1  0.721400  0.301600  0.494430  1.0  -0.0565
  C  C57  1  0.720900  0.227000  0.546630  1.0  -0.0445
  C  C58  1  0.724900  0.060950  0.564940  1.0  0.6386
  C  C59  1  0.736100  0.200360  0.275930  1.0  0.6578
  C  C60  1  0.261500  0.067030  0.164000  1.0  0.6294
  C  C61  1  0.776200  0.857290  0.009570  1.0  -0.1379
  C  C62  1  0.772400  0.865100  0.922320  1.0  -0.0045
  C  C63  1  0.771400  0.788840  0.871170  1.0  -0.1256
  C  C64  1  0.774900  0.704520  0.907240  1.0  -0.0092
  C  C65  1  0.778600  0.698400  0.994430  1.0  -0.0564
  C  C66  1  0.779100  0.773000  0.046630  1.0  -0.0449
  C  C67  1  0.775100  0.939050  0.064940  1.0  0.6375
  C  C68  1  0.763900  0.799640  0.775930  1.0  0.6577
  N  N69  1  0.588000  0.395420  0.869170  1.0  -0.3372
  N  N70  1  0.661500  0.335220  0.924430  1.0  -0.0326
  N  N71  1  0.862700  0.336400  0.925220  1.0  -0.0271
  N  N72  1  0.934000  0.396810  0.870390  1.0  -0.3396
  N  N73  1  0.760900  0.501000  0.779400  1.0  -0.709
  N  N74  1  0.278900  0.890750  0.966110  1.0  0.581
  N  N75  1  0.912000  0.604580  0.369170  1.0  -0.3378
  N  N76  1  0.838500  0.664780  0.424430  1.0  -0.0323
  N  N77  1  0.637300  0.663600  0.425220  1.0  -0.0273
  N  N78  1  0.566000  0.603190  0.370390  1.0  -0.3394
  N  N79  1  0.739100  0.499000  0.279400  1.0  -0.7091
  N  N80  1  0.221100  0.109250  0.466110  1.0  0.579
  N  N81  1  0.412000  0.895420  0.630830  1.0  -0.3376
  N  N82  1  0.338500  0.835220  0.575570  1.0  -0.031
  N  N83  1  0.137300  0.836400  0.574780  1.0  -0.0278
  N  N84  1  0.066000  0.896810  0.629610  1.0  -0.3393
  N  N85  1  0.239100  0.001000  0.720600  1.0  -0.7099
  N  N86  1  0.721100  0.390750  0.533890  1.0  0.5805
  N  N87  1  0.088000  0.104580  0.130830  1.0  -0.3373
  N  N88  1  0.161500  0.164780  0.075570  1.0  -0.0322
  N  N89  1  0.362700  0.163600  0.074780  1.0  -0.0268
  N  N90  1  0.434000  0.103190  0.129610  1.0  -0.3401
  N  N91  1  0.260900  0.999000  0.220600  1.0  -0.7096
  N  N92  1  0.778900  0.609250  0.033890  1.0  0.5799
  O  O93  1  0.269700  0.483880  0.970010  1.0  -0.5713
  O  O94  1  0.281700  0.569360  0.857390  1.0  -0.572
  O  O95  1  0.240700  0.619460  0.248420  1.0  -0.5837
  O  O96  1  0.279500  0.767210  0.269520  1.0  -0.5632
  O  O97  1  0.271500  0.956710  0.012740  1.0  -0.3613
  O  O98  1  0.286400  0.895640  0.889140  1.0  -0.3708
  O  O99  1  0.260800  0.276800  0.938780  1.0  -0.8901
  O  O100  1  0.230300  0.516120  0.470010  1.0  -0.5712
  O  O101  1  0.218300  0.430640  0.357390  1.0  -0.5729
  O  O102  1  0.259300  0.380540  0.748420  1.0  -0.5835
  O  O103  1  0.220500  0.232790  0.769520  1.0  -0.5632
  O  O104  1  0.228500  0.043290  0.512740  1.0  -0.3613
  O  O105  1  0.213600  0.104360  0.389140  1.0  -0.3714
  O  O106  1  0.239200  0.723200  0.438780  1.0  -0.8905
  O  O107  1  0.730300  0.983880  0.529990  1.0  -0.5714
  O  O108  1  0.718300  0.069360  0.642610  1.0  -0.5703
  O  O109  1  0.759300  0.119460  0.251580  1.0  -0.5836
  O  O110  1  0.720500  0.267210  0.230480  1.0  -0.5635
  O  O111  1  0.728500  0.456710  0.487260  1.0  -0.3595
  O  O112  1  0.713600  0.395640  0.610860  1.0  -0.3714
  O  O113  1  0.739200  0.776800  0.561220  1.0  -0.8901
  O  O114  1  0.769700  0.016120  0.029990  1.0  -0.5707
  O  O115  1  0.781700  0.930640  0.142610  1.0  -0.5704
  O  O116  1  0.740700  0.880540  0.751580  1.0  -0.5833
  O  O117  1  0.779500  0.732790  0.730480  1.0  -0.5637
  O  O118  1  0.771500  0.543290  0.987260  1.0  -0.3596
  O  O119  1  0.786400  0.604360  0.110860  1.0  -0.3721
  O  O120  1  0.760800  0.223200  0.061220  1.0  -0.8902
