# generated using pymatgen
data_Zn3P4(HO3)4
_symmetry_space_group_name_H-M   'P 1'
_cell_length_a   9.64560000
_cell_length_b   23.18710000
_cell_length_c   8.71130000
_cell_angle_alpha   90.00000000
_cell_angle_beta   90.00000000
_cell_angle_gamma   90.00000000
_symmetry_Int_Tables_number   1
_chemical_formula_structural   Zn3P4(HO3)4
_chemical_formula_sum   'Zn12 P16 H16 O48'
_cell_volume   1948.31266277
_cell_formula_units_Z   4
loop_
 _symmetry_equiv_pos_site_id
 _symmetry_equiv_pos_as_xyz
  1  'x, y, z'
loop_
 _atom_site_type_symbol
 _atom_site_label
 _atom_site_symmetry_multiplicity
 _atom_site_fract_x
 _atom_site_fract_y
 _atom_site_fract_z
 _atom_site_occupancy
 _atom_site_charge
  Zn  Zn1  1  0.558450  0.548480  0.220800  1.0  1.1338
  Zn  Zn2  1  0.941550  0.951520  0.220800  1.0  1.1335
  Zn  Zn3  1  0.441550  0.048480  0.279200  1.0  1.1335
  Zn  Zn4  1  0.058450  0.451520  0.279200  1.0  1.1342
  Zn  Zn5  1  0.441550  0.451520  0.779200  1.0  1.1337
  Zn  Zn6  1  0.058450  0.048480  0.779200  1.0  1.134
  Zn  Zn7  1  0.558450  0.951520  0.720800  1.0  1.134
  Zn  Zn8  1  0.941550  0.548480  0.720800  1.0  1.1333
  Zn  Zn9  1  0.750000  0.750000  0.509390  1.0  1.1655
  Zn  Zn10  1  0.250000  0.250000  0.990610  1.0  1.1654
  Zn  Zn11  1  0.250000  0.250000  0.490610  1.0  1.1654
  Zn  Zn12  1  0.750000  0.750000  0.009390  1.0  1.1655
  P  P13  1  0.568740  0.685510  0.255020  1.0  1.47
  P  P14  1  0.782440  0.496150  0.443930  1.0  1.6132
  P  P15  1  0.931260  0.814490  0.255020  1.0  1.4779
  P  P16  1  0.717560  0.003850  0.443930  1.0  1.613
  P  P17  1  0.431260  0.185510  0.244980  1.0  1.4777
  P  P18  1  0.217560  0.996150  0.056070  1.0  1.6136
  P  P19  1  0.068740  0.314490  0.244980  1.0  1.4692
  P  P20  1  0.282440  0.503850  0.056070  1.0  1.6128
  P  P21  1  0.431260  0.314490  0.744980  1.0  1.475
  P  P22  1  0.217560  0.503850  0.556070  1.0  1.612
  P  P23  1  0.068740  0.185510  0.744980  1.0  1.4677
  P  P24  1  0.282440  0.996150  0.556070  1.0  1.6121
  P  P25  1  0.568740  0.814490  0.755020  1.0  1.4691
  P  P26  1  0.782440  0.003850  0.943930  1.0  1.6116
  P  P27  1  0.931260  0.685510  0.755020  1.0  1.4767
  P  P28  1  0.717560  0.496150  0.943930  1.0  1.6124
  H  H29  1  0.457000  0.709200  0.187000  1.0  -0.0626
  H  H30  1  0.785000  0.446600  0.537000  1.0  -0.0814
  H  H31  1  0.043000  0.790800  0.187000  1.0  -0.0601
  H  H32  1  0.715000  0.053400  0.537000  1.0  -0.0817
  H  H33  1  0.543000  0.209200  0.313000  1.0  -0.0607
  H  H34  1  0.215000  0.946600  0.963000  1.0  -0.0805
  H  H35  1  0.957000  0.290800  0.313000  1.0  -0.0636
  H  H36  1  0.285000  0.553400  0.963000  1.0  -0.0828
  H  H37  1  0.543000  0.290800  0.813000  1.0  -0.0612
  H  H38  1  0.215000  0.553400  0.463000  1.0  -0.0828
  H  H39  1  0.957000  0.209200  0.813000  1.0  -0.0639
  H  H40  1  0.285000  0.946600  0.463000  1.0  -0.0805
  H  H41  1  0.457000  0.790800  0.687000  1.0  -0.0633
  H  H42  1  0.785000  0.053400  0.037000  1.0  -0.0818
  H  H43  1  0.043000  0.709200  0.687000  1.0  -0.0589
  H  H44  1  0.715000  0.446600  0.037000  1.0  -0.0812
  O  O45  1  0.685200  0.687170  0.138700  1.0  -0.7519
  O  O46  1  0.531400  0.624520  0.300000  1.0  -0.7846
  O  O47  1  0.593300  0.721430  0.396200  1.0  -0.7843
  O  O48  1  0.634600  0.500730  0.385000  1.0  -0.7447
  O  O49  1  0.884900  0.489260  0.314900  1.0  -0.8209
  O  O50  1  0.818200  0.546630  0.546000  1.0  -0.7721
  O  O51  1  0.814800  0.812830  0.138700  1.0  -0.7512
  O  O52  1  0.968600  0.875480  0.300000  1.0  -0.7839
  O  O53  1  0.906700  0.778570  0.396200  1.0  -0.7852
  O  O54  1  0.865400  0.999270  0.385000  1.0  -0.7447
  O  O55  1  0.615100  0.010740  0.314900  1.0  -0.8217
  O  O56  1  0.681800  0.953370  0.546000  1.0  -0.772
  O  O57  1  0.314800  0.187170  0.361300  1.0  -0.7509
  O  O58  1  0.468600  0.124520  0.200000  1.0  -0.7831
  O  O59  1  0.406700  0.221430  0.103800  1.0  -0.7838
  O  O60  1  0.365400  0.000730  0.115000  1.0  -0.7442
  O  O61  1  0.115100  0.989260  0.185100  1.0  -0.8236
  O  O62  1  0.181800  0.046630  0.954000  1.0  -0.7717
  O  O63  1  0.185200  0.312830  0.361300  1.0  -0.7504
  O  O64  1  0.031400  0.375480  0.200000  1.0  -0.7838
  O  O65  1  0.093300  0.278570  0.103800  1.0  -0.7837
  O  O66  1  0.134600  0.499270  0.115000  1.0  -0.745
  O  O67  1  0.384900  0.510740  0.185100  1.0  -0.8227
  O  O68  1  0.318200  0.453370  0.954000  1.0  -0.7718
  O  O69  1  0.314800  0.312830  0.861300  1.0  -0.751
  O  O70  1  0.468600  0.375480  0.700000  1.0  -0.7828
  O  O71  1  0.406700  0.278570  0.603800  1.0  -0.7843
  O  O72  1  0.365400  0.499270  0.615000  1.0  -0.7445
  O  O73  1  0.115100  0.510740  0.685100  1.0  -0.8237
  O  O74  1  0.181800  0.453370  0.454000  1.0  -0.7719
  O  O75  1  0.185200  0.187170  0.861300  1.0  -0.7519
  O  O76  1  0.031400  0.124520  0.700000  1.0  -0.7839
  O  O77  1  0.093300  0.221430  0.603800  1.0  -0.783
  O  O78  1  0.134600  0.000730  0.615000  1.0  -0.7448
  O  O79  1  0.384900  0.989260  0.685100  1.0  -0.8225
  O  O80  1  0.318200  0.046630  0.454000  1.0  -0.7718
  O  O81  1  0.685200  0.812830  0.638700  1.0  -0.7519
  O  O82  1  0.531400  0.875480  0.800000  1.0  -0.7849
  O  O83  1  0.593300  0.778570  0.896200  1.0  -0.7844
  O  O84  1  0.634600  0.999270  0.885000  1.0  -0.7457
  O  O85  1  0.884900  0.010740  0.814900  1.0  -0.8207
  O  O86  1  0.818200  0.953370  0.046000  1.0  -0.7719
  O  O87  1  0.814800  0.687170  0.638700  1.0  -0.7527
  O  O88  1  0.968600  0.624520  0.800000  1.0  -0.7841
  O  O89  1  0.906700  0.721430  0.896200  1.0  -0.7852
  O  O90  1  0.865400  0.500730  0.885000  1.0  -0.7453
  O  O91  1  0.615100  0.489260  0.814900  1.0  -0.822
  O  O92  1  0.681800  0.546630  0.046000  1.0  -0.7719
