# generated using pymatgen
data_In3H7C20O19
_symmetry_space_group_name_H-M   'P 1'
_cell_length_a   22.25100000
_cell_length_b   37.79100000
_cell_length_c   8.23900000
_cell_angle_alpha   90.00000000
_cell_angle_beta   90.00000000
_cell_angle_gamma   90.00000000
_symmetry_Int_Tables_number   1
_chemical_formula_structural   In3H7C20O19
_chemical_formula_sum   'In24 H56 C160 O152'
_cell_volume   6928.07245030
_cell_formula_units_Z   8
loop_
 _symmetry_equiv_pos_site_id
 _symmetry_equiv_pos_as_xyz
  1  'x, y, z'
loop_
 _atom_site_type_symbol
 _atom_site_label
 _atom_site_symmetry_multiplicity
 _atom_site_fract_x
 _atom_site_fract_y
 _atom_site_fract_z
 _atom_site_occupancy
 _atom_site_charge
  In  In1  1  0.324850  0.642310  0.903060  1.0  1.5795
  In  In2  1  0.177830  0.644830  0.169010  1.0  1.6343
  In  In3  1  0.249730  0.607760  0.534590  1.0  1.6694
  In  In4  1  0.675150  0.357690  0.903060  1.0  1.5798
  In  In5  1  0.822170  0.355170  0.169010  1.0  1.6333
  In  In6  1  0.750270  0.392240  0.534590  1.0  1.671
  In  In7  1  0.175150  0.142310  0.096940  1.0  1.5793
  In  In8  1  0.322170  0.144830  0.830990  1.0  1.6326
  In  In9  1  0.250270  0.107760  0.465410  1.0  1.6698
  In  In10  1  0.824850  0.857690  0.096940  1.0  1.5795
  In  In11  1  0.677830  0.855170  0.830990  1.0  1.6343
  In  In12  1  0.749730  0.892240  0.465410  1.0  1.6703
  In  In13  1  0.175150  0.857690  0.096940  1.0  1.5795
  In  In14  1  0.322170  0.855170  0.830990  1.0  1.6328
  In  In15  1  0.250270  0.892240  0.465410  1.0  1.6709
  In  In16  1  0.824850  0.142310  0.096940  1.0  1.5793
  In  In17  1  0.677830  0.144830  0.830990  1.0  1.6341
  In  In18  1  0.749730  0.107760  0.465410  1.0  1.6692
  In  In19  1  0.324850  0.357690  0.903060  1.0  1.5797
  In  In20  1  0.177830  0.355170  0.169010  1.0  1.6345
  In  In21  1  0.249730  0.392240  0.534590  1.0  1.6704
  In  In22  1  0.675150  0.642310  0.903060  1.0  1.5795
  In  In23  1  0.822170  0.644830  0.169010  1.0  1.6327
  In  In24  1  0.750270  0.607760  0.534590  1.0  1.67
  H  H25  1  0.238700  0.675560  0.363700  1.0  0.3797
  H  H26  1  0.235300  0.825940  0.294400  1.0  0.4415
  H  H27  1  0.248700  0.808440  0.967900  1.0  0.4741
  H  H28  1  0.761300  0.324440  0.363700  1.0  0.3817
  H  H29  1  0.764700  0.174060  0.294400  1.0  0.4393
  H  H30  1  0.751300  0.191560  0.967900  1.0  0.4755
  H  H31  1  0.261300  0.175560  0.636300  1.0  0.3801
  H  H32  1  0.264700  0.325940  0.705600  1.0  0.4429
  H  H33  1  0.251300  0.308440  0.032100  1.0  0.4743
  H  H34  1  0.738700  0.824440  0.636300  1.0  0.3803
  H  H35  1  0.735300  0.674060  0.705600  1.0  0.4391
  H  H36  1  0.748700  0.691560  0.032100  1.0  0.4752
  H  H37  1  0.261300  0.824440  0.636300  1.0  0.3813
  H  H38  1  0.264700  0.674060  0.705600  1.0  0.4401
  H  H39  1  0.251300  0.691560  0.032100  1.0  0.4755
  H  H40  1  0.738700  0.175560  0.636300  1.0  0.3798
  H  H41  1  0.735300  0.325940  0.705600  1.0  0.4421
  H  H42  1  0.748700  0.308440  0.032100  1.0  0.4738
  H  H43  1  0.238700  0.324440  0.363700  1.0  0.3807
  H  H44  1  0.235300  0.174060  0.294400  1.0  0.4383
  H  H45  1  0.248700  0.191560  0.967900  1.0  0.4752
  H  H46  1  0.761300  0.675560  0.363700  1.0  0.3801
  H  H47  1  0.764700  0.825940  0.294400  1.0  0.4423
  H  H48  1  0.751300  0.808440  0.967900  1.0  0.4746
  H  H49  1  0.227000  0.500000  0.309100  1.0  0.1058
  H  H50  1  0.265400  0.500000  0.758700  1.0  0.112
  H  H51  1  0.773000  0.500000  0.309100  1.0  0.1059
  H  H52  1  0.734600  0.500000  0.758700  1.0  0.1119
  H  H53  1  0.273000  0.000000  0.690900  1.0  0.106
  H  H54  1  0.234600  0.000000  0.241300  1.0  0.1115
  H  H55  1  0.727000  0.000000  0.690900  1.0  0.1058
  H  H56  1  0.765400  0.000000  0.241300  1.0  0.1116
  H  H57  1  0.000000  0.647800  0.940000  1.0  0.1042
  H  H58  1  0.000000  0.618500  0.401800  1.0  0.102
  H  H59  1  0.000000  0.352200  0.940000  1.0  0.104
  H  H60  1  0.000000  0.381500  0.401800  1.0  0.1024
  H  H61  1  0.500000  0.147800  0.060000  1.0  0.1048
  H  H62  1  0.500000  0.118500  0.598200  1.0  0.1017
  H  H63  1  0.500000  0.852200  0.060000  1.0  0.1047
  H  H64  1  0.500000  0.881500  0.598200  1.0  0.1023
  H  H65  1  0.500000  0.691500  0.880000  1.0  0.1167
  H  H66  1  0.500000  0.807300  0.693900  1.0  0.0901
  H  H67  1  0.500000  0.640900  0.125600  1.0  0.1094
  H  H68  1  0.500000  0.615500  0.675000  1.0  0.1138
  H  H69  1  0.500000  0.308500  0.880000  1.0  0.1165
  H  H70  1  0.500000  0.192700  0.693900  1.0  0.0908
  H  H71  1  0.500000  0.359100  0.125600  1.0  0.1095
  H  H72  1  0.500000  0.384500  0.675000  1.0  0.1141
  H  H73  1  0.000000  0.191500  0.120000  1.0  0.1166
  H  H74  1  0.000000  0.307300  0.306100  1.0  0.09
  H  H75  1  0.000000  0.140900  0.874400  1.0  0.1086
  H  H76  1  0.000000  0.115500  0.325000  1.0  0.1135
  H  H77  1  0.000000  0.808500  0.120000  1.0  0.1163
  H  H78  1  0.000000  0.692700  0.306100  1.0  0.0909
  H  H79  1  0.000000  0.859100  0.874400  1.0  0.1084
  H  H80  1  0.000000  0.884500  0.325000  1.0  0.114
  C  C81  1  0.251100  0.531700  0.950700  1.0  -0.0752
  C  C82  1  0.239600  0.532100  0.120900  1.0  -0.044
  C  C83  1  0.264600  0.565300  0.858000  1.0  0.7045
  C  C84  1  0.227200  0.565600  0.210700  1.0  0.7128
  C  C85  1  0.055200  0.628700  0.586700  1.0  -0.0995
  C  C86  1  0.055300  0.637900  0.752200  1.0  -0.0091
  C  C87  1  0.111200  0.647500  0.842000  1.0  0.6857
  C  C88  1  0.111900  0.622500  0.493400  1.0  0.7216
  C  C89  1  0.445700  0.731700  0.803900  1.0  -0.1271
  C  C90  1  0.445700  0.767600  0.751100  1.0  -0.0445
  C  C91  1  0.387300  0.712100  0.825000  1.0  0.7034
  C  C92  1  0.387800  0.788600  0.729000  1.0  0.6205
  C  C93  1  0.445100  0.631100  0.315300  1.0  -0.0205
  C  C94  1  0.389200  0.640600  0.222300  1.0  0.6803
  C  C95  1  0.387400  0.617100  0.573800  1.0  0.7545
  C  C96  1  0.444900  0.622600  0.481500  1.0  -0.0858
  C  C97  1  0.748900  0.468300  0.950700  1.0  -0.0748
  C  C98  1  0.760400  0.467900  0.120900  1.0  -0.0441
  C  C99  1  0.735400  0.434700  0.858000  1.0  0.7043
  C  C100  1  0.772800  0.434400  0.210700  1.0  0.7119
  C  C101  1  0.944800  0.371300  0.586700  1.0  -0.0974
  C  C102  1  0.944700  0.362100  0.752200  1.0  -0.0096
  C  C103  1  0.888800  0.352500  0.842000  1.0  0.6862
  C  C104  1  0.888100  0.377500  0.493400  1.0  0.7199
  C  C105  1  0.554300  0.268300  0.803900  1.0  -0.1287
  C  C106  1  0.554300  0.232400  0.751100  1.0  -0.0446
  C  C107  1  0.612700  0.287900  0.825000  1.0  0.7012
  C  C108  1  0.612200  0.211400  0.729000  1.0  0.6197
  C  C109  1  0.554900  0.368900  0.315300  1.0  -0.0194
  C  C110  1  0.610800  0.359400  0.222300  1.0  0.6792
  C  C111  1  0.612600  0.382900  0.573800  1.0  0.7552
  C  C112  1  0.555100  0.377400  0.481500  1.0  -0.0864
  C  C113  1  0.248900  0.031700  0.049300  1.0  -0.0741
  C  C114  1  0.260400  0.032100  0.879100  1.0  -0.0449
  C  C115  1  0.235400  0.065300  0.142000  1.0  0.7044
  C  C116  1  0.272800  0.065600  0.789300  1.0  0.7118
  C  C117  1  0.444800  0.128700  0.413300  1.0  -0.0989
  C  C118  1  0.444700  0.137900  0.247800  1.0  -0.0085
  C  C119  1  0.388800  0.147500  0.158000  1.0  0.6861
  C  C120  1  0.388100  0.122500  0.506600  1.0  0.7205
  C  C121  1  0.054300  0.231700  0.196100  1.0  -0.1288
  C  C122  1  0.054300  0.267600  0.248900  1.0  -0.0447
  C  C123  1  0.112700  0.212100  0.175000  1.0  0.7015
  C  C124  1  0.112200  0.288600  0.271000  1.0  0.6204
  C  C125  1  0.054900  0.131100  0.684700  1.0  -0.0187
  C  C126  1  0.110800  0.140600  0.777700  1.0  0.6798
  C  C127  1  0.112600  0.117100  0.426200  1.0  0.7553
  C  C128  1  0.055100  0.122600  0.518500  1.0  -0.0864
  C  C129  1  0.751100  0.968300  0.049300  1.0  -0.0739
  C  C130  1  0.739600  0.967900  0.879100  1.0  -0.0454
  C  C131  1  0.764600  0.934700  0.142000  1.0  0.7041
  C  C132  1  0.727200  0.934400  0.789300  1.0  0.7125
  C  C133  1  0.555200  0.871300  0.413300  1.0  -0.0982
  C  C134  1  0.555300  0.862100  0.247800  1.0  -0.0088
  C  C135  1  0.611200  0.852500  0.158000  1.0  0.6844
  C  C136  1  0.611900  0.877500  0.506600  1.0  0.7212
  C  C137  1  0.945700  0.768300  0.196100  1.0  -0.1273
  C  C138  1  0.945700  0.732400  0.248900  1.0  -0.0437
  C  C139  1  0.887300  0.787900  0.175000  1.0  0.7032
  C  C140  1  0.887800  0.711400  0.271000  1.0  0.6201
  C  C141  1  0.945100  0.868900  0.684700  1.0  -0.0197
  C  C142  1  0.889200  0.859400  0.777700  1.0  0.6801
  C  C143  1  0.887400  0.882900  0.426200  1.0  0.7543
  C  C144  1  0.944900  0.877400  0.518500  1.0  -0.0852
  C  C145  1  0.248900  0.968300  0.049300  1.0  -0.0737
  C  C146  1  0.260400  0.967900  0.879100  1.0  -0.0454
  C  C147  1  0.235400  0.934700  0.142000  1.0  0.7043
  C  C148  1  0.272800  0.934400  0.789300  1.0  0.7114
  C  C149  1  0.444800  0.871300  0.413300  1.0  -0.0973
  C  C150  1  0.444700  0.862100  0.247800  1.0  -0.0084
  C  C151  1  0.388800  0.852500  0.158000  1.0  0.6857
  C  C152  1  0.388100  0.877500  0.506600  1.0  0.7197
  C  C153  1  0.054300  0.768300  0.196100  1.0  -0.1287
  C  C154  1  0.054300  0.732400  0.248900  1.0  -0.0445
  C  C155  1  0.112700  0.787900  0.175000  1.0  0.7013
  C  C156  1  0.112200  0.711400  0.271000  1.0  0.6197
  C  C157  1  0.054900  0.868900  0.684700  1.0  -0.0191
  C  C158  1  0.110800  0.859400  0.777700  1.0  0.6794
  C  C159  1  0.112600  0.882900  0.426200  1.0  0.7555
  C  C160  1  0.055100  0.877400  0.518500  1.0  -0.086
  C  C161  1  0.751100  0.031700  0.049300  1.0  -0.0739
  C  C162  1  0.739600  0.032100  0.879100  1.0  -0.0449
  C  C163  1  0.764600  0.065300  0.142000  1.0  0.7043
  C  C164  1  0.727200  0.065600  0.789300  1.0  0.7124
  C  C165  1  0.555200  0.128700  0.413300  1.0  -0.0992
  C  C166  1  0.555300  0.137900  0.247800  1.0  -0.0085
  C  C167  1  0.611200  0.147500  0.158000  1.0  0.685
  C  C168  1  0.611900  0.122500  0.506600  1.0  0.7218
  C  C169  1  0.945700  0.231700  0.196100  1.0  -0.1271
  C  C170  1  0.945700  0.267600  0.248900  1.0  -0.0443
  C  C171  1  0.887300  0.212100  0.175000  1.0  0.7036
  C  C172  1  0.887800  0.288600  0.271000  1.0  0.6208
  C  C173  1  0.945100  0.131100  0.684700  1.0  -0.0199
  C  C174  1  0.889200  0.140600  0.777700  1.0  0.6804
  C  C175  1  0.887400  0.117100  0.426200  1.0  0.7544
  C  C176  1  0.944900  0.122600  0.518500  1.0  -0.0857
  C  C177  1  0.251100  0.468300  0.950700  1.0  -0.0748
  C  C178  1  0.239600  0.467900  0.120900  1.0  -0.0442
  C  C179  1  0.264600  0.434700  0.858000  1.0  0.7042
  C  C180  1  0.227200  0.434400  0.210700  1.0  0.7129
  C  C181  1  0.055200  0.371300  0.586700  1.0  -0.0983
  C  C182  1  0.055300  0.362100  0.752200  1.0  -0.01
  C  C183  1  0.111200  0.352500  0.842000  1.0  0.6851
  C  C184  1  0.111900  0.377500  0.493400  1.0  0.7212
  C  C185  1  0.445700  0.268300  0.803900  1.0  -0.1267
  C  C186  1  0.445700  0.232400  0.751100  1.0  -0.0439
  C  C187  1  0.387300  0.287900  0.825000  1.0  0.703
  C  C188  1  0.387800  0.211400  0.729000  1.0  0.62
  C  C189  1  0.445100  0.368900  0.315300  1.0  -0.02
  C  C190  1  0.389200  0.359400  0.222300  1.0  0.68
  C  C191  1  0.387400  0.382900  0.573800  1.0  0.7541
  C  C192  1  0.444900  0.377400  0.481500  1.0  -0.0849
  C  C193  1  0.748900  0.531700  0.950700  1.0  -0.0749
  C  C194  1  0.760400  0.532100  0.120900  1.0  -0.0439
  C  C195  1  0.735400  0.565300  0.858000  1.0  0.7045
  C  C196  1  0.772800  0.565600  0.210700  1.0  0.7122
  C  C197  1  0.944800  0.628700  0.586700  1.0  -0.0992
  C  C198  1  0.944700  0.637900  0.752200  1.0  -0.0091
  C  C199  1  0.888800  0.647500  0.842000  1.0  0.6866
  C  C200  1  0.888100  0.622500  0.493400  1.0  0.7205
  C  C201  1  0.554300  0.731700  0.803900  1.0  -0.1285
  C  C202  1  0.554300  0.767600  0.751100  1.0  -0.0448
  C  C203  1  0.612700  0.712100  0.825000  1.0  0.7014
  C  C204  1  0.612200  0.788600  0.729000  1.0  0.6202
  C  C205  1  0.554900  0.631100  0.315300  1.0  -0.0192
  C  C206  1  0.610800  0.640600  0.222300  1.0  0.6797
  C  C207  1  0.612600  0.617100  0.573800  1.0  0.7554
  C  C208  1  0.555100  0.622600  0.481500  1.0  -0.0857
  C  C209  1  0.234400  0.500000  0.198000  1.0  0.012
  C  C210  1  0.257200  0.500000  0.869400  1.0  0.0181
  C  C211  1  0.765600  0.500000  0.198000  1.0  0.0124
  C  C212  1  0.742800  0.500000  0.869400  1.0  0.019
  C  C213  1  0.265600  0.000000  0.802000  1.0  0.0119
  C  C214  1  0.242800  0.000000  0.130600  1.0  0.0192
  C  C215  1  0.734400  0.000000  0.802000  1.0  0.0127
  C  C216  1  0.757200  0.000000  0.130600  1.0  0.0196
  C  C217  1  0.000000  0.642000  0.830000  1.0  -0.0395
  C  C218  1  0.000000  0.624500  0.511000  1.0  -0.0363
  C  C219  1  0.000000  0.358000  0.830000  1.0  -0.039
  C  C220  1  0.000000  0.375500  0.511000  1.0  -0.0373
  C  C221  1  0.500000  0.142000  0.170000  1.0  -0.0395
  C  C222  1  0.500000  0.124500  0.489000  1.0  -0.0373
  C  C223  1  0.500000  0.858000  0.170000  1.0  -0.0391
  C  C224  1  0.500000  0.875500  0.489000  1.0  -0.0379
  C  C225  1  0.500000  0.714300  0.837000  1.0  0.0444
  C  C226  1  0.500000  0.783800  0.728000  1.0  -0.0528
  C  C227  1  0.500000  0.635200  0.235000  1.0  -0.007
  C  C228  1  0.500000  0.619600  0.563700  1.0  0.0204
  C  C229  1  0.500000  0.285700  0.837000  1.0  0.044
  C  C230  1  0.500000  0.216200  0.728000  1.0  -0.0531
  C  C231  1  0.500000  0.364800  0.235000  1.0  -0.0069
  C  C232  1  0.500000  0.380400  0.563700  1.0  0.0204
  C  C233  1  0.000000  0.214300  0.163000  1.0  0.0447
  C  C234  1  0.000000  0.283800  0.272000  1.0  -0.0527
  C  C235  1  0.000000  0.135200  0.765000  1.0  -0.0058
  C  C236  1  0.000000  0.119600  0.436300  1.0  0.0208
  C  C237  1  0.000000  0.785700  0.163000  1.0  0.0439
  C  C238  1  0.000000  0.716200  0.272000  1.0  -0.0532
  C  C239  1  0.000000  0.864800  0.765000  1.0  -0.0058
  C  C240  1  0.000000  0.880400  0.436300  1.0  0.0211
  O  O241  1  0.247100  0.566400  0.357100  1.0  -0.6299
  O  O242  1  0.238700  0.649100  0.363700  1.0  -0.8342
  O  O243  1  0.264700  0.647600  0.705600  1.0  -0.777
  O  O244  1  0.245100  0.566400  0.713400  1.0  -0.6219
  O  O245  1  0.251300  0.665100  0.032100  1.0  -0.8279
  O  O246  1  0.110900  0.629000  0.346100  1.0  -0.6062
  O  O247  1  0.154200  0.610200  0.573100  1.0  -0.5773
  O  O248  1  0.383200  0.623700  0.089400  1.0  -0.5955
  O  O249  1  0.117400  0.630300  0.977200  1.0  -0.597
  O  O250  1  0.199200  0.589000  0.141000  1.0  -0.6117
  O  O251  1  0.296000  0.587600  0.928100  1.0  -0.6084
  O  O252  1  0.389300  0.622900  0.720300  1.0  -0.6114
  O  O253  1  0.344600  0.605400  0.493000  1.0  -0.5981
  O  O254  1  0.368200  0.805300  0.834500  1.0  -0.5634
  O  O255  1  0.385600  0.686800  0.907100  1.0  -0.5647
  O  O256  1  0.144100  0.670700  0.792000  1.0  -0.4993
  O  O257  1  0.341700  0.722900  0.746000  1.0  -0.4715
  O  O258  1  0.373500  0.793000  0.572000  1.0  -0.5187
  O  O259  1  0.356100  0.664400  0.270400  1.0  -0.5437
  O  O260  1  0.752900  0.433600  0.357100  1.0  -0.6298
  O  O261  1  0.761300  0.350900  0.363700  1.0  -0.8387
  O  O262  1  0.735300  0.352400  0.705600  1.0  -0.7805
  O  O263  1  0.754900  0.433600  0.713400  1.0  -0.6225
  O  O264  1  0.748700  0.334900  0.032100  1.0  -0.8306
  O  O265  1  0.889100  0.371000  0.346100  1.0  -0.605
  O  O266  1  0.845800  0.389800  0.573100  1.0  -0.5782
  O  O267  1  0.616800  0.376300  0.089400  1.0  -0.5965
  O  O268  1  0.882600  0.369700  0.977200  1.0  -0.5958
  O  O269  1  0.800800  0.411000  0.141000  1.0  -0.6109
  O  O270  1  0.704000  0.412400  0.928100  1.0  -0.6085
  O  O271  1  0.610700  0.377100  0.720300  1.0  -0.613
  O  O272  1  0.655400  0.394600  0.493000  1.0  -0.5979
  O  O273  1  0.631800  0.194700  0.834500  1.0  -0.5634
  O  O274  1  0.614400  0.313200  0.907100  1.0  -0.5644
  O  O275  1  0.855900  0.329300  0.792000  1.0  -0.498
  O  O276  1  0.658300  0.277100  0.746000  1.0  -0.4713
  O  O277  1  0.626500  0.207000  0.572000  1.0  -0.5186
  O  O278  1  0.643900  0.335600  0.270400  1.0  -0.5403
  O  O279  1  0.252900  0.066400  0.642900  1.0  -0.6303
  O  O280  1  0.261300  0.149100  0.636300  1.0  -0.8342
  O  O281  1  0.235300  0.147600  0.294400  1.0  -0.7778
  O  O282  1  0.254900  0.066400  0.286600  1.0  -0.6204
  O  O283  1  0.248700  0.165100  0.967900  1.0  -0.8279
  O  O284  1  0.389100  0.129000  0.653900  1.0  -0.6052
  O  O285  1  0.345800  0.110200  0.426900  1.0  -0.5781
  O  O286  1  0.116800  0.123700  0.910600  1.0  -0.5957
  O  O287  1  0.382600  0.130300  0.022800  1.0  -0.5967
  O  O288  1  0.300800  0.089000  0.859000  1.0  -0.6113
  O  O289  1  0.204000  0.087600  0.071900  1.0  -0.6088
  O  O290  1  0.110700  0.122900  0.279700  1.0  -0.6119
  O  O291  1  0.155400  0.105400  0.507000  1.0  -0.5978
  O  O292  1  0.131800  0.305300  0.165500  1.0  -0.5637
  O  O293  1  0.114400  0.186800  0.092900  1.0  -0.565
  O  O294  1  0.355900  0.170700  0.208000  1.0  -0.5001
  O  O295  1  0.158300  0.222900  0.254000  1.0  -0.4714
  O  O296  1  0.126500  0.293000  0.428000  1.0  -0.5215
  O  O297  1  0.143900  0.164400  0.729600  1.0  -0.5439
  O  O298  1  0.747100  0.933600  0.642900  1.0  -0.631
  O  O299  1  0.738700  0.850900  0.636300  1.0  -0.8383
  O  O300  1  0.764700  0.852400  0.294400  1.0  -0.78
  O  O301  1  0.745100  0.933600  0.286600  1.0  -0.6206
  O  O302  1  0.751300  0.834900  0.967900  1.0  -0.8301
  O  O303  1  0.610900  0.871000  0.653900  1.0  -0.6052
  O  O304  1  0.654200  0.889800  0.426900  1.0  -0.5777
  O  O305  1  0.883200  0.876300  0.910600  1.0  -0.596
  O  O306  1  0.617400  0.869700  0.022800  1.0  -0.597
  O  O307  1  0.699200  0.911000  0.859000  1.0  -0.6116
  O  O308  1  0.796000  0.912400  0.071900  1.0  -0.6084
  O  O309  1  0.889300  0.877100  0.279700  1.0  -0.6121
  O  O310  1  0.844600  0.894600  0.507000  1.0  -0.599
  O  O311  1  0.868200  0.694700  0.165500  1.0  -0.5635
  O  O312  1  0.885600  0.813200  0.092900  1.0  -0.5652
  O  O313  1  0.644100  0.829300  0.208000  1.0  -0.4981
  O  O314  1  0.841700  0.777100  0.254000  1.0  -0.4705
  O  O315  1  0.873500  0.707000  0.428000  1.0  -0.5211
  O  O316  1  0.856100  0.835600  0.729600  1.0  -0.5416
  O  O317  1  0.252900  0.933600  0.642900  1.0  -0.6303
  O  O318  1  0.261300  0.850900  0.636300  1.0  -0.8387
  O  O319  1  0.235300  0.852400  0.294400  1.0  -0.7806
  O  O320  1  0.254900  0.933600  0.286600  1.0  -0.6206
  O  O321  1  0.248700  0.834900  0.967900  1.0  -0.8303
  O  O322  1  0.389100  0.871000  0.653900  1.0  -0.605
  O  O323  1  0.345800  0.889800  0.426900  1.0  -0.5775
  O  O324  1  0.116800  0.876300  0.910600  1.0  -0.5961
  O  O325  1  0.382600  0.869700  0.022800  1.0  -0.5957
  O  O326  1  0.300800  0.911000  0.859000  1.0  -0.6114
  O  O327  1  0.204000  0.912400  0.071900  1.0  -0.6086
  O  O328  1  0.110700  0.877100  0.279700  1.0  -0.6121
  O  O329  1  0.155400  0.894600  0.507000  1.0  -0.5982
  O  O330  1  0.131800  0.694700  0.165500  1.0  -0.5636
  O  O331  1  0.114400  0.813200  0.092900  1.0  -0.5649
  O  O332  1  0.355900  0.829300  0.208000  1.0  -0.4986
  O  O333  1  0.158300  0.777100  0.254000  1.0  -0.4711
  O  O334  1  0.126500  0.707000  0.428000  1.0  -0.5199
  O  O335  1  0.143900  0.835600  0.729600  1.0  -0.5409
  O  O336  1  0.747100  0.066400  0.642900  1.0  -0.6306
  O  O337  1  0.738700  0.149100  0.636300  1.0  -0.8342
  O  O338  1  0.764700  0.147600  0.294400  1.0  -0.7772
  O  O339  1  0.745100  0.066400  0.286600  1.0  -0.6205
  O  O340  1  0.751300  0.165100  0.967900  1.0  -0.8277
  O  O341  1  0.610900  0.129000  0.653900  1.0  -0.6052
  O  O342  1  0.654200  0.110200  0.426900  1.0  -0.5776
  O  O343  1  0.883200  0.123700  0.910600  1.0  -0.596
  O  O344  1  0.617400  0.130300  0.022800  1.0  -0.597
  O  O345  1  0.699200  0.089000  0.859000  1.0  -0.6115
  O  O346  1  0.796000  0.087600  0.071900  1.0  -0.6085
  O  O347  1  0.889300  0.122900  0.279700  1.0  -0.6119
  O  O348  1  0.844600  0.105400  0.507000  1.0  -0.5987
  O  O349  1  0.868200  0.305300  0.165500  1.0  -0.5637
  O  O350  1  0.885600  0.186800  0.092900  1.0  -0.5652
  O  O351  1  0.644100  0.170700  0.208000  1.0  -0.5001
  O  O352  1  0.841700  0.222900  0.254000  1.0  -0.4711
  O  O353  1  0.873500  0.293000  0.428000  1.0  -0.5226
  O  O354  1  0.856100  0.164400  0.729600  1.0  -0.544
  O  O355  1  0.247100  0.433600  0.357100  1.0  -0.6302
  O  O356  1  0.238700  0.350900  0.363700  1.0  -0.8383
  O  O357  1  0.264700  0.352400  0.705600  1.0  -0.7798
  O  O358  1  0.245100  0.433600  0.713400  1.0  -0.6225
  O  O359  1  0.251300  0.334900  0.032100  1.0  -0.8304
  O  O360  1  0.110900  0.371000  0.346100  1.0  -0.6056
  O  O361  1  0.154200  0.389800  0.573100  1.0  -0.5779
  O  O362  1  0.383200  0.376300  0.089400  1.0  -0.5962
  O  O363  1  0.117400  0.369700  0.977200  1.0  -0.5963
  O  O364  1  0.199200  0.411000  0.141000  1.0  -0.6116
  O  O365  1  0.296000  0.412400  0.928100  1.0  -0.6087
  O  O366  1  0.389300  0.377100  0.720300  1.0  -0.6124
  O  O367  1  0.344600  0.394600  0.493000  1.0  -0.598
  O  O368  1  0.368200  0.194700  0.834500  1.0  -0.5635
  O  O369  1  0.385600  0.313200  0.907100  1.0  -0.5648
  O  O370  1  0.144100  0.329300  0.792000  1.0  -0.4977
  O  O371  1  0.341700  0.277100  0.746000  1.0  -0.4716
  O  O372  1  0.373500  0.207000  0.572000  1.0  -0.5193
  O  O373  1  0.356100  0.335600  0.270400  1.0  -0.541
  O  O374  1  0.752900  0.566400  0.357100  1.0  -0.6298
  O  O375  1  0.761300  0.649100  0.363700  1.0  -0.8342
  O  O376  1  0.735300  0.647600  0.705600  1.0  -0.7777
  O  O377  1  0.754900  0.566400  0.713400  1.0  -0.6215
  O  O378  1  0.748700  0.665100  0.032100  1.0  -0.8281
  O  O379  1  0.889100  0.629000  0.346100  1.0  -0.6057
  O  O380  1  0.845800  0.610200  0.573100  1.0  -0.5782
  O  O381  1  0.616800  0.623700  0.089400  1.0  -0.5952
  O  O382  1  0.882600  0.630300  0.977200  1.0  -0.5963
  O  O383  1  0.800800  0.589000  0.141000  1.0  -0.6111
  O  O384  1  0.704000  0.587600  0.928100  1.0  -0.6085
  O  O385  1  0.610700  0.622900  0.720300  1.0  -0.612
  O  O386  1  0.655400  0.605400  0.493000  1.0  -0.5976
  O  O387  1  0.631800  0.805300  0.834500  1.0  -0.5631
  O  O388  1  0.614400  0.686800  0.907100  1.0  -0.5644
  O  O389  1  0.855900  0.670700  0.792000  1.0  -0.4992
  O  O390  1  0.658300  0.722900  0.746000  1.0  -0.471
  O  O391  1  0.626500  0.793000  0.572000  1.0  -0.5184
  O  O392  1  0.643900  0.664400  0.270400  1.0  -0.5436
