# generated using pymatgen
data_ZnH13C16(NO2)2
_symmetry_space_group_name_H-M   'P 1'
_cell_length_a   12.03400000
_cell_length_b   19.80300000
_cell_length_c   16.38900000
_cell_angle_alpha   90.00000000
_cell_angle_beta   90.00000000
_cell_angle_gamma   90.00000000
_symmetry_Int_Tables_number   1
_chemical_formula_structural   ZnH13C16(NO2)2
_chemical_formula_sum   'Zn8 H104 C128 N16 O32'
_cell_volume   3905.65115048
_cell_formula_units_Z   8
loop_
 _symmetry_equiv_pos_site_id
 _symmetry_equiv_pos_as_xyz
  1  'x, y, z'
loop_
 _atom_site_type_symbol
 _atom_site_label
 _atom_site_symmetry_multiplicity
 _atom_site_fract_x
 _atom_site_fract_y
 _atom_site_fract_z
 _atom_site_occupancy
 _atom_site_charge
  Zn  Zn1  1  0.582780  0.331640  0.969410  1.0  0.8428
  Zn  Zn2  1  0.917220  0.168360  0.969410  1.0  0.8425
  Zn  Zn3  1  0.082780  0.668360  0.530590  1.0  0.8422
  Zn  Zn4  1  0.417220  0.831640  0.530590  1.0  0.8431
  Zn  Zn5  1  0.417220  0.668360  0.030590  1.0  0.8426
  Zn  Zn6  1  0.082780  0.831640  0.030590  1.0  0.8428
  Zn  Zn7  1  0.917220  0.331640  0.469410  1.0  0.8431
  Zn  Zn8  1  0.582780  0.168360  0.469410  1.0  0.8422
  H  H9  1  0.373700  0.326100  0.872800  1.0  0.0918
  H  H10  1  0.209300  0.386400  0.856000  1.0  0.107
  H  H11  1  0.303300  0.514100  0.032500  1.0  0.0983
  H  H12  1  0.465600  0.452800  0.050600  1.0  0.0969
  H  H13  1  0.124100  0.494500  0.876400  1.0  0.113
  H  H14  1  0.151500  0.536800  0.953300  1.0  0.1613
  H  H15  1  0.977800  0.487600  0.922300  1.0  0.089
  H  H16  1  0.905000  0.402500  0.868700  1.0  0.1159
  H  H17  1  0.864300  0.287800  0.872800  1.0  0.0922
  H  H18  1  0.100000  0.382000  0.068200  1.0  0.1299
  H  H19  1  0.058900  0.266900  0.070300  1.0  0.0965
  H  H20  1  0.801100  0.358100  0.738100  1.0  0.1008
  H  H21  1  0.603500  0.350900  0.644800  1.0  0.097
  H  H22  1  0.126300  0.173900  0.872800  1.0  0.0918
  H  H23  1  0.290700  0.113600  0.856000  1.0  0.1073
  H  H24  1  0.196700  0.985900  0.032500  1.0  0.0992
  H  H25  1  0.034400  0.047200  0.050600  1.0  0.0967
  H  H26  1  0.375900  0.005500  0.876400  1.0  0.1135
  H  H27  1  0.348500  0.963200  0.953300  1.0  0.1624
  H  H28  1  0.522200  0.012400  0.922300  1.0  0.0898
  H  H29  1  0.595000  0.097500  0.868700  1.0  0.1161
  H  H30  1  0.635700  0.212200  0.872800  1.0  0.0922
  H  H31  1  0.400000  0.118000  0.068200  1.0  0.1315
  H  H32  1  0.441100  0.233100  0.070300  1.0  0.0972
  H  H33  1  0.698900  0.141900  0.738100  1.0  0.1023
  H  H34  1  0.896500  0.149100  0.644800  1.0  0.0966
  H  H35  1  0.873700  0.673900  0.627200  1.0  0.0916
  H  H36  1  0.709300  0.613600  0.644000  1.0  0.1063
  H  H37  1  0.803300  0.485900  0.467500  1.0  0.0984
  H  H38  1  0.965600  0.547200  0.449400  1.0  0.0971
  H  H39  1  0.624100  0.505500  0.623600  1.0  0.1165
  H  H40  1  0.651500  0.463200  0.546700  1.0  0.1638
  H  H41  1  0.477800  0.512400  0.577700  1.0  0.0875
  H  H42  1  0.405000  0.597500  0.631300  1.0  0.1161
  H  H43  1  0.364300  0.712200  0.627200  1.0  0.0923
  H  H44  1  0.600000  0.618000  0.431800  1.0  0.1306
  H  H45  1  0.558900  0.733100  0.429700  1.0  0.097
  H  H46  1  0.301100  0.641900  0.761900  1.0  0.1012
  H  H47  1  0.103500  0.649100  0.855200  1.0  0.0969
  H  H48  1  0.626300  0.826100  0.627200  1.0  0.0918
  H  H49  1  0.790700  0.886400  0.644000  1.0  0.1065
  H  H50  1  0.696700  0.014100  0.467500  1.0  0.0988
  H  H51  1  0.534400  0.952800  0.449400  1.0  0.0966
  H  H52  1  0.875900  0.994500  0.623600  1.0  0.1174
  H  H53  1  0.848500  0.036800  0.546700  1.0  0.1614
  H  H54  1  0.022200  0.987600  0.577700  1.0  0.0885
  H  H55  1  0.095000  0.902500  0.631300  1.0  0.1162
  H  H56  1  0.135700  0.787800  0.627200  1.0  0.0926
  H  H57  1  0.900000  0.882000  0.431800  1.0  0.1298
  H  H58  1  0.941100  0.766900  0.429700  1.0  0.0959
  H  H59  1  0.198900  0.858100  0.761900  1.0  0.1023
  H  H60  1  0.396500  0.850900  0.855200  1.0  0.0968
  H  H61  1  0.626300  0.673900  0.127200  1.0  0.0914
  H  H62  1  0.790700  0.613600  0.144000  1.0  0.1061
  H  H63  1  0.696700  0.485900  0.967500  1.0  0.0986
  H  H64  1  0.534400  0.547200  0.949400  1.0  0.0968
  H  H65  1  0.875900  0.505500  0.123600  1.0  0.1172
  H  H66  1  0.848500  0.463200  0.046700  1.0  0.1631
  H  H67  1  0.022200  0.512400  0.077700  1.0  0.0899
  H  H68  1  0.095000  0.597500  0.131300  1.0  0.1162
  H  H69  1  0.135700  0.712200  0.127200  1.0  0.0922
  H  H70  1  0.900000  0.618000  0.931800  1.0  0.1305
  H  H71  1  0.941100  0.733100  0.929700  1.0  0.0964
  H  H72  1  0.198900  0.641900  0.261900  1.0  0.1024
  H  H73  1  0.396500  0.649100  0.355200  1.0  0.0967
  H  H74  1  0.873700  0.826100  0.127200  1.0  0.092
  H  H75  1  0.709300  0.886400  0.144000  1.0  0.1062
  H  H76  1  0.803300  0.014100  0.967500  1.0  0.0985
  H  H77  1  0.965600  0.952800  0.949400  1.0  0.0968
  H  H78  1  0.624100  0.994500  0.123600  1.0  0.1169
  H  H79  1  0.651500  0.036800  0.046700  1.0  0.1612
  H  H80  1  0.477800  0.987600  0.077700  1.0  0.0871
  H  H81  1  0.405000  0.902500  0.131300  1.0  0.1161
  H  H82  1  0.364300  0.787800  0.127200  1.0  0.0926
  H  H83  1  0.600000  0.882000  0.931800  1.0  0.1302
  H  H84  1  0.558900  0.766900  0.929700  1.0  0.0966
  H  H85  1  0.301100  0.858100  0.261900  1.0  0.1009
  H  H86  1  0.103500  0.850900  0.355200  1.0  0.0973
  H  H87  1  0.126300  0.326100  0.372800  1.0  0.0917
  H  H88  1  0.290700  0.386400  0.356000  1.0  0.1071
  H  H89  1  0.196700  0.514100  0.532500  1.0  0.0988
  H  H90  1  0.034400  0.452800  0.550600  1.0  0.0966
  H  H91  1  0.375900  0.494500  0.376400  1.0  0.1141
  H  H92  1  0.348500  0.536800  0.453300  1.0  0.1613
  H  H93  1  0.522200  0.487600  0.422300  1.0  0.0901
  H  H94  1  0.595000  0.402500  0.368700  1.0  0.1158
  H  H95  1  0.635700  0.287800  0.372800  1.0  0.0921
  H  H96  1  0.400000  0.382000  0.568200  1.0  0.1305
  H  H97  1  0.441100  0.266900  0.570300  1.0  0.097
  H  H98  1  0.698900  0.358100  0.238100  1.0  0.1023
  H  H99  1  0.896500  0.350900  0.144800  1.0  0.097
  H  H100  1  0.373700  0.173900  0.372800  1.0  0.092
  H  H101  1  0.209300  0.113600  0.356000  1.0  0.1075
  H  H102  1  0.303300  0.985900  0.532500  1.0  0.0988
  H  H103  1  0.465600  0.047200  0.550600  1.0  0.097
  H  H104  1  0.124100  0.005500  0.376400  1.0  0.1124
  H  H105  1  0.151500  0.963200  0.453300  1.0  0.1632
  H  H106  1  0.977800  0.012400  0.422300  1.0  0.088
  H  H107  1  0.905000  0.097500  0.368700  1.0  0.116
  H  H108  1  0.864300  0.212200  0.372800  1.0  0.0925
  H  H109  1  0.100000  0.118000  0.568200  1.0  0.1304
  H  H110  1  0.058900  0.233100  0.570300  1.0  0.0968
  H  H111  1  0.801100  0.141900  0.238100  1.0  0.101
  H  H112  1  0.603500  0.149100  0.144800  1.0  0.0968
  C  C113  1  0.359600  0.363880  0.904800  1.0  0.1422
  C  C114  1  0.260700  0.399900  0.895200  1.0  -0.1464
  C  C115  1  0.238700  0.455590  0.943700  1.0  0.0703
  C  C116  1  0.316600  0.476000  0.000800  1.0  -0.1942
  C  C117  1  0.414800  0.439700  0.010900  1.0  0.1353
  C  C118  1  0.135800  0.491200  0.934800  1.0  -0.2601
  C  C119  1  0.023200  0.474900  0.969500  1.0  0.0373
  C  C120  1  0.002500  0.403300  0.968800  1.0  0.1123
  C  C121  1  0.934800  0.375400  0.909600  1.0  -0.1219
  C  C122  1  0.911400  0.306800  0.911500  1.0  0.1169
  C  C123  1  0.052500  0.363200  0.029700  1.0  -0.1996
  C  C124  1  0.028200  0.294300  0.030200  1.0  0.1229
  C  C125  1  0.655100  0.368300  0.799400  1.0  0.657
  C  C126  1  0.724500  0.360400  0.731000  1.0  -0.1172
  C  C127  1  0.679800  0.355900  0.651700  1.0  -0.1182
  C  C128  1  0.747600  0.358900  0.584800  1.0  0.5477
  C  C129  1  0.140400  0.136120  0.904800  1.0  0.1439
  C  C130  1  0.239300  0.100100  0.895200  1.0  -0.1445
  C  C131  1  0.261300  0.044410  0.943700  1.0  0.0709
  C  C132  1  0.183400  0.024000  0.000800  1.0  -0.1952
  C  C133  1  0.085200  0.060300  0.010900  1.0  0.1342
  C  C134  1  0.364200  0.008800  0.934800  1.0  -0.2599
  C  C135  1  0.476800  0.025100  0.969500  1.0  0.0372
  C  C136  1  0.497500  0.096700  0.968800  1.0  0.111
  C  C137  1  0.565200  0.124600  0.909600  1.0  -0.1227
  C  C138  1  0.588600  0.193200  0.911500  1.0  0.119
  C  C139  1  0.447500  0.136800  0.029700  1.0  -0.2013
  C  C140  1  0.471800  0.205700  0.030200  1.0  0.1205
  C  C141  1  0.844900  0.131700  0.799400  1.0  0.6588
  C  C142  1  0.775500  0.139600  0.731000  1.0  -0.1183
  C  C143  1  0.820200  0.144100  0.651700  1.0  -0.1195
  C  C144  1  0.752400  0.141100  0.584800  1.0  0.5465
  C  C145  1  0.859600  0.636120  0.595200  1.0  0.144
  C  C146  1  0.760700  0.600100  0.604800  1.0  -0.148
  C  C147  1  0.738700  0.544410  0.556300  1.0  0.072
  C  C148  1  0.816600  0.524000  0.499200  1.0  -0.1939
  C  C149  1  0.914800  0.560300  0.489100  1.0  0.1355
  C  C150  1  0.635800  0.508800  0.565200  1.0  -0.2603
  C  C151  1  0.523200  0.525100  0.530500  1.0  0.0376
  C  C152  1  0.502500  0.596700  0.531200  1.0  0.1124
  C  C153  1  0.434800  0.624600  0.590400  1.0  -0.1234
  C  C154  1  0.411400  0.693200  0.588500  1.0  0.1165
  C  C155  1  0.552500  0.636800  0.470300  1.0  -0.1991
  C  C156  1  0.528200  0.705700  0.469800  1.0  0.1226
  C  C157  1  0.155100  0.631700  0.700600  1.0  0.6574
  C  C158  1  0.224500  0.639600  0.769000  1.0  -0.1177
  C  C159  1  0.179800  0.644100  0.848300  1.0  -0.1195
  C  C160  1  0.247600  0.641100  0.915200  1.0  0.5484
  C  C161  1  0.640400  0.863880  0.595200  1.0  0.1434
  C  C162  1  0.739300  0.899900  0.604800  1.0  -0.1515
  C  C163  1  0.761300  0.955590  0.556300  1.0  0.0711
  C  C164  1  0.683400  0.976000  0.499200  1.0  -0.1956
  C  C165  1  0.585200  0.939700  0.489100  1.0  0.1358
  C  C166  1  0.864200  0.991200  0.565200  1.0  -0.2574
  C  C167  1  0.976800  0.974900  0.530500  1.0  0.0362
  C  C168  1  0.997500  0.903300  0.531200  1.0  0.1112
  C  C169  1  0.065200  0.875400  0.590400  1.0  -0.1231
  C  C170  1  0.088600  0.806800  0.588500  1.0  0.117
  C  C171  1  0.947500  0.863200  0.470300  1.0  -0.2007
  C  C172  1  0.971800  0.794300  0.469800  1.0  0.1203
  C  C173  1  0.344900  0.868300  0.700600  1.0  0.6576
  C  C174  1  0.275500  0.860400  0.769000  1.0  -0.1188
  C  C175  1  0.320200  0.855900  0.848300  1.0  -0.1197
  C  C176  1  0.252400  0.858900  0.915200  1.0  0.5469
  C  C177  1  0.640400  0.636120  0.095200  1.0  0.1436
  C  C178  1  0.739300  0.600100  0.104800  1.0  -0.1493
  C  C179  1  0.761300  0.544410  0.056300  1.0  0.0718
  C  C180  1  0.683400  0.524000  0.999200  1.0  -0.1948
  C  C181  1  0.585200  0.560300  0.989100  1.0  0.1359
  C  C182  1  0.864200  0.508800  0.065200  1.0  -0.2594
  C  C183  1  0.976800  0.525100  0.030500  1.0  0.0373
  C  C184  1  0.997500  0.596700  0.031200  1.0  0.111
  C  C185  1  0.065200  0.624600  0.090400  1.0  -0.1241
  C  C186  1  0.088600  0.693200  0.088500  1.0  0.117
  C  C187  1  0.947500  0.636800  0.970300  1.0  -0.2004
  C  C188  1  0.971800  0.705700  0.969800  1.0  0.1206
  C  C189  1  0.344900  0.631700  0.200600  1.0  0.6581
  C  C190  1  0.275500  0.639600  0.269000  1.0  -0.1187
  C  C191  1  0.320200  0.644100  0.348300  1.0  -0.1194
  C  C192  1  0.252400  0.641100  0.415200  1.0  0.5467
  C  C193  1  0.859600  0.863880  0.095200  1.0  0.1435
  C  C194  1  0.760700  0.899900  0.104800  1.0  -0.1493
  C  C195  1  0.738700  0.955590  0.056300  1.0  0.0715
  C  C196  1  0.816600  0.976000  0.999200  1.0  -0.1951
  C  C197  1  0.914800  0.939700  0.989100  1.0  0.1349
  C  C198  1  0.635800  0.991200  0.065200  1.0  -0.2578
  C  C199  1  0.523200  0.974900  0.030500  1.0  0.0366
  C  C200  1  0.502500  0.903300  0.031200  1.0  0.1124
  C  C201  1  0.434800  0.875400  0.090400  1.0  -0.1225
  C  C202  1  0.411400  0.806800  0.088500  1.0  0.1167
  C  C203  1  0.552500  0.863200  0.970300  1.0  -0.1996
  C  C204  1  0.528200  0.794300  0.969800  1.0  0.1221
  C  C205  1  0.155100  0.868300  0.200600  1.0  0.6571
  C  C206  1  0.224500  0.860400  0.269000  1.0  -0.1178
  C  C207  1  0.179800  0.855900  0.348300  1.0  -0.1192
  C  C208  1  0.247600  0.858900  0.415200  1.0  0.548
  C  C209  1  0.140400  0.363880  0.404800  1.0  0.1427
  C  C210  1  0.239300  0.399900  0.395200  1.0  -0.1478
  C  C211  1  0.261300  0.455590  0.443700  1.0  0.0693
  C  C212  1  0.183400  0.476000  0.500800  1.0  -0.1949
  C  C213  1  0.085200  0.439700  0.510900  1.0  0.1353
  C  C214  1  0.364200  0.491200  0.434800  1.0  -0.2599
  C  C215  1  0.476800  0.474900  0.469500  1.0  0.0369
  C  C216  1  0.497500  0.403300  0.468800  1.0  0.111
  C  C217  1  0.565200  0.375400  0.409600  1.0  -0.1226
  C  C218  1  0.588600  0.306800  0.411500  1.0  0.1176
  C  C219  1  0.447500  0.363200  0.529700  1.0  -0.2014
  C  C220  1  0.471800  0.294300  0.530200  1.0  0.122
  C  C221  1  0.844900  0.368300  0.299400  1.0  0.6577
  C  C222  1  0.775500  0.360400  0.231000  1.0  -0.1184
  C  C223  1  0.820200  0.355900  0.151700  1.0  -0.1193
  C  C224  1  0.752400  0.358900  0.084800  1.0  0.5463
  C  C225  1  0.359600  0.136120  0.404800  1.0  0.1438
  C  C226  1  0.260700  0.100100  0.395200  1.0  -0.1444
  C  C227  1  0.238700  0.044410  0.443700  1.0  0.0716
  C  C228  1  0.316600  0.024000  0.500800  1.0  -0.1945
  C  C229  1  0.414800  0.060300  0.510900  1.0  0.1348
  C  C230  1  0.135800  0.008800  0.434800  1.0  -0.2603
  C  C231  1  0.023200  0.025100  0.469500  1.0  0.0373
  C  C232  1  0.002500  0.096700  0.468800  1.0  0.1124
  C  C233  1  0.934800  0.124600  0.409600  1.0  -0.1222
  C  C234  1  0.911400  0.193200  0.411500  1.0  0.1177
  C  C235  1  0.052500  0.136800  0.529700  1.0  -0.1992
  C  C236  1  0.028200  0.205700  0.530200  1.0  0.1218
  C  C237  1  0.655100  0.131700  0.299400  1.0  0.6576
  C  C238  1  0.724500  0.139600  0.231000  1.0  -0.117
  C  C239  1  0.679800  0.144100  0.151700  1.0  -0.119
  C  C240  1  0.747600  0.141100  0.084800  1.0  0.5484
  N  N241  1  0.437200  0.384840  0.962550  1.0  -0.3474
  N  N242  1  0.959400  0.266500  0.972200  1.0  -0.3213
  N  N243  1  0.062800  0.115160  0.962550  1.0  -0.3475
  N  N244  1  0.540600  0.233500  0.972200  1.0  -0.3229
  N  N245  1  0.937200  0.615160  0.537450  1.0  -0.348
  N  N246  1  0.459400  0.733500  0.527800  1.0  -0.3224
  N  N247  1  0.562800  0.884840  0.537450  1.0  -0.3477
  N  N248  1  0.040600  0.766500  0.527800  1.0  -0.3225
  N  N249  1  0.562800  0.615160  0.037450  1.0  -0.3476
  N  N250  1  0.040600  0.733500  0.027800  1.0  -0.3229
  N  N251  1  0.937200  0.884840  0.037450  1.0  -0.3476
  N  N252  1  0.459400  0.766500  0.027800  1.0  -0.3214
  N  N253  1  0.062800  0.384840  0.462550  1.0  -0.3474
  N  N254  1  0.540600  0.266500  0.472200  1.0  -0.3224
  N  N255  1  0.437200  0.115160  0.462550  1.0  -0.3478
  N  N256  1  0.959400  0.233500  0.472200  1.0  -0.3223
  O  O257  1  0.675500  0.339560  0.861160  1.0  -0.5899
  O  O258  1  0.571700  0.408800  0.794690  1.0  -0.536
  O  O259  1  0.713000  0.384210  0.520570  1.0  -0.6128
  O  O260  1  0.844600  0.344170  0.586020  1.0  -0.6077
  O  O261  1  0.824500  0.160440  0.861160  1.0  -0.5905
  O  O262  1  0.928300  0.091200  0.794690  1.0  -0.5353
  O  O263  1  0.787000  0.115790  0.520570  1.0  -0.6132
  O  O264  1  0.655400  0.155830  0.586020  1.0  -0.6081
  O  O265  1  0.175500  0.660440  0.638840  1.0  -0.5897
  O  O266  1  0.071700  0.591200  0.705310  1.0  -0.5339
  O  O267  1  0.213000  0.615790  0.979430  1.0  -0.6137
  O  O268  1  0.344600  0.655830  0.913980  1.0  -0.6081
  O  O269  1  0.324500  0.839560  0.638840  1.0  -0.5896
  O  O270  1  0.428300  0.908800  0.705310  1.0  -0.5361
  O  O271  1  0.287000  0.884210  0.979430  1.0  -0.6144
  O  O272  1  0.155400  0.844170  0.913980  1.0  -0.6098
  O  O273  1  0.324500  0.660440  0.138840  1.0  -0.5898
  O  O274  1  0.428300  0.591200  0.205310  1.0  -0.5352
  O  O275  1  0.287000  0.615790  0.479430  1.0  -0.6146
  O  O276  1  0.155400  0.655830  0.413980  1.0  -0.6099
  O  O277  1  0.175500  0.839560  0.138840  1.0  -0.5895
  O  O278  1  0.071700  0.908800  0.205310  1.0  -0.536
  O  O279  1  0.213000  0.884210  0.479430  1.0  -0.6131
  O  O280  1  0.344600  0.844170  0.413980  1.0  -0.6082
  O  O281  1  0.824500  0.339560  0.361160  1.0  -0.5904
  O  O282  1  0.928300  0.408800  0.294690  1.0  -0.5361
  O  O283  1  0.787000  0.384210  0.020570  1.0  -0.6135
  O  O284  1  0.655400  0.344170  0.086020  1.0  -0.6078
  O  O285  1  0.675500  0.160440  0.361160  1.0  -0.5901
  O  O286  1  0.571700  0.091200  0.294690  1.0  -0.5343
  O  O287  1  0.713000  0.115790  0.020570  1.0  -0.613
  O  O288  1  0.844600  0.155830  0.086020  1.0  -0.6081
