# generated using pymatgen
data_Ag2H9C33(N3O)3
_symmetry_space_group_name_H-M   'P 1'
_cell_length_a   33.46300000
_cell_length_b   18.87400000
_cell_length_c   20.33500000
_cell_angle_alpha   90.00000000
_cell_angle_beta   92.33300000
_cell_angle_gamma   90.00000000
_symmetry_Int_Tables_number   1
_chemical_formula_structural   Ag2H9C33(N3O)3
_chemical_formula_sum   'Ag16 H72 C264 N72 O24'
_cell_volume   12832.54723363
_cell_formula_units_Z   8
loop_
 _symmetry_equiv_pos_site_id
 _symmetry_equiv_pos_as_xyz
  1  'x, y, z'
loop_
 _atom_site_type_symbol
 _atom_site_label
 _atom_site_symmetry_multiplicity
 _atom_site_fract_x
 _atom_site_fract_y
 _atom_site_fract_z
 _atom_site_occupancy
 _atom_site_charge
  Ag  Ag1  1  0.074080  0.879220  0.225280  1.0  0.4247
  Ag  Ag2  1  0.595800  0.633100  0.755400  1.0  0.4487
  Ag  Ag3  1  0.819580  0.865090  0.482270  1.0  0.4168
  Ag  Ag4  1  0.662920  0.171320  0.538280  1.0  0.4323
  Ag  Ag5  1  0.925920  0.379220  0.274720  1.0  0.425
  Ag  Ag6  1  0.404200  0.133100  0.744600  1.0  0.449
  Ag  Ag7  1  0.180420  0.365090  0.017730  1.0  0.4185
  Ag  Ag8  1  0.337080  0.671320  0.961720  1.0  0.4326
  Ag  Ag9  1  0.925920  0.120780  0.774720  1.0  0.4242
  Ag  Ag10  1  0.404200  0.366900  0.244600  1.0  0.449
  Ag  Ag11  1  0.180420  0.134910  0.517730  1.0  0.4193
  Ag  Ag12  1  0.337080  0.828680  0.461720  1.0  0.4318
  Ag  Ag13  1  0.074080  0.620780  0.725280  1.0  0.4251
  Ag  Ag14  1  0.595800  0.866900  0.255400  1.0  0.4484
  Ag  Ag15  1  0.819580  0.634910  0.982270  1.0  0.417
  Ag  Ag16  1  0.662920  0.328680  0.038280  1.0  0.4317
  H  H17  1  0.919600  0.155900  0.460600  1.0  0.1213
  H  H18  1  0.860700  0.341000  0.494100  1.0  0.1185
  H  H19  1  0.813100  0.196300  0.365100  1.0  0.1201
  H  H20  1  0.974600  0.118700  0.259500  1.0  0.1447
  H  H21  1  0.938700  0.923400  0.318500  1.0  0.1347
  H  H22  1  0.035600  0.284800  0.425300  1.0  0.137
  H  H23  1  0.035400  0.168900  0.593700  1.0  0.1174
  H  H24  1  0.774700  0.354100  0.209600  1.0  0.1355
  H  H25  1  0.687800  0.258400  0.309800  1.0  0.1395
  H  H26  1  0.689700  0.833300  0.684800  1.0  0.1327
  H  H27  1  0.584600  0.848500  0.579900  1.0  0.1102
  H  H28  1  0.663100  0.691300  0.541100  1.0  0.1223
  H  H29  1  0.783200  0.582300  0.499900  1.0  0.1372
  H  H30  1  0.707300  0.496900  0.629000  1.0  0.1244
  H  H31  1  0.537400  0.075100  0.672000  1.0  0.1325
  H  H32  1  0.507000  0.884300  0.745800  1.0  0.1318
  H  H33  1  0.476900  0.699500  0.579700  1.0  0.1412
  H  H34  1  0.483400  0.814500  0.411000  1.0  0.1354
  H  H35  1  0.080400  0.655900  0.039400  1.0  0.1206
  H  H36  1  0.139300  0.841000  0.005900  1.0  0.1183
  H  H37  1  0.186900  0.696300  0.134900  1.0  0.1209
  H  H38  1  0.025400  0.618700  0.240500  1.0  0.1449
  H  H39  1  0.061300  0.423400  0.181500  1.0  0.1354
  H  H40  1  0.964400  0.784800  0.074700  1.0  0.1365
  H  H41  1  0.964600  0.668900  0.906300  1.0  0.117
  H  H42  1  0.225300  0.854100  0.290400  1.0  0.1349
  H  H43  1  0.312200  0.758400  0.190200  1.0  0.1384
  H  H44  1  0.310300  0.333333  0.815200  1.0  0.1313
  H  H45  1  0.415400  0.348500  0.920100  1.0  0.1106
  H  H46  1  0.336900  0.191300  0.958900  1.0  0.1226
  H  H47  1  0.216800  0.082300  0.000100  1.0  0.1365
  H  H48  1  0.292700  0.996900  0.871000  1.0  0.124
  H  H49  1  0.462600  0.575100  0.828000  1.0  0.132
  H  H50  1  0.493000  0.384300  0.754200  1.0  0.1319
  H  H51  1  0.523100  0.199500  0.920300  1.0  0.14
  H  H52  1  0.516600  0.314500  0.089000  1.0  0.1359
  H  H53  1  0.080400  0.844100  0.539400  1.0  0.1207
  H  H54  1  0.139300  0.659000  0.505900  1.0  0.1184
  H  H55  1  0.186900  0.803700  0.634900  1.0  0.1212
  H  H56  1  0.025400  0.881300  0.740500  1.0  0.1447
  H  H57  1  0.061300  0.076600  0.681500  1.0  0.1347
  H  H58  1  0.964400  0.715200  0.574700  1.0  0.1365
  H  H59  1  0.964600  0.831100  0.406300  1.0  0.117
  H  H60  1  0.225300  0.645900  0.790400  1.0  0.1348
  H  H61  1  0.312200  0.741600  0.690200  1.0  0.1389
  H  H62  1  0.310300  0.166700  0.315200  1.0  0.131
  H  H63  1  0.415400  0.151500  0.420100  1.0  0.1109
  H  H64  1  0.336900  0.308700  0.458900  1.0  0.1229
  H  H65  1  0.216800  0.417700  0.500100  1.0  0.1363
  H  H66  1  0.292700  0.503100  0.371000  1.0  0.1245
  H  H67  1  0.462600  0.924900  0.328000  1.0  0.1317
  H  H68  1  0.493000  0.115700  0.254200  1.0  0.1326
  H  H69  1  0.523100  0.300500  0.420300  1.0  0.1407
  H  H70  1  0.516600  0.185500  0.589000  1.0  0.136
  H  H71  1  0.919600  0.344100  0.960600  1.0  0.1209
  H  H72  1  0.860700  0.159000  0.994100  1.0  0.1191
  H  H73  1  0.813100  0.303700  0.865100  1.0  0.1208
  H  H74  1  0.974600  0.381300  0.759500  1.0  0.1443
  H  H75  1  0.938700  0.576600  0.818500  1.0  0.1341
  H  H76  1  0.035600  0.215200  0.925300  1.0  0.1366
  H  H77  1  0.035400  0.331100  0.093700  1.0  0.1171
  H  H78  1  0.774700  0.145900  0.709600  1.0  0.1351
  H  H79  1  0.687800  0.241600  0.809800  1.0  0.1398
  H  H80  1  0.689700  0.666667  0.184800  1.0  0.1325
  H  H81  1  0.584600  0.651500  0.079900  1.0  0.1104
  H  H82  1  0.663100  0.808700  0.041100  1.0  0.1225
  H  H83  1  0.783200  0.917700  0.999900  1.0  0.137
  H  H84  1  0.707300  0.003100  0.129000  1.0  0.1237
  H  H85  1  0.537400  0.424900  0.172000  1.0  0.1322
  H  H86  1  0.507000  0.615700  0.245800  1.0  0.1319
  H  H87  1  0.476900  0.800500  0.079700  1.0  0.1416
  H  H88  1  0.483400  0.685500  0.911000  1.0  0.1354
  C  C89  1  0.865400  0.167200  0.412000  1.0  0.269
  C  C90  1  0.896800  0.185400  0.453500  1.0  -0.1131
  C  C91  1  0.892800  0.249800  0.484300  1.0  0.2142
  C  C92  1  0.861600  0.295900  0.473500  1.0  -0.1043
  C  C93  1  0.832100  0.272600  0.431200  1.0  0.2556
  C  C94  1  0.833300  0.209400  0.397000  1.0  -0.1437
  C  C95  1  0.897500  0.078100  0.347400  1.0  0.2878
  C  C96  1  0.923600  0.119600  0.312800  1.0  -0.0449
  C  C97  1  0.956500  0.089900  0.282600  1.0  -0.0985
  C  C98  1  0.962200  0.015700  0.287500  1.0  0.0071
  C  C99  1  0.935300  0.973400  0.317700  1.0  -0.0965
  C  C100  1  0.902500  0.004700  0.347600  1.0  0.1271
  C  C101  1  0.919200  0.194700  0.299200  1.0  0.3314
  C  C102  1  0.997400  0.985800  0.260400  1.0  0.36
  C  C103  1  0.874200  0.962400  0.378800  1.0  0.2004
  C  C104  1  0.961300  0.255100  0.522100  1.0  0.1556
  C  C105  1  0.982200  0.284200  0.469200  1.0  -0.1231
  C  C106  1  0.021900  0.267000  0.461900  1.0  -0.0794
  C  C107  1  0.041700  0.224000  0.507500  1.0  0.0542
  C  C108  1  0.021500  0.197400  0.561800  1.0  -0.0493
  C  C109  1  0.981900  0.212600  0.568900  1.0  -0.0072
  C  C110  1  0.962600  0.336700  0.426400  1.0  0.3601
  C  C111  1  0.083200  0.207900  0.499300  1.0  0.3373
  C  C112  1  0.959900  0.184900  0.623500  1.0  0.3472
  C  C113  1  0.776300  0.312900  0.365800  1.0  0.181
  C  C114  1  0.789400  0.339100  0.305500  1.0  -0.0329
  C  C115  1  0.765600  0.335400  0.249700  1.0  -0.1227
  C  C116  1  0.728200  0.304300  0.251800  1.0  -0.0088
  C  C117  1  0.713800  0.278600  0.309200  1.0  -0.1109
  C  C118  1  0.737800  0.282500  0.366800  1.0  -0.0659
  C  C119  1  0.828500  0.372300  0.303400  1.0  0.3775
  C  C120  1  0.703700  0.299700  0.191300  1.0  0.2919
  C  C121  1  0.723600  0.254300  0.427800  1.0  0.392
  C  C122  1  0.681500  0.760700  0.613200  1.0  0.2366
  C  C123  1  0.672500  0.817300  0.649500  1.0  -0.1529
  C  C124  1  0.637200  0.851100  0.632900  1.0  0.3037
  C  C125  1  0.609900  0.826500  0.587400  1.0  -0.106
  C  C126  1  0.621100  0.768700  0.553200  1.0  0.2561
  C  C127  1  0.656500  0.732700  0.564900  1.0  -0.1441
  C  C128  1  0.726400  0.662800  0.605400  1.0  0.1763
  C  C129  1  0.754500  0.656300  0.555800  1.0  -0.0263
  C  C130  1  0.764100  0.587800  0.532900  1.0  -0.0954
  C  C131  1  0.745800  0.529000  0.558700  1.0  0.0584
  C  C132  1  0.718900  0.537600  0.609800  1.0  -0.0972
  C  C133  1  0.709200  0.602400  0.631700  1.0  0.0912
  C  C134  1  0.771800  0.717700  0.529600  1.0  0.3892
  C  C135  1  0.752500  0.459800  0.533500  1.0  0.2905
  C  C136  1  0.681600  0.608500  0.683400  1.0  0.3528
  C  C137  1  0.591400  0.931000  0.681600  1.0  0.1545
  C  C138  1  0.581300  0.999500  0.665100  1.0  -0.048
  C  C139  1  0.543800  0.027000  0.681500  1.0  -0.0881
  C  C140  1  0.516500  0.983900  0.711400  1.0  -0.0037
  C  C141  1  0.526100  0.914200  0.726500  1.0  -0.1147
  C  C142  1  0.562500  0.889000  0.713900  1.0  -0.0564
  C  C143  1  0.609400  0.042900  0.631500  1.0  0.3732
  C  C144  1  0.478900  0.013200  0.727400  1.0  0.3172
  C  C145  1  0.573000  0.815900  0.734400  1.0  0.349
  C  C146  1  0.555800  0.749300  0.502700  1.0  0.2314
  C  C147  1  0.533400  0.716600  0.550700  1.0  -0.037
  C  C148  1  0.492500  0.722800  0.548200  1.0  -0.1238
  C  C149  1  0.474000  0.764500  0.497900  1.0  0.0324
  C  C150  1  0.496200  0.791800  0.447800  1.0  -0.1311
  C  C151  1  0.536600  0.785400  0.452500  1.0  0.0295
  C  C152  1  0.551900  0.667300  0.598500  1.0  0.3679
  C  C153  1  0.431600  0.772100  0.494700  1.0  0.2799
  C  C154  1  0.561000  0.815600  0.402300  1.0  0.3426
  C  C155  1  0.134600  0.667200  0.088000  1.0  0.2694
  C  C156  1  0.103200  0.685400  0.046500  1.0  -0.1147
  C  C157  1  0.107200  0.749800  0.015700  1.0  0.2162
  C  C158  1  0.138400  0.795900  0.026500  1.0  -0.1062
  C  C159  1  0.167900  0.772600  0.068800  1.0  0.2575
  C  C160  1  0.166700  0.709400  0.103000  1.0  -0.1447
  C  C161  1  0.102500  0.578100  0.152600  1.0  0.2866
  C  C162  1  0.076400  0.619600  0.187200  1.0  -0.0439
  C  C163  1  0.043500  0.589900  0.217400  1.0  -0.0978
  C  C164  1  0.037800  0.515700  0.212500  1.0  0.0069
  C  C165  1  0.064700  0.473400  0.182300  1.0  -0.0964
  C  C166  1  0.097500  0.504700  0.152400  1.0  0.1253
  C  C167  1  0.080800  0.694700  0.200800  1.0  0.3317
  C  C168  1  0.002600  0.485800  0.239600  1.0  0.3591
  C  C169  1  0.125800  0.462400  0.121200  1.0  0.2008
  C  C170  1  0.038700  0.755100  0.977900  1.0  0.1565
  C  C171  1  0.017800  0.784200  0.030800  1.0  -0.1221
  C  C172  1  0.978100  0.767000  0.038100  1.0  -0.0783
  C  C173  1  0.958300  0.724000  0.992500  1.0  0.0538
  C  C174  1  0.978500  0.697400  0.938200  1.0  -0.0505
  C  C175  1  0.018100  0.712600  0.931100  1.0  -0.0052
  C  C176  1  0.037400  0.836700  0.073600  1.0  0.3617
  C  C177  1  0.916800  0.707900  0.000700  1.0  0.3388
  C  C178  1  0.040100  0.684900  0.876500  1.0  0.347
  C  C179  1  0.223700  0.812900  0.134200  1.0  0.1819
  C  C180  1  0.210600  0.839100  0.194500  1.0  -0.0319
  C  C181  1  0.234400  0.835400  0.250300  1.0  -0.1233
  C  C182  1  0.271800  0.804300  0.248200  1.0  -0.0077
  C  C183  1  0.286200  0.778600  0.190800  1.0  -0.1083
  C  C184  1  0.262200  0.782500  0.133200  1.0  -0.0664
  C  C185  1  0.171500  0.872300  0.196600  1.0  0.3771
  C  C186  1  0.296300  0.799700  0.308700  1.0  0.2926
  C  C187  1  0.276400  0.754300  0.072200  1.0  0.391
  C  C188  1  0.318500  0.260700  0.886800  1.0  0.2379
  C  C189  1  0.327500  0.317300  0.850500  1.0  -0.1557
  C  C190  1  0.362800  0.351100  0.867100  1.0  0.3045
  C  C191  1  0.390100  0.326500  0.912600  1.0  -0.105
  C  C192  1  0.378900  0.268700  0.946800  1.0  0.2564
  C  C193  1  0.343500  0.232700  0.935100  1.0  -0.1437
  C  C194  1  0.273600  0.162800  0.894600  1.0  0.179
  C  C195  1  0.245500  0.156300  0.944200  1.0  -0.0251
  C  C196  1  0.235900  0.087800  0.967100  1.0  -0.0953
  C  C197  1  0.254200  0.029000  0.941300  1.0  0.0593
  C  C198  1  0.281100  0.037600  0.890200  1.0  -0.0983
  C  C199  1  0.290800  0.102400  0.868300  1.0  0.0917
  C  C200  1  0.228200  0.217700  0.970400  1.0  0.3897
  C  C201  1  0.247500  0.959800  0.966500  1.0  0.2907
  C  C202  1  0.318400  0.108500  0.816600  1.0  0.3557
  C  C203  1  0.408600  0.431000  0.818400  1.0  0.1539
  C  C204  1  0.418700  0.499500  0.834900  1.0  -0.0459
  C  C205  1  0.456200  0.527000  0.818500  1.0  -0.0872
  C  C206  1  0.483500  0.483900  0.788600  1.0  -0.003
  C  C207  1  0.473900  0.414200  0.773500  1.0  -0.1132
  C  C208  1  0.437500  0.389000  0.786100  1.0  -0.0597
  C  C209  1  0.390600  0.542900  0.868500  1.0  0.3732
  C  C210  1  0.521100  0.513200  0.772600  1.0  0.3169
  C  C211  1  0.427000  0.315900  0.765600  1.0  0.3498
  C  C212  1  0.444200  0.249300  0.997300  1.0  0.2314
  C  C213  1  0.466600  0.216600  0.949300  1.0  -0.0385
  C  C214  1  0.507500  0.222800  0.951800  1.0  -0.1213
  C  C215  1  0.526000  0.264500  0.002100  1.0  0.0329
  C  C216  1  0.503800  0.291800  0.052200  1.0  -0.129
  C  C217  1  0.463400  0.285400  0.047500  1.0  0.0305
  C  C218  1  0.448100  0.167300  0.901500  1.0  0.3683
  C  C219  1  0.568400  0.272100  0.005300  1.0  0.2799
  C  C220  1  0.439000  0.315600  0.097700  1.0  0.3427
  C  C221  1  0.134600  0.832800  0.588000  1.0  0.2694
  C  C222  1  0.103200  0.814600  0.546500  1.0  -0.1142
  C  C223  1  0.107200  0.750200  0.515700  1.0  0.2153
  C  C224  1  0.138400  0.704100  0.526500  1.0  -0.1053
  C  C225  1  0.167900  0.727400  0.568800  1.0  0.257
  C  C226  1  0.166700  0.790600  0.603000  1.0  -0.1458
  C  C227  1  0.102500  0.921900  0.652600  1.0  0.287
  C  C228  1  0.076400  0.880400  0.687200  1.0  -0.0433
  C  C229  1  0.043500  0.910100  0.717400  1.0  -0.0971
  C  C230  1  0.037800  0.984300  0.712500  1.0  0.0072
  C  C231  1  0.064700  0.026600  0.682300  1.0  -0.0974
  C  C232  1  0.097500  0.995300  0.652400  1.0  0.125
  C  C233  1  0.080800  0.805300  0.700800  1.0  0.3325
  C  C234  1  0.002600  0.014200  0.739600  1.0  0.3588
  C  C235  1  0.125800  0.037600  0.621200  1.0  0.1997
  C  C236  1  0.038700  0.744900  0.477900  1.0  0.1558
  C  C237  1  0.017800  0.715800  0.530800  1.0  -0.1239
  C  C238  1  0.978100  0.733000  0.538100  1.0  -0.077
  C  C239  1  0.958300  0.776000  0.492500  1.0  0.0541
  C  C240  1  0.978500  0.802600  0.438200  1.0  -0.0503
  C  C241  1  0.018100  0.787400  0.431100  1.0  -0.0048
  C  C242  1  0.037400  0.663300  0.573600  1.0  0.3624
  C  C243  1  0.916800  0.792100  0.500700  1.0  0.339
  C  C244  1  0.040100  0.815100  0.376500  1.0  0.3471
  C  C245  1  0.223700  0.687100  0.634200  1.0  0.1808
  C  C246  1  0.210600  0.660900  0.694500  1.0  -0.0325
  C  C247  1  0.234400  0.664600  0.750300  1.0  -0.1218
  C  C248  1  0.271800  0.695700  0.748200  1.0  -0.0074
  C  C249  1  0.286200  0.721400  0.690800  1.0  -0.1092
  C  C250  1  0.262200  0.717500  0.633200  1.0  -0.0663
  C  C251  1  0.171500  0.627700  0.696600  1.0  0.3787
  C  C252  1  0.296300  0.700300  0.808700  1.0  0.2927
  C  C253  1  0.276400  0.745700  0.572200  1.0  0.3906
  C  C254  1  0.318500  0.239300  0.386800  1.0  0.2377
  C  C255  1  0.327500  0.182700  0.350500  1.0  -0.1552
  C  C256  1  0.362800  0.148900  0.367100  1.0  0.3033
  C  C257  1  0.390100  0.173500  0.412600  1.0  -0.106
  C  C258  1  0.378900  0.231300  0.446800  1.0  0.2566
  C  C259  1  0.343500  0.267300  0.435100  1.0  -0.1438
  C  C260  1  0.273600  0.337200  0.394600  1.0  0.1783
  C  C261  1  0.245500  0.343700  0.444200  1.0  -0.0253
  C  C262  1  0.235900  0.412200  0.467100  1.0  -0.0959
  C  C263  1  0.254200  0.471000  0.441300  1.0  0.059
  C  C264  1  0.281100  0.462400  0.390200  1.0  -0.0986
  C  C265  1  0.290800  0.397600  0.368300  1.0  0.0904
  C  C266  1  0.228200  0.282300  0.470400  1.0  0.3914
  C  C267  1  0.247500  0.540200  0.466500  1.0  0.2891
  C  C268  1  0.318400  0.391500  0.316600  1.0  0.3566
  C  C269  1  0.408600  0.069000  0.318400  1.0  0.1535
  C  C270  1  0.418700  0.000500  0.334900  1.0  -0.0478
  C  C271  1  0.456200  0.973000  0.318500  1.0  -0.0874
  C  C272  1  0.483500  0.016100  0.288600  1.0  -0.0029
  C  C273  1  0.473900  0.085800  0.273500  1.0  -0.1145
  C  C274  1  0.437500  0.111000  0.286100  1.0  -0.0583
  C  C275  1  0.390600  0.957100  0.368500  1.0  0.3741
  C  C276  1  0.521100  0.986800  0.272600  1.0  0.3166
  C  C277  1  0.427000  0.184100  0.265600  1.0  0.3497
  C  C278  1  0.444200  0.250700  0.497300  1.0  0.2308
  C  C279  1  0.466600  0.283400  0.449300  1.0  -0.0363
  C  C280  1  0.507500  0.277200  0.451800  1.0  -0.1214
  C  C281  1  0.526000  0.235500  0.502100  1.0  0.032
  C  C282  1  0.503800  0.208200  0.552200  1.0  -0.1288
  C  C283  1  0.463400  0.214600  0.547500  1.0  0.0297
  C  C284  1  0.448100  0.332700  0.401500  1.0  0.3656
  C  C285  1  0.568400  0.227900  0.505300  1.0  0.2802
  C  C286  1  0.439000  0.184400  0.597700  1.0  0.3427
  C  C287  1  0.865400  0.332800  0.912000  1.0  0.27
  C  C288  1  0.896800  0.314600  0.953500  1.0  -0.1125
  C  C289  1  0.892800  0.250200  0.984300  1.0  0.2142
  C  C290  1  0.861600  0.204100  0.973500  1.0  -0.103
  C  C291  1  0.832100  0.227400  0.931200  1.0  0.2561
  C  C292  1  0.833300  0.290600  0.897000  1.0  -0.1449
  C  C293  1  0.897500  0.421900  0.847400  1.0  0.2882
  C  C294  1  0.923600  0.380400  0.812800  1.0  -0.0452
  C  C295  1  0.956500  0.410100  0.782600  1.0  -0.0974
  C  C296  1  0.962200  0.484300  0.787500  1.0  0.0071
  C  C297  1  0.935300  0.526600  0.817700  1.0  -0.0973
  C  C298  1  0.902500  0.495300  0.847600  1.0  0.1265
  C  C299  1  0.919200  0.305300  0.799200  1.0  0.3323
  C  C300  1  0.997400  0.514200  0.760400  1.0  0.3599
  C  C301  1  0.874200  0.537600  0.878800  1.0  0.1998
  C  C302  1  0.961300  0.244900  0.022100  1.0  0.1557
  C  C303  1  0.982200  0.215800  0.969200  1.0  -0.1255
  C  C304  1  0.021900  0.233000  0.961900  1.0  -0.0789
  C  C305  1  0.041700  0.276000  0.007500  1.0  0.0547
  C  C306  1  0.021500  0.302600  0.061800  1.0  -0.0497
  C  C307  1  0.981900  0.287400  0.068900  1.0  -0.0071
  C  C308  1  0.962600  0.163300  0.926400  1.0  0.3613
  C  C309  1  0.083200  0.292100  0.999300  1.0  0.3374
  C  C310  1  0.959900  0.315100  0.123500  1.0  0.3472
  C  C311  1  0.776300  0.187100  0.865800  1.0  0.1807
  C  C312  1  0.789400  0.160900  0.805500  1.0  -0.0321
  C  C313  1  0.765600  0.164600  0.749700  1.0  -0.1215
  C  C314  1  0.728200  0.195700  0.751800  1.0  -0.0092
  C  C315  1  0.713800  0.221400  0.809200  1.0  -0.1112
  C  C316  1  0.737800  0.217500  0.866800  1.0  -0.0662
  C  C317  1  0.828500  0.127700  0.803400  1.0  0.3766
  C  C318  1  0.703700  0.200300  0.691300  1.0  0.2917
  C  C319  1  0.723600  0.245700  0.927800  1.0  0.3912
  C  C320  1  0.681500  0.739300  0.113200  1.0  0.2369
  C  C321  1  0.672500  0.682700  0.149500  1.0  -0.1531
  C  C322  1  0.637200  0.648900  0.132900  1.0  0.3027
  C  C323  1  0.609900  0.673500  0.087400  1.0  -0.1077
  C  C324  1  0.621100  0.731300  0.053200  1.0  0.2561
  C  C325  1  0.656500  0.767300  0.064900  1.0  -0.145
  C  C326  1  0.726400  0.837200  0.105400  1.0  0.1768
  C  C327  1  0.754500  0.843700  0.055800  1.0  -0.0252
  C  C328  1  0.764100  0.912200  0.032900  1.0  -0.096
  C  C329  1  0.745800  0.971000  0.058700  1.0  0.058
  C  C330  1  0.718900  0.962400  0.109800  1.0  -0.0983
  C  C331  1  0.709200  0.897600  0.131700  1.0  0.093
  C  C332  1  0.771800  0.782300  0.029600  1.0  0.3911
  C  C333  1  0.752500  0.040200  0.033500  1.0  0.2889
  C  C334  1  0.681600  0.891500  0.183400  1.0  0.3544
  C  C335  1  0.591400  0.569000  0.181600  1.0  0.1541
  C  C336  1  0.581300  0.500500  0.165100  1.0  -0.0502
  C  C337  1  0.543800  0.473000  0.181500  1.0  -0.0879
  C  C338  1  0.516500  0.516100  0.211400  1.0  -0.0036
  C  C339  1  0.526100  0.585800  0.226500  1.0  -0.1153
  C  C340  1  0.562500  0.611000  0.213900  1.0  -0.0565
  C  C341  1  0.609400  0.457100  0.131500  1.0  0.3737
  C  C342  1  0.478900  0.486800  0.227400  1.0  0.3173
  C  C343  1  0.573000  0.684100  0.234400  1.0  0.3489
  C  C344  1  0.555800  0.750700  0.002700  1.0  0.2315
  C  C345  1  0.533400  0.783400  0.050700  1.0  -0.0356
  C  C346  1  0.492500  0.777200  0.048200  1.0  -0.1248
  C  C347  1  0.474000  0.735500  0.997900  1.0  0.0322
  C  C348  1  0.496200  0.708200  0.947800  1.0  -0.1311
  C  C349  1  0.536600  0.714600  0.952500  1.0  0.0289
  C  C350  1  0.551900  0.832700  0.098500  1.0  0.3659
  C  C351  1  0.431600  0.727900  0.994700  1.0  0.2799
  C  C352  1  0.561000  0.684400  0.902300  1.0  0.3427
  N  N353  1  0.914900  0.254200  0.293800  1.0  -0.4694
  N  N354  1  0.025400  0.961500  0.239300  1.0  -0.5598
  N  N355  1  0.851200  0.927800  0.406700  1.0  -0.5027
  N  N356  1  0.946500  0.374600  0.393700  1.0  -0.4669
  N  N357  1  0.115800  0.197500  0.492900  1.0  -0.5622
  N  N358  1  0.943400  0.163600  0.666800  1.0  -0.4991
  N  N359  1  0.859300  0.394800  0.299300  1.0  -0.5221
  N  N360  1  0.687400  0.298700  0.142000  1.0  -0.4997
  N  N361  1  0.710200  0.230400  0.472500  1.0  -0.5151
  N  N362  1  0.786000  0.765600  0.506700  1.0  -0.512
  N  N363  1  0.754300  0.405500  0.508900  1.0  -0.4365
  N  N364  1  0.658300  0.617500  0.721500  1.0  -0.5277
  N  N365  1  0.631600  0.072500  0.603100  1.0  -0.5279
  N  N366  1  0.449000  0.038500  0.739400  1.0  -0.512
  N  N367  1  0.582900  0.759600  0.741100  1.0  -0.4359
  N  N368  1  0.569100  0.637300  0.637800  1.0  -0.4444
  N  N369  1  0.397900  0.778800  0.493700  1.0  -0.5164
  N  N370  1  0.581300  0.838200  0.363800  1.0  -0.5812
  N  N371  1  0.085100  0.754200  0.206200  1.0  -0.4684
  N  N372  1  0.974600  0.461500  0.260700  1.0  -0.5592
  N  N373  1  0.148800  0.427800  0.093300  1.0  -0.5036
  N  N374  1  0.053500  0.874600  0.106300  1.0  -0.4678
  N  N375  1  0.884200  0.697500  0.007100  1.0  -0.5586
  N  N376  1  0.056600  0.663600  0.833200  1.0  -0.5008
  N  N377  1  0.140700  0.894800  0.200700  1.0  -0.5203
  N  N378  1  0.312600  0.798700  0.358000  1.0  -0.5001
  N  N379  1  0.289800  0.730400  0.027500  1.0  -0.5182
  N  N380  1  0.214000  0.265600  0.993300  1.0  -0.5118
  N  N381  1  0.245700  0.905500  0.991100  1.0  -0.4358
  N  N382  1  0.341700  0.117500  0.778500  1.0  -0.5273
  N  N383  1  0.368400  0.572500  0.896900  1.0  -0.5284
  N  N384  1  0.551000  0.538500  0.760600  1.0  -0.5132
  N  N385  1  0.417100  0.259600  0.758900  1.0  -0.4363
  N  N386  1  0.430900  0.137300  0.862200  1.0  -0.4445
  N  N387  1  0.602100  0.278800  0.006300  1.0  -0.5159
  N  N388  1  0.418700  0.338200  0.136200  1.0  -0.5818
  N  N389  1  0.085100  0.745800  0.706200  1.0  -0.4667
  N  N390  1  0.974600  0.038500  0.760700  1.0  -0.5584
  N  N391  1  0.148800  0.072200  0.593300  1.0  -0.5046
  N  N392  1  0.053500  0.625400  0.606300  1.0  -0.4663
  N  N393  1  0.884200  0.802500  0.507100  1.0  -0.5586
  N  N394  1  0.056600  0.836400  0.333200  1.0  -0.4995
  N  N395  1  0.140700  0.605200  0.700700  1.0  -0.519
  N  N396  1  0.312600  0.701300  0.858000  1.0  -0.5009
  N  N397  1  0.289800  0.769600  0.527500  1.0  -0.5172
  N  N398  1  0.214000  0.234400  0.493300  1.0  -0.5094
  N  N399  1  0.245700  0.594500  0.491100  1.0  -0.4361
  N  N400  1  0.341700  0.382500  0.278500  1.0  -0.5269
  N  N401  1  0.368400  0.927500  0.396900  1.0  -0.5283
  N  N402  1  0.551000  0.961500  0.260600  1.0  -0.5132
  N  N403  1  0.417100  0.240400  0.258900  1.0  -0.4363
  N  N404  1  0.430900  0.362700  0.362200  1.0  -0.4454
  N  N405  1  0.602100  0.221200  0.506300  1.0  -0.516
  N  N406  1  0.418700  0.161800  0.636200  1.0  -0.5811
  N  N407  1  0.914900  0.245800  0.793800  1.0  -0.4687
  N  N408  1  0.025400  0.538500  0.739300  1.0  -0.5599
  N  N409  1  0.851200  0.572200  0.906700  1.0  -0.5044
  N  N410  1  0.946500  0.125400  0.893700  1.0  -0.4655
  N  N411  1  0.115800  0.302500  0.992900  1.0  -0.5623
  N  N412  1  0.943400  0.336400  0.166800  1.0  -0.4996
  N  N413  1  0.859300  0.105200  0.799300  1.0  -0.5194
  N  N414  1  0.687400  0.201300  0.642000  1.0  -0.4997
  N  N415  1  0.710200  0.269600  0.972500  1.0  -0.5163
  N  N416  1  0.786000  0.734400  0.006700  1.0  -0.5109
  N  N417  1  0.754300  0.094500  0.008900  1.0  -0.4371
  N  N418  1  0.658300  0.882500  0.221500  1.0  -0.5274
  N  N419  1  0.631600  0.427500  0.103100  1.0  -0.5287
  N  N420  1  0.449000  0.461500  0.239400  1.0  -0.5124
  N  N421  1  0.582900  0.740400  0.241100  1.0  -0.4371
  N  N422  1  0.569100  0.862700  0.137800  1.0  -0.4455
  N  N423  1  0.397900  0.721200  0.993700  1.0  -0.5166
  N  N424  1  0.581300  0.661800  0.863800  1.0  -0.5818
  O  O425  1  0.865600  0.101700  0.378100  1.0  -0.2985
  O  O426  1  0.922500  0.272000  0.531900  1.0  -0.2917
  O  O427  1  0.799000  0.318800  0.421700  1.0  -0.3113
  O  O428  1  0.719100  0.730000  0.629100  1.0  -0.2781
  O  O429  1  0.629400  0.910500  0.671500  1.0  -0.2697
  O  O430  1  0.596500  0.738800  0.501200  1.0  -0.2883
  O  O431  1  0.134400  0.601700  0.121900  1.0  -0.3001
  O  O432  1  0.077500  0.772000  0.968100  1.0  -0.2891
  O  O433  1  0.201000  0.818800  0.078300  1.0  -0.3113
  O  O434  1  0.280900  0.230000  0.870900  1.0  -0.276
  O  O435  1  0.370600  0.410500  0.828500  1.0  -0.2656
  O  O436  1  0.403500  0.238800  0.998800  1.0  -0.2861
  O  O437  1  0.134400  0.898300  0.621900  1.0  -0.2997
  O  O438  1  0.077500  0.728000  0.468100  1.0  -0.2904
  O  O439  1  0.201000  0.681200  0.578300  1.0  -0.3111
  O  O440  1  0.280900  0.270000  0.370900  1.0  -0.2752
  O  O441  1  0.370600  0.089500  0.328500  1.0  -0.2647
  O  O442  1  0.403500  0.261200  0.498800  1.0  -0.2857
  O  O443  1  0.865600  0.398300  0.878100  1.0  -0.2968
  O  O444  1  0.922500  0.228000  0.031900  1.0  -0.2927
  O  O445  1  0.799000  0.181200  0.921700  1.0  -0.3116
  O  O446  1  0.719100  0.770000  0.129100  1.0  -0.278
  O  O447  1  0.629400  0.589500  0.171500  1.0  -0.2687
  O  O448  1  0.596500  0.761200  0.001200  1.0  -0.2895
