# generated using pymatgen
data_CdH8C12NO6
_symmetry_space_group_name_H-M   'P 1'
_cell_length_a   9.37650000
_cell_length_b   10.08070000
_cell_length_c   18.62900000
_cell_angle_alpha   86.47100000
_cell_angle_beta   89.11200000
_cell_angle_gamma   74.75200000
_symmetry_Int_Tables_number   1
_chemical_formula_structural   CdH8C12NO6
_chemical_formula_sum   'Cd4 H32 C48 N4 O24'
_cell_volume   1695.63470701
_cell_formula_units_Z   4
loop_
 _symmetry_equiv_pos_site_id
 _symmetry_equiv_pos_as_xyz
  1  'x, y, z'
loop_
 _atom_site_type_symbol
 _atom_site_label
 _atom_site_symmetry_multiplicity
 _atom_site_fract_x
 _atom_site_fract_y
 _atom_site_fract_z
 _atom_site_occupancy
 _atom_site_charge
  Cd  Cd1  1  0.522720  0.823890  0.776410  1.0  0.968
  Cd  Cd2  1  0.486630  0.415410  0.744450  1.0  1.0274
  Cd  Cd3  1  0.477280  0.176110  0.223590  1.0  0.9707
  Cd  Cd4  1  0.513370  0.584590  0.255550  1.0  1.0257
  H  H5  1  0.010600  0.096400  0.787400  1.0  0.1232
  H  H6  1  0.074100  0.695300  0.850200  1.0  0.1267
  H  H7  1  0.640200  0.856000  0.954600  1.0  0.1042
  H  H8  1  0.396200  0.867400  0.924600  1.0  0.0952
  H  H9  1  0.352000  0.032300  0.923900  1.0  0.1058
  H  H10  1  0.722200  0.054400  0.966200  1.0  0.1109
  H  H11  1  0.558800  0.150700  0.951600  1.0  0.0986
  H  H12  1  0.971500  0.571900  0.710300  1.0  0.125
  H  H13  1  0.114900  0.177600  0.657700  1.0  0.1203
  H  H14  1  0.566500  0.569300  0.584000  1.0  0.0962
  H  H15  1  0.347500  0.503200  0.602800  1.0  0.0931
  H  H16  1  0.404200  0.376300  0.552600  1.0  0.1001
  H  H17  1  0.662500  0.338400  0.496400  1.0  0.0961
  H  H18  1  0.758800  0.442000  0.514200  1.0  0.1112
  H  H19  1  0.561700  0.055900  0.839700  1.0  0.2733
  H  H20  1  0.629400  0.282200  0.621800  1.0  0.2643
  H  H21  1  0.989400  0.903600  0.212600  1.0  0.1236
  H  H22  1  0.925900  0.304700  0.149800  1.0  0.1267
  H  H23  1  0.359800  0.144000  0.045400  1.0  0.1013
  H  H24  1  0.603800  0.132600  0.075400  1.0  0.0939
  H  H25  1  0.648000  0.967700  0.076100  1.0  0.1061
  H  H26  1  0.277800  0.945600  0.033800  1.0  0.1106
  H  H27  1  0.441200  0.849300  0.048400  1.0  0.0944
  H  H28  1  0.028500  0.428100  0.289700  1.0  0.1252
  H  H29  1  0.885100  0.822400  0.342300  1.0  0.1208
  H  H30  1  0.433500  0.430700  0.416000  1.0  0.0949
  H  H31  1  0.652500  0.496800  0.397200  1.0  0.0934
  H  H32  1  0.595800  0.623700  0.447400  1.0  0.0977
  H  H33  1  0.337500  0.661600  0.503600  1.0  0.0972
  H  H34  1  0.241200  0.558000  0.485800  1.0  0.1114
  H  H35  1  0.438300  0.944100  0.160300  1.0  0.272
  H  H36  1  0.370600  0.717800  0.378200  1.0  0.262
  C  C37  1  0.762900  0.935800  0.841100  1.0  0.1136
  C  C38  1  0.820400  0.046000  0.817000  1.0  -0.1188
  C  C39  1  0.971700  0.022100  0.804300  1.0  -0.0302
  C  C40  1  0.066000  0.891700  0.815900  1.0  -0.1166
  C  C41  1  0.009000  0.784200  0.840900  1.0  -0.0298
  C  C42  1  0.858000  0.803700  0.853000  1.0  -0.0512
  C  C43  1  0.725200  0.190700  0.804800  1.0  0.7159
  C  C44  1  0.229200  0.870900  0.803400  1.0  0.6797
  C  C45  1  0.805300  0.681600  0.881200  1.0  0.7285
  C  C46  1  0.577100  0.946100  0.934400  1.0  0.1643
  C  C47  1  0.417000  0.947000  0.946900  1.0  -0.1023
  C  C48  1  0.615800  0.060500  0.973200  1.0  -0.1251
  C  C49  1  0.775500  0.374500  0.653000  1.0  0.1294
  C  C50  1  0.806600  0.491900  0.678590  1.0  -0.0568
  C  C51  1  0.951100  0.491400  0.693900  1.0  -0.0474
  C  C52  1  0.066000  0.374800  0.685500  1.0  -0.123
  C  C53  1  0.036100  0.258100  0.662200  1.0  -0.0612
  C  C54  1  0.892900  0.255000  0.645050  1.0  -0.1183
  C  C55  1  0.691400  0.617600  0.699600  1.0  0.6768
  C  C56  1  0.221500  0.377700  0.703000  1.0  0.6975
  C  C57  1  0.870000  0.122700  0.619300  1.0  0.741
  C  C58  1  0.565100  0.474000  0.572700  1.0  0.1587
  C  C59  1  0.407800  0.471800  0.559900  1.0  -0.0997
  C  C60  1  0.657000  0.435200  0.505900  1.0  -0.1352
  C  C61  1  0.237100  0.064200  0.158900  1.0  0.112
  C  C62  1  0.179600  0.954000  0.183000  1.0  -0.1194
  C  C63  1  0.028300  0.977900  0.195700  1.0  -0.031
  C  C64  1  0.934000  0.108300  0.184100  1.0  -0.1172
  C  C65  1  0.991000  0.215800  0.159100  1.0  -0.0304
  C  C66  1  0.142000  0.196300  0.147000  1.0  -0.0486
  C  C67  1  0.274800  0.809300  0.195200  1.0  0.7142
  C  C68  1  0.770800  0.129100  0.196600  1.0  0.6791
  C  C69  1  0.194700  0.318400  0.118800  1.0  0.7315
  C  C70  1  0.422900  0.053900  0.065600  1.0  0.1662
  C  C71  1  0.583000  0.053000  0.053100  1.0  -0.1022
  C  C72  1  0.384200  0.939500  0.026800  1.0  -0.1231
  C  C73  1  0.224500  0.625500  0.347000  1.0  0.1303
  C  C74  1  0.193400  0.508100  0.321410  1.0  -0.0568
  C  C75  1  0.048900  0.508600  0.306100  1.0  -0.0459
  C  C76  1  0.934000  0.625200  0.314500  1.0  -0.1227
  C  C77  1  0.963900  0.741900  0.337800  1.0  -0.0595
  C  C78  1  0.107100  0.745000  0.354950  1.0  -0.1188
  C  C79  1  0.308600  0.382400  0.300400  1.0  0.6748
  C  C80  1  0.778500  0.622300  0.297000  1.0  0.6979
  C  C81  1  0.130000  0.877300  0.380700  1.0  0.7385
  C  C82  1  0.434900  0.526000  0.427300  1.0  0.1561
  C  C83  1  0.592200  0.528200  0.440100  1.0  -0.1002
  C  C84  1  0.343000  0.564800  0.494100  1.0  -0.1328
  N  N85  1  0.608700  0.957800  0.855830  1.0  -0.401
  N  N86  1  0.627900  0.376900  0.635620  1.0  -0.2132
  N  N87  1  0.391300  0.042200  0.144170  1.0  -0.405
  N  N88  1  0.372100  0.623100  0.364380  1.0  -0.2123
  O  O89  1  0.590600  0.203500  0.788510  1.0  -0.5976
  O  O90  1  0.779100  0.290000  0.808660  1.0  -0.544
  O  O91  1  0.274700  0.969200  0.777900  1.0  -0.583
  O  O92  1  0.315900  0.754600  0.820250  1.0  -0.593
  O  O93  1  0.890400  0.598600  0.924430  1.0  -0.5104
  O  O94  1  0.683100  0.667300  0.860540  1.0  -0.6514
  O  O95  1  0.563400  0.608200  0.721180  1.0  -0.6845
  O  O96  1  0.725000  0.728300  0.700630  1.0  -0.5643
  O  O97  1  0.241100  0.487900  0.725200  1.0  -0.5795
  O  O98  1  0.325600  0.274700  0.693970  1.0  -0.5942
  O  O99  1  0.982200  0.036300  0.597700  1.0  -0.5336
  O  O100  1  0.742600  0.103700  0.620700  1.0  -0.5751
  O  O101  1  0.409400  0.796500  0.211490  1.0  -0.5973
  O  O102  1  0.220900  0.710000  0.191340  1.0  -0.5438
  O  O103  1  0.725300  0.030800  0.222100  1.0  -0.5859
  O  O104  1  0.684100  0.245400  0.179750  1.0  -0.593
  O  O105  1  0.109600  0.401400  0.075570  1.0  -0.5113
  O  O106  1  0.316900  0.332700  0.139460  1.0  -0.6511
  O  O107  1  0.436600  0.391800  0.278820  1.0  -0.6827
  O  O108  1  0.275000  0.271700  0.299370  1.0  -0.5645
  O  O109  1  0.758900  0.512100  0.274800  1.0  -0.5792
  O  O110  1  0.674400  0.725300  0.306030  1.0  -0.5931
  O  O111  1  0.017800  0.963700  0.402300  1.0  -0.5332
  O  O112  1  0.257400  0.896300  0.379300  1.0  -0.5712
