# generated using pymatgen
data_ZnH20C28(NO2)2
_symmetry_space_group_name_H-M   'P 1'
_cell_length_a   8.66600000
_cell_length_b   13.18700000
_cell_length_c   14.08330000
_cell_angle_alpha   62.08390000
_cell_angle_beta   84.11800000
_cell_angle_gamma   77.35610000
_symmetry_Int_Tables_number   1
_chemical_formula_structural   ZnH20C28(NO2)2
_chemical_formula_sum   'Zn2 H40 C56 N4 O8'
_cell_volume   1387.64973236
_cell_formula_units_Z   2
loop_
 _symmetry_equiv_pos_site_id
 _symmetry_equiv_pos_as_xyz
  1  'x, y, z'
loop_
 _atom_site_type_symbol
 _atom_site_label
 _atom_site_symmetry_multiplicity
 _atom_site_fract_x
 _atom_site_fract_y
 _atom_site_fract_z
 _atom_site_occupancy
 _atom_site_charge
  Zn  Zn1  1  0.798450  0.100490  0.823600  1.0  0.8423
  Zn  Zn2  1  0.298450  0.924090  0.176400  1.0  0.8418
  H  H3  1  0.068300  0.100400  0.470000  1.0  0.1067
  H  H4  1  0.311000  0.053200  0.395800  1.0  0.1157
  H  H5  1  0.533100  0.979500  0.665800  1.0  0.1039
  H  H6  1  0.283800  0.016100  0.742800  1.0  0.0999
  H  H7  1  0.689400  0.982100  0.520000  1.0  0.0949
  H  H8  1  0.543300  0.992600  0.347800  1.0  0.1004
  H  H9  1  0.706600  0.997900  0.196600  1.0  0.1238
  H  H10  1  0.960100  0.968800  0.123600  1.0  0.069
  H  H11  1  0.167100  0.897100  0.388800  1.0  0.0892
  H  H12  1  0.927800  0.932200  0.465400  1.0  0.1185
  H  H13  1  0.449100  0.265300  0.919200  1.0  0.0904
  H  H14  1  0.536200  0.441900  0.858400  1.0  0.1121
  H  H15  1  0.507100  0.402900  0.160200  1.0  0.1055
  H  H16  1  0.423000  0.230500  0.222600  1.0  0.1078
  H  H17  1  0.608400  0.589400  0.886600  1.0  0.0913
  H  H18  1  0.587500  0.564600  0.093600  1.0  0.1098
  H  H19  1  0.719400  0.740000  0.823800  1.0  0.1275
  H  H20  1  0.796900  0.916600  0.770600  1.0  0.0675
  H  H21  1  0.678400  0.918200  0.046600  1.0  0.1043
  H  H22  1  0.617800  0.732500  0.111800  1.0  0.092
  H  H23  1  0.568300  0.570400  0.530000  1.0  0.1075
  H  H24  1  0.811000  0.449000  0.604200  1.0  0.1143
  H  H25  1  0.033100  0.645300  0.334200  1.0  0.1041
  H  H26  1  0.783800  0.758900  0.257200  1.0  0.1
  H  H27  1  0.189400  0.502100  0.480000  1.0  0.095
  H  H28  1  0.043300  0.340400  0.652200  1.0  0.0991
  H  H29  1  0.206600  0.194500  0.803400  1.0  0.1235
  H  H30  1  0.460100  0.092400  0.876400  1.0  0.0695
  H  H31  1  0.667100  0.285900  0.611200  1.0  0.0892
  H  H32  1  0.427800  0.397600  0.534600  1.0  0.1176
  H  H33  1  0.949100  0.184500  0.080800  1.0  0.091
  H  H34  1  0.036200  0.300300  0.141600  1.0  0.1117
  H  H35  1  0.007100  0.563100  0.839800  1.0  0.1049
  H  H36  1  0.923000  0.453100  0.777400  1.0  0.1085
  H  H37  1  0.108400  0.476000  0.113400  1.0  0.0928
  H  H38  1  0.087500  0.658200  0.906400  1.0  0.11
  H  H39  1  0.219400  0.563800  0.176200  1.0  0.1275
  H  H40  1  0.296900  0.687200  0.229400  1.0  0.069
  H  H41  1  0.178400  0.964800  0.953400  1.0  0.104
  H  H42  1  0.117800  0.844300  0.888200  1.0  0.0942
  C  C43  1  0.001500  0.081600  0.665000  1.0  0.6382
  C  C44  1  0.156600  0.057500  0.614200  1.0  -0.1184
  C  C45  1  0.162800  0.073000  0.510600  1.0  -0.0494
  C  C46  1  0.307500  0.048400  0.465400  1.0  -0.1406
  C  C47  1  0.447500  0.016800  0.521800  1.0  0.0776
  C  C48  1  0.439000  0.003300  0.625400  1.0  -0.1302
  C  C49  1  0.289800  0.024700  0.671800  1.0  -0.0646
  C  C50  1  0.600900  0.993200  0.479200  1.0  -0.0874
  C  C51  1  0.631800  0.985200  0.386800  1.0  -0.144
  C  C52  1  0.788100  0.966100  0.340800  1.0  0.1454
  C  C53  1  0.798800  0.978400  0.237400  1.0  -0.2098
  C  C54  1  0.952700  0.960600  0.194400  1.0  0.1755
  C  C55  1  0.072900  0.920000  0.348800  1.0  0.1563
  C  C56  1  0.930700  0.938300  0.395400  1.0  -0.1673
  C  C57  1  0.373200  0.116100  0.118600  1.0  0.6191
  C  C58  1  0.424800  0.229800  0.077200  1.0  -0.1459
  C  C59  1  0.460300  0.293500  0.968600  1.0  -0.0293
  C  C60  1  0.512200  0.399000  0.932400  1.0  -0.1035
  C  C61  1  0.529000  0.441500  0.002800  1.0  0.039
  C  C62  1  0.494700  0.375100  0.110800  1.0  -0.1166
  C  C63  1  0.444700  0.273000  0.148200  1.0  -0.0679
  C  C64  1  0.585400  0.551800  0.961200  1.0  -0.0931
  C  C65  1  0.607300  0.603800  0.018600  1.0  -0.145
  C  C66  1  0.659400  0.716900  0.977000  1.0  0.137
  C  C67  1  0.712800  0.772900  0.871800  1.0  -0.2119
  C  C68  1  0.755700  0.878900  0.841000  1.0  0.1704
  C  C69  1  0.690100  0.880700  0.002200  1.0  0.1397
  C  C70  1  0.651300  0.771100  0.039400  1.0  -0.1311
  C  C71  1  0.501500  0.746600  0.335000  1.0  0.6416
  C  C72  1  0.656600  0.671700  0.385800  1.0  -0.1201
  C  C73  1  0.662800  0.583600  0.489400  1.0  -0.05
  C  C74  1  0.807500  0.513800  0.534600  1.0  -0.1399
  C  C75  1  0.947500  0.538600  0.478200  1.0  0.0777
  C  C76  1  0.939000  0.628700  0.374600  1.0  -0.1313
  C  C77  1  0.789800  0.696500  0.328200  1.0  -0.0635
  C  C78  1  0.100900  0.472400  0.520800  1.0  -0.0887
  C  C79  1  0.131800  0.372000  0.613200  1.0  -0.147
  C  C80  1  0.288100  0.306900  0.659200  1.0  0.1434
  C  C81  1  0.298800  0.215800  0.762600  1.0  -0.2102
  C  C82  1  0.452700  0.155000  0.805600  1.0  0.1782
  C  C83  1  0.572900  0.268800  0.651200  1.0  0.1543
  C  C84  1  0.430700  0.333700  0.604600  1.0  -0.1568
  C  C85  1  0.873200  0.234700  0.881400  1.0  0.6193
  C  C86  1  0.924800  0.307000  0.922800  1.0  -0.1456
  C  C87  1  0.960300  0.262100  0.031400  1.0  -0.0267
  C  C88  1  0.012200  0.331400  0.067600  1.0  -0.0998
  C  C89  1  0.029000  0.444300  0.997200  1.0  0.038
  C  C90  1  0.994700  0.485900  0.889200  1.0  -0.1189
  C  C91  1  0.944700  0.421200  0.851800  1.0  -0.0695
  C  C92  1  0.085400  0.513000  0.038800  1.0  -0.0923
  C  C93  1  0.107300  0.622400  0.981400  1.0  -0.1457
  C  C94  1  0.159400  0.693900  0.023000  1.0  0.1378
  C  C95  1  0.212800  0.644700  0.128200  1.0  -0.216
  C  C96  1  0.255700  0.719900  0.159000  1.0  0.1685
  C  C97  1  0.190100  0.882900  0.997800  1.0  0.1387
  C  C98  1  0.151300  0.810500  0.960600  1.0  -0.1394
  N  N99  1  0.083600  0.933800  0.246000  1.0  -0.3323
  N  N100  1  0.744300  0.931700  0.901200  1.0  -0.3415
  N  N101  1  0.583600  0.179800  0.754000  1.0  -0.3319
  N  N102  1  0.244300  0.832900  0.098800  1.0  -0.3449
  O  O103  1  0.004300  0.067000  0.760200  1.0  -0.5809
  O  O104  1  0.874400  0.108500  0.612800  1.0  -0.6116
  O  O105  1  0.355000  0.075600  0.055200  1.0  -0.568
  O  O106  1  0.334300  0.067700  0.216600  1.0  -0.5801
  O  O107  1  0.504300  0.827200  0.239800  1.0  -0.5805
  O  O108  1  0.374400  0.721300  0.387200  1.0  -0.6077
  O  O109  1  0.855000  0.130800  0.944800  1.0  -0.568
  O  O110  1  0.834300  0.284300  0.783400  1.0  -0.5786
