# generated using pymatgen
data_ZnH20C28(NO2)2
_symmetry_space_group_name_H-M   'P 1'
_cell_length_a   8.40900000
_cell_length_b   13.48800000
_cell_length_c   14.13020000
_cell_angle_alpha   61.49240000
_cell_angle_beta   85.75740000
_cell_angle_gamma   81.08290000
_symmetry_Int_Tables_number   1
_chemical_formula_structural   ZnH20C28(NO2)2
_chemical_formula_sum   'Zn2 H40 C56 N4 O8'
_cell_volume   1391.31807153
_cell_formula_units_Z   2
loop_
 _symmetry_equiv_pos_site_id
 _symmetry_equiv_pos_as_xyz
  1  'x, y, z'
loop_
 _atom_site_type_symbol
 _atom_site_label
 _atom_site_symmetry_multiplicity
 _atom_site_fract_x
 _atom_site_fract_y
 _atom_site_fract_z
 _atom_site_occupancy
 _atom_site_charge
  Zn  Zn1  1  0.478110  0.617760  0.182400  1.0  0.8349
  Zn  Zn2  1  0.978110  0.800160  0.817600  1.0  0.8349
  H  H3  1  0.983600  0.465800  0.258600  1.0  0.0939
  H  H4  1  0.222300  0.350400  0.333600  1.0  0.0862
  H  H5  1  0.982900  0.145300  0.597000  1.0  0.1135
  H  H6  1  0.742000  0.259300  0.521000  1.0  0.102
  H  H7  1  0.377300  0.190100  0.472000  1.0  0.0937
  H  H8  1  0.215600  0.047000  0.651600  1.0  0.1117
  H  H9  1  0.384000  0.910600  0.804400  1.0  0.1161
  H  H10  1  0.630700  0.806300  0.877400  1.0  0.0826
  H  H11  1  0.842000  0.968000  0.597600  1.0  0.0805
  H  H12  1  0.603300  0.075900  0.518400  1.0  0.127
  H  H13  1  0.618100  0.964900  0.922600  1.0  0.0883
  H  H14  1  0.700700  0.144800  0.860200  1.0  0.1137
  H  H15  1  0.672100  0.103400  0.162800  1.0  0.1121
  H  H16  1  0.587700  0.928600  0.224200  1.0  0.1042
  H  H17  1  0.785200  0.289300  0.890000  1.0  0.1048
  H  H18  1  0.747800  0.267200  0.094200  1.0  0.1092
  H  H19  1  0.904300  0.435600  0.829800  1.0  0.1294
  H  H20  1  0.983300  0.616400  0.766400  1.0  0.083
  H  H21  1  0.851100  0.616700  0.040800  1.0  0.0897
  H  H22  1  0.783200  0.435400  0.111200  1.0  0.1068
  H  H23  1  0.483600  0.724400  0.741400  1.0  0.096
  H  H24  1  0.722300  0.684000  0.666400  1.0  0.0852
  H  H25  1  0.482900  0.742300  0.403000  1.0  0.115
  H  H26  1  0.242000  0.780300  0.479000  1.0  0.1013
  H  H27  1  0.877300  0.662100  0.528000  1.0  0.0954
  H  H28  1  0.715600  0.698600  0.348400  1.0  0.1125
  H  H29  1  0.884000  0.715000  0.195600  1.0  0.1167
  H  H30  1  0.130700  0.683700  0.122600  1.0  0.0822
  H  H31  1  0.342000  0.565600  0.402400  1.0  0.0814
  H  H32  1  0.103300  0.594300  0.481600  1.0  0.1263
  H  H33  1  0.118100  0.887500  0.077400  1.0  0.0882
  H  H34  1  0.200700  0.005000  0.139800  1.0  0.1131
  H  H35  1  0.172100  0.266200  0.837200  1.0  0.1112
  H  H36  1  0.087700  0.152800  0.775800  1.0  0.1044
  H  H37  1  0.285200  0.179300  0.110000  1.0  0.1048
  H  H38  1  0.247800  0.361400  0.905800  1.0  0.1092
  H  H39  1  0.404300  0.265400  0.170200  1.0  0.1291
  H  H40  1  0.483300  0.382800  0.233600  1.0  0.0837
  H  H41  1  0.351100  0.657500  0.959200  1.0  0.0891
  H  H42  1  0.283200  0.546600  0.888800  1.0  0.1089
  C  C43  1  0.681700  0.446800  0.334400  1.0  0.6464
  C  C44  1  0.838100  0.374500  0.382200  1.0  -0.1368
  C  C45  1  0.982900  0.400400  0.327400  1.0  -0.0566
  C  C46  1  0.124800  0.331700  0.372400  1.0  -0.1075
  C  C47  1  0.129800  0.236300  0.472400  1.0  0.0597
  C  C48  1  0.983200  0.210200  0.528000  1.0  -0.1231
  C  C49  1  0.840000  0.278200  0.483000  1.0  -0.0494
  C  C50  1  0.285000  0.166100  0.515600  1.0  -0.0911
  C  C51  1  0.308300  0.072700  0.609400  1.0  -0.1501
  C  C52  1  0.464500  0.005200  0.653800  1.0  0.1537
  C  C53  1  0.477200  0.924000  0.760200  1.0  -0.1842
  C  C54  1  0.625000  0.861600  0.803400  1.0  0.1616
  C  C55  1  0.747100  0.956300  0.640200  1.0  0.1664
  C  C56  1  0.605700  0.020800  0.592600  1.0  -0.2044
  C  C57  1  0.538600  0.813300  0.122600  1.0  0.6233
  C  C58  1  0.592400  0.929600  0.079000  1.0  -0.1315
  C  C59  1  0.628200  0.993200  0.971600  1.0  -0.032
  C  C60  1  0.679700  0.100200  0.934600  1.0  -0.1158
  C  C61  1  0.700100  0.140800  0.005200  1.0  0.0519
  C  C62  1  0.662100  0.075400  0.113600  1.0  -0.1212
  C  C63  1  0.611000  0.972100  0.150000  1.0  -0.044
  C  C64  1  0.757400  0.252000  0.964200  1.0  -0.0979
  C  C65  1  0.773800  0.304800  0.019800  1.0  -0.1461
  C  C66  1  0.828800  0.416900  0.977400  1.0  0.1287
  C  C67  1  0.892400  0.471400  0.874200  1.0  -0.2008
  C  C68  1  0.938900  0.580100  0.836600  1.0  0.1538
  C  C69  1  0.863500  0.579900  0.997200  1.0  0.1635
  C  C70  1  0.819900  0.472200  0.038800  1.0  -0.1803
  C  C71  1  0.181700  0.781200  0.665600  1.0  0.6471
  C  C72  1  0.338100  0.756700  0.617800  1.0  -0.1357
  C  C73  1  0.482900  0.727800  0.672600  1.0  -0.0568
  C  C74  1  0.624800  0.704100  0.627600  1.0  -0.1064
  C  C75  1  0.629800  0.708700  0.527600  1.0  0.06
  C  C76  1  0.483200  0.738200  0.472000  1.0  -0.1236
  C  C77  1  0.340000  0.761200  0.517000  1.0  -0.0489
  C  C78  1  0.785000  0.681700  0.484400  1.0  -0.0907
  C  C79  1  0.808300  0.682100  0.390600  1.0  -0.1492
  C  C80  1  0.964500  0.659000  0.346200  1.0  0.1544
  C  C81  1  0.977200  0.684200  0.239800  1.0  -0.1845
  C  C82  1  0.125000  0.665000  0.196600  1.0  0.1617
  C  C83  1  0.247100  0.596500  0.359800  1.0  0.1662
  C  C84  1  0.105700  0.613400  0.407400  1.0  -0.2058
  C  C85  1  0.038600  0.935900  0.877400  1.0  0.6236
  C  C86  1  0.092400  0.008600  0.921000  1.0  -0.131
  C  C87  1  0.128200  0.964800  0.028400  1.0  -0.0276
  C  C88  1  0.179700  0.034800  0.065400  1.0  -0.1164
  C  C89  1  0.200100  0.146000  0.994800  1.0  0.0517
  C  C90  1  0.162100  0.189000  0.886400  1.0  -0.1232
  C  C91  1  0.111000  0.122100  0.850000  1.0  -0.0434
  C  C92  1  0.257400  0.216200  0.035800  1.0  -0.0948
  C  C93  1  0.273800  0.324600  0.980200  1.0  -0.1488
  C  C94  1  0.328800  0.394300  0.022600  1.0  0.1289
  C  C95  1  0.392400  0.345600  0.125800  1.0  -0.203
  C  C96  1  0.438900  0.416700  0.163400  1.0  0.1522
  C  C97  1  0.363500  0.577100  0.002800  1.0  0.1627
  C  C98  1  0.319900  0.511000  0.961200  1.0  -0.1825
  N  N99  1  0.759300  0.876700  0.744600  1.0  -0.3423
  N  N100  1  0.922800  0.634500  0.896800  1.0  -0.3445
  N  N101  1  0.259300  0.621300  0.255400  1.0  -0.3437
  N  N102  1  0.422800  0.531300  0.103200  1.0  -0.3461
  O  O103  1  0.689200  0.529920  0.238160  1.0  -0.6054
  O  O104  1  0.554000  0.423360  0.383880  1.0  -0.5936
  O  O105  1  0.525000  0.773610  0.058180  1.0  -0.5727
  O  O106  1  0.515400  0.758500  0.221400  1.0  -0.5625
  O  O107  1  0.189200  0.768080  0.761840  1.0  -0.6063
  O  O108  1  0.054000  0.807240  0.616120  1.0  -0.5912
  O  O109  1  0.025000  0.831790  0.941820  1.0  -0.573
  O  O110  1  0.015400  0.979900  0.778600  1.0  -0.5628
