# generated using pymatgen
data_ZnH20C28(NO2)2
_symmetry_space_group_name_H-M   'P 1'
_cell_length_a   8.71500000
_cell_length_b   12.93400000
_cell_length_c   14.06050000
_cell_angle_alpha   62.61670000
_cell_angle_beta   83.68600000
_cell_angle_gamma   76.16590000
_symmetry_Int_Tables_number   1
_chemical_formula_structural   ZnH20C28(NO2)2
_chemical_formula_sum   'Zn2 H40 C56 N4 O8'
_cell_volume   1366.48537095
_cell_formula_units_Z   2
loop_
 _symmetry_equiv_pos_site_id
 _symmetry_equiv_pos_as_xyz
  1  'x, y, z'
loop_
 _atom_site_type_symbol
 _atom_site_label
 _atom_site_symmetry_multiplicity
 _atom_site_fract_x
 _atom_site_fract_y
 _atom_site_fract_z
 _atom_site_occupancy
 _atom_site_charge
  Zn  Zn1  1  0.367570  0.741150  0.822460  1.0  0.8563
  Zn  Zn2  1  0.867570  0.563610  0.177540  1.0  0.8558
  H  H3  1  0.093000  0.096300  0.468400  1.0  0.0996
  H  H4  1  0.850100  0.200400  0.392200  1.0  0.1081
  H  H5  1  0.643800  0.020400  0.664800  1.0  0.0895
  H  H6  1  0.878500  0.919900  0.743200  1.0  0.0874
  H  H7  1  0.475700  0.162300  0.515800  1.0  0.0976
  H  H8  1  0.622800  0.316400  0.344000  1.0  0.1038
  H  H9  1  0.248300  0.261400  0.459000  1.0  0.1154
  H  H10  1  0.001500  0.373300  0.382800  1.0  0.0937
  H  H11  1  0.208700  0.566000  0.125800  1.0  0.0584
  H  H12  1  0.452400  0.473700  0.195800  1.0  0.1328
  H  H13  1  0.239800  0.435400  0.778600  1.0  0.1163
  H  H14  1  0.149700  0.261300  0.840400  1.0  0.1148
  H  H15  1  0.145000  0.220400  0.138800  1.0  0.1119
  H  H16  1  0.245700  0.392000  0.077400  1.0  0.0864
  H  H17  1  0.051000  0.082000  0.106200  1.0  0.1015
  H  H18  1  0.082600  0.094400  0.905000  1.0  0.1025
  H  H19  1  0.057100  0.925500  0.889000  1.0  0.1095
  H  H20  1  0.967500  0.748900  0.954400  1.0  0.0934
  H  H21  1  0.858300  0.759100  0.229200  1.0  0.0882
  H  H22  1  0.935500  0.930500  0.168200  1.0  0.1071
  H  H23  1  0.593000  0.564700  0.531600  1.0  0.0981
  H  H24  1  0.350100  0.592600  0.607800  1.0  0.1084
  H  H25  1  0.143800  0.685200  0.335200  1.0  0.0911
  H  H26  1  0.378500  0.663100  0.256800  1.0  0.0882
  H  H27  1  0.975700  0.678100  0.484200  1.0  0.0979
  H  H28  1  0.122800  0.660400  0.656000  1.0  0.1038
  H  H29  1  0.748300  0.720400  0.541000  1.0  0.1179
  H  H30  1  0.501500  0.756100  0.617200  1.0  0.0936
  H  H31  1  0.708700  0.691800  0.874200  1.0  0.0581
  H  H32  1  0.952400  0.669500  0.804200  1.0  0.1323
  H  H33  1  0.739800  0.214000  0.221400  1.0  0.1158
  H  H34  1  0.649700  0.101700  0.159600  1.0  0.1132
  H  H35  1  0.645000  0.359200  0.861200  1.0  0.1118
  H  H36  1  0.745700  0.469400  0.922600  1.0  0.0865
  H  H37  1  0.551000  0.188200  0.893800  1.0  0.1002
  H  H38  1  0.582600  0.999400  0.095000  1.0  0.1031
  H  H39  1  0.557100  0.814500  0.111000  1.0  0.1094
  H  H40  1  0.467500  0.703300  0.045600  1.0  0.0933
  H  H41  1  0.358300  0.988300  0.770800  1.0  0.0883
  H  H42  1  0.435500  0.098700  0.831800  1.0  0.1056
  C  C43  1  0.165000  0.920500  0.663200  1.0  0.6708
  C  C44  1  0.016800  0.993100  0.614800  1.0  -0.1296
  C  C45  1  0.002400  0.080200  0.509200  1.0  -0.049
  C  C46  1  0.856400  0.143300  0.463600  1.0  -0.1254
  C  C47  1  0.719800  0.123300  0.521800  1.0  0.0627
  C  C48  1  0.734900  0.037200  0.624800  1.0  -0.1266
  C  C49  1  0.875000  0.975600  0.671600  1.0  -0.0702
  C  C50  1  0.562700  0.190200  0.476800  1.0  -0.0896
  C  C51  1  0.535900  0.288600  0.383800  1.0  -0.1565
  C  C52  1  0.376800  0.356300  0.339800  1.0  0.1494
  C  C53  1  0.242600  0.326600  0.391600  1.0  -0.1766
  C  C54  1  0.093000  0.393400  0.344800  1.0  0.158
  C  C55  1  0.215700  0.506400  0.196200  1.0  0.1774
  C  C56  1  0.363600  0.450600  0.235800  1.0  -0.2039
  C  C57  1  0.301700  0.542100  0.878800  1.0  0.6169
  C  C58  1  0.243700  0.432200  0.924600  1.0  -0.1146
  C  C59  1  0.219800  0.392600  0.851000  1.0  -0.085
  C  C60  1  0.165700  0.288400  0.888600  1.0  -0.1362
  C  C61  1  0.135200  0.223800  0.995400  1.0  0.0713
  C  C62  1  0.164000  0.263100  0.066200  1.0  -0.1164
  C  C63  1  0.222200  0.367800  0.028800  1.0  -0.0272
  C  C64  1  0.078000  0.116400  0.034200  1.0  -0.0726
  C  C65  1  0.058800  0.059700  0.977600  1.0  -0.1419
  C  C66  1  0.004700  0.950100  0.020600  1.0  0.1485
  C  C67  1  0.016400  0.893100  0.958000  1.0  -0.2051
  C  C68  1  0.966000  0.784100  0.999400  1.0  0.1672
  C  C69  1  0.900800  0.790600  0.160600  1.0  0.1568
  C  C70  1  0.944900  0.894000  0.123600  1.0  -0.1649
  C  C71  1  0.665000  0.583700  0.336800  1.0  0.6679
  C  C72  1  0.516800  0.607900  0.385200  1.0  -0.129
  C  C73  1  0.502400  0.589400  0.490800  1.0  -0.0489
  C  C74  1  0.356400  0.606900  0.536400  1.0  -0.127
  C  C75  1  0.219800  0.645100  0.478200  1.0  0.0631
  C  C76  1  0.234900  0.662000  0.375200  1.0  -0.1266
  C  C77  1  0.375000  0.647200  0.328400  1.0  -0.0677
  C  C78  1  0.062700  0.667000  0.523200  1.0  -0.0894
  C  C79  1  0.035900  0.672400  0.616200  1.0  -0.1534
  C  C80  1  0.876800  0.696100  0.660200  1.0  0.1495
  C  C81  1  0.742600  0.718200  0.608400  1.0  -0.1774
  C  C82  1  0.593000  0.738200  0.655200  1.0  0.1593
  C  C83  1  0.715700  0.702600  0.803800  1.0  0.1779
  C  C84  1  0.863600  0.686400  0.764200  1.0  -0.2039
  C  C85  1  0.801700  0.420900  0.121200  1.0  0.6176
  C  C86  1  0.743700  0.356800  0.075400  1.0  -0.1145
  C  C87  1  0.719800  0.243600  0.149000  1.0  -0.0937
  C  C88  1  0.665700  0.177000  0.111400  1.0  -0.138
  C  C89  1  0.635200  0.219200  0.004600  1.0  0.0711
  C  C90  1  0.664000  0.329300  0.933800  1.0  -0.1161
  C  C91  1  0.722200  0.396600  0.971200  1.0  -0.027
  C  C92  1  0.578000  0.150600  0.965800  1.0  -0.0717
  C  C93  1  0.558800  0.037300  0.022400  1.0  -0.1435
  C  C94  1  0.504700  0.970700  0.979400  1.0  0.1485
  C  C95  1  0.516400  0.851100  0.042000  1.0  -0.2041
  C  C96  1  0.466000  0.783500  0.000600  1.0  0.1644
  C  C97  1  0.400800  0.951200  0.839400  1.0  0.1551
  C  C98  1  0.444900  0.017600  0.876400  1.0  -0.1735
  N  N99  1  0.081400  0.486400  0.245200  1.0  -0.3363
  N  N100  1  0.915400  0.728800  0.102200  1.0  -0.3472
  N  N101  1  0.581400  0.731600  0.754800  1.0  -0.3381
  N  N102  1  0.415400  0.831000  0.897800  1.0  -0.3488
  O  O103  1  0.163100  0.843000  0.760200  1.0  -0.5998
  O  O104  1  0.288600  0.942200  0.612000  1.0  -0.6017
  O  O105  1  0.316500  0.590000  0.942800  1.0  -0.6106
  O  O106  1  0.330700  0.599200  0.783000  1.0  -0.554
  O  O107  1  0.663100  0.603200  0.239800  1.0  -0.6015
  O  O108  1  0.788600  0.554200  0.388000  1.0  -0.6002
  O  O109  1  0.816500  0.532800  0.057200  1.0  -0.6096
  O  O110  1  0.830700  0.382200  0.217000  1.0  -0.5557
