# generated using pymatgen
data_ZnH20C28(NO2)2
_symmetry_space_group_name_H-M   'P 1'
_cell_length_a   8.40600000
_cell_length_b   13.50700000
_cell_length_c   14.13610000
_cell_angle_alpha   61.46150000
_cell_angle_beta   85.78920000
_cell_angle_gamma   81.15910000
_symmetry_Int_Tables_number   1
_chemical_formula_structural   ZnH20C28(NO2)2
_chemical_formula_sum   'Zn2 H40 C56 N4 O8'
_cell_volume   1393.24354753
_cell_formula_units_Z   2
loop_
 _symmetry_equiv_pos_site_id
 _symmetry_equiv_pos_as_xyz
  1  'x, y, z'
loop_
 _atom_site_type_symbol
 _atom_site_label
 _atom_site_symmetry_multiplicity
 _atom_site_fract_x
 _atom_site_fract_y
 _atom_site_fract_z
 _atom_site_occupancy
 _atom_site_charge
  Zn  Zn1  1  0.833620  0.920300  0.182740  1.0  0.8211
  Zn  Zn2  1  0.333620  0.103040  0.817260  1.0  0.8219
  H  H3  1  0.839900  0.024300  0.740600  1.0  0.0869
  H  H4  1  0.079000  0.989600  0.665800  1.0  0.0982
  H  H5  1  0.841200  0.042100  0.407400  1.0  0.1099
  H  H6  1  0.599900  0.081900  0.480600  1.0  0.104
  H  H7  1  0.230800  0.966200  0.527200  1.0  0.0991
  H  H8  1  0.074000  0.999700  0.349200  1.0  0.1086
  H  H9  1  0.457400  0.894700  0.482200  1.0  0.1346
  H  H10  1  0.697100  0.866200  0.402200  1.0  0.0784
  H  H11  1  0.486700  0.990300  0.125000  1.0  0.0699
  H  H12  1  0.240200  0.017200  0.196000  1.0  0.1315
  H  H13  1  0.465800  0.194900  0.075200  1.0  0.0807
  H  H14  1  0.551900  0.307200  0.138600  1.0  0.1243
  H  H15  1  0.532700  0.567000  0.837200  1.0  0.12
  H  H16  1  0.446700  0.454900  0.776200  1.0  0.1024
  H  H17  1  0.636400  0.484600  0.107600  1.0  0.1065
  H  H18  1  0.606300  0.665800  0.906000  1.0  0.0987
  H  H19  1  0.640500  0.847200  0.889200  1.0  0.1111
  H  H20  1  0.705300  0.959700  0.961600  1.0  0.0934
  H  H21  1  0.840200  0.686900  0.230200  1.0  0.0766
  H  H22  1  0.758100  0.570600  0.169800  1.0  0.1294
  H  H23  1  0.339900  0.764900  0.259400  1.0  0.085
  H  H24  1  0.579000  0.655400  0.334200  1.0  0.0979
  H  H25  1  0.341200  0.449500  0.592600  1.0  0.1082
  H  H26  1  0.099900  0.562500  0.519400  1.0  0.1051
  H  H27  1  0.730800  0.493400  0.472800  1.0  0.0982
  H  H28  1  0.574000  0.348900  0.650800  1.0  0.1077
  H  H29  1  0.957400  0.376900  0.517800  1.0  0.135
  H  H30  1  0.197100  0.268400  0.597800  1.0  0.0775
  H  H31  1  0.986700  0.115300  0.875000  1.0  0.0683
  H  H32  1  0.740200  0.213200  0.804000  1.0  0.131
  H  H33  1  0.965800  0.270100  0.924800  1.0  0.0806
  H  H34  1  0.051900  0.445800  0.861400  1.0  0.125
  H  H35  1  0.032700  0.404200  0.162800  1.0  0.1202
  H  H36  1  0.946700  0.231100  0.223800  1.0  0.103
  H  H37  1  0.136400  0.592200  0.892400  1.0  0.1056
  H  H38  1  0.106300  0.571800  0.094000  1.0  0.0981
  H  H39  1  0.140500  0.736400  0.110800  1.0  0.109
  H  H40  1  0.205300  0.921300  0.038400  1.0  0.0938
  H  H41  1  0.340200  0.917100  0.769800  1.0  0.0763
  H  H42  1  0.258100  0.740400  0.830200  1.0  0.1301
  C  C43  1  0.540500  0.082100  0.666000  1.0  0.6539
  C  C44  1  0.694300  0.058500  0.618600  1.0  -0.1456
  C  C45  1  0.839800  0.029200  0.672800  1.0  -0.0285
  C  C46  1  0.983200  0.007200  0.628600  1.0  -0.1614
  C  C47  1  0.985500  0.011300  0.527000  1.0  0.0644
  C  C48  1  0.841600  0.039100  0.474400  1.0  -0.1255
  C  C49  1  0.695500  0.063000  0.518400  1.0  -0.0561
  C  C50  1  0.140500  0.984600  0.484600  1.0  -0.0912
  C  C51  1  0.164300  0.984200  0.390800  1.0  -0.1414
  C  C52  1  0.323400  0.961300  0.346800  1.0  0.127
  C  C53  1  0.460800  0.914200  0.409600  1.0  -0.1853
  C  C54  1  0.603900  0.897100  0.360800  1.0  0.1711
  C  C55  1  0.479800  0.969300  0.198000  1.0  0.1714
  C  C56  1  0.331800  0.987800  0.239000  1.0  -0.2101
  C  C57  1  0.395400  0.240400  0.877400  1.0  0.6299
  C  C58  1  0.447000  0.311000  0.920000  1.0  -0.1398
  C  C59  1  0.479400  0.269700  0.027000  1.0  0.0014
  C  C60  1  0.532200  0.336700  0.065600  1.0  -0.1297
  C  C61  1  0.555000  0.447800  0.994000  1.0  0.0529
  C  C62  1  0.520400  0.491900  0.885200  1.0  -0.1371
  C  C63  1  0.468400  0.424900  0.849000  1.0  -0.0216
  C  C64  1  0.611500  0.520200  0.034600  1.0  -0.0829
  C  C65  1  0.630300  0.629000  0.979200  1.0  -0.1359
  C  C66  1  0.686100  0.696700  0.023600  1.0  0.133
  C  C67  1  0.675500  0.813400  0.960000  1.0  -0.18
  C  C68  1  0.718300  0.881000  0.003200  1.0  0.1644
  C  C69  1  0.794700  0.720200  0.162000  1.0  0.1576
  C  C70  1  0.747700  0.648900  0.125600  1.0  -0.2092
  C  C71  1  0.040500  0.748100  0.334000  1.0  0.6537
  C  C72  1  0.194300  0.677100  0.381400  1.0  -0.1465
  C  C73  1  0.339800  0.702000  0.327200  1.0  -0.0258
  C  C74  1  0.483200  0.635800  0.371400  1.0  -0.1607
  C  C75  1  0.485500  0.538300  0.473000  1.0  0.0645
  C  C76  1  0.341600  0.513500  0.525600  1.0  -0.1243
  C  C77  1  0.195500  0.581400  0.481600  1.0  -0.056
  C  C78  1  0.640500  0.469200  0.515400  1.0  -0.0907
  C  C79  1  0.664300  0.375000  0.609200  1.0  -0.1418
  C  C80  1  0.823400  0.308100  0.653200  1.0  0.1253
  C  C81  1  0.960800  0.323800  0.590400  1.0  -0.1872
  C  C82  1  0.103900  0.257900  0.639200  1.0  0.1707
  C  C83  1  0.979800  0.167300  0.802000  1.0  0.1723
  C  C84  1  0.831800  0.226800  0.761000  1.0  -0.2131
  C  C85  1  0.895400  0.117800  0.122600  1.0  0.6301
  C  C86  1  0.947000  0.231000  0.080000  1.0  -0.1406
  C  C87  1  0.979400  0.296700  0.973000  1.0  0.0003
  C  C88  1  0.032200  0.402300  0.934400  1.0  -0.1289
  C  C89  1  0.055000  0.441800  0.006000  1.0  0.0532
  C  C90  1  0.020400  0.377100  0.114800  1.0  -0.1336
  C  C91  1  0.968400  0.273900  0.151000  1.0  -0.0195
  C  C92  1  0.111500  0.554800  0.965400  1.0  -0.0852
  C  C93  1  0.130300  0.608200  0.020800  1.0  -0.133
  C  C94  1  0.186100  0.720300  0.976400  1.0  0.1335
  C  C95  1  0.175500  0.773400  0.040000  1.0  -0.1758
  C  C96  1  0.218300  0.884200  0.996800  1.0  0.1655
  C  C97  1  0.294700  0.882200  0.838000  1.0  0.1581
  C  C98  1  0.247700  0.774500  0.874400  1.0  -0.2081
  N  N99  1  0.614200  0.923100  0.256400  1.0  -0.3535
  N  N100  1  0.777300  0.833100  0.103600  1.0  -0.3371
  N  N101  1  0.114200  0.179500  0.743600  1.0  -0.3521
  N  N102  1  0.277300  0.936700  0.896400  1.0  -0.3354
  O  O103  1  0.546500  0.070700  0.762400  1.0  -0.5994
  O  O104  1  0.410600  0.109800  0.616800  1.0  -0.5945
  O  O105  1  0.379200  0.135500  0.941800  1.0  -0.5803
  O  O106  1  0.371000  0.281400  0.778600  1.0  -0.5686
  O  O107  1  0.046500  0.833100  0.237600  1.0  -0.5982
  O  O108  1  0.910600  0.726600  0.383200  1.0  -0.5955
  O  O109  1  0.879200  0.077300  0.058200  1.0  -0.5812
  O  O110  1  0.871000  0.060000  0.221400  1.0  -0.5694
