# generated using pymatgen
data_ZnH20C28(NO2)2
_symmetry_space_group_name_H-M   'P 1'
_cell_length_a   8.39850000
_cell_length_b   13.48360000
_cell_length_c   14.18630000
_cell_angle_alpha   61.62550000
_cell_angle_beta   85.79400000
_cell_angle_gamma   81.12200000
_symmetry_Int_Tables_number   1
_chemical_formula_structural   ZnH20C28(NO2)2
_chemical_formula_sum   'Zn2 H40 C56 N4 O8'
_cell_volume   1396.54767569
_cell_formula_units_Z   2
loop_
 _symmetry_equiv_pos_site_id
 _symmetry_equiv_pos_as_xyz
  1  'x, y, z'
loop_
 _atom_site_type_symbol
 _atom_site_label
 _atom_site_symmetry_multiplicity
 _atom_site_fract_x
 _atom_site_fract_y
 _atom_site_fract_z
 _atom_site_occupancy
 _atom_site_charge
  Zn  Zn1  1  0.696430  0.608920  0.182340  1.0  0.8435
  Zn  Zn2  1  0.196430  0.791260  0.817660  1.0  0.8435
  H  H3  1  0.295800  0.218000  0.527000  1.0  0.0964
  H  H4  1  0.891000  0.119500  0.109000  1.0  0.0992
  H  H5  1  0.494200  0.144700  0.163200  1.0  0.1216
  H  H6  1  0.694300  0.264300  0.405800  1.0  0.116
  H  H7  1  0.696000  0.793500  0.232800  1.0  0.0796
  H  H8  1  0.272300  0.141400  0.828800  1.0  0.1225
  H  H9  1  0.569900  0.519100  0.921600  1.0  0.1083
  H  H10  1  0.894400  0.971700  0.889200  1.0  0.1181
  H  H11  1  0.792100  0.690500  0.805000  1.0  0.1334
  H  H12  1  0.070300  0.331100  0.479600  1.0  0.1288
  H  H13  1  0.329900  0.845400  0.598400  1.0  0.0895
  H  H14  1  0.817900  0.791400  0.961400  1.0  0.0887
  H  H15  1  0.795800  0.745000  0.473000  1.0  0.0965
  H  H16  1  0.044400  0.600300  0.125000  1.0  0.0756
  H  H17  1  0.188400  0.685000  0.259600  1.0  0.1004
  H  H18  1  0.930800  0.139000  0.906600  1.0  0.0981
  H  H19  1  0.394400  0.860900  0.110800  1.0  0.1184
  H  H20  1  0.582600  0.258500  0.224200  1.0  0.1069
  H  H21  1  0.317900  0.752800  0.038600  1.0  0.0874
  H  H22  1  0.292100  0.495500  0.195000  1.0  0.1325
  H  H23  1  0.194300  0.670100  0.594200  1.0  0.1189
  H  H24  1  0.473300  0.404200  0.861000  1.0  0.1139
  H  H25  1  0.082600  0.482700  0.775800  1.0  0.1067
  H  H26  1  0.688400  0.944600  0.740400  1.0  0.098
  H  H27  1  0.570300  0.810700  0.520400  1.0  0.1285
  H  H28  1  0.461400  0.361300  0.349600  1.0  0.0953
  H  H29  1  0.994200  0.307900  0.836800  1.0  0.1229
  H  H30  1  0.544400  0.725300  0.875000  1.0  0.0769
  H  H31  1  0.448900  0.057500  0.662000  1.0  0.094
  H  H32  1  0.961400  0.710900  0.650400  1.0  0.0966
  H  H33  1  0.391000  0.228500  0.891000  1.0  0.097
  H  H34  1  0.430800  0.045600  0.093400  1.0  0.0984
  H  H35  1  0.432000  0.629100  0.520000  1.0  0.1007
  H  H36  1  0.069900  0.440700  0.078400  1.0  0.1073
  H  H37  1  0.973300  0.265200  0.139000  1.0  0.1133
  H  H38  1  0.196000  0.026300  0.767200  1.0  0.0805
  H  H39  1  0.932000  0.149100  0.480000  1.0  0.1017
  H  H40  1  0.772300  0.970200  0.171200  1.0  0.1234
  H  H41  1  0.829900  0.443800  0.401600  1.0  0.0893
  H  H42  1  0.948900  0.719500  0.338000  1.0  0.0945
  C  C43  1  0.509300  0.220600  0.113800  1.0  -0.1199
  C  C44  1  0.068200  0.387100  0.406400  1.0  -0.1766
  C  C45  1  0.356700  0.897300  0.039000  1.0  -0.2043
  C  C46  1  0.009300  0.334400  0.886200  1.0  -0.1165
  C  C47  1  0.708500  0.749000  0.653600  1.0  0.0454
  C  C48  1  0.581700  0.399700  0.079600  1.0  -0.131
  C  C49  1  0.856700  0.936300  0.961000  1.0  -0.2019
  C  C50  1  0.739400  0.829300  0.162600  1.0  0.1813
  C  C51  1  0.424900  0.812800  0.640800  1.0  0.1582
  C  C52  1  0.239400  0.991900  0.837400  1.0  0.1801
  C  C53  1  0.478500  0.262200  0.004400  1.0  -0.0144
  C  C54  1  0.903800  0.102100  0.980600  1.0  -0.1263
  C  C55  1  0.809700  0.828200  0.004800  1.0  0.1761
  C  C56  1  0.848400  0.991600  0.022000  1.0  0.1246
  C  C57  1  0.403800  0.082700  0.019400  1.0  -0.1267
  C  C58  1  0.836700  0.036200  0.619200  1.0  -0.1196
  C  C59  1  0.888500  0.726600  0.515800  1.0  -0.1299
  C  C60  1  0.868100  0.726400  0.609000  1.0  -0.1229
  C  C61  1  0.309700  0.833000  0.995200  1.0  0.1774
  C  C62  1  0.784300  0.935000  0.126400  1.0  -0.2058
  C  C63  1  0.284300  0.061400  0.873600  1.0  -0.2097
  C  C64  1  0.920200  0.156100  0.035400  1.0  -0.1132
  C  C65  1  0.699000  0.722300  0.760800  1.0  -0.2205
  C  C66  1  0.133300  0.593500  0.877600  1.0  0.6448
  C  C67  1  0.192600  0.672700  0.526200  1.0  -0.1058
  C  C68  1  0.047800  0.702800  0.374400  1.0  -0.0914
  C  C69  1  0.388500  0.242400  0.484200  1.0  -0.1302
  C  C70  1  0.334000  0.649500  0.481600  1.0  -0.0375
  C  C71  1  0.052800  0.414300  0.029200  1.0  -0.0669
  C  C72  1  0.690000  0.009700  0.672000  1.0  -0.0411
  C  C73  1  0.552800  0.443500  0.970800  1.0  -0.0561
  C  C74  1  0.420200  0.191500  0.964600  1.0  -0.1152
  C  C75  1  0.061000  0.438500  0.850000  1.0  -0.0296
  C  C76  1  0.491800  0.631200  0.331600  1.0  0.6778
  C  C77  1  0.199000  0.483100  0.239200  1.0  -0.2194
  C  C78  1  0.368100  0.335400  0.391000  1.0  -0.1266
  C  C79  1  0.834000  0.131100  0.518400  1.0  -0.036
  C  C80  1  0.190000  0.681700  0.328000  1.0  -0.0414
  C  C81  1  0.561000  0.288500  0.150000  1.0  -0.0308
  C  C82  1  0.336700  0.655400  0.380800  1.0  -0.1176
  C  C83  1  0.633300  0.471100  0.122400  1.0  0.6458
  C  C84  1  0.978500  0.266600  0.995600  1.0  -0.0143
  C  C85  1  0.497700  0.373700  0.934800  1.0  -0.0867
  C  C86  1  0.924900  0.453600  0.359200  1.0  0.1567
  C  C87  1  0.046500  0.700000  0.473600  1.0  0.0287
  C  C88  1  0.692600  0.198900  0.473800  1.0  -0.1053
  C  C89  1  0.546500  0.173600  0.526400  1.0  0.0286
  C  C90  1  0.208500  0.402600  0.346400  1.0  0.045
  C  C91  1  0.550300  0.743200  0.801600  1.0  0.1773
  C  C92  1  0.050300  0.544800  0.198400  1.0  0.1791
  C  C93  1  0.348400  0.013600  0.978000  1.0  0.1244
  C  C94  1  0.991800  0.962800  0.668400  1.0  0.6778
  C  C95  1  0.568200  0.793500  0.593600  1.0  -0.1758
  C  C96  1  0.081700  0.479300  0.920400  1.0  -0.1313
  C  C97  1  0.547800  0.077200  0.625600  1.0  -0.0921
  C  C98  1  0.997700  0.308500  0.065200  1.0  -0.0877
  N  N99  1  0.253300  0.878600  0.895000  1.0  -0.3272
  N  N100  1  0.753300  0.773600  0.105000  1.0  -0.3204
  N  N101  1  0.916100  0.531400  0.255200  1.0  -0.3304
  N  N102  1  0.416100  0.786600  0.744800  1.0  -0.3301
  O  O103  1  0.485400  0.642600  0.238200  1.0  -0.592
  O  O104  1  0.152800  0.635310  0.940380  1.0  -0.577
  O  O105  1  0.985400  0.880800  0.761800  1.0  -0.5907
  O  O106  1  0.621200  0.604700  0.382200  1.0  -0.595
  O  O107  1  0.657200  0.430850  0.220900  1.0  -0.5898
  O  O108  1  0.652800  0.575690  0.059620  1.0  -0.5749
  O  O109  1  0.157200  0.651750  0.779100  1.0  -0.5897
  O  O110  1  0.121200  0.986900  0.617800  1.0  -0.5973
