# generated using pymatgen
data_MnH5C10N3O4
_symmetry_space_group_name_H-M   'P 1'
_cell_length_a   12.28620000
_cell_length_b   14.94710000
_cell_length_c   20.89590000
_cell_angle_alpha   90.00000000
_cell_angle_beta   90.00000000
_cell_angle_gamma   90.00000000
_symmetry_Int_Tables_number   1
_chemical_formula_structural   MnH5C10N3O4
_chemical_formula_sum   'Mn8 H40 C80 N24 O32'
_cell_volume   3837.38701787
_cell_formula_units_Z   8
loop_
 _symmetry_equiv_pos_site_id
 _symmetry_equiv_pos_as_xyz
  1  'x, y, z'
loop_
 _atom_site_type_symbol
 _atom_site_label
 _atom_site_symmetry_multiplicity
 _atom_site_fract_x
 _atom_site_fract_y
 _atom_site_fract_z
 _atom_site_occupancy
 _atom_site_charge
  Mn  Mn1  1  0.915690  0.624560  0.306330  1.0  1.0385
  Mn  Mn2  1  0.584310  0.875440  0.806330  1.0  1.0384
  Mn  Mn3  1  0.084310  0.624560  0.193670  1.0  1.0387
  Mn  Mn4  1  0.415690  0.875440  0.693670  1.0  1.0387
  Mn  Mn5  1  0.084310  0.375440  0.693670  1.0  1.0386
  Mn  Mn6  1  0.415690  0.124560  0.193670  1.0  1.0387
  Mn  Mn7  1  0.915690  0.375440  0.806330  1.0  1.0385
  Mn  Mn8  1  0.584310  0.124560  0.306330  1.0  1.0384
  H  H9  1  0.599900  0.619500  0.460000  1.0  0.1151
  H  H10  1  0.916900  0.640000  0.464600  1.0  0.1095
  H  H11  1  0.868200  0.529700  0.568800  1.0  0.119
  H  H12  1  0.745600  0.625600  0.733100  1.0  0.1178
  H  H13  1  0.640500  0.723500  0.565300  1.0  0.1215
  H  H14  1  0.900100  0.880500  0.960000  1.0  0.114
  H  H15  1  0.583100  0.860000  0.964600  1.0  0.111
  H  H16  1  0.631800  0.970300  0.068800  1.0  0.119
  H  H17  1  0.754400  0.874400  0.233100  1.0  0.118
  H  H18  1  0.859500  0.776500  0.065300  1.0  0.1216
  H  H19  1  0.400100  0.619500  0.040000  1.0  0.1139
  H  H20  1  0.083100  0.640000  0.035400  1.0  0.1115
  H  H21  1  0.131800  0.529700  0.931200  1.0  0.119
  H  H22  1  0.254400  0.625600  0.766900  1.0  0.118
  H  H23  1  0.359500  0.723500  0.934700  1.0  0.1215
  H  H24  1  0.099900  0.880500  0.540000  1.0  0.1151
  H  H25  1  0.416900  0.860000  0.535400  1.0  0.1096
  H  H26  1  0.368200  0.970300  0.431200  1.0  0.1195
  H  H27  1  0.245600  0.874400  0.266900  1.0  0.1181
  H  H28  1  0.140500  0.776500  0.434700  1.0  0.1211
  H  H29  1  0.400100  0.380500  0.540000  1.0  0.1141
  H  H30  1  0.083100  0.360000  0.535400  1.0  0.1112
  H  H31  1  0.131800  0.470300  0.431200  1.0  0.1191
  H  H32  1  0.254400  0.374400  0.266900  1.0  0.118
  H  H33  1  0.359500  0.276500  0.434700  1.0  0.1215
  H  H34  1  0.099900  0.119500  0.040000  1.0  0.1152
  H  H35  1  0.416900  0.140000  0.035400  1.0  0.11
  H  H36  1  0.368200  0.029700  0.931200  1.0  0.1195
  H  H37  1  0.245600  0.125600  0.766900  1.0  0.1181
  H  H38  1  0.140500  0.223500  0.934700  1.0  0.1214
  H  H39  1  0.599900  0.380500  0.960000  1.0  0.1148
  H  H40  1  0.916900  0.360000  0.964600  1.0  0.1097
  H  H41  1  0.868200  0.470300  0.068800  1.0  0.1193
  H  H42  1  0.745600  0.374400  0.233100  1.0  0.1178
  H  H43  1  0.640500  0.276500  0.065300  1.0  0.1211
  H  H44  1  0.900100  0.119500  0.460000  1.0  0.1139
  H  H45  1  0.583100  0.140000  0.464600  1.0  0.1108
  H  H46  1  0.631800  0.029700  0.568800  1.0  0.1184
  H  H47  1  0.754400  0.125600  0.733100  1.0  0.1179
  H  H48  1  0.859500  0.223500  0.565300  1.0  0.1216
  C  C49  1  0.672600  0.618600  0.447500  1.0  0.1487
  C  C50  1  0.846000  0.630800  0.450400  1.0  0.1255
  C  C51  1  0.753700  0.623200  0.557100  1.0  0.079
  C  C52  1  0.820100  0.567200  0.590300  1.0  -0.127
  C  C53  1  0.815000  0.566900  0.657500  1.0  -0.0868
  C  C54  1  0.748300  0.625800  0.688700  1.0  -0.0136
  C  C55  1  0.684200  0.686300  0.654100  1.0  -0.0873
  C  C56  1  0.612600  0.753100  0.689600  1.0  0.698
  C  C57  1  0.684600  0.684800  0.588600  1.0  -0.1342
  C  C58  1  0.880300  0.499000  0.693600  1.0  0.6987
  C  C59  1  0.827400  0.881400  0.947500  1.0  0.1494
  C  C60  1  0.654000  0.869200  0.950400  1.0  0.1255
  C  C61  1  0.746300  0.876800  0.057100  1.0  0.0788
  C  C62  1  0.679900  0.932800  0.090300  1.0  -0.1267
  C  C63  1  0.685000  0.933100  0.157500  1.0  -0.0868
  C  C64  1  0.751700  0.874200  0.188700  1.0  -0.0134
  C  C65  1  0.815800  0.813700  0.154100  1.0  -0.0869
  C  C66  1  0.887400  0.746900  0.189600  1.0  0.6977
  C  C67  1  0.815400  0.815200  0.088600  1.0  -0.134
  C  C68  1  0.619700  0.001000  0.193600  1.0  0.6997
  C  C69  1  0.327400  0.618600  0.052500  1.0  0.1494
  C  C70  1  0.154000  0.630800  0.049600  1.0  0.1248
  C  C71  1  0.246300  0.623200  0.942900  1.0  0.0787
  C  C72  1  0.179900  0.567200  0.909700  1.0  -0.1265
  C  C73  1  0.185000  0.566900  0.842500  1.0  -0.0868
  C  C74  1  0.251700  0.625800  0.811300  1.0  -0.012
  C  C75  1  0.315800  0.686300  0.845900  1.0  -0.0868
  C  C76  1  0.387400  0.753100  0.810400  1.0  0.6979
  C  C77  1  0.315400  0.684800  0.911400  1.0  -0.1333
  C  C78  1  0.119700  0.499000  0.806400  1.0  0.6993
  C  C79  1  0.172600  0.881400  0.552500  1.0  0.1488
  C  C80  1  0.346000  0.869200  0.549600  1.0  0.1258
  C  C81  1  0.253700  0.876800  0.442900  1.0  0.0789
  C  C82  1  0.320100  0.932800  0.409700  1.0  -0.1273
  C  C83  1  0.315000  0.933100  0.342500  1.0  -0.0867
  C  C84  1  0.248300  0.874200  0.311300  1.0  -0.0119
  C  C85  1  0.184200  0.813700  0.345900  1.0  -0.0865
  C  C86  1  0.112600  0.746900  0.310400  1.0  0.6975
  C  C87  1  0.184600  0.815200  0.411400  1.0  -0.1346
  C  C88  1  0.380300  0.001000  0.306400  1.0  0.6987
  C  C89  1  0.327400  0.381400  0.552500  1.0  0.1494
  C  C90  1  0.154000  0.369200  0.549600  1.0  0.1255
  C  C91  1  0.246300  0.376800  0.442900  1.0  0.0787
  C  C92  1  0.179900  0.432800  0.409700  1.0  -0.1269
  C  C93  1  0.185000  0.433100  0.342500  1.0  -0.0867
  C  C94  1  0.251700  0.374200  0.311300  1.0  -0.0119
  C  C95  1  0.315800  0.313700  0.345900  1.0  -0.0864
  C  C96  1  0.387400  0.246900  0.310400  1.0  0.6974
  C  C97  1  0.315400  0.315200  0.411400  1.0  -0.134
  C  C98  1  0.119700  0.501000  0.306400  1.0  0.6996
  C  C99  1  0.172600  0.118600  0.052500  1.0  0.149
  C  C100  1  0.346000  0.130800  0.049600  1.0  0.1253
  C  C101  1  0.253700  0.123200  0.942900  1.0  0.0789
  C  C102  1  0.320100  0.067200  0.909700  1.0  -0.1272
  C  C103  1  0.315000  0.066900  0.842500  1.0  -0.0867
  C  C104  1  0.248300  0.125800  0.811300  1.0  -0.012
  C  C105  1  0.184200  0.186300  0.845900  1.0  -0.0867
  C  C106  1  0.112600  0.253100  0.810400  1.0  0.6978
  C  C107  1  0.184600  0.184800  0.911400  1.0  -0.1344
  C  C108  1  0.380300  0.999000  0.806400  1.0  0.6982
  C  C109  1  0.672600  0.381400  0.947500  1.0  0.1486
  C  C110  1  0.846000  0.369200  0.950400  1.0  0.126
  C  C111  1  0.753700  0.376800  0.057100  1.0  0.079
  C  C112  1  0.820100  0.432800  0.090300  1.0  -0.1269
  C  C113  1  0.815000  0.433100  0.157500  1.0  -0.0869
  C  C114  1  0.748300  0.374200  0.188700  1.0  -0.0136
  C  C115  1  0.684200  0.313700  0.154100  1.0  -0.0868
  C  C116  1  0.612600  0.246900  0.189600  1.0  0.6976
  C  C117  1  0.684600  0.315200  0.088600  1.0  -0.1347
  C  C118  1  0.880300  0.501000  0.193600  1.0  0.6991
  C  C119  1  0.827400  0.118600  0.447500  1.0  0.1494
  C  C120  1  0.654000  0.130800  0.450400  1.0  0.1248
  C  C121  1  0.746300  0.123200  0.557100  1.0  0.0788
  C  C122  1  0.679900  0.067200  0.590300  1.0  -0.1265
  C  C123  1  0.685000  0.066900  0.657500  1.0  -0.0866
  C  C124  1  0.751700  0.125800  0.688700  1.0  -0.0134
  C  C125  1  0.815800  0.186300  0.654100  1.0  -0.0875
  C  C126  1  0.887400  0.253100  0.689600  1.0  0.6981
  C  C127  1  0.815400  0.184800  0.588600  1.0  -0.1331
  C  C128  1  0.619700  0.999000  0.693600  1.0  0.6994
  N  N129  1  0.757100  0.623300  0.488600  1.0  -0.003
  N  N130  1  0.816700  0.623200  0.390800  1.0  -0.2074
  N  N131  1  0.704600  0.612500  0.388800  1.0  -0.2725
  N  N132  1  0.742900  0.876700  0.988600  1.0  -0.0028
  N  N133  1  0.683300  0.876800  0.890800  1.0  -0.2066
  N  N134  1  0.795400  0.887500  0.888800  1.0  -0.2731
  N  N135  1  0.242900  0.623300  0.011400  1.0  -0.0031
  N  N136  1  0.183300  0.623200  0.109200  1.0  -0.2076
  N  N137  1  0.295400  0.612500  0.111200  1.0  -0.2721
  N  N138  1  0.257100  0.876700  0.511400  1.0  -0.0035
  N  N139  1  0.316700  0.876800  0.609200  1.0  -0.2082
  N  N140  1  0.204600  0.887500  0.611200  1.0  -0.2716
  N  N141  1  0.242900  0.376700  0.511400  1.0  -0.0032
  N  N142  1  0.183300  0.376800  0.609200  1.0  -0.2076
  N  N143  1  0.295400  0.387500  0.611200  1.0  -0.2721
  N  N144  1  0.257100  0.123300  0.011400  1.0  -0.0034
  N  N145  1  0.316700  0.123200  0.109200  1.0  -0.2082
  N  N146  1  0.204600  0.112500  0.111200  1.0  -0.2719
  N  N147  1  0.757100  0.376700  0.988600  1.0  -0.003
  N  N148  1  0.816700  0.376800  0.890800  1.0  -0.2074
  N  N149  1  0.704600  0.387500  0.888800  1.0  -0.2719
  N  N150  1  0.742900  0.123300  0.488600  1.0  -0.0028
  N  N151  1  0.683300  0.123200  0.390800  1.0  -0.2066
  N  N152  1  0.795400  0.112500  0.388800  1.0  -0.2733
  O  O153  1  0.643500  0.776100  0.743300  1.0  -0.597
  O  O154  1  0.530500  0.780600  0.660600  1.0  -0.6209
  O  O155  1  0.849200  0.477200  0.748300  1.0  -0.5948
  O  O156  1  0.962800  0.468700  0.665800  1.0  -0.6294
  O  O157  1  0.856500  0.723900  0.243300  1.0  -0.5981
  O  O158  1  0.969500  0.719400  0.160600  1.0  -0.6215
  O  O159  1  0.650800  0.022800  0.248300  1.0  -0.5937
  O  O160  1  0.537200  0.031300  0.165800  1.0  -0.6292
  O  O161  1  0.356500  0.776100  0.756700  1.0  -0.5983
  O  O162  1  0.469500  0.780600  0.839400  1.0  -0.6215
  O  O163  1  0.150800  0.477200  0.751700  1.0  -0.5932
  O  O164  1  0.037200  0.468700  0.834200  1.0  -0.6295
  O  O165  1  0.143500  0.723900  0.256700  1.0  -0.5984
  O  O166  1  0.030500  0.719400  0.339400  1.0  -0.6213
  O  O167  1  0.349200  0.022800  0.251700  1.0  -0.5935
  O  O168  1  0.462800  0.031300  0.334200  1.0  -0.6289
  O  O169  1  0.356500  0.223900  0.256700  1.0  -0.5986
  O  O170  1  0.469500  0.219400  0.339400  1.0  -0.6212
  O  O171  1  0.150800  0.522800  0.251700  1.0  -0.5934
  O  O172  1  0.037200  0.531300  0.334200  1.0  -0.6286
  O  O173  1  0.143500  0.276100  0.756700  1.0  -0.5981
  O  O174  1  0.030500  0.280600  0.839400  1.0  -0.6206
  O  O175  1  0.349200  0.977200  0.751700  1.0  -0.5937
  O  O176  1  0.462800  0.968700  0.834200  1.0  -0.6291
  O  O177  1  0.643500  0.223900  0.243300  1.0  -0.5974
  O  O178  1  0.530500  0.219400  0.160600  1.0  -0.6202
  O  O179  1  0.849200  0.522800  0.248300  1.0  -0.5949
  O  O180  1  0.962800  0.531300  0.165800  1.0  -0.6295
  O  O181  1  0.856500  0.276100  0.743300  1.0  -0.5975
  O  O182  1  0.969500  0.280600  0.660600  1.0  -0.6206
  O  O183  1  0.650800  0.977200  0.748300  1.0  -0.5942
  O  O184  1  0.537200  0.968700  0.665800  1.0  -0.6293
