# generated using pymatgen
data_Cu2H9C25NO8
_symmetry_space_group_name_H-M   'P 1'
_cell_length_a   26.93770000
_cell_length_b   26.93770000
_cell_length_c   26.93770000
_cell_angle_alpha   109.47100000
_cell_angle_beta   109.47100000
_cell_angle_gamma   109.47100000
_symmetry_Int_Tables_number   1
_chemical_formula_structural   Cu2H9C25NO8
_chemical_formula_sum   'Cu24 H108 C300 N12 O96'
_cell_volume   15047.45983296
_cell_formula_units_Z   12
loop_
 _symmetry_equiv_pos_site_id
 _symmetry_equiv_pos_as_xyz
  1  'x, y, z'
loop_
 _atom_site_type_symbol
 _atom_site_label
 _atom_site_symmetry_multiplicity
 _atom_site_fract_x
 _atom_site_fract_y
 _atom_site_fract_z
 _atom_site_occupancy
 _atom_site_charge
  Cu  Cu1  1  0.819440  0.180560  0.000000  1.0  0.8563
  Cu  Cu2  1  0.180560  0.819440  0.000000  1.0  0.8564
  Cu  Cu3  1  0.819440  0.819440  0.638880  1.0  0.8599
  Cu  Cu4  1  0.180560  0.180560  0.361120  1.0  0.8614
  Cu  Cu5  1  0.638880  0.819440  0.819440  1.0  0.8634
  Cu  Cu6  1  0.361120  0.180560  0.180560  1.0  0.8606
  Cu  Cu7  1  0.000000  0.819440  0.180560  1.0  0.8565
  Cu  Cu8  1  0.000000  0.180560  0.819440  1.0  0.8526
  Cu  Cu9  1  0.819440  0.000000  0.180560  1.0  0.8551
  Cu  Cu10  1  0.180560  0.000000  0.819440  1.0  0.8542
  Cu  Cu11  1  0.180560  0.361120  0.180560  1.0  0.8621
  Cu  Cu12  1  0.819440  0.638880  0.819440  1.0  0.861
  Cu  Cu13  1  0.481030  0.240520  0.240520  1.0  0.8417
  Cu  Cu14  1  0.000000  0.240510  0.759490  1.0  0.8462
  Cu  Cu15  1  0.000000  0.759490  0.240510  1.0  0.8457
  Cu  Cu16  1  0.518970  0.759480  0.759480  1.0  0.8416
  Cu  Cu17  1  0.240510  0.000000  0.759480  1.0  0.8454
  Cu  Cu18  1  0.759490  0.518980  0.759490  1.0  0.843
  Cu  Cu19  1  0.240510  0.481020  0.240510  1.0  0.8434
  Cu  Cu20  1  0.759490  0.000000  0.240520  1.0  0.847
  Cu  Cu21  1  0.240510  0.759480  0.000000  1.0  0.8441
  Cu  Cu22  1  0.240510  0.240510  0.481020  1.0  0.8437
  Cu  Cu23  1  0.759490  0.759490  0.518980  1.0  0.843
  Cu  Cu24  1  0.759490  0.240520  0.000000  1.0  0.8446
  H  H25  1  0.739800  0.247300  0.157100  1.0  0.1137
  H  H26  1  0.090200  0.582700  0.842900  1.0  0.1124
  H  H27  1  0.909800  0.752700  0.492500  1.0  0.1132
  H  H28  1  0.260200  0.417300  0.507500  1.0  0.112
  H  H29  1  0.492500  0.909800  0.752700  1.0  0.1121
  H  H30  1  0.507500  0.260200  0.417300  1.0  0.1125
  H  H31  1  0.157100  0.739800  0.247300  1.0  0.1122
  H  H32  1  0.842900  0.090200  0.582700  1.0  0.1129
  H  H33  1  0.582700  0.842900  0.090200  1.0  0.1125
  H  H34  1  0.247300  0.157100  0.739800  1.0  0.1129
  H  H35  1  0.417300  0.507500  0.260200  1.0  0.1137
  H  H36  1  0.752700  0.492500  0.909800  1.0  0.1121
  H  H37  1  0.752700  0.260200  0.842900  1.0  0.1139
  H  H38  1  0.417300  0.909800  0.157100  1.0  0.1123
  H  H39  1  0.247300  0.090200  0.507500  1.0  0.1125
  H  H40  1  0.582700  0.739800  0.492500  1.0  0.1116
  H  H41  1  0.090200  0.507500  0.247300  1.0  0.1132
  H  H42  1  0.739800  0.492500  0.582700  1.0  0.1122
  H  H43  1  0.260200  0.842900  0.752700  1.0  0.1127
  H  H44  1  0.909800  0.157100  0.417300  1.0  0.1132
  H  H45  1  0.157100  0.417300  0.909800  1.0  0.1121
  H  H46  1  0.842900  0.752700  0.260200  1.0  0.1142
  H  H47  1  0.492500  0.582700  0.739800  1.0  0.1134
  H  H48  1  0.507500  0.247300  0.090200  1.0  0.1118
  H  H49  1  0.260200  0.752700  0.842900  1.0  0.113
  H  H50  1  0.909800  0.417300  0.157100  1.0  0.1133
  H  H51  1  0.090200  0.247300  0.507500  1.0  0.1134
  H  H52  1  0.739800  0.582700  0.492500  1.0  0.1119
  H  H53  1  0.507500  0.090200  0.247300  1.0  0.1121
  H  H54  1  0.492500  0.739800  0.582700  1.0  0.1129
  H  H55  1  0.842900  0.260200  0.752700  1.0  0.1128
  H  H56  1  0.157100  0.909800  0.417300  1.0  0.1126
  H  H57  1  0.417300  0.157100  0.909800  1.0  0.1115
  H  H58  1  0.752700  0.842900  0.260200  1.0  0.1143
  H  H59  1  0.582700  0.492500  0.739800  1.0  0.1135
  H  H60  1  0.247300  0.507500  0.090200  1.0  0.1119
  H  H61  1  0.247300  0.739800  0.157100  1.0  0.1131
  H  H62  1  0.582700  0.090200  0.842900  1.0  0.1127
  H  H63  1  0.752700  0.909800  0.492500  1.0  0.1127
  H  H64  1  0.417300  0.260200  0.507500  1.0  0.1117
  H  H65  1  0.909800  0.492500  0.752700  1.0  0.113
  H  H66  1  0.260200  0.507500  0.417300  1.0  0.1128
  H  H67  1  0.739800  0.157100  0.247300  1.0  0.1125
  H  H68  1  0.090200  0.842900  0.582700  1.0  0.1124
  H  H69  1  0.842900  0.582700  0.090200  1.0  0.112
  H  H70  1  0.157100  0.247300  0.739800  1.0  0.1144
  H  H71  1  0.507500  0.417300  0.260200  1.0  0.1122
  H  H72  1  0.492500  0.752700  0.909800  1.0  0.1118
  H  H73  1  0.746000  0.373000  0.373000  1.0  0.1067
  H  H74  1  0.000000  0.373000  0.627000  1.0  0.1054
  H  H75  1  0.000000  0.627000  0.373000  1.0  0.1071
  H  H76  1  0.254000  0.627000  0.627000  1.0  0.1056
  H  H77  1  0.373000  0.000000  0.627000  1.0  0.1055
  H  H78  1  0.627000  0.254000  0.627000  1.0  0.1077
  H  H79  1  0.373000  0.746000  0.373000  1.0  0.107
  H  H80  1  0.627000  0.000000  0.373000  1.0  0.1066
  H  H81  1  0.373000  0.627000  0.000000  1.0  0.1058
  H  H82  1  0.373000  0.373000  0.746000  1.0  0.1074
  H  H83  1  0.627000  0.627000  0.254000  1.0  0.1052
  H  H84  1  0.627000  0.373000  0.000000  1.0  0.1064
  H  H85  1  0.788800  0.119800  0.119800  1.0  0.0983
  H  H86  1  0.588200  0.231000  0.231000  1.0  0.0846
  H  H87  1  0.000000  0.669000  0.880200  1.0  0.0969
  H  H88  1  0.000000  0.357200  0.769000  1.0  0.0834
  H  H89  1  0.000000  0.880200  0.669000  1.0  0.0983
  H  H90  1  0.000000  0.769000  0.357200  1.0  0.0842
  H  H91  1  0.211200  0.331000  0.331000  1.0  0.0981
  H  H92  1  0.411800  0.642800  0.642800  1.0  0.0831
  H  H93  1  0.669000  0.000000  0.880200  1.0  0.0972
  H  H94  1  0.357200  0.000000  0.769000  1.0  0.083
  H  H95  1  0.331000  0.211200  0.331000  1.0  0.097
  H  H96  1  0.642800  0.411800  0.642800  1.0  0.0827
  H  H97  1  0.119800  0.788800  0.119800  1.0  0.0978
  H  H98  1  0.231000  0.588200  0.231000  1.0  0.0831
  H  H99  1  0.880200  0.000000  0.669000  1.0  0.0989
  H  H100  1  0.769000  0.000000  0.357200  1.0  0.082
  H  H101  1  0.669000  0.880200  0.000000  1.0  0.0971
  H  H102  1  0.357200  0.769000  0.000000  1.0  0.0837
  H  H103  1  0.119800  0.119800  0.788800  1.0  0.0994
  H  H104  1  0.231000  0.231000  0.588200  1.0  0.0851
  H  H105  1  0.331000  0.331000  0.211200  1.0  0.0978
  H  H106  1  0.642800  0.642800  0.411800  1.0  0.0846
  H  H107  1  0.880200  0.669000  0.000000  1.0  0.0973
  H  H108  1  0.769000  0.357200  0.000000  1.0  0.0824
  H  H109  1  0.880200  0.211200  0.880200  1.0  0.0981
  H  H110  1  0.769000  0.411800  0.769000  1.0  0.0822
  H  H111  1  0.331000  0.000000  0.119800  1.0  0.098
  H  H112  1  0.642800  0.000000  0.231000  1.0  0.0829
  H  H113  1  0.119800  0.000000  0.331000  1.0  0.098
  H  H114  1  0.231000  0.000000  0.642800  1.0  0.0823
  H  H115  1  0.669000  0.788800  0.669000  1.0  0.0977
  H  H116  1  0.357200  0.588200  0.357200  1.0  0.0828
  H  H117  1  0.000000  0.331000  0.119800  1.0  0.0977
  H  H118  1  0.000000  0.642800  0.231000  1.0  0.0836
  H  H119  1  0.788800  0.669000  0.669000  1.0  0.0983
  H  H120  1  0.588200  0.357200  0.357200  1.0  0.0828
  H  H121  1  0.211200  0.880200  0.880200  1.0  0.0979
  H  H122  1  0.411800  0.769000  0.769000  1.0  0.0839
  H  H123  1  0.000000  0.119800  0.331000  1.0  0.0979
  H  H124  1  0.000000  0.231000  0.642800  1.0  0.084
  H  H125  1  0.119800  0.331000  0.000000  1.0  0.0982
  H  H126  1  0.231000  0.642800  0.000000  1.0  0.0821
  H  H127  1  0.880200  0.880200  0.211200  1.0  0.0992
  H  H128  1  0.769000  0.769000  0.411800  1.0  0.0849
  H  H129  1  0.669000  0.669000  0.788800  1.0  0.0984
  H  H130  1  0.357200  0.357200  0.588200  1.0  0.0842
  H  H131  1  0.331000  0.119800  0.000000  1.0  0.0973
  H  H132  1  0.642800  0.231000  0.000000  1.0  0.0834
  C  C133  1  0.764870  0.182950  0.131680  1.0  -0.148
  C  C134  1  0.745900  0.217920  0.164820  1.0  -0.107
  C  C135  1  0.773000  0.193920  0.081920  1.0  0.6618
  C  C136  1  0.051270  0.633190  0.868320  1.0  -0.1484
  C  C137  1  0.053100  0.581080  0.835180  1.0  -0.1036
  C  C138  1  0.112000  0.691080  0.918080  1.0  0.6728
  C  C139  1  0.948730  0.817050  0.581920  1.0  -0.1505
  C  C140  1  0.946900  0.782080  0.527980  1.0  -0.1039
  C  C141  1  0.888000  0.806080  0.579080  1.0  0.6672
  C  C142  1  0.235130  0.366810  0.418080  1.0  -0.1488
  C  C143  1  0.254100  0.418920  0.472020  1.0  -0.0993
  C  C144  1  0.227000  0.308920  0.420920  1.0  0.668
  C  C145  1  0.581920  0.948730  0.817050  1.0  -0.1503
  C  C146  1  0.527980  0.946900  0.782080  1.0  -0.1054
  C  C147  1  0.579080  0.888000  0.806080  1.0  0.6679
  C  C148  1  0.418080  0.235130  0.366810  1.0  -0.1487
  C  C149  1  0.472020  0.254100  0.418920  1.0  -0.1046
  C  C150  1  0.420920  0.227000  0.308920  1.0  0.6686
  C  C151  1  0.131680  0.764870  0.182950  1.0  -0.1483
  C  C152  1  0.164820  0.745900  0.217920  1.0  -0.1015
  C  C153  1  0.081920  0.773000  0.193920  1.0  0.6602
  C  C154  1  0.868320  0.051270  0.633190  1.0  -0.1486
  C  C155  1  0.835180  0.053100  0.581080  1.0  -0.1055
  C  C156  1  0.918080  0.112000  0.691080  1.0  0.6738
  C  C157  1  0.633190  0.868320  0.051270  1.0  -0.1483
  C  C158  1  0.581080  0.835180  0.053100  1.0  -0.0993
  C  C159  1  0.691080  0.918080  0.112000  1.0  0.6728
  C  C160  1  0.182950  0.131680  0.764870  1.0  -0.1485
  C  C161  1  0.217920  0.164820  0.745900  1.0  -0.1058
  C  C162  1  0.193920  0.081920  0.773000  1.0  0.6613
  C  C163  1  0.366810  0.418080  0.235130  1.0  -0.149
  C  C164  1  0.418920  0.472020  0.254100  1.0  -0.1062
  C  C165  1  0.308920  0.420920  0.227000  1.0  0.669
  C  C166  1  0.817050  0.581920  0.948730  1.0  -0.1504
  C  C167  1  0.782080  0.527980  0.946900  1.0  -0.1041
  C  C168  1  0.806080  0.579080  0.888000  1.0  0.6685
  C  C169  1  0.817050  0.235130  0.868320  1.0  -0.1485
  C  C170  1  0.782080  0.254100  0.835180  1.0  -0.1058
  C  C171  1  0.806080  0.227000  0.918080  1.0  0.6622
  C  C172  1  0.366810  0.948730  0.131680  1.0  -0.1486
  C  C173  1  0.418920  0.946900  0.164820  1.0  -0.1043
  C  C174  1  0.308920  0.888000  0.081920  1.0  0.6727
  C  C175  1  0.182950  0.051270  0.418080  1.0  -0.1508
  C  C176  1  0.217920  0.053100  0.472020  1.0  -0.1021
  C  C177  1  0.193920  0.112000  0.420920  1.0  0.6679
  C  C178  1  0.633190  0.764870  0.581920  1.0  -0.1486
  C  C179  1  0.581080  0.745900  0.527980  1.0  -0.1042
  C  C180  1  0.691080  0.773000  0.579080  1.0  0.6685
  C  C181  1  0.051270  0.418080  0.182950  1.0  -0.1499
  C  C182  1  0.053100  0.472020  0.217920  1.0  -0.1037
  C  C183  1  0.112000  0.420920  0.193920  1.0  0.6668
  C  C184  1  0.764870  0.581920  0.633190  1.0  -0.1489
  C  C185  1  0.745900  0.527980  0.581080  1.0  -0.1053
  C  C186  1  0.773000  0.579080  0.691080  1.0  0.6709
  C  C187  1  0.235130  0.868320  0.817050  1.0  -0.1485
  C  C188  1  0.254100  0.835180  0.782080  1.0  -0.1049
  C  C189  1  0.227000  0.918080  0.806080  1.0  0.6616
  C  C190  1  0.948730  0.131680  0.366810  1.0  -0.1493
  C  C191  1  0.946900  0.164820  0.418920  1.0  -0.1024
  C  C192  1  0.888000  0.081920  0.308920  1.0  0.6729
  C  C193  1  0.131680  0.366810  0.948730  1.0  -0.1489
  C  C194  1  0.164820  0.418920  0.946900  1.0  -0.1029
  C  C195  1  0.081920  0.308920  0.888000  1.0  0.6733
  C  C196  1  0.868320  0.817050  0.235130  1.0  -0.148
  C  C197  1  0.835180  0.782080  0.254100  1.0  -0.1039
  C  C198  1  0.918080  0.806080  0.227000  1.0  0.6609
  C  C199  1  0.581920  0.633190  0.764870  1.0  -0.1499
  C  C200  1  0.527980  0.581080  0.745900  1.0  -0.1081
  C  C201  1  0.579080  0.691080  0.773000  1.0  0.6701
  C  C202  1  0.418080  0.182950  0.051270  1.0  -0.1504
  C  C203  1  0.472020  0.217920  0.053100  1.0  -0.1039
  C  C204  1  0.420920  0.193920  0.112000  1.0  0.6672
  C  C205  1  0.235130  0.817050  0.868320  1.0  -0.1481
  C  C206  1  0.254100  0.782080  0.835180  1.0  -0.1054
  C  C207  1  0.227000  0.806080  0.918080  1.0  0.6609
  C  C208  1  0.948730  0.366810  0.131680  1.0  -0.1497
  C  C209  1  0.946900  0.418920  0.164820  1.0  -0.106
  C  C210  1  0.888000  0.308920  0.081920  1.0  0.6739
  C  C211  1  0.051270  0.182950  0.418080  1.0  -0.15
  C  C212  1  0.053100  0.217920  0.472020  1.0  -0.1032
  C  C213  1  0.112000  0.193920  0.420920  1.0  0.667
  C  C214  1  0.764870  0.633190  0.581920  1.0  -0.1494
  C  C215  1  0.745900  0.581080  0.527980  1.0  -0.1045
  C  C216  1  0.773000  0.691080  0.579080  1.0  0.6699
  C  C217  1  0.418080  0.051270  0.182950  1.0  -0.1506
  C  C218  1  0.472020  0.053100  0.217920  1.0  -0.1044
  C  C219  1  0.420920  0.112000  0.193920  1.0  0.6669
  C  C220  1  0.581920  0.764870  0.633190  1.0  -0.1486
  C  C221  1  0.527980  0.745900  0.581080  1.0  -0.1064
  C  C222  1  0.579080  0.773000  0.691080  1.0  0.6702
  C  C223  1  0.868320  0.235130  0.817050  1.0  -0.148
  C  C224  1  0.835180  0.254100  0.782080  1.0  -0.1053
  C  C225  1  0.918080  0.227000  0.806080  1.0  0.6615
  C  C226  1  0.131680  0.948730  0.366810  1.0  -0.1489
  C  C227  1  0.164820  0.946900  0.418920  1.0  -0.1036
  C  C228  1  0.081920  0.888000  0.308920  1.0  0.6736
  C  C229  1  0.366810  0.131680  0.948730  1.0  -0.1484
  C  C230  1  0.418920  0.164820  0.946900  1.0  -0.1028
  C  C231  1  0.308920  0.081920  0.888000  1.0  0.6722
  C  C232  1  0.817050  0.868320  0.235130  1.0  -0.1493
  C  C233  1  0.782080  0.835180  0.254100  1.0  -0.1056
  C  C234  1  0.806080  0.918080  0.227000  1.0  0.6621
  C  C235  1  0.633190  0.581920  0.764870  1.0  -0.1483
  C  C236  1  0.581080  0.527980  0.745900  1.0  -0.1056
  C  C237  1  0.691080  0.579080  0.773000  1.0  0.6682
  C  C238  1  0.182950  0.418080  0.051270  1.0  -0.1509
  C  C239  1  0.217920  0.472020  0.053100  1.0  -0.1047
  C  C240  1  0.193920  0.420920  0.112000  1.0  0.6694
  C  C241  1  0.182950  0.764870  0.131680  1.0  -0.1481
  C  C242  1  0.217920  0.745900  0.164820  1.0  -0.1052
  C  C243  1  0.193920  0.773000  0.081920  1.0  0.6611
  C  C244  1  0.633190  0.051270  0.868320  1.0  -0.1485
  C  C245  1  0.581080  0.053100  0.835180  1.0  -0.1052
  C  C246  1  0.691080  0.112000  0.918080  1.0  0.6736
  C  C247  1  0.817050  0.948730  0.581920  1.0  -0.1504
  C  C248  1  0.782080  0.946900  0.527980  1.0  -0.1065
  C  C249  1  0.806080  0.888000  0.579080  1.0  0.668
  C  C250  1  0.366810  0.235130  0.418080  1.0  -0.1488
  C  C251  1  0.418920  0.254100  0.472020  1.0  -0.0997
  C  C252  1  0.308920  0.227000  0.420920  1.0  0.6682
  C  C253  1  0.948730  0.581920  0.817050  1.0  -0.1507
  C  C254  1  0.946900  0.527980  0.782080  1.0  -0.1052
  C  C255  1  0.888000  0.579080  0.806080  1.0  0.6669
  C  C256  1  0.235130  0.418080  0.366810  1.0  -0.1483
  C  C257  1  0.254100  0.472020  0.418920  1.0  -0.1073
  C  C258  1  0.227000  0.420920  0.308920  1.0  0.6705
  C  C259  1  0.764870  0.131680  0.182950  1.0  -0.1482
  C  C260  1  0.745900  0.164820  0.217920  1.0  -0.1032
  C  C261  1  0.773000  0.081920  0.193920  1.0  0.6612
  C  C262  1  0.051270  0.868320  0.633190  1.0  -0.1485
  C  C263  1  0.053100  0.835180  0.581080  1.0  -0.1035
  C  C264  1  0.112000  0.918080  0.691080  1.0  0.6727
  C  C265  1  0.868320  0.633190  0.051270  1.0  -0.1487
  C  C266  1  0.835180  0.581080  0.053100  1.0  -0.0991
  C  C267  1  0.918080  0.691080  0.112000  1.0  0.6716
  C  C268  1  0.131680  0.182950  0.764870  1.0  -0.1484
  C  C269  1  0.164820  0.217920  0.745900  1.0  -0.1084
  C  C270  1  0.081920  0.193920  0.773000  1.0  0.6607
  C  C271  1  0.418080  0.366810  0.235130  1.0  -0.1487
  C  C272  1  0.472020  0.418920  0.254100  1.0  -0.1071
  C  C273  1  0.420920  0.308920  0.227000  1.0  0.6691
  C  C274  1  0.581920  0.817050  0.948730  1.0  -0.1505
  C  C275  1  0.527980  0.782080  0.946900  1.0  -0.1034
  C  C276  1  0.579080  0.806080  0.888000  1.0  0.6676
  C  C277  1  0.703600  0.351800  0.351800  1.0  -0.0214
  C  C278  1  0.000000  0.351800  0.648200  1.0  -0.0207
  C  C279  1  0.000000  0.648200  0.351800  1.0  -0.0206
  C  C280  1  0.296400  0.648200  0.648200  1.0  -0.0227
  C  C281  1  0.351800  0.000000  0.648200  1.0  -0.0204
  C  C282  1  0.648200  0.296400  0.648200  1.0  -0.0227
  C  C283  1  0.351800  0.703600  0.351800  1.0  -0.0213
  C  C284  1  0.648200  0.000000  0.351800  1.0  -0.0216
  C  C285  1  0.351800  0.648200  0.000000  1.0  -0.0209
  C  C286  1  0.351800  0.351800  0.703600  1.0  -0.0207
  C  C287  1  0.648200  0.648200  0.296400  1.0  -0.0223
  C  C288  1  0.648200  0.351800  0.000000  1.0  -0.022
  C  C289  1  0.736800  0.207700  0.207700  1.0  0.059
  C  C290  1  0.775160  0.141280  0.141280  1.0  -0.0131
  C  C291  1  0.671820  0.298310  0.298310  1.0  0.0188
  C  C292  1  0.701700  0.270850  0.270850  1.0  0.0537
  C  C293  1  0.609340  0.267470  0.267470  1.0  0.149
  C  C294  1  0.716600  0.241100  0.241100  1.0  0.102
  C  C295  1  0.000000  0.529100  0.792300  1.0  0.0635
  C  C296  1  0.000000  0.633880  0.858720  1.0  -0.0218
  C  C297  1  0.000000  0.373510  0.701690  1.0  0.0201
  C  C298  1  0.000000  0.430850  0.729150  1.0  0.0511
  C  C299  1  0.000000  0.341870  0.732530  1.0  0.1469
  C  C300  1  0.000000  0.475500  0.758900  1.0  0.0998
  C  C301  1  0.000000  0.792300  0.529100  1.0  0.0645
  C  C302  1  0.000000  0.858720  0.633880  1.0  -0.0216
  C  C303  1  0.000000  0.701690  0.373510  1.0  0.0212
  C  C304  1  0.000000  0.729150  0.430850  1.0  0.0549
  C  C305  1  0.000000  0.732530  0.341870  1.0  0.1512
  C  C306  1  0.000000  0.758900  0.475500  1.0  0.0988
  C  C307  1  0.263200  0.470900  0.470900  1.0  0.0536
  C  C308  1  0.224840  0.366120  0.366120  1.0  -0.0224
  C  C309  1  0.328180  0.626490  0.626490  1.0  0.0272
  C  C310  1  0.298300  0.569150  0.569150  1.0  0.0531
  C  C311  1  0.390660  0.658130  0.658130  1.0  0.1481
  C  C312  1  0.283400  0.524500  0.524500  1.0  0.0995
  C  C313  1  0.529100  0.000000  0.792300  1.0  0.0614
  C  C314  1  0.633880  0.000000  0.858720  1.0  -0.0205
  C  C315  1  0.373510  0.000000  0.701690  1.0  0.0196
  C  C316  1  0.430850  0.000000  0.729150  1.0  0.0541
  C  C317  1  0.341870  0.000000  0.732530  1.0  0.1481
  C  C318  1  0.475500  0.000000  0.758900  1.0  0.0979
  C  C319  1  0.470900  0.263200  0.470900  1.0  0.0566
  C  C320  1  0.366120  0.224840  0.366120  1.0  -0.0217
  C  C321  1  0.626490  0.328180  0.626490  1.0  0.027
  C  C322  1  0.569150  0.298300  0.569150  1.0  0.0512
  C  C323  1  0.658130  0.390660  0.658130  1.0  0.1489
  C  C324  1  0.524500  0.283400  0.524500  1.0  0.101
  C  C325  1  0.207700  0.736800  0.207700  1.0  0.0605
  C  C326  1  0.141280  0.775160  0.141280  1.0  -0.0125
  C  C327  1  0.298310  0.671820  0.298310  1.0  0.0182
  C  C328  1  0.270850  0.701700  0.270850  1.0  0.0505
  C  C329  1  0.267470  0.609340  0.267470  1.0  0.15
  C  C330  1  0.241100  0.716600  0.241100  1.0  0.1062
  C  C331  1  0.792300  0.000000  0.529100  1.0  0.0651
  C  C332  1  0.858720  0.000000  0.633880  1.0  -0.0214
  C  C333  1  0.701690  0.000000  0.373510  1.0  0.0222
  C  C334  1  0.729150  0.000000  0.430850  1.0  0.0554
  C  C335  1  0.732530  0.000000  0.341870  1.0  0.1512
  C  C336  1  0.758900  0.000000  0.475500  1.0  0.0964
  C  C337  1  0.529100  0.792300  0.000000  1.0  0.0634
  C  C338  1  0.633880  0.858720  0.000000  1.0  -0.0215
  C  C339  1  0.373510  0.701690  0.000000  1.0  0.0199
  C  C340  1  0.430850  0.729150  0.000000  1.0  0.0541
  C  C341  1  0.341870  0.732530  0.000000  1.0  0.1495
  C  C342  1  0.475500  0.758900  0.000000  1.0  0.0966
  C  C343  1  0.207700  0.207700  0.736800  1.0  0.0606
  C  C344  1  0.141280  0.141280  0.775160  1.0  -0.0124
  C  C345  1  0.298310  0.298310  0.671820  1.0  0.0203
  C  C346  1  0.270850  0.270850  0.701700  1.0  0.0545
  C  C347  1  0.267470  0.267470  0.609340  1.0  0.1504
  C  C348  1  0.241100  0.241100  0.716600  1.0  0.1043
  C  C349  1  0.470900  0.470900  0.263200  1.0  0.0542
  C  C350  1  0.366120  0.366120  0.224840  1.0  -0.0221
  C  C351  1  0.626490  0.626490  0.328180  1.0  0.0269
  C  C352  1  0.569150  0.569150  0.298300  1.0  0.0518
  C  C353  1  0.658130  0.658130  0.390660  1.0  0.1476
  C  C354  1  0.524500  0.524500  0.283400  1.0  0.0993
  C  C355  1  0.792300  0.529100  0.000000  1.0  0.0629
  C  C356  1  0.858720  0.633880  0.000000  1.0  -0.0212
  C  C357  1  0.701690  0.373510  0.000000  1.0  0.0194
  C  C358  1  0.729150  0.430850  0.000000  1.0  0.0523
  C  C359  1  0.732530  0.341870  0.000000  1.0  0.1494
  C  C360  1  0.758900  0.475500  0.000000  1.0  0.1004
  C  C361  1  0.792300  0.263200  0.792300  1.0  0.0587
  C  C362  1  0.858720  0.224840  0.858720  1.0  -0.0136
  C  C363  1  0.701690  0.328180  0.701690  1.0  0.0191
  C  C364  1  0.729150  0.298300  0.729150  1.0  0.0527
  C  C365  1  0.732530  0.390660  0.732530  1.0  0.15
  C  C366  1  0.758900  0.283400  0.758900  1.0  0.1025
  C  C367  1  0.470900  0.000000  0.207700  1.0  0.0649
  C  C368  1  0.366120  0.000000  0.141280  1.0  -0.0213
  C  C369  1  0.626490  0.000000  0.298310  1.0  0.0175
  C  C370  1  0.569150  0.000000  0.270850  1.0  0.0536
  C  C371  1  0.658130  0.000000  0.267470  1.0  0.15
  C  C372  1  0.524500  0.000000  0.241100  1.0  0.1011
  C  C373  1  0.207700  0.000000  0.470900  1.0  0.0663
  C  C374  1  0.141280  0.000000  0.366120  1.0  -0.0217
  C  C375  1  0.298310  0.000000  0.626490  1.0  0.0212
  C  C376  1  0.270850  0.000000  0.569150  1.0  0.0518
  C  C377  1  0.267470  0.000000  0.658130  1.0  0.1492
  C  C378  1  0.241100  0.000000  0.524500  1.0  0.1002
  C  C379  1  0.529100  0.736800  0.529100  1.0  0.0542
  C  C380  1  0.633880  0.775160  0.633880  1.0  -0.0235
  C  C381  1  0.373510  0.671820  0.373510  1.0  0.0285
  C  C382  1  0.430850  0.701700  0.430850  1.0  0.0519
  C  C383  1  0.341870  0.609340  0.341870  1.0  0.1486
  C  C384  1  0.475500  0.716600  0.475500  1.0  0.0969
  C  C385  1  0.000000  0.470900  0.207700  1.0  0.0615
  C  C386  1  0.000000  0.366120  0.141280  1.0  -0.0216
  C  C387  1  0.000000  0.626490  0.298310  1.0  0.0205
  C  C388  1  0.000000  0.569150  0.270850  1.0  0.054
  C  C389  1  0.000000  0.658130  0.267470  1.0  0.1497
  C  C390  1  0.000000  0.524500  0.241100  1.0  0.0994
  C  C391  1  0.736800  0.529100  0.529100  1.0  0.0562
  C  C392  1  0.775160  0.633880  0.633880  1.0  -0.0225
  C  C393  1  0.671820  0.373510  0.373510  1.0  0.0267
  C  C394  1  0.701700  0.430850  0.430850  1.0  0.0527
  C  C395  1  0.609340  0.341870  0.341870  1.0  0.1483
  C  C396  1  0.716600  0.475500  0.475500  1.0  0.0997
  C  C397  1  0.263200  0.792300  0.792300  1.0  0.0604
  C  C398  1  0.224840  0.858720  0.858720  1.0  -0.0123
  C  C399  1  0.328180  0.701690  0.701690  1.0  0.0157
  C  C400  1  0.298300  0.729150  0.729150  1.0  0.0532
  C  C401  1  0.390660  0.732530  0.732530  1.0  0.1501
  C  C402  1  0.283400  0.758900  0.758900  1.0  0.1053
  C  C403  1  0.000000  0.207700  0.470900  1.0  0.0637
  C  C404  1  0.000000  0.141280  0.366120  1.0  -0.0214
  C  C405  1  0.000000  0.298310  0.626490  1.0  0.0209
  C  C406  1  0.000000  0.270850  0.569150  1.0  0.0514
  C  C407  1  0.000000  0.267470  0.658130  1.0  0.1527
  C  C408  1  0.000000  0.241100  0.524500  1.0  0.0994
  C  C409  1  0.207700  0.470900  0.000000  1.0  0.0635
  C  C410  1  0.141280  0.366120  0.000000  1.0  -0.0222
  C  C411  1  0.298310  0.626490  0.000000  1.0  0.0189
  C  C412  1  0.270850  0.569150  0.000000  1.0  0.054
  C  C413  1  0.267470  0.658130  0.000000  1.0  0.1505
  C  C414  1  0.241100  0.524500  0.000000  1.0  0.0997
  C  C415  1  0.792300  0.792300  0.263200  1.0  0.0582
  C  C416  1  0.858720  0.858720  0.224840  1.0  -0.0124
  C  C417  1  0.701690  0.701690  0.328180  1.0  0.0202
  C  C418  1  0.729150  0.729150  0.298300  1.0  0.0513
  C  C419  1  0.732530  0.732530  0.390660  1.0  0.1519
  C  C420  1  0.758900  0.758900  0.283400  1.0  0.1052
  C  C421  1  0.529100  0.529100  0.736800  1.0  0.0549
  C  C422  1  0.633880  0.633880  0.775160  1.0  -0.0212
  C  C423  1  0.373510  0.373510  0.671820  1.0  0.0284
  C  C424  1  0.430850  0.430850  0.701700  1.0  0.0528
  C  C425  1  0.341870  0.341870  0.609340  1.0  0.1486
  C  C426  1  0.475500  0.475500  0.716600  1.0  0.0991
  C  C427  1  0.470900  0.207700  0.000000  1.0  0.0654
  C  C428  1  0.366120  0.141280  0.000000  1.0  -0.0216
  C  C429  1  0.626490  0.298310  0.000000  1.0  0.0167
  C  C430  1  0.569150  0.270850  0.000000  1.0  0.0527
  C  C431  1  0.658130  0.267470  0.000000  1.0  0.1507
  C  C432  1  0.524500  0.241100  0.000000  1.0  0.0998
  N  N433  1  0.578000  0.289000  0.289000  1.0  -0.3024
  N  N434  1  0.000000  0.289000  0.711000  1.0  -0.3203
  N  N435  1  0.000000  0.711000  0.289000  1.0  -0.3192
  N  N436  1  0.422000  0.711000  0.711000  1.0  -0.3025
  N  N437  1  0.289000  0.000000  0.711000  1.0  -0.318
  N  N438  1  0.711000  0.422000  0.711000  1.0  -0.3044
  N  N439  1  0.289000  0.578000  0.289000  1.0  -0.3051
  N  N440  1  0.711000  0.000000  0.289000  1.0  -0.3172
  N  N441  1  0.289000  0.711000  0.000000  1.0  -0.3161
  N  N442  1  0.289000  0.289000  0.578000  1.0  -0.3059
  N  N443  1  0.711000  0.711000  0.422000  1.0  -0.3059
  N  N444  1  0.711000  0.289000  0.000000  1.0  -0.3175
  O  O445  1  0.801420  0.172790  0.063170  1.0  -0.5825
  O  O446  1  0.751120  0.223800  0.063220  1.0  -0.5879
  O  O447  1  0.109620  0.738250  0.936830  1.0  -0.5779
  O  O448  1  0.160580  0.687900  0.936780  1.0  -0.5849
  O  O449  1  0.890380  0.827210  0.628630  1.0  -0.5803
  O  O450  1  0.839420  0.776200  0.527320  1.0  -0.5895
  O  O451  1  0.198580  0.261750  0.371370  1.0  -0.5829
  O  O452  1  0.248880  0.312100  0.472680  1.0  -0.5936
  O  O453  1  0.628630  0.890380  0.827210  1.0  -0.5808
  O  O454  1  0.527320  0.839420  0.776200  1.0  -0.5886
  O  O455  1  0.371370  0.198580  0.261750  1.0  -0.5819
  O  O456  1  0.472680  0.248880  0.312100  1.0  -0.592
  O  O457  1  0.063170  0.801420  0.172790  1.0  -0.5814
  O  O458  1  0.063220  0.751120  0.223800  1.0  -0.5899
  O  O459  1  0.936830  0.109620  0.738250  1.0  -0.5783
  O  O460  1  0.936780  0.160580  0.687900  1.0  -0.5859
  O  O461  1  0.738250  0.936830  0.109620  1.0  -0.5782
  O  O462  1  0.687900  0.936780  0.160580  1.0  -0.5864
  O  O463  1  0.172790  0.063170  0.801420  1.0  -0.5808
  O  O464  1  0.223800  0.063220  0.751120  1.0  -0.5876
  O  O465  1  0.261750  0.371370  0.198580  1.0  -0.5835
  O  O466  1  0.312100  0.472680  0.248880  1.0  -0.594
  O  O467  1  0.827210  0.628630  0.890380  1.0  -0.58
  O  O468  1  0.776200  0.527320  0.839420  1.0  -0.5875
  O  O469  1  0.827210  0.198580  0.936830  1.0  -0.5829
  O  O470  1  0.776200  0.248880  0.936780  1.0  -0.5862
  O  O471  1  0.261750  0.890380  0.063170  1.0  -0.5778
  O  O472  1  0.312100  0.839420  0.063220  1.0  -0.5853
  O  O473  1  0.172790  0.109620  0.371370  1.0  -0.5817
  O  O474  1  0.223800  0.160580  0.472680  1.0  -0.5885
  O  O475  1  0.738250  0.801420  0.628630  1.0  -0.5807
  O  O476  1  0.687900  0.751120  0.527320  1.0  -0.5935
  O  O477  1  0.109620  0.371370  0.172790  1.0  -0.5825
  O  O478  1  0.160580  0.472680  0.223800  1.0  -0.59
  O  O479  1  0.801420  0.628630  0.738250  1.0  -0.5805
  O  O480  1  0.751120  0.527320  0.687900  1.0  -0.5909
  O  O481  1  0.198580  0.936830  0.827210  1.0  -0.5802
  O  O482  1  0.248880  0.936780  0.776200  1.0  -0.5867
  O  O483  1  0.890380  0.063170  0.261750  1.0  -0.579
  O  O484  1  0.839420  0.063220  0.312100  1.0  -0.5842
  O  O485  1  0.063170  0.261750  0.890380  1.0  -0.578
  O  O486  1  0.063220  0.312100  0.839420  1.0  -0.586
  O  O487  1  0.936830  0.827210  0.198580  1.0  -0.582
  O  O488  1  0.936780  0.776200  0.248880  1.0  -0.5877
  O  O489  1  0.628630  0.738250  0.801420  1.0  -0.5811
  O  O490  1  0.527320  0.687900  0.751120  1.0  -0.5934
  O  O491  1  0.371370  0.172790  0.109620  1.0  -0.581
  O  O492  1  0.472680  0.223800  0.160580  1.0  -0.5877
  O  O493  1  0.198580  0.827210  0.936830  1.0  -0.5814
  O  O494  1  0.248880  0.776200  0.936780  1.0  -0.5891
  O  O495  1  0.890380  0.261750  0.063170  1.0  -0.5781
  O  O496  1  0.839420  0.312100  0.063220  1.0  -0.5844
  O  O497  1  0.109620  0.172790  0.371370  1.0  -0.5819
  O  O498  1  0.160580  0.223800  0.472680  1.0  -0.5888
  O  O499  1  0.801420  0.738250  0.628630  1.0  -0.5812
  O  O500  1  0.751120  0.687900  0.527320  1.0  -0.5944
  O  O501  1  0.371370  0.109620  0.172790  1.0  -0.5809
  O  O502  1  0.472680  0.160580  0.223800  1.0  -0.5883
  O  O503  1  0.628630  0.801420  0.738250  1.0  -0.5822
  O  O504  1  0.527320  0.751120  0.687900  1.0  -0.5935
  O  O505  1  0.936830  0.198580  0.827210  1.0  -0.5816
  O  O506  1  0.936780  0.248880  0.776200  1.0  -0.5885
  O  O507  1  0.063170  0.890380  0.261750  1.0  -0.579
  O  O508  1  0.063220  0.839420  0.312100  1.0  -0.5862
  O  O509  1  0.261750  0.063170  0.890380  1.0  -0.5761
  O  O510  1  0.312100  0.063220  0.839420  1.0  -0.5858
  O  O511  1  0.827210  0.936830  0.198580  1.0  -0.583
  O  O512  1  0.776200  0.936780  0.248880  1.0  -0.5878
  O  O513  1  0.738250  0.628630  0.801420  1.0  -0.5819
  O  O514  1  0.687900  0.527320  0.751120  1.0  -0.5944
  O  O515  1  0.172790  0.371370  0.109620  1.0  -0.5816
  O  O516  1  0.223800  0.472680  0.160580  1.0  -0.5871
  O  O517  1  0.172790  0.801420  0.063170  1.0  -0.5815
  O  O518  1  0.223800  0.751120  0.063220  1.0  -0.588
  O  O519  1  0.738250  0.109620  0.936830  1.0  -0.5791
  O  O520  1  0.687900  0.160580  0.936780  1.0  -0.5849
  O  O521  1  0.827210  0.890380  0.628630  1.0  -0.5805
  O  O522  1  0.776200  0.839420  0.527320  1.0  -0.5893
  O  O523  1  0.261750  0.198580  0.371370  1.0  -0.5824
  O  O524  1  0.312100  0.248880  0.472680  1.0  -0.5935
  O  O525  1  0.890380  0.628630  0.827210  1.0  -0.5809
  O  O526  1  0.839420  0.527320  0.776200  1.0  -0.5906
  O  O527  1  0.198580  0.371370  0.261750  1.0  -0.5822
  O  O528  1  0.248880  0.472680  0.312100  1.0  -0.5908
  O  O529  1  0.801420  0.063170  0.172790  1.0  -0.5826
  O  O530  1  0.751120  0.063220  0.223800  1.0  -0.5883
  O  O531  1  0.109620  0.936830  0.738250  1.0  -0.5768
  O  O532  1  0.160580  0.936780  0.687900  1.0  -0.5834
  O  O533  1  0.936830  0.738250  0.109620  1.0  -0.5788
  O  O534  1  0.936780  0.687900  0.160580  1.0  -0.5867
  O  O535  1  0.063170  0.172790  0.801420  1.0  -0.5818
  O  O536  1  0.063220  0.223800  0.751120  1.0  -0.5886
  O  O537  1  0.371370  0.261750  0.198580  1.0  -0.5814
  O  O538  1  0.472680  0.312100  0.248880  1.0  -0.5922
  O  O539  1  0.628630  0.827210  0.890380  1.0  -0.5807
  O  O540  1  0.527320  0.776200  0.839420  1.0  -0.5882
