# generated using pymatgen
data_Mn2Nb(CN)8
_symmetry_space_group_name_H-M   'P 1'
_cell_length_a   10.45000000
_cell_length_b   10.45000000
_cell_length_c   22.73600000
_cell_angle_alpha   90.00000000
_cell_angle_beta   90.00000000
_cell_angle_gamma   90.00000000
_symmetry_Int_Tables_number   1
_chemical_formula_structural   Mn2Nb(CN)8
_chemical_formula_sum   'Mn8 Nb4 C32 N32'
_cell_volume   2482.82804000
_cell_formula_units_Z   4
loop_
 _symmetry_equiv_pos_site_id
 _symmetry_equiv_pos_as_xyz
  1  'x, y, z'
loop_
 _atom_site_type_symbol
 _atom_site_label
 _atom_site_symmetry_multiplicity
 _atom_site_fract_x
 _atom_site_fract_y
 _atom_site_fract_z
 _atom_site_occupancy
 _atom_site_charge
  Mn  Mn1  1  0.571610  0.441630  0.302810  1.0  1.184
  Mn  Mn2  1  0.073520  0.939860  0.168350  1.0  1.1898
  Mn  Mn3  1  0.428390  0.558370  0.802810  1.0  1.1829
  Mn  Mn4  1  0.926480  0.060140  0.668350  1.0  1.1892
  Mn  Mn5  1  0.558370  0.571610  0.052810  1.0  1.1842
  Mn  Mn6  1  0.060140  0.073520  0.918350  1.0  1.1904
  Mn  Mn7  1  0.441630  0.428390  0.552810  1.0  1.1846
  Mn  Mn8  1  0.939860  0.926480  0.418350  1.0  1.189
  Nb  Nb9  1  0.571210  0.938550  0.235840  1.0  0.3165
  Nb  Nb10  1  0.428790  0.061450  0.735840  1.0  0.3189
  Nb  Nb11  1  0.061450  0.571210  0.985840  1.0  0.3182
  Nb  Nb12  1  0.938550  0.428790  0.485840  1.0  0.3162
  C  C13  1  0.374000  0.958600  0.198600  1.0  0.1803
  C  C14  1  0.773000  0.920600  0.204500  1.0  0.1628
  C  C15  1  0.586900  0.071100  0.157200  1.0  0.0206
  C  C16  1  0.560900  0.799500  0.159600  1.0  0.1373
  C  C17  1  0.701800  0.924700  0.317000  1.0  0.1336
  C  C18  1  0.431000  0.963100  0.310600  1.0  0.026
  C  C19  1  0.542900  0.743400  0.273600  1.0  0.1483
  C  C20  1  0.598000  0.138700  0.266600  1.0  0.1793
  C  C21  1  0.626000  0.041400  0.698600  1.0  0.1799
  C  C22  1  0.227000  0.079400  0.704500  1.0  0.1627
  C  C23  1  0.413100  0.928900  0.657200  1.0  0.0214
  C  C24  1  0.439100  0.200500  0.659600  1.0  0.1369
  C  C25  1  0.298200  0.075300  0.817000  1.0  0.133
  C  C26  1  0.569000  0.036900  0.810600  1.0  0.028
  C  C27  1  0.457100  0.256600  0.773600  1.0  0.147
  C  C28  1  0.402000  0.861300  0.766600  1.0  0.1797
  C  C29  1  0.041400  0.374000  0.948600  1.0  0.1811
  C  C30  1  0.079400  0.773000  0.954500  1.0  0.1626
  C  C31  1  0.928900  0.586900  0.907200  1.0  0.0209
  C  C32  1  0.200500  0.560900  0.909600  1.0  0.1357
  C  C33  1  0.075300  0.701800  0.067000  1.0  0.1339
  C  C34  1  0.036900  0.431000  0.060600  1.0  0.0281
  C  C35  1  0.256600  0.542900  0.023600  1.0  0.1477
  C  C36  1  0.861300  0.598000  0.016600  1.0  0.1775
  C  C37  1  0.958600  0.626000  0.448600  1.0  0.1801
  C  C38  1  0.920600  0.227000  0.454500  1.0  0.1635
  C  C39  1  0.071100  0.413100  0.407200  1.0  0.021
  C  C40  1  0.799500  0.439100  0.409600  1.0  0.136
  C  C41  1  0.924700  0.298200  0.567000  1.0  0.1341
  C  C42  1  0.963100  0.569000  0.560600  1.0  0.026
  C  C43  1  0.743400  0.457100  0.523600  1.0  0.1473
  C  C44  1  0.138700  0.402000  0.516600  1.0  0.1777
  N  N45  1  0.551800  0.722300  0.122200  1.0  -0.4717
  N  N46  1  0.777200  0.917800  0.352200  1.0  -0.465
  N  N47  1  0.596600  0.152200  0.123200  1.0  -0.4061
  N  N48  1  0.873600  0.914000  0.185600  1.0  -0.4778
  N  N49  1  0.348500  0.971200  0.343100  1.0  -0.4002
  N  N50  1  0.276600  0.967800  0.175900  1.0  -0.4889
  N  N51  1  0.532700  0.646500  0.297600  1.0  -0.4839
  N  N52  1  0.607600  0.240100  0.284500  1.0  -0.4841
  N  N53  1  0.448200  0.277700  0.622200  1.0  -0.472
  N  N54  1  0.222800  0.082200  0.852200  1.0  -0.4646
  N  N55  1  0.403400  0.847800  0.623200  1.0  -0.4049
  N  N56  1  0.126400  0.086000  0.685600  1.0  -0.4776
  N  N57  1  0.651500  0.028800  0.843100  1.0  -0.3997
  N  N58  1  0.723400  0.032200  0.675900  1.0  -0.4895
  N  N59  1  0.467300  0.353500  0.797600  1.0  -0.4866
  N  N60  1  0.392400  0.759900  0.784500  1.0  -0.4823
  N  N61  1  0.277700  0.551800  0.872200  1.0  -0.4707
  N  N62  1  0.082200  0.777200  0.102200  1.0  -0.4666
  N  N63  1  0.847800  0.596600  0.873200  1.0  -0.4034
  N  N64  1  0.086000  0.873600  0.935600  1.0  -0.4831
  N  N65  1  0.028800  0.348500  0.093100  1.0  -0.3996
  N  N66  1  0.032200  0.276600  0.925900  1.0  -0.4919
  N  N67  1  0.353500  0.532700  0.047600  1.0  -0.4823
  N  N68  1  0.759900  0.607600  0.034500  1.0  -0.481
  N  N69  1  0.722300  0.448200  0.372200  1.0  -0.4702
  N  N70  1  0.917800  0.222800  0.602200  1.0  -0.4653
  N  N71  1  0.152200  0.403400  0.373200  1.0  -0.4041
  N  N72  1  0.914000  0.126400  0.435600  1.0  -0.4807
  N  N73  1  0.971200  0.651500  0.593100  1.0  -0.4023
  N  N74  1  0.967800  0.723400  0.425900  1.0  -0.4938
  N  N75  1  0.646500  0.467300  0.547600  1.0  -0.4827
  N  N76  1  0.240100  0.392400  0.534500  1.0  -0.4818
