# generated using pymatgen
data_Mn2Nb(CN)8
_symmetry_space_group_name_H-M   'P 1'
_cell_length_a   10.45900000
_cell_length_b   10.46000000
_cell_length_c   11.54000000
_cell_angle_alpha   83.15900000
_cell_angle_beta   82.12000000
_cell_angle_gamma   88.96400000
_symmetry_Int_Tables_number   1
_chemical_formula_structural   Mn2Nb(CN)8
_chemical_formula_sum   'Mn4 Nb2 C16 N16'
_cell_volume   1241.66259808
_cell_formula_units_Z   2
loop_
 _symmetry_equiv_pos_site_id
 _symmetry_equiv_pos_as_xyz
  1  'x, y, z'
loop_
 _atom_site_type_symbol
 _atom_site_label
 _atom_site_symmetry_multiplicity
 _atom_site_fract_x
 _atom_site_fract_y
 _atom_site_fract_z
 _atom_site_occupancy
 _atom_site_charge
  Mn  Mn1  1  0.251870  0.694910  0.883630  1.0  1.1921
  Mn  Mn2  1  0.202480  0.764300  0.386540  1.0  1.1898
  Mn  Mn3  1  0.748130  0.305090  0.116370  1.0  1.192
  Mn  Mn4  1  0.797520  0.235700  0.613460  1.0  1.1898
  Nb  Nb5  1  0.224850  0.279520  0.247970  1.0  0.3149
  Nb  Nb6  1  0.775150  0.720480  0.752030  1.0  0.3155
  C  C7  1  0.272700  0.158400  0.097000  1.0  0.0202
  C  C8  1  0.062200  0.257500  0.403600  1.0  0.1359
  C  C9  1  0.198600  0.473900  0.308300  1.0  0.159
  C  C10  1  0.231500  0.073800  0.324600  1.0  0.1799
  C  C11  1  0.435000  0.315900  0.187100  1.0  0.1812
  C  C12  1  0.041400  0.260900  0.172000  1.0  0.1486
  C  C13  1  0.231100  0.429900  0.088500  1.0  0.1313
  C  C14  1  0.333400  0.274900  0.405500  1.0  0.0247
  C  C15  1  0.727300  0.841600  0.903000  1.0  0.019
  C  C16  1  0.937800  0.742500  0.596400  1.0  0.1354
  C  C17  1  0.801400  0.526100  0.691700  1.0  0.1611
  C  C18  1  0.768500  0.926200  0.675400  1.0  0.1797
  C  C19  1  0.565000  0.684100  0.812900  1.0  0.181
  C  C20  1  0.958600  0.739100  0.828000  1.0  0.1498
  C  C21  1  0.768900  0.570100  0.911500  1.0  0.1323
  C  C22  1  0.666667  0.725100  0.594500  1.0  0.0238
  N  N23  1  0.400500  0.274300  0.475300  1.0  -0.4135
  N  N24  1  0.974900  0.244600  0.476200  1.0  -0.4671
  N  N25  1  0.231500  0.969200  0.370400  1.0  -0.4877
  N  N26  1  0.231000  0.517600  0.015700  1.0  -0.4859
  N  N27  1  0.951700  0.263100  0.123700  1.0  -0.4855
  N  N28  1  0.184700  0.568800  0.348300  1.0  -0.4666
  N  N29  1  0.541400  0.331100  0.152600  1.0  -0.4697
  N  N30  1  0.293500  0.084400  0.031200  1.0  -0.3995
  N  N31  1  0.599500  0.725700  0.524700  1.0  -0.4131
  N  N32  1  0.025100  0.755400  0.523800  1.0  -0.4679
  N  N33  1  0.768500  0.030800  0.629600  1.0  -0.4921
  N  N34  1  0.769000  0.482400  0.984300  1.0  -0.4827
  N  N35  1  0.048300  0.736900  0.876300  1.0  -0.4856
  N  N36  1  0.815300  0.431200  0.651700  1.0  -0.4696
  N  N37  1  0.458600  0.668900  0.847400  1.0  -0.4696
  N  N38  1  0.706500  0.915600  0.968800  1.0  -0.401
