# generated using pymatgen
data_CoH20(C3N)8
_symmetry_space_group_name_H-M   'P 1'
_cell_length_a   6.28720000
_cell_length_b   14.31400000
_cell_length_c   14.31400000
_cell_angle_alpha   90.00000000
_cell_angle_beta   90.00000000
_cell_angle_gamma   90.00000000
_symmetry_Int_Tables_number   1
_chemical_formula_structural   CoH20(C3N)8
_chemical_formula_sum   'Co2 H40 C48 N16'
_cell_volume   1288.18815517
_cell_formula_units_Z   2
loop_
 _symmetry_equiv_pos_site_id
 _symmetry_equiv_pos_as_xyz
  1  'x, y, z'
loop_
 _atom_site_type_symbol
 _atom_site_label
 _atom_site_symmetry_multiplicity
 _atom_site_fract_x
 _atom_site_fract_y
 _atom_site_fract_z
 _atom_site_occupancy
 _atom_site_charge
  Co  Co1  1  0.750000  0.750000  0.750000  1.0  0.3909
  Co  Co2  1  0.250000  0.250000  0.250000  1.0  0.3909
  H  H3  1  0.235700  0.047900  0.885300  1.0  0.0712
  H  H4  1  0.041300  0.852700  0.062800  1.0  0.0479
  H  H5  1  0.382900  0.905300  0.798200  1.0  0.0969
  H  H6  1  0.675700  0.724700  0.965800  1.0  0.0908
  H  H7  1  0.414600  0.810400  0.048000  1.0  0.2199
  H  H8  1  0.235700  0.452100  0.614700  1.0  0.0718
  H  H9  1  0.041300  0.647300  0.437200  1.0  0.0485
  H  H10  1  0.382900  0.594700  0.701800  1.0  0.0969
  H  H11  1  0.675700  0.775300  0.534200  1.0  0.0916
  H  H12  1  0.414600  0.689600  0.452000  1.0  0.2222
  H  H13  1  0.735700  0.114700  0.547900  1.0  0.0701
  H  H14  1  0.541300  0.937200  0.352700  1.0  0.0473
  H  H15  1  0.882900  0.201800  0.405300  1.0  0.0977
  H  H16  1  0.175700  0.034200  0.224700  1.0  0.0904
  H  H17  1  0.914600  0.952000  0.310400  1.0  0.2164
  H  H18  1  0.735700  0.385300  0.952100  1.0  0.0726
  H  H19  1  0.541300  0.562800  0.147300  1.0  0.0481
  H  H20  1  0.882900  0.298200  0.094700  1.0  0.0972
  H  H21  1  0.175700  0.465800  0.275300  1.0  0.0902
  H  H22  1  0.914600  0.548000  0.189600  1.0  0.221
  H  H23  1  0.764300  0.952100  0.114700  1.0  0.0717
  H  H24  1  0.958700  0.147300  0.937200  1.0  0.0477
  H  H25  1  0.617100  0.094700  0.201800  1.0  0.0967
  H  H26  1  0.324300  0.275300  0.034200  1.0  0.091
  H  H27  1  0.585400  0.189600  0.952000  1.0  0.2223
  H  H28  1  0.764300  0.547900  0.385300  1.0  0.0717
  H  H29  1  0.958700  0.352700  0.562800  1.0  0.0472
  H  H30  1  0.617100  0.405300  0.298200  1.0  0.0965
  H  H31  1  0.324300  0.224700  0.465800  1.0  0.0899
  H  H32  1  0.585400  0.310400  0.548000  1.0  0.22
  H  H33  1  0.264300  0.885300  0.452100  1.0  0.0726
  H  H34  1  0.458700  0.062800  0.647300  1.0  0.0473
  H  H35  1  0.117100  0.798200  0.594700  1.0  0.0969
  H  H36  1  0.824300  0.965800  0.775300  1.0  0.0895
  H  H37  1  0.085400  0.048000  0.689600  1.0  0.2218
  H  H38  1  0.264300  0.614700  0.047900  1.0  0.0706
  H  H39  1  0.458700  0.437200  0.852700  1.0  0.0464
  H  H40  1  0.117100  0.701800  0.905300  1.0  0.0974
  H  H41  1  0.824300  0.534200  0.724700  1.0  0.0897
  H  H42  1  0.085400  0.452000  0.810400  1.0  0.2168
  C  C43  1  0.160900  0.942200  0.971000  1.0  0.0159
  C  C44  1  0.141800  0.028390  0.931490  1.0  -0.1296
  C  C45  1  0.025600  0.912100  0.037400  1.0  -0.1215
  C  C46  1  0.422000  0.871800  0.851200  1.0  -0.068
  C  C47  1  0.586400  0.770600  0.941800  1.0  0.1535
  C  C48  1  0.337200  0.883800  0.938000  1.0  0.0734
  C  C49  1  0.160900  0.557800  0.529000  1.0  0.0158
  C  C50  1  0.141800  0.471610  0.568510  1.0  -0.1292
  C  C51  1  0.025600  0.587900  0.462600  1.0  -0.1223
  C  C52  1  0.422000  0.628200  0.648800  1.0  -0.0669
  C  C53  1  0.586400  0.729400  0.558200  1.0  0.1536
  C  C54  1  0.337200  0.616200  0.562000  1.0  0.0737
  C  C55  1  0.660900  0.029000  0.442200  1.0  0.0171
  C  C56  1  0.641800  0.068510  0.528390  1.0  -0.1279
  C  C57  1  0.525600  0.962600  0.412100  1.0  -0.1216
  C  C58  1  0.922000  0.148800  0.371800  1.0  -0.0684
  C  C59  1  0.086400  0.058200  0.270600  1.0  0.153
  C  C60  1  0.837200  0.062000  0.383800  1.0  0.0729
  C  C61  1  0.660900  0.471000  0.057800  1.0  0.016
  C  C62  1  0.641800  0.431490  0.971610  1.0  -0.1282
  C  C63  1  0.525600  0.537400  0.087900  1.0  -0.1223
  C  C64  1  0.922000  0.351200  0.128200  1.0  -0.0697
  C  C65  1  0.086400  0.441800  0.229400  1.0  0.1532
  C  C66  1  0.837200  0.438000  0.116200  1.0  0.073
  C  C67  1  0.839100  0.057800  0.029000  1.0  0.0156
  C  C68  1  0.858200  0.971610  0.068510  1.0  -0.1283
  C  C69  1  0.974400  0.087900  0.962600  1.0  -0.1243
  C  C70  1  0.578000  0.128200  0.148800  1.0  -0.0649
  C  C71  1  0.413600  0.229400  0.058200  1.0  0.154
  C  C72  1  0.662800  0.116200  0.062000  1.0  0.0738
  C  C73  1  0.839100  0.442200  0.471000  1.0  0.0156
  C  C74  1  0.858200  0.528390  0.431490  1.0  -0.1293
  C  C75  1  0.974400  0.412100  0.537400  1.0  -0.1233
  C  C76  1  0.578000  0.371800  0.351200  1.0  -0.066
  C  C77  1  0.413600  0.270600  0.441800  1.0  0.154
  C  C78  1  0.662800  0.383800  0.438000  1.0  0.0734
  C  C79  1  0.339100  0.971000  0.557800  1.0  0.0158
  C  C80  1  0.358200  0.931490  0.471610  1.0  -0.1273
  C  C81  1  0.474400  0.037400  0.587900  1.0  -0.1246
  C  C82  1  0.078000  0.851200  0.628200  1.0  -0.0681
  C  C83  1  0.913600  0.941800  0.729400  1.0  0.1535
  C  C84  1  0.162800  0.938000  0.616200  1.0  0.0731
  C  C85  1  0.339100  0.529000  0.942200  1.0  0.0167
  C  C86  1  0.358200  0.568510  0.028390  1.0  -0.127
  C  C87  1  0.474400  0.462600  0.912100  1.0  -0.1234
  C  C88  1  0.078000  0.648800  0.871800  1.0  -0.0662
  C  C89  1  0.913600  0.558200  0.770600  1.0  0.1537
  C  C90  1  0.162800  0.562000  0.883800  1.0  0.0729
  N  N91  1  0.580000  0.800070  0.853980  1.0  -0.3235
  N  N92  1  0.440100  0.819440  0.989710  1.0  -0.2242
  N  N93  1  0.580000  0.699930  0.646020  1.0  -0.3235
  N  N94  1  0.440100  0.680560  0.510290  1.0  -0.2251
  N  N95  1  0.080000  0.146020  0.300070  1.0  -0.3248
  N  N96  1  0.940100  0.010290  0.319440  1.0  -0.2254
  N  N97  1  0.080000  0.353980  0.199930  1.0  -0.3245
  N  N98  1  0.940100  0.489710  0.180560  1.0  -0.2237
  N  N99  1  0.420000  0.199930  0.146020  1.0  -0.3242
  N  N100  1  0.559900  0.180560  0.010290  1.0  -0.2248
  N  N101  1  0.420000  0.300070  0.353980  1.0  -0.3239
  N  N102  1  0.559900  0.319440  0.489710  1.0  -0.224
  N  N103  1  0.920000  0.853980  0.699930  1.0  -0.325
  N  N104  1  0.059900  0.989710  0.680560  1.0  -0.2228
  N  N105  1  0.920000  0.646020  0.800070  1.0  -0.3248
  N  N106  1  0.059900  0.510290  0.819440  1.0  -0.2252
