# generated using pymatgen
data_Cu(C3O2)2
_symmetry_space_group_name_H-M   'P 1'
_cell_length_a   26.36050000
_cell_length_b   26.36050000
_cell_length_c   26.36050000
_cell_angle_alpha   90.00000000
_cell_angle_beta   90.00000000
_cell_angle_gamma   90.00000000
_symmetry_Int_Tables_number   1
_chemical_formula_structural   Cu(C3O2)2
_chemical_formula_sum   'Cu48 C288 O192'
_cell_volume   18317.27775017
_cell_formula_units_Z   48
loop_
 _symmetry_equiv_pos_site_id
 _symmetry_equiv_pos_as_xyz
  1  'x, y, z'
loop_
 _atom_site_type_symbol
 _atom_site_label
 _atom_site_symmetry_multiplicity
 _atom_site_fract_x
 _atom_site_fract_y
 _atom_site_fract_z
 _atom_site_occupancy
 _atom_site_charge
  Cu  Cu1  1  0.285920  0.000000  0.214080  1.0  0.876
  Cu  Cu2  1  0.285920  0.500000  0.714080  1.0  0.876
  Cu  Cu3  1  0.714080  0.000000  0.214080  1.0  0.8772
  Cu  Cu4  1  0.714080  0.500000  0.714080  1.0  0.8772
  Cu  Cu5  1  0.214080  0.500000  0.214080  1.0  0.8772
  Cu  Cu6  1  0.714080  0.000000  0.785920  1.0  0.8763
  Cu  Cu7  1  0.714080  0.500000  0.285920  1.0  0.8763
  Cu  Cu8  1  0.214080  0.000000  0.285920  1.0  0.8763
  Cu  Cu9  1  0.285920  0.000000  0.785920  1.0  0.8756
  Cu  Cu10  1  0.285920  0.500000  0.285920  1.0  0.8756
  Cu  Cu11  1  0.214080  0.285920  0.000000  1.0  0.8791
  Cu  Cu12  1  0.214080  0.785920  0.500000  1.0  0.8791
  Cu  Cu13  1  0.214080  0.714080  0.000000  1.0  0.878
  Cu  Cu14  1  0.214080  0.214080  0.500000  1.0  0.878
  Cu  Cu15  1  0.785920  0.714080  0.000000  1.0  0.8769
  Cu  Cu16  1  0.785920  0.214080  0.500000  1.0  0.8769
  Cu  Cu17  1  0.285920  0.214080  0.000000  1.0  0.8769
  Cu  Cu18  1  0.785920  0.285920  0.000000  1.0  0.879
  Cu  Cu19  1  0.785920  0.785920  0.500000  1.0  0.879
  Cu  Cu20  1  0.285920  0.285920  0.500000  1.0  0.879
  Cu  Cu21  1  0.000000  0.214080  0.285920  1.0  0.8758
  Cu  Cu22  1  0.500000  0.214080  0.785920  1.0  0.8758
  Cu  Cu23  1  0.000000  0.214080  0.714080  1.0  0.8764
  Cu  Cu24  1  0.500000  0.214080  0.214080  1.0  0.8764
  Cu  Cu25  1  0.000000  0.785920  0.714080  1.0  0.8777
  Cu  Cu26  1  0.000000  0.285920  0.214080  1.0  0.8777
  Cu  Cu27  1  0.500000  0.785920  0.214080  1.0  0.8777
  Cu  Cu28  1  0.000000  0.785920  0.285920  1.0  0.8775
  Cu  Cu29  1  0.500000  0.785920  0.785920  1.0  0.8775
  Cu  Cu30  1  0.500000  0.285920  0.285920  1.0  0.8775
  Cu  Cu31  1  0.000000  0.285920  0.785920  1.0  0.8775
  Cu  Cu32  1  0.000000  0.714080  0.785920  1.0  0.8758
  Cu  Cu33  1  0.500000  0.714080  0.285920  1.0  0.8758
  Cu  Cu34  1  0.000000  0.714080  0.214080  1.0  0.8764
  Cu  Cu35  1  0.500000  0.714080  0.714080  1.0  0.8764
  Cu  Cu36  1  0.500000  0.285920  0.714080  1.0  0.8777
  Cu  Cu37  1  0.285920  0.714080  0.500000  1.0  0.8769
  Cu  Cu38  1  0.714080  0.214080  0.000000  1.0  0.878
  Cu  Cu39  1  0.714080  0.714080  0.500000  1.0  0.878
  Cu  Cu40  1  0.714080  0.785920  0.000000  1.0  0.8791
  Cu  Cu41  1  0.714080  0.285920  0.500000  1.0  0.8791
  Cu  Cu42  1  0.285920  0.785920  0.000000  1.0  0.879
  Cu  Cu43  1  0.214080  0.000000  0.714080  1.0  0.8772
  Cu  Cu44  1  0.214080  0.500000  0.785920  1.0  0.8763
  Cu  Cu45  1  0.785920  0.000000  0.285920  1.0  0.8756
  Cu  Cu46  1  0.785920  0.500000  0.785920  1.0  0.8756
  Cu  Cu47  1  0.785920  0.000000  0.714080  1.0  0.876
  Cu  Cu48  1  0.785920  0.500000  0.214080  1.0  0.876
  C  C49  1  0.201420  0.068300  0.201420  1.0  0.6533
  C  C50  1  0.178130  0.116260  0.178130  1.0  0.045
  C  C51  1  0.201420  0.568300  0.701420  1.0  0.6533
  C  C52  1  0.178130  0.616260  0.678130  1.0  0.045
  C  C53  1  0.701420  0.068300  0.701420  1.0  0.6533
  C  C54  1  0.678130  0.116260  0.678130  1.0  0.045
  C  C55  1  0.701420  0.568300  0.201420  1.0  0.6533
  C  C56  1  0.678130  0.616260  0.178130  1.0  0.045
  C  C57  1  0.798580  0.931700  0.201420  1.0  0.6538
  C  C58  1  0.821870  0.883740  0.178130  1.0  0.0446
  C  C59  1  0.798580  0.431700  0.701420  1.0  0.6538
  C  C60  1  0.821870  0.383740  0.678130  1.0  0.0446
  C  C61  1  0.298580  0.931700  0.701420  1.0  0.6538
  C  C62  1  0.321870  0.883740  0.678130  1.0  0.0446
  C  C63  1  0.298580  0.431700  0.201420  1.0  0.6538
  C  C64  1  0.321870  0.383740  0.178130  1.0  0.0446
  C  C65  1  0.798580  0.068300  0.798580  1.0  0.653
  C  C66  1  0.821870  0.116260  0.821870  1.0  0.0433
  C  C67  1  0.798580  0.568300  0.298580  1.0  0.653
  C  C68  1  0.821870  0.616260  0.321870  1.0  0.0433
  C  C69  1  0.298580  0.068300  0.298580  1.0  0.653
  C  C70  1  0.321870  0.116260  0.321870  1.0  0.0433
  C  C71  1  0.298580  0.568300  0.798580  1.0  0.653
  C  C72  1  0.321870  0.616260  0.821870  1.0  0.0433
  C  C73  1  0.201420  0.931700  0.798580  1.0  0.6536
  C  C74  1  0.178130  0.883740  0.821870  1.0  0.0448
  C  C75  1  0.201420  0.431700  0.298580  1.0  0.6536
  C  C76  1  0.178130  0.383740  0.321870  1.0  0.0448
  C  C77  1  0.701420  0.931700  0.298580  1.0  0.6536
  C  C78  1  0.678130  0.883740  0.321870  1.0  0.0448
  C  C79  1  0.701420  0.431700  0.798580  1.0  0.6536
  C  C80  1  0.678130  0.383740  0.821870  1.0  0.0448
  C  C81  1  0.201420  0.201420  0.068300  1.0  0.6531
  C  C82  1  0.178130  0.178130  0.116260  1.0  0.0434
  C  C83  1  0.201420  0.701420  0.568300  1.0  0.6531
  C  C84  1  0.178130  0.678130  0.616260  1.0  0.0434
  C  C85  1  0.701420  0.201420  0.568300  1.0  0.6531
  C  C86  1  0.678130  0.178130  0.616260  1.0  0.0434
  C  C87  1  0.701420  0.701420  0.068300  1.0  0.6531
  C  C88  1  0.678130  0.678130  0.116260  1.0  0.0434
  C  C89  1  0.201420  0.798580  0.931700  1.0  0.6536
  C  C90  1  0.178130  0.821870  0.883740  1.0  0.0441
  C  C91  1  0.201420  0.298580  0.431700  1.0  0.6536
  C  C92  1  0.178130  0.321870  0.383740  1.0  0.0441
  C  C93  1  0.701420  0.798580  0.431700  1.0  0.6536
  C  C94  1  0.678130  0.821870  0.383740  1.0  0.0441
  C  C95  1  0.701420  0.298580  0.931700  1.0  0.6536
  C  C96  1  0.678130  0.321870  0.883740  1.0  0.0441
  C  C97  1  0.798580  0.798580  0.068300  1.0  0.6531
  C  C98  1  0.821870  0.821870  0.116260  1.0  0.0427
  C  C99  1  0.798580  0.298580  0.568300  1.0  0.6531
  C  C100  1  0.821870  0.321870  0.616260  1.0  0.0427
  C  C101  1  0.298580  0.798580  0.568300  1.0  0.6531
  C  C102  1  0.321870  0.821870  0.616260  1.0  0.0427
  C  C103  1  0.298580  0.298580  0.068300  1.0  0.6531
  C  C104  1  0.321870  0.321870  0.116260  1.0  0.0427
  C  C105  1  0.798580  0.201420  0.931700  1.0  0.6536
  C  C106  1  0.821870  0.178130  0.883740  1.0  0.0431
  C  C107  1  0.798580  0.701420  0.431700  1.0  0.6536
  C  C108  1  0.821870  0.678130  0.383740  1.0  0.0431
  C  C109  1  0.298580  0.201420  0.431700  1.0  0.6536
  C  C110  1  0.321870  0.178130  0.383740  1.0  0.0431
  C  C111  1  0.298580  0.701420  0.931700  1.0  0.6536
  C  C112  1  0.321870  0.678130  0.883740  1.0  0.0431
  C  C113  1  0.068300  0.201420  0.201420  1.0  0.6522
  C  C114  1  0.116260  0.178130  0.178130  1.0  0.0439
  C  C115  1  0.068300  0.701420  0.701420  1.0  0.6522
  C  C116  1  0.116260  0.678130  0.678130  1.0  0.0439
  C  C117  1  0.568300  0.201420  0.701420  1.0  0.6522
  C  C118  1  0.616260  0.178130  0.678130  1.0  0.0439
  C  C119  1  0.568300  0.701420  0.201420  1.0  0.6522
  C  C120  1  0.616260  0.678130  0.178130  1.0  0.0439
  C  C121  1  0.931700  0.201420  0.798580  1.0  0.6516
  C  C122  1  0.883740  0.178130  0.821870  1.0  0.0438
  C  C123  1  0.931700  0.701420  0.298580  1.0  0.6516
  C  C124  1  0.883740  0.678130  0.321870  1.0  0.0438
  C  C125  1  0.431700  0.201420  0.298580  1.0  0.6516
  C  C126  1  0.383740  0.178130  0.321870  1.0  0.0438
  C  C127  1  0.431700  0.701420  0.798580  1.0  0.6516
  C  C128  1  0.383740  0.678130  0.821870  1.0  0.0438
  C  C129  1  0.068300  0.798580  0.798580  1.0  0.652
  C  C130  1  0.116260  0.821870  0.821870  1.0  0.0433
  C  C131  1  0.068300  0.298580  0.298580  1.0  0.652
  C  C132  1  0.116260  0.321870  0.321870  1.0  0.0433
  C  C133  1  0.568300  0.798580  0.298580  1.0  0.652
  C  C134  1  0.616260  0.821870  0.321870  1.0  0.0433
  C  C135  1  0.568300  0.298580  0.798580  1.0  0.652
  C  C136  1  0.616260  0.321870  0.821870  1.0  0.0433
  C  C137  1  0.931700  0.798580  0.201420  1.0  0.6521
  C  C138  1  0.883740  0.821870  0.178130  1.0  0.0445
  C  C139  1  0.931700  0.298580  0.701420  1.0  0.6521
  C  C140  1  0.883740  0.321870  0.678130  1.0  0.0445
  C  C141  1  0.431700  0.798580  0.701420  1.0  0.6521
  C  C142  1  0.383740  0.821870  0.678130  1.0  0.0445
  C  C143  1  0.431700  0.298580  0.201420  1.0  0.6521
  C  C144  1  0.383740  0.321870  0.178130  1.0  0.0445
  C  C145  1  0.068300  0.201420  0.798580  1.0  0.652
  C  C146  1  0.116260  0.178130  0.821870  1.0  0.0444
  C  C147  1  0.068300  0.701420  0.298580  1.0  0.652
  C  C148  1  0.116260  0.678130  0.321870  1.0  0.0444
  C  C149  1  0.568300  0.201420  0.298580  1.0  0.652
  C  C150  1  0.616260  0.178130  0.321870  1.0  0.0444
  C  C151  1  0.568300  0.701420  0.798580  1.0  0.652
  C  C152  1  0.616260  0.678130  0.821870  1.0  0.0444
  C  C153  1  0.931700  0.798580  0.798580  1.0  0.6518
  C  C154  1  0.883740  0.821870  0.821870  1.0  0.0451
  C  C155  1  0.931700  0.298580  0.298580  1.0  0.6518
  C  C156  1  0.883740  0.321870  0.321870  1.0  0.0451
  C  C157  1  0.431700  0.798580  0.298580  1.0  0.6518
  C  C158  1  0.383740  0.821870  0.321870  1.0  0.0451
  C  C159  1  0.431700  0.298580  0.798580  1.0  0.6518
  C  C160  1  0.383740  0.321870  0.821870  1.0  0.0451
  C  C161  1  0.068300  0.798580  0.201420  1.0  0.6523
  C  C162  1  0.116260  0.821870  0.178130  1.0  0.0451
  C  C163  1  0.068300  0.298580  0.701420  1.0  0.6523
  C  C164  1  0.116260  0.321870  0.678130  1.0  0.0451
  C  C165  1  0.568300  0.798580  0.701420  1.0  0.6523
  C  C166  1  0.616260  0.821870  0.678130  1.0  0.0451
  C  C167  1  0.568300  0.298580  0.201420  1.0  0.6523
  C  C168  1  0.616260  0.321870  0.178130  1.0  0.0451
  C  C169  1  0.931700  0.201420  0.201420  1.0  0.6516
  C  C170  1  0.883740  0.178130  0.178130  1.0  0.0457
  C  C171  1  0.931700  0.701420  0.701420  1.0  0.6516
  C  C172  1  0.883740  0.678130  0.678130  1.0  0.0457
  C  C173  1  0.431700  0.201420  0.701420  1.0  0.6516
  C  C174  1  0.383740  0.178130  0.678130  1.0  0.0457
  C  C175  1  0.431700  0.701420  0.201420  1.0  0.6516
  C  C176  1  0.383740  0.678130  0.178130  1.0  0.0457
  C  C177  1  0.201420  0.201420  0.931700  1.0  0.6533
  C  C178  1  0.178130  0.178130  0.883740  1.0  0.044
  C  C179  1  0.201420  0.701420  0.431700  1.0  0.6533
  C  C180  1  0.178130  0.678130  0.383740  1.0  0.044
  C  C181  1  0.701420  0.201420  0.431700  1.0  0.6533
  C  C182  1  0.678130  0.178130  0.383740  1.0  0.044
  C  C183  1  0.701420  0.701420  0.931700  1.0  0.6533
  C  C184  1  0.678130  0.678130  0.883740  1.0  0.044
  C  C185  1  0.798580  0.201420  0.068300  1.0  0.6531
  C  C186  1  0.821870  0.178130  0.116260  1.0  0.0426
  C  C187  1  0.798580  0.701420  0.568300  1.0  0.6531
  C  C188  1  0.821870  0.678130  0.616260  1.0  0.0426
  C  C189  1  0.298580  0.201420  0.568300  1.0  0.6531
  C  C190  1  0.321870  0.178130  0.616260  1.0  0.0426
  C  C191  1  0.298580  0.701420  0.068300  1.0  0.6531
  C  C192  1  0.321870  0.678130  0.116260  1.0  0.0426
  C  C193  1  0.798580  0.798580  0.931700  1.0  0.6535
  C  C194  1  0.821870  0.821870  0.883740  1.0  0.0432
  C  C195  1  0.798580  0.298580  0.431700  1.0  0.6535
  C  C196  1  0.821870  0.321870  0.383740  1.0  0.0432
  C  C197  1  0.298580  0.798580  0.431700  1.0  0.6535
  C  C198  1  0.321870  0.821870  0.383740  1.0  0.0432
  C  C199  1  0.298580  0.298580  0.931700  1.0  0.6535
  C  C200  1  0.321870  0.321870  0.883740  1.0  0.0432
  C  C201  1  0.201420  0.798580  0.068300  1.0  0.6533
  C  C202  1  0.178130  0.821870  0.116260  1.0  0.0435
  C  C203  1  0.201420  0.298580  0.568300  1.0  0.6533
  C  C204  1  0.178130  0.321870  0.616260  1.0  0.0435
  C  C205  1  0.701420  0.798580  0.568300  1.0  0.6533
  C  C206  1  0.678130  0.821870  0.616260  1.0  0.0435
  C  C207  1  0.701420  0.298580  0.068300  1.0  0.6533
  C  C208  1  0.678130  0.321870  0.116260  1.0  0.0435
  C  C209  1  0.201420  0.068300  0.798580  1.0  0.6533
  C  C210  1  0.178130  0.116260  0.821870  1.0  0.0429
  C  C211  1  0.201420  0.568300  0.298580  1.0  0.6533
  C  C212  1  0.178130  0.616260  0.321870  1.0  0.0429
  C  C213  1  0.701420  0.068300  0.298580  1.0  0.6533
  C  C214  1  0.678130  0.116260  0.321870  1.0  0.0429
  C  C215  1  0.701420  0.568300  0.798580  1.0  0.6533
  C  C216  1  0.678130  0.616260  0.821870  1.0  0.0429
  C  C217  1  0.201420  0.931700  0.201420  1.0  0.6536
  C  C218  1  0.178130  0.883740  0.178130  1.0  0.0444
  C  C219  1  0.201420  0.431700  0.701420  1.0  0.6536
  C  C220  1  0.178130  0.383740  0.678130  1.0  0.0444
  C  C221  1  0.701420  0.931700  0.701420  1.0  0.6536
  C  C222  1  0.678130  0.883740  0.678130  1.0  0.0444
  C  C223  1  0.701420  0.431700  0.201420  1.0  0.6536
  C  C224  1  0.678130  0.383740  0.178130  1.0  0.0444
  C  C225  1  0.798580  0.068300  0.201420  1.0  0.6534
  C  C226  1  0.821870  0.116260  0.178130  1.0  0.0426
  C  C227  1  0.798580  0.568300  0.701420  1.0  0.6534
  C  C228  1  0.821870  0.616260  0.678130  1.0  0.0426
  C  C229  1  0.298580  0.068300  0.701420  1.0  0.6534
  C  C230  1  0.321870  0.116260  0.678130  1.0  0.0426
  C  C231  1  0.298580  0.568300  0.201420  1.0  0.6534
  C  C232  1  0.321870  0.616260  0.178130  1.0  0.0426
  C  C233  1  0.798580  0.931700  0.798580  1.0  0.6533
  C  C234  1  0.821870  0.883740  0.821870  1.0  0.0429
  C  C235  1  0.798580  0.431700  0.298580  1.0  0.6533
  C  C236  1  0.821870  0.383740  0.321870  1.0  0.0429
  C  C237  1  0.298580  0.931700  0.298580  1.0  0.6533
  C  C238  1  0.321870  0.883740  0.321870  1.0  0.0429
  C  C239  1  0.298580  0.431700  0.798580  1.0  0.6533
  C  C240  1  0.321870  0.383740  0.821870  1.0  0.0429
  C  C241  1  0.132550  0.132550  0.198950  1.0  -0.0031
  C  C242  1  0.132550  0.632550  0.698950  1.0  -0.0031
  C  C243  1  0.632550  0.132550  0.698950  1.0  -0.0031
  C  C244  1  0.632550  0.632550  0.198950  1.0  -0.0031
  C  C245  1  0.867450  0.867450  0.198950  1.0  -0.0023
  C  C246  1  0.867450  0.367450  0.698950  1.0  -0.0023
  C  C247  1  0.367450  0.867450  0.698950  1.0  -0.0023
  C  C248  1  0.367450  0.367450  0.198950  1.0  -0.0023
  C  C249  1  0.867450  0.132550  0.801050  1.0  -0.0005
  C  C250  1  0.867450  0.632550  0.301050  1.0  -0.0005
  C  C251  1  0.367450  0.132550  0.301050  1.0  -0.0005
  C  C252  1  0.367450  0.632550  0.801050  1.0  -0.0005
  C  C253  1  0.132550  0.867450  0.801050  1.0  0.0013
  C  C254  1  0.132550  0.367450  0.301050  1.0  0.0013
  C  C255  1  0.632550  0.867450  0.301050  1.0  0.0013
  C  C256  1  0.632550  0.367450  0.801050  1.0  0.0013
  C  C257  1  0.198950  0.132550  0.132550  1.0  0.0006
  C  C258  1  0.198950  0.632550  0.632550  1.0  0.0006
  C  C259  1  0.698950  0.132550  0.632550  1.0  0.0006
  C  C260  1  0.698950  0.632550  0.132550  1.0  0.0006
  C  C261  1  0.198950  0.867450  0.867450  1.0  0.0021
  C  C262  1  0.198950  0.367450  0.367450  1.0  0.0021
  C  C263  1  0.698950  0.867450  0.367450  1.0  0.0021
  C  C264  1  0.698950  0.367450  0.867450  1.0  0.0021
  C  C265  1  0.801050  0.867450  0.132550  1.0  0.0025
  C  C266  1  0.801050  0.367450  0.632550  1.0  0.0025
  C  C267  1  0.301050  0.867450  0.632550  1.0  0.0025
  C  C268  1  0.301050  0.367450  0.132550  1.0  0.0025
  C  C269  1  0.801050  0.132550  0.867450  1.0  0.0027
  C  C270  1  0.801050  0.632550  0.367450  1.0  0.0027
  C  C271  1  0.301050  0.132550  0.367450  1.0  0.0027
  C  C272  1  0.301050  0.632550  0.867450  1.0  0.0027
  C  C273  1  0.132550  0.198950  0.132550  1.0  0.0024
  C  C274  1  0.132550  0.698950  0.632550  1.0  0.0024
  C  C275  1  0.632550  0.198950  0.632550  1.0  0.0024
  C  C276  1  0.632550  0.698950  0.132550  1.0  0.0024
  C  C277  1  0.867450  0.198950  0.867450  1.0  0.0035
  C  C278  1  0.867450  0.698950  0.367450  1.0  0.0035
  C  C279  1  0.367450  0.198950  0.367450  1.0  0.0035
  C  C280  1  0.367450  0.698950  0.867450  1.0  0.0035
  C  C281  1  0.132550  0.801050  0.867450  1.0  0.0004
  C  C282  1  0.132550  0.301050  0.367450  1.0  0.0004
  C  C283  1  0.632550  0.801050  0.367450  1.0  0.0004
  C  C284  1  0.632550  0.301050  0.867450  1.0  0.0004
  C  C285  1  0.867450  0.801050  0.132550  1.0  0.0006
  C  C286  1  0.867450  0.301050  0.632550  1.0  0.0006
  C  C287  1  0.367450  0.801050  0.632550  1.0  0.0006
  C  C288  1  0.367450  0.301050  0.132550  1.0  0.0006
  C  C289  1  0.132550  0.132550  0.801050  1.0  0.0003
  C  C290  1  0.132550  0.632550  0.301050  1.0  0.0003
  C  C291  1  0.632550  0.132550  0.301050  1.0  0.0003
  C  C292  1  0.632550  0.632550  0.801050  1.0  0.0003
  C  C293  1  0.867450  0.867450  0.801050  1.0  0.0006
  C  C294  1  0.867450  0.367450  0.301050  1.0  0.0006
  C  C295  1  0.367450  0.867450  0.301050  1.0  0.0006
  C  C296  1  0.367450  0.367450  0.801050  1.0  0.0006
  C  C297  1  0.132550  0.867450  0.198950  1.0  -0.0029
  C  C298  1  0.132550  0.367450  0.698950  1.0  -0.0029
  C  C299  1  0.632550  0.867450  0.698950  1.0  -0.0029
  C  C300  1  0.632550  0.367450  0.198950  1.0  -0.0029
  C  C301  1  0.867450  0.132550  0.198950  1.0  -0.0027
  C  C302  1  0.867450  0.632550  0.698950  1.0  -0.0027
  C  C303  1  0.367450  0.132550  0.698950  1.0  -0.0027
  C  C304  1  0.367450  0.632550  0.198950  1.0  -0.0027
  C  C305  1  0.132550  0.198950  0.867450  1.0  0.0034
  C  C306  1  0.132550  0.698950  0.367450  1.0  0.0034
  C  C307  1  0.632550  0.198950  0.367450  1.0  0.0034
  C  C308  1  0.632550  0.698950  0.867450  1.0  0.0034
  C  C309  1  0.867450  0.198950  0.132550  1.0  0.0017
  C  C310  1  0.867450  0.698950  0.632550  1.0  0.0017
  C  C311  1  0.367450  0.198950  0.632550  1.0  0.0017
  C  C312  1  0.367450  0.698950  0.132550  1.0  0.0017
  C  C313  1  0.867450  0.801050  0.867450  1.0  0.0007
  C  C314  1  0.867450  0.301050  0.367450  1.0  0.0007
  C  C315  1  0.367450  0.801050  0.367450  1.0  0.0007
  C  C316  1  0.367450  0.301050  0.867450  1.0  0.0007
  C  C317  1  0.132550  0.801050  0.132550  1.0  0.0009
  C  C318  1  0.132550  0.301050  0.632550  1.0  0.0009
  C  C319  1  0.632550  0.801050  0.632550  1.0  0.0009
  C  C320  1  0.632550  0.301050  0.132550  1.0  0.0009
  C  C321  1  0.198950  0.132550  0.867450  1.0  0.0017
  C  C322  1  0.198950  0.632550  0.367450  1.0  0.0017
  C  C323  1  0.698950  0.132550  0.367450  1.0  0.0017
  C  C324  1  0.698950  0.632550  0.867450  1.0  0.0017
  C  C325  1  0.198950  0.867450  0.132550  1.0  0.0008
  C  C326  1  0.198950  0.367450  0.632550  1.0  0.0008
  C  C327  1  0.698950  0.867450  0.632550  1.0  0.0008
  C  C328  1  0.698950  0.367450  0.132550  1.0  0.0008
  C  C329  1  0.801050  0.132550  0.132550  1.0  0.0018
  C  C330  1  0.801050  0.632550  0.632550  1.0  0.0018
  C  C331  1  0.301050  0.132550  0.632550  1.0  0.0018
  C  C332  1  0.301050  0.632550  0.132550  1.0  0.0018
  C  C333  1  0.801050  0.867450  0.867450  1.0  0.0032
  C  C334  1  0.801050  0.367450  0.367450  1.0  0.0032
  C  C335  1  0.301050  0.867450  0.367450  1.0  0.0032
  C  C336  1  0.301050  0.367450  0.867450  1.0  0.0032
  O  O337  1  0.243650  0.052610  0.182450  1.0  -0.5673
  O  O338  1  0.243650  0.552610  0.682450  1.0  -0.5675
  O  O339  1  0.743650  0.052610  0.682450  1.0  -0.5673
  O  O340  1  0.743650  0.552610  0.182450  1.0  -0.5673
  O  O341  1  0.756350  0.947390  0.182450  1.0  -0.5661
  O  O342  1  0.756350  0.447390  0.682450  1.0  -0.5661
  O  O343  1  0.256350  0.947390  0.682450  1.0  -0.5661
  O  O344  1  0.256350  0.447390  0.182450  1.0  -0.5663
  O  O345  1  0.756350  0.052610  0.817550  1.0  -0.5661
  O  O346  1  0.756350  0.552610  0.317550  1.0  -0.5661
  O  O347  1  0.256350  0.052610  0.317550  1.0  -0.5661
  O  O348  1  0.256350  0.552610  0.817550  1.0  -0.5661
  O  O349  1  0.243650  0.947390  0.817550  1.0  -0.5657
  O  O350  1  0.243650  0.447390  0.317550  1.0  -0.5657
  O  O351  1  0.743650  0.947390  0.317550  1.0  -0.5657
  O  O352  1  0.743650  0.447390  0.817550  1.0  -0.5657
  O  O353  1  0.182450  0.243650  0.052610  1.0  -0.5695
  O  O354  1  0.182450  0.743650  0.552610  1.0  -0.5689
  O  O355  1  0.682450  0.243650  0.552610  1.0  -0.5689
  O  O356  1  0.682450  0.743650  0.052610  1.0  -0.5692
  O  O357  1  0.182450  0.756350  0.947390  1.0  -0.5677
  O  O358  1  0.182450  0.256350  0.447390  1.0  -0.5677
  O  O359  1  0.682450  0.756350  0.447390  1.0  -0.5677
  O  O360  1  0.682450  0.256350  0.947390  1.0  -0.5677
  O  O361  1  0.817550  0.756350  0.052610  1.0  -0.5684
  O  O362  1  0.817550  0.256350  0.552610  1.0  -0.5684
  O  O363  1  0.317550  0.756350  0.552610  1.0  -0.5684
  O  O364  1  0.317550  0.256350  0.052610  1.0  -0.5684
  O  O365  1  0.817550  0.243650  0.947390  1.0  -0.5687
  O  O366  1  0.817550  0.743650  0.447390  1.0  -0.5687
  O  O367  1  0.317550  0.243650  0.447390  1.0  -0.5687
  O  O368  1  0.317550  0.743650  0.947390  1.0  -0.5687
  O  O369  1  0.052610  0.182450  0.243650  1.0  -0.5694
  O  O370  1  0.052610  0.682450  0.743650  1.0  -0.5689
  O  O371  1  0.552610  0.182450  0.743650  1.0  -0.5694
  O  O372  1  0.552610  0.682450  0.243650  1.0  -0.5685
  O  O373  1  0.947390  0.182450  0.756350  1.0  -0.5688
  O  O374  1  0.947390  0.682450  0.256350  1.0  -0.5688
  O  O375  1  0.447390  0.182450  0.256350  1.0  -0.5688
  O  O376  1  0.447390  0.682450  0.756350  1.0  -0.5688
  O  O377  1  0.052610  0.817550  0.756350  1.0  -0.5713
  O  O378  1  0.052610  0.317550  0.256350  1.0  -0.5713
  O  O379  1  0.552610  0.817550  0.256350  1.0  -0.5713
  O  O380  1  0.552610  0.317550  0.756350  1.0  -0.5713
  O  O381  1  0.947390  0.817550  0.243650  1.0  -0.5691
  O  O382  1  0.947390  0.317550  0.743650  1.0  -0.5691
  O  O383  1  0.447390  0.817550  0.743650  1.0  -0.5691
  O  O384  1  0.447390  0.317550  0.243650  1.0  -0.5691
  O  O385  1  0.052610  0.243650  0.817550  1.0  -0.5673
  O  O386  1  0.052610  0.743650  0.317550  1.0  -0.5675
  O  O387  1  0.552610  0.243650  0.317550  1.0  -0.5671
  O  O388  1  0.552610  0.743650  0.817550  1.0  -0.5671
  O  O389  1  0.947390  0.756350  0.817550  1.0  -0.5689
  O  O390  1  0.947390  0.256350  0.317550  1.0  -0.5689
  O  O391  1  0.447390  0.756350  0.317550  1.0  -0.5689
  O  O392  1  0.447390  0.256350  0.817550  1.0  -0.5686
  O  O393  1  0.052610  0.756350  0.182450  1.0  -0.5665
  O  O394  1  0.052610  0.256350  0.682450  1.0  -0.5665
  O  O395  1  0.552610  0.756350  0.682450  1.0  -0.5665
  O  O396  1  0.552610  0.256350  0.182450  1.0  -0.5665
  O  O397  1  0.947390  0.243650  0.182450  1.0  -0.5699
  O  O398  1  0.947390  0.743650  0.682450  1.0  -0.5699
  O  O399  1  0.447390  0.243650  0.682450  1.0  -0.5699
  O  O400  1  0.447390  0.743650  0.182450  1.0  -0.5699
  O  O401  1  0.243650  0.182450  0.947390  1.0  -0.5685
  O  O402  1  0.243650  0.682450  0.447390  1.0  -0.5685
  O  O403  1  0.743650  0.182450  0.447390  1.0  -0.5685
  O  O404  1  0.743650  0.682450  0.947390  1.0  -0.5685
  O  O405  1  0.756350  0.182450  0.052610  1.0  -0.5675
  O  O406  1  0.756350  0.682450  0.552610  1.0  -0.5675
  O  O407  1  0.256350  0.182450  0.552610  1.0  -0.5675
  O  O408  1  0.256350  0.682450  0.052610  1.0  -0.5675
  O  O409  1  0.756350  0.817550  0.947390  1.0  -0.5694
  O  O410  1  0.756350  0.317550  0.447390  1.0  -0.5694
  O  O411  1  0.256350  0.817550  0.447390  1.0  -0.5694
  O  O412  1  0.256350  0.317550  0.947390  1.0  -0.5694
  O  O413  1  0.243650  0.817550  0.052610  1.0  -0.5693
  O  O414  1  0.243650  0.317550  0.552610  1.0  -0.5693
  O  O415  1  0.743650  0.817550  0.552610  1.0  -0.5693
  O  O416  1  0.743650  0.317550  0.052610  1.0  -0.5693
  O  O417  1  0.182450  0.052610  0.756350  1.0  -0.5683
  O  O418  1  0.182450  0.552610  0.256350  1.0  -0.5683
  O  O419  1  0.682450  0.052610  0.256350  1.0  -0.5683
  O  O420  1  0.682450  0.552610  0.756350  1.0  -0.5683
  O  O421  1  0.182450  0.947390  0.243650  1.0  -0.5661
  O  O422  1  0.182450  0.447390  0.743650  1.0  -0.5661
  O  O423  1  0.682450  0.947390  0.743650  1.0  -0.5661
  O  O424  1  0.682450  0.447390  0.243650  1.0  -0.5661
  O  O425  1  0.817550  0.052610  0.243650  1.0  -0.5676
  O  O426  1  0.817550  0.552610  0.743650  1.0  -0.5676
  O  O427  1  0.317550  0.052610  0.743650  1.0  -0.5676
  O  O428  1  0.317550  0.552610  0.243650  1.0  -0.5676
  O  O429  1  0.817550  0.947390  0.756350  1.0  -0.5674
  O  O430  1  0.817550  0.447390  0.256350  1.0  -0.5674
  O  O431  1  0.317550  0.947390  0.256350  1.0  -0.5674
  O  O432  1  0.317550  0.447390  0.756350  1.0  -0.5674
  O  O433  1  0.756350  0.947390  0.817550  1.0  -0.5657
  O  O434  1  0.756350  0.447390  0.317550  1.0  -0.5657
  O  O435  1  0.256350  0.947390  0.317550  1.0  -0.5657
  O  O436  1  0.256350  0.447390  0.817550  1.0  -0.5655
  O  O437  1  0.243650  0.052610  0.817550  1.0  -0.5662
  O  O438  1  0.243650  0.552610  0.317550  1.0  -0.5664
  O  O439  1  0.743650  0.052610  0.317550  1.0  -0.5662
  O  O440  1  0.743650  0.552610  0.817550  1.0  -0.5662
  O  O441  1  0.243650  0.947390  0.182450  1.0  -0.5667
  O  O442  1  0.243650  0.447390  0.682450  1.0  -0.5667
  O  O443  1  0.743650  0.947390  0.682450  1.0  -0.5667
  O  O444  1  0.743650  0.447390  0.182450  1.0  -0.5667
  O  O445  1  0.756350  0.052610  0.182450  1.0  -0.5662
  O  O446  1  0.756350  0.552610  0.682450  1.0  -0.5662
  O  O447  1  0.256350  0.052610  0.682450  1.0  -0.5662
  O  O448  1  0.256350  0.552610  0.182450  1.0  -0.5662
  O  O449  1  0.817550  0.756350  0.947390  1.0  -0.5687
  O  O450  1  0.817550  0.256350  0.447390  1.0  -0.5687
  O  O451  1  0.317550  0.756350  0.447390  1.0  -0.5687
  O  O452  1  0.317550  0.256350  0.947390  1.0  -0.5687
  O  O453  1  0.817550  0.243650  0.052610  1.0  -0.5684
  O  O454  1  0.817550  0.743650  0.552610  1.0  -0.5684
  O  O455  1  0.317550  0.243650  0.552610  1.0  -0.5684
  O  O456  1  0.317550  0.743650  0.052610  1.0  -0.5684
  O  O457  1  0.182450  0.243650  0.947390  1.0  -0.5687
  O  O458  1  0.182450  0.743650  0.447390  1.0  -0.5687
  O  O459  1  0.682450  0.243650  0.447390  1.0  -0.5687
  O  O460  1  0.682450  0.743650  0.947390  1.0  -0.5687
  O  O461  1  0.182450  0.756350  0.052610  1.0  -0.5675
  O  O462  1  0.182450  0.256350  0.552610  1.0  -0.5675
  O  O463  1  0.682450  0.756350  0.552610  1.0  -0.5675
  O  O464  1  0.682450  0.256350  0.052610  1.0  -0.5675
  O  O465  1  0.947390  0.817550  0.756350  1.0  -0.5719
  O  O466  1  0.947390  0.317550  0.256350  1.0  -0.5719
  O  O467  1  0.447390  0.817550  0.256350  1.0  -0.5719
  O  O468  1  0.447390  0.317550  0.756350  1.0  -0.5719
  O  O469  1  0.052610  0.817550  0.243650  1.0  -0.5688
  O  O470  1  0.052610  0.317550  0.743650  1.0  -0.5687
  O  O471  1  0.552610  0.817550  0.743650  1.0  -0.5687
  O  O472  1  0.552610  0.317550  0.243650  1.0  -0.5685
  O  O473  1  0.947390  0.182450  0.243650  1.0  -0.5687
  O  O474  1  0.947390  0.682450  0.743650  1.0  -0.5687
  O  O475  1  0.447390  0.182450  0.743650  1.0  -0.5687
  O  O476  1  0.447390  0.682450  0.243650  1.0  -0.5687
  O  O477  1  0.052610  0.182450  0.756350  1.0  -0.569
  O  O478  1  0.052610  0.682450  0.256350  1.0  -0.5685
  O  O479  1  0.552610  0.182450  0.256350  1.0  -0.5679
  O  O480  1  0.552610  0.682450  0.756350  1.0  -0.5681
  O  O481  1  0.947390  0.756350  0.182450  1.0  -0.567
  O  O482  1  0.947390  0.256350  0.682450  1.0  -0.567
  O  O483  1  0.447390  0.756350  0.682450  1.0  -0.567
  O  O484  1  0.447390  0.256350  0.182450  1.0  -0.5671
  O  O485  1  0.052610  0.243650  0.182450  1.0  -0.5691
  O  O486  1  0.052610  0.743650  0.682450  1.0  -0.57
  O  O487  1  0.552610  0.243650  0.682450  1.0  -0.5693
  O  O488  1  0.552610  0.743650  0.182450  1.0  -0.5693
  O  O489  1  0.947390  0.243650  0.817550  1.0  -0.5678
  O  O490  1  0.947390  0.743650  0.317550  1.0  -0.5678
  O  O491  1  0.447390  0.243650  0.317550  1.0  -0.5678
  O  O492  1  0.447390  0.743650  0.817550  1.0  -0.5678
  O  O493  1  0.052610  0.756350  0.817550  1.0  -0.5684
  O  O494  1  0.052610  0.256350  0.317550  1.0  -0.5684
  O  O495  1  0.552610  0.756350  0.317550  1.0  -0.5684
  O  O496  1  0.552610  0.256350  0.817550  1.0  -0.5684
  O  O497  1  0.756350  0.817550  0.052610  1.0  -0.5693
  O  O498  1  0.756350  0.317550  0.552610  1.0  -0.5693
  O  O499  1  0.256350  0.817550  0.552610  1.0  -0.5693
  O  O500  1  0.256350  0.317550  0.052610  1.0  -0.5693
  O  O501  1  0.243650  0.817550  0.947390  1.0  -0.5694
  O  O502  1  0.243650  0.317550  0.447390  1.0  -0.5694
  O  O503  1  0.743650  0.817550  0.447390  1.0  -0.5694
  O  O504  1  0.743650  0.317550  0.947390  1.0  -0.5694
  O  O505  1  0.243650  0.182450  0.052610  1.0  -0.5678
  O  O506  1  0.243650  0.682450  0.552610  1.0  -0.5681
  O  O507  1  0.743650  0.182450  0.552610  1.0  -0.5681
  O  O508  1  0.743650  0.682450  0.052610  1.0  -0.5688
  O  O509  1  0.756350  0.182450  0.947390  1.0  -0.5681
  O  O510  1  0.756350  0.682450  0.447390  1.0  -0.5681
  O  O511  1  0.256350  0.182450  0.447390  1.0  -0.5681
  O  O512  1  0.256350  0.682450  0.947390  1.0  -0.5681
  O  O513  1  0.817550  0.947390  0.243650  1.0  -0.5671
  O  O514  1  0.817550  0.447390  0.743650  1.0  -0.5671
  O  O515  1  0.317550  0.947390  0.743650  1.0  -0.5671
  O  O516  1  0.317550  0.447390  0.243650  1.0  -0.5671
  O  O517  1  0.817550  0.052610  0.756350  1.0  -0.5681
  O  O518  1  0.817550  0.552610  0.256350  1.0  -0.5681
  O  O519  1  0.317550  0.052610  0.256350  1.0  -0.5681
  O  O520  1  0.317550  0.552610  0.756350  1.0  -0.5681
  O  O521  1  0.182450  0.947390  0.756350  1.0  -0.5683
  O  O522  1  0.182450  0.447390  0.256350  1.0  -0.5683
  O  O523  1  0.682450  0.947390  0.256350  1.0  -0.5683
  O  O524  1  0.682450  0.447390  0.756350  1.0  -0.5683
  O  O525  1  0.182450  0.052610  0.243650  1.0  -0.5667
  O  O526  1  0.182450  0.552610  0.743650  1.0  -0.5669
  O  O527  1  0.682450  0.052610  0.743650  1.0  -0.5667
  O  O528  1  0.682450  0.552610  0.243650  1.0  -0.5667
