# generated using pymatgen
data_Cu(C3O2)2
_symmetry_space_group_name_H-M   'P 1'
_cell_length_a   26.34580000
_cell_length_b   26.34580000
_cell_length_c   26.34580000
_cell_angle_alpha   90.00000000
_cell_angle_beta   90.00000000
_cell_angle_gamma   90.00000000
_symmetry_Int_Tables_number   1
_chemical_formula_structural   Cu(C3O2)2
_chemical_formula_sum   'Cu48 C288 O192'
_cell_volume   18286.65080587
_cell_formula_units_Z   48
loop_
 _symmetry_equiv_pos_site_id
 _symmetry_equiv_pos_as_xyz
  1  'x, y, z'
loop_
 _atom_site_type_symbol
 _atom_site_label
 _atom_site_symmetry_multiplicity
 _atom_site_fract_x
 _atom_site_fract_y
 _atom_site_fract_z
 _atom_site_occupancy
 _atom_site_charge
  Cu  Cu1  1  0.285560  0.000000  0.214440  1.0  0.8476
  Cu  Cu2  1  0.285560  0.500000  0.714440  1.0  0.8476
  Cu  Cu3  1  0.714440  0.000000  0.214440  1.0  0.8491
  Cu  Cu4  1  0.714440  0.500000  0.714440  1.0  0.8491
  Cu  Cu5  1  0.214440  0.500000  0.214440  1.0  0.8491
  Cu  Cu6  1  0.714440  0.000000  0.785560  1.0  0.8481
  Cu  Cu7  1  0.714440  0.500000  0.285560  1.0  0.8481
  Cu  Cu8  1  0.214440  0.000000  0.285560  1.0  0.8481
  Cu  Cu9  1  0.285560  0.000000  0.785560  1.0  0.8472
  Cu  Cu10  1  0.285560  0.500000  0.285560  1.0  0.8472
  Cu  Cu11  1  0.214440  0.285560  0.000000  1.0  0.8507
  Cu  Cu12  1  0.214440  0.785560  0.500000  1.0  0.8507
  Cu  Cu13  1  0.214440  0.714440  0.000000  1.0  0.8505
  Cu  Cu14  1  0.214440  0.214440  0.500000  1.0  0.8505
  Cu  Cu15  1  0.785560  0.714440  0.000000  1.0  0.8488
  Cu  Cu16  1  0.785560  0.214440  0.500000  1.0  0.8488
  Cu  Cu17  1  0.285560  0.214440  0.000000  1.0  0.8488
  Cu  Cu18  1  0.785560  0.285560  0.000000  1.0  0.8502
  Cu  Cu19  1  0.785560  0.785560  0.500000  1.0  0.8502
  Cu  Cu20  1  0.285560  0.285560  0.500000  1.0  0.8502
  Cu  Cu21  1  0.000000  0.214440  0.285560  1.0  0.8477
  Cu  Cu22  1  0.500000  0.214440  0.785560  1.0  0.8477
  Cu  Cu23  1  0.000000  0.214440  0.714440  1.0  0.8485
  Cu  Cu24  1  0.500000  0.214440  0.214440  1.0  0.8485
  Cu  Cu25  1  0.000000  0.785560  0.714440  1.0  0.849
  Cu  Cu26  1  0.000000  0.285560  0.214440  1.0  0.849
  Cu  Cu27  1  0.500000  0.785560  0.214440  1.0  0.849
  Cu  Cu28  1  0.000000  0.785560  0.285560  1.0  0.8488
  Cu  Cu29  1  0.500000  0.785560  0.785560  1.0  0.8488
  Cu  Cu30  1  0.500000  0.285560  0.285560  1.0  0.8488
  Cu  Cu31  1  0.000000  0.285560  0.785560  1.0  0.8488
  Cu  Cu32  1  0.000000  0.714440  0.785560  1.0  0.8477
  Cu  Cu33  1  0.500000  0.714440  0.285560  1.0  0.8477
  Cu  Cu34  1  0.000000  0.714440  0.214440  1.0  0.8485
  Cu  Cu35  1  0.500000  0.714440  0.714440  1.0  0.8485
  Cu  Cu36  1  0.500000  0.285560  0.714440  1.0  0.849
  Cu  Cu37  1  0.285560  0.714440  0.500000  1.0  0.8488
  Cu  Cu38  1  0.714440  0.214440  0.000000  1.0  0.8505
  Cu  Cu39  1  0.714440  0.714440  0.500000  1.0  0.8505
  Cu  Cu40  1  0.714440  0.785560  0.000000  1.0  0.8507
  Cu  Cu41  1  0.714440  0.285560  0.500000  1.0  0.8507
  Cu  Cu42  1  0.285560  0.785560  0.000000  1.0  0.8502
  Cu  Cu43  1  0.214440  0.000000  0.714440  1.0  0.8491
  Cu  Cu44  1  0.214440  0.500000  0.785560  1.0  0.8481
  Cu  Cu45  1  0.785560  0.000000  0.285560  1.0  0.8472
  Cu  Cu46  1  0.785560  0.500000  0.785560  1.0  0.8472
  Cu  Cu47  1  0.785560  0.000000  0.714440  1.0  0.8476
  Cu  Cu48  1  0.785560  0.500000  0.214440  1.0  0.8476
  C  C49  1  0.133700  0.133700  0.199000  1.0  0.0055
  C  C50  1  0.133700  0.633700  0.699000  1.0  0.0055
  C  C51  1  0.633700  0.133700  0.699000  1.0  0.0055
  C  C52  1  0.633700  0.633700  0.199000  1.0  0.0055
  C  C53  1  0.866300  0.866300  0.199000  1.0  0.0064
  C  C54  1  0.866300  0.366300  0.699000  1.0  0.0064
  C  C55  1  0.366300  0.866300  0.699000  1.0  0.0064
  C  C56  1  0.366300  0.366300  0.199000  1.0  0.0064
  C  C57  1  0.866300  0.133700  0.801000  1.0  0.0063
  C  C58  1  0.866300  0.633700  0.301000  1.0  0.0063
  C  C59  1  0.366300  0.133700  0.301000  1.0  0.0063
  C  C60  1  0.366300  0.633700  0.801000  1.0  0.0063
  C  C61  1  0.133700  0.866300  0.801000  1.0  0.0083
  C  C62  1  0.133700  0.366300  0.301000  1.0  0.0083
  C  C63  1  0.633700  0.866300  0.301000  1.0  0.0083
  C  C64  1  0.633700  0.366300  0.801000  1.0  0.0083
  C  C65  1  0.199000  0.133700  0.133700  1.0  0.0101
  C  C66  1  0.199000  0.633700  0.633700  1.0  0.0101
  C  C67  1  0.699000  0.133700  0.633700  1.0  0.0101
  C  C68  1  0.699000  0.633700  0.133700  1.0  0.0101
  C  C69  1  0.199000  0.866300  0.866300  1.0  0.011
  C  C70  1  0.199000  0.366300  0.366300  1.0  0.011
  C  C71  1  0.699000  0.866300  0.366300  1.0  0.011
  C  C72  1  0.699000  0.366300  0.866300  1.0  0.011
  C  C73  1  0.801000  0.866300  0.133700  1.0  0.0119
  C  C74  1  0.801000  0.366300  0.633700  1.0  0.0119
  C  C75  1  0.301000  0.866300  0.633700  1.0  0.0119
  C  C76  1  0.301000  0.366300  0.133700  1.0  0.0119
  C  C77  1  0.801000  0.133700  0.866300  1.0  0.0108
  C  C78  1  0.801000  0.633700  0.366300  1.0  0.0108
  C  C79  1  0.301000  0.133700  0.366300  1.0  0.0108
  C  C80  1  0.301000  0.633700  0.866300  1.0  0.0108
  C  C81  1  0.133700  0.199000  0.133700  1.0  0.0112
  C  C82  1  0.133700  0.699000  0.633700  1.0  0.0112
  C  C83  1  0.633700  0.199000  0.633700  1.0  0.0112
  C  C84  1  0.633700  0.699000  0.133700  1.0  0.0112
  C  C85  1  0.866300  0.199000  0.866300  1.0  0.0109
  C  C86  1  0.866300  0.699000  0.366300  1.0  0.0109
  C  C87  1  0.366300  0.199000  0.366300  1.0  0.0109
  C  C88  1  0.366300  0.699000  0.866300  1.0  0.0109
  C  C89  1  0.133700  0.801000  0.866300  1.0  0.0084
  C  C90  1  0.133700  0.301000  0.366300  1.0  0.0084
  C  C91  1  0.633700  0.801000  0.366300  1.0  0.0084
  C  C92  1  0.633700  0.301000  0.866300  1.0  0.0084
  C  C93  1  0.866300  0.801000  0.133700  1.0  0.0093
  C  C94  1  0.866300  0.301000  0.633700  1.0  0.0093
  C  C95  1  0.366300  0.801000  0.633700  1.0  0.0093
  C  C96  1  0.366300  0.301000  0.133700  1.0  0.0093
  C  C97  1  0.133700  0.133700  0.801000  1.0  0.0078
  C  C98  1  0.133700  0.633700  0.301000  1.0  0.0078
  C  C99  1  0.633700  0.133700  0.301000  1.0  0.0078
  C  C100  1  0.633700  0.633700  0.801000  1.0  0.0078
  C  C101  1  0.866300  0.866300  0.801000  1.0  0.0075
  C  C102  1  0.866300  0.366300  0.301000  1.0  0.0075
  C  C103  1  0.366300  0.866300  0.301000  1.0  0.0075
  C  C104  1  0.366300  0.366300  0.801000  1.0  0.0075
  C  C105  1  0.133700  0.866300  0.199000  1.0  0.0057
  C  C106  1  0.133700  0.366300  0.699000  1.0  0.0057
  C  C107  1  0.633700  0.866300  0.699000  1.0  0.0057
  C  C108  1  0.633700  0.366300  0.199000  1.0  0.0057
  C  C109  1  0.866300  0.133700  0.199000  1.0  0.0057
  C  C110  1  0.866300  0.633700  0.699000  1.0  0.0057
  C  C111  1  0.366300  0.133700  0.699000  1.0  0.0057
  C  C112  1  0.366300  0.633700  0.199000  1.0  0.0057
  C  C113  1  0.133700  0.199000  0.866300  1.0  0.0109
  C  C114  1  0.133700  0.699000  0.366300  1.0  0.0109
  C  C115  1  0.633700  0.199000  0.366300  1.0  0.0109
  C  C116  1  0.633700  0.699000  0.866300  1.0  0.0109
  C  C117  1  0.866300  0.199000  0.133700  1.0  0.0103
  C  C118  1  0.866300  0.699000  0.633700  1.0  0.0103
  C  C119  1  0.366300  0.199000  0.633700  1.0  0.0103
  C  C120  1  0.366300  0.699000  0.133700  1.0  0.0103
  C  C121  1  0.866300  0.801000  0.866300  1.0  0.0082
  C  C122  1  0.866300  0.301000  0.366300  1.0  0.0082
  C  C123  1  0.366300  0.801000  0.366300  1.0  0.0082
  C  C124  1  0.366300  0.301000  0.866300  1.0  0.0082
  C  C125  1  0.133700  0.801000  0.133700  1.0  0.01
  C  C126  1  0.133700  0.301000  0.633700  1.0  0.01
  C  C127  1  0.633700  0.801000  0.633700  1.0  0.01
  C  C128  1  0.633700  0.301000  0.133700  1.0  0.01
  C  C129  1  0.199000  0.133700  0.866300  1.0  0.0105
  C  C130  1  0.199000  0.633700  0.366300  1.0  0.0105
  C  C131  1  0.699000  0.133700  0.366300  1.0  0.0105
  C  C132  1  0.699000  0.633700  0.866300  1.0  0.0105
  C  C133  1  0.199000  0.866300  0.133700  1.0  0.0107
  C  C134  1  0.199000  0.366300  0.633700  1.0  0.0107
  C  C135  1  0.699000  0.866300  0.633700  1.0  0.0107
  C  C136  1  0.699000  0.366300  0.133700  1.0  0.0107
  C  C137  1  0.801000  0.133700  0.133700  1.0  0.0112
  C  C138  1  0.801000  0.633700  0.633700  1.0  0.0112
  C  C139  1  0.301000  0.133700  0.633700  1.0  0.0112
  C  C140  1  0.301000  0.633700  0.133700  1.0  0.0112
  C  C141  1  0.801000  0.866300  0.866300  1.0  0.0113
  C  C142  1  0.801000  0.366300  0.366300  1.0  0.0113
  C  C143  1  0.301000  0.866300  0.366300  1.0  0.0113
  C  C144  1  0.301000  0.366300  0.866300  1.0  0.0113
  C  C145  1  0.200000  0.069200  0.200000  1.0  0.6831
  C  C146  1  0.177200  0.115500  0.177200  1.0  0.0237
  C  C147  1  0.200000  0.569200  0.700000  1.0  0.6831
  C  C148  1  0.177200  0.615500  0.677200  1.0  0.0237
  C  C149  1  0.700000  0.069200  0.700000  1.0  0.6831
  C  C150  1  0.677200  0.115500  0.677200  1.0  0.0237
  C  C151  1  0.700000  0.569200  0.200000  1.0  0.6831
  C  C152  1  0.677200  0.615500  0.177200  1.0  0.0237
  C  C153  1  0.800000  0.930800  0.200000  1.0  0.6839
  C  C154  1  0.822800  0.884500  0.177200  1.0  0.0205
  C  C155  1  0.800000  0.430800  0.700000  1.0  0.6839
  C  C156  1  0.822800  0.384500  0.677200  1.0  0.0205
  C  C157  1  0.300000  0.930800  0.700000  1.0  0.6839
  C  C158  1  0.322800  0.884500  0.677200  1.0  0.0205
  C  C159  1  0.300000  0.430800  0.200000  1.0  0.6839
  C  C160  1  0.322800  0.384500  0.177200  1.0  0.0205
  C  C161  1  0.800000  0.069200  0.800000  1.0  0.6835
  C  C162  1  0.822800  0.115500  0.822800  1.0  0.0172
  C  C163  1  0.800000  0.569200  0.300000  1.0  0.6835
  C  C164  1  0.822800  0.615500  0.322800  1.0  0.0172
  C  C165  1  0.300000  0.069200  0.300000  1.0  0.6835
  C  C166  1  0.322800  0.115500  0.322800  1.0  0.0172
  C  C167  1  0.300000  0.569200  0.800000  1.0  0.6835
  C  C168  1  0.322800  0.615500  0.822800  1.0  0.0172
  C  C169  1  0.200000  0.930800  0.800000  1.0  0.6833
  C  C170  1  0.177200  0.884500  0.822800  1.0  0.0192
  C  C171  1  0.200000  0.430800  0.300000  1.0  0.6833
  C  C172  1  0.177200  0.384500  0.322800  1.0  0.0192
  C  C173  1  0.700000  0.930800  0.300000  1.0  0.6833
  C  C174  1  0.677200  0.884500  0.322800  1.0  0.0192
  C  C175  1  0.700000  0.430800  0.800000  1.0  0.6833
  C  C176  1  0.677200  0.384500  0.822800  1.0  0.0192
  C  C177  1  0.200000  0.200000  0.069200  1.0  0.6832
  C  C178  1  0.177200  0.177200  0.115500  1.0  0.0216
  C  C179  1  0.200000  0.700000  0.569200  1.0  0.6832
  C  C180  1  0.177200  0.677200  0.615500  1.0  0.0216
  C  C181  1  0.700000  0.200000  0.569200  1.0  0.6832
  C  C182  1  0.677200  0.177200  0.615500  1.0  0.0216
  C  C183  1  0.700000  0.700000  0.069200  1.0  0.6832
  C  C184  1  0.677200  0.677200  0.115500  1.0  0.0216
  C  C185  1  0.200000  0.800000  0.930800  1.0  0.6831
  C  C186  1  0.177200  0.822800  0.884500  1.0  0.0203
  C  C187  1  0.200000  0.300000  0.430800  1.0  0.6831
  C  C188  1  0.177200  0.322800  0.384500  1.0  0.0203
  C  C189  1  0.700000  0.800000  0.430800  1.0  0.6831
  C  C190  1  0.677200  0.822800  0.384500  1.0  0.0203
  C  C191  1  0.700000  0.300000  0.930800  1.0  0.6831
  C  C192  1  0.677200  0.322800  0.884500  1.0  0.0203
  C  C193  1  0.800000  0.800000  0.069200  1.0  0.6835
  C  C194  1  0.822800  0.822800  0.115500  1.0  0.0169
  C  C195  1  0.800000  0.300000  0.569200  1.0  0.6835
  C  C196  1  0.822800  0.322800  0.615500  1.0  0.0169
  C  C197  1  0.300000  0.800000  0.569200  1.0  0.6835
  C  C198  1  0.322800  0.822800  0.615500  1.0  0.0169
  C  C199  1  0.300000  0.300000  0.069200  1.0  0.6835
  C  C200  1  0.322800  0.322800  0.115500  1.0  0.0169
  C  C201  1  0.800000  0.200000  0.930800  1.0  0.6835
  C  C202  1  0.822800  0.177200  0.884500  1.0  0.0199
  C  C203  1  0.800000  0.700000  0.430800  1.0  0.6835
  C  C204  1  0.822800  0.677200  0.384500  1.0  0.0199
  C  C205  1  0.300000  0.200000  0.430800  1.0  0.6835
  C  C206  1  0.322800  0.177200  0.384500  1.0  0.0199
  C  C207  1  0.300000  0.700000  0.930800  1.0  0.6835
  C  C208  1  0.322800  0.677200  0.884500  1.0  0.0199
  C  C209  1  0.069200  0.200000  0.200000  1.0  0.6828
  C  C210  1  0.115500  0.177200  0.177200  1.0  0.0236
  C  C211  1  0.069200  0.700000  0.700000  1.0  0.6828
  C  C212  1  0.115500  0.677200  0.677200  1.0  0.0236
  C  C213  1  0.569200  0.200000  0.700000  1.0  0.6828
  C  C214  1  0.615500  0.177200  0.677200  1.0  0.0236
  C  C215  1  0.569200  0.700000  0.200000  1.0  0.6828
  C  C216  1  0.615500  0.677200  0.177200  1.0  0.0236
  C  C217  1  0.930800  0.200000  0.800000  1.0  0.6828
  C  C218  1  0.884500  0.177200  0.822800  1.0  0.0196
  C  C219  1  0.930800  0.700000  0.300000  1.0  0.6828
  C  C220  1  0.884500  0.677200  0.322800  1.0  0.0196
  C  C221  1  0.430800  0.200000  0.300000  1.0  0.6828
  C  C222  1  0.384500  0.177200  0.322800  1.0  0.0196
  C  C223  1  0.430800  0.700000  0.800000  1.0  0.6828
  C  C224  1  0.384500  0.677200  0.822800  1.0  0.0196
  C  C225  1  0.069200  0.800000  0.800000  1.0  0.6828
  C  C226  1  0.115500  0.822800  0.822800  1.0  0.018
  C  C227  1  0.069200  0.300000  0.300000  1.0  0.6828
  C  C228  1  0.115500  0.322800  0.322800  1.0  0.018
  C  C229  1  0.569200  0.800000  0.300000  1.0  0.6828
  C  C230  1  0.615500  0.822800  0.322800  1.0  0.018
  C  C231  1  0.569200  0.300000  0.800000  1.0  0.6828
  C  C232  1  0.615500  0.322800  0.822800  1.0  0.018
  C  C233  1  0.930800  0.800000  0.200000  1.0  0.6828
  C  C234  1  0.884500  0.822800  0.177200  1.0  0.0203
  C  C235  1  0.930800  0.300000  0.700000  1.0  0.6828
  C  C236  1  0.884500  0.322800  0.677200  1.0  0.0203
  C  C237  1  0.430800  0.800000  0.700000  1.0  0.6828
  C  C238  1  0.384500  0.822800  0.677200  1.0  0.0203
  C  C239  1  0.430800  0.300000  0.200000  1.0  0.6828
  C  C240  1  0.384500  0.322800  0.177200  1.0  0.0203
  C  C241  1  0.069200  0.200000  0.800000  1.0  0.6827
  C  C242  1  0.115500  0.177200  0.822800  1.0  0.0211
  C  C243  1  0.069200  0.700000  0.300000  1.0  0.6827
  C  C244  1  0.115500  0.677200  0.322800  1.0  0.0211
  C  C245  1  0.569200  0.200000  0.300000  1.0  0.6827
  C  C246  1  0.615500  0.177200  0.322800  1.0  0.0211
  C  C247  1  0.569200  0.700000  0.800000  1.0  0.6827
  C  C248  1  0.615500  0.677200  0.822800  1.0  0.0211
  C  C249  1  0.930800  0.800000  0.800000  1.0  0.6829
  C  C250  1  0.884500  0.822800  0.822800  1.0  0.021
  C  C251  1  0.930800  0.300000  0.300000  1.0  0.6829
  C  C252  1  0.884500  0.322800  0.322800  1.0  0.021
  C  C253  1  0.430800  0.800000  0.300000  1.0  0.6829
  C  C254  1  0.384500  0.822800  0.322800  1.0  0.021
  C  C255  1  0.430800  0.300000  0.800000  1.0  0.6829
  C  C256  1  0.384500  0.322800  0.822800  1.0  0.021
  C  C257  1  0.069200  0.800000  0.200000  1.0  0.6829
  C  C258  1  0.115500  0.822800  0.177200  1.0  0.0218
  C  C259  1  0.069200  0.300000  0.700000  1.0  0.6829
  C  C260  1  0.115500  0.322800  0.677200  1.0  0.0218
  C  C261  1  0.569200  0.800000  0.700000  1.0  0.6829
  C  C262  1  0.615500  0.822800  0.677200  1.0  0.0218
  C  C263  1  0.569200  0.300000  0.200000  1.0  0.6829
  C  C264  1  0.615500  0.322800  0.177200  1.0  0.0218
  C  C265  1  0.930800  0.200000  0.200000  1.0  0.6826
  C  C266  1  0.884500  0.177200  0.177200  1.0  0.0238
  C  C267  1  0.930800  0.700000  0.700000  1.0  0.6826
  C  C268  1  0.884500  0.677200  0.677200  1.0  0.0238
  C  C269  1  0.430800  0.200000  0.700000  1.0  0.6826
  C  C270  1  0.384500  0.177200  0.677200  1.0  0.0238
  C  C271  1  0.430800  0.700000  0.200000  1.0  0.6826
  C  C272  1  0.384500  0.677200  0.177200  1.0  0.0238
  C  C273  1  0.200000  0.200000  0.930800  1.0  0.6831
  C  C274  1  0.177200  0.177200  0.884500  1.0  0.0228
  C  C275  1  0.200000  0.700000  0.430800  1.0  0.6831
  C  C276  1  0.177200  0.677200  0.384500  1.0  0.0228
  C  C277  1  0.700000  0.200000  0.430800  1.0  0.6831
  C  C278  1  0.677200  0.177200  0.384500  1.0  0.0228
  C  C279  1  0.700000  0.700000  0.930800  1.0  0.6831
  C  C280  1  0.677200  0.677200  0.884500  1.0  0.0228
  C  C281  1  0.800000  0.200000  0.069200  1.0  0.6837
  C  C282  1  0.822800  0.177200  0.115500  1.0  0.0187
  C  C283  1  0.800000  0.700000  0.569200  1.0  0.6837
  C  C284  1  0.822800  0.677200  0.615500  1.0  0.0187
  C  C285  1  0.300000  0.200000  0.569200  1.0  0.6837
  C  C286  1  0.322800  0.177200  0.615500  1.0  0.0187
  C  C287  1  0.300000  0.700000  0.069200  1.0  0.6837
  C  C288  1  0.322800  0.677200  0.115500  1.0  0.0187
  C  C289  1  0.800000  0.800000  0.930800  1.0  0.6834
  C  C290  1  0.822800  0.822800  0.884500  1.0  0.018
  C  C291  1  0.800000  0.300000  0.430800  1.0  0.6834
  C  C292  1  0.822800  0.322800  0.384500  1.0  0.018
  C  C293  1  0.300000  0.800000  0.430800  1.0  0.6834
  C  C294  1  0.322800  0.822800  0.384500  1.0  0.018
  C  C295  1  0.300000  0.300000  0.930800  1.0  0.6834
  C  C296  1  0.322800  0.322800  0.884500  1.0  0.018
  C  C297  1  0.200000  0.800000  0.069200  1.0  0.6831
  C  C298  1  0.177200  0.822800  0.115500  1.0  0.0193
  C  C299  1  0.200000  0.300000  0.569200  1.0  0.6831
  C  C300  1  0.177200  0.322800  0.615500  1.0  0.0193
  C  C301  1  0.700000  0.800000  0.569200  1.0  0.6831
  C  C302  1  0.677200  0.822800  0.615500  1.0  0.0193
  C  C303  1  0.700000  0.300000  0.069200  1.0  0.6831
  C  C304  1  0.677200  0.322800  0.115500  1.0  0.0193
  C  C305  1  0.200000  0.069200  0.800000  1.0  0.6835
  C  C306  1  0.177200  0.115500  0.822800  1.0  0.0195
  C  C307  1  0.200000  0.569200  0.300000  1.0  0.6835
  C  C308  1  0.177200  0.615500  0.322800  1.0  0.0195
  C  C309  1  0.700000  0.069200  0.300000  1.0  0.6835
  C  C310  1  0.677200  0.115500  0.322800  1.0  0.0195
  C  C311  1  0.700000  0.569200  0.800000  1.0  0.6835
  C  C312  1  0.677200  0.615500  0.822800  1.0  0.0195
  C  C313  1  0.200000  0.930800  0.200000  1.0  0.6831
  C  C314  1  0.177200  0.884500  0.177200  1.0  0.0234
  C  C315  1  0.200000  0.430800  0.700000  1.0  0.6831
  C  C316  1  0.177200  0.384500  0.677200  1.0  0.0234
  C  C317  1  0.700000  0.930800  0.700000  1.0  0.6831
  C  C318  1  0.677200  0.884500  0.677200  1.0  0.0234
  C  C319  1  0.700000  0.430800  0.200000  1.0  0.6831
  C  C320  1  0.677200  0.384500  0.177200  1.0  0.0234
  C  C321  1  0.800000  0.069200  0.200000  1.0  0.6839
  C  C322  1  0.822800  0.115500  0.177200  1.0  0.021
  C  C323  1  0.800000  0.569200  0.700000  1.0  0.6839
  C  C324  1  0.822800  0.615500  0.677200  1.0  0.021
  C  C325  1  0.300000  0.069200  0.700000  1.0  0.6839
  C  C326  1  0.322800  0.115500  0.677200  1.0  0.021
  C  C327  1  0.300000  0.569200  0.200000  1.0  0.6839
  C  C328  1  0.322800  0.615500  0.177200  1.0  0.021
  C  C329  1  0.800000  0.930800  0.800000  1.0  0.6835
  C  C330  1  0.822800  0.884500  0.822800  1.0  0.0179
  C  C331  1  0.800000  0.430800  0.300000  1.0  0.6835
  C  C332  1  0.822800  0.384500  0.322800  1.0  0.0179
  C  C333  1  0.300000  0.930800  0.300000  1.0  0.6835
  C  C334  1  0.322800  0.884500  0.322800  1.0  0.0179
  C  C335  1  0.300000  0.430800  0.800000  1.0  0.6835
  C  C336  1  0.322800  0.384500  0.822800  1.0  0.0179
  O  O337  1  0.243130  0.053620  0.182800  1.0  -0.5682
  O  O338  1  0.243130  0.553620  0.682800  1.0  -0.5682
  O  O339  1  0.743130  0.053620  0.682800  1.0  -0.5682
  O  O340  1  0.743130  0.553620  0.182800  1.0  -0.5682
  O  O341  1  0.756870  0.946380  0.182800  1.0  -0.5668
  O  O342  1  0.756870  0.446380  0.682800  1.0  -0.5668
  O  O343  1  0.256870  0.946380  0.682800  1.0  -0.5668
  O  O344  1  0.256870  0.446380  0.182800  1.0  -0.5668
  O  O345  1  0.756870  0.053620  0.817200  1.0  -0.5661
  O  O346  1  0.756870  0.553620  0.317200  1.0  -0.5665
  O  O347  1  0.256870  0.053620  0.317200  1.0  -0.5665
  O  O348  1  0.256870  0.553620  0.817200  1.0  -0.5665
  O  O349  1  0.243130  0.946380  0.817200  1.0  -0.5675
  O  O350  1  0.243130  0.446380  0.317200  1.0  -0.5675
  O  O351  1  0.743130  0.946380  0.317200  1.0  -0.5675
  O  O352  1  0.743130  0.446380  0.817200  1.0  -0.5675
  O  O353  1  0.182800  0.243130  0.053620  1.0  -0.5692
  O  O354  1  0.182800  0.743130  0.553620  1.0  -0.5692
  O  O355  1  0.682800  0.243130  0.553620  1.0  -0.5692
  O  O356  1  0.682800  0.743130  0.053620  1.0  -0.5692
  O  O357  1  0.182800  0.756870  0.946380  1.0  -0.5675
  O  O358  1  0.182800  0.256870  0.446380  1.0  -0.5675
  O  O359  1  0.682800  0.756870  0.446380  1.0  -0.5675
  O  O360  1  0.682800  0.256870  0.946380  1.0  -0.5675
  O  O361  1  0.817200  0.756870  0.053620  1.0  -0.5681
  O  O362  1  0.817200  0.256870  0.553620  1.0  -0.5681
  O  O363  1  0.317200  0.756870  0.553620  1.0  -0.5681
  O  O364  1  0.317200  0.256870  0.053620  1.0  -0.5681
  O  O365  1  0.817200  0.243130  0.946380  1.0  -0.5685
  O  O366  1  0.817200  0.743130  0.446380  1.0  -0.5681
  O  O367  1  0.317200  0.243130  0.446380  1.0  -0.5681
  O  O368  1  0.317200  0.743130  0.946380  1.0  -0.5685
  O  O369  1  0.053620  0.182800  0.243130  1.0  -0.5693
  O  O370  1  0.053620  0.682800  0.743130  1.0  -0.5693
  O  O371  1  0.553620  0.182800  0.743130  1.0  -0.5693
  O  O372  1  0.553620  0.682800  0.243130  1.0  -0.5693
  O  O373  1  0.946380  0.182800  0.756870  1.0  -0.5698
  O  O374  1  0.946380  0.682800  0.256870  1.0  -0.5698
  O  O375  1  0.446380  0.182800  0.256870  1.0  -0.5698
  O  O376  1  0.446380  0.682800  0.756870  1.0  -0.5698
  O  O377  1  0.053620  0.817200  0.756870  1.0  -0.5723
  O  O378  1  0.053620  0.317200  0.256870  1.0  -0.5725
  O  O379  1  0.553620  0.817200  0.256870  1.0  -0.5725
  O  O380  1  0.553620  0.317200  0.756870  1.0  -0.5725
  O  O381  1  0.946380  0.817200  0.243130  1.0  -0.57
  O  O382  1  0.946380  0.317200  0.743130  1.0  -0.57
  O  O383  1  0.446380  0.817200  0.743130  1.0  -0.57
  O  O384  1  0.446380  0.317200  0.243130  1.0  -0.57
  O  O385  1  0.053620  0.243130  0.817200  1.0  -0.5678
  O  O386  1  0.053620  0.743130  0.317200  1.0  -0.5671
  O  O387  1  0.553620  0.243130  0.317200  1.0  -0.5678
  O  O388  1  0.553620  0.743130  0.817200  1.0  -0.5678
  O  O389  1  0.946380  0.756870  0.817200  1.0  -0.5683
  O  O390  1  0.946380  0.256870  0.317200  1.0  -0.5683
  O  O391  1  0.446380  0.756870  0.317200  1.0  -0.5683
  O  O392  1  0.446380  0.256870  0.817200  1.0  -0.568
  O  O393  1  0.053620  0.756870  0.182800  1.0  -0.5665
  O  O394  1  0.053620  0.256870  0.682800  1.0  -0.5665
  O  O395  1  0.553620  0.756870  0.682800  1.0  -0.5665
  O  O396  1  0.553620  0.256870  0.182800  1.0  -0.5665
  O  O397  1  0.946380  0.243130  0.182800  1.0  -0.5698
  O  O398  1  0.946380  0.743130  0.682800  1.0  -0.5698
  O  O399  1  0.446380  0.243130  0.682800  1.0  -0.5698
  O  O400  1  0.446380  0.743130  0.182800  1.0  -0.5698
  O  O401  1  0.243130  0.182800  0.946380  1.0  -0.5694
  O  O402  1  0.243130  0.682800  0.446380  1.0  -0.5694
  O  O403  1  0.743130  0.182800  0.446380  1.0  -0.5694
  O  O404  1  0.743130  0.682800  0.946380  1.0  -0.5694
  O  O405  1  0.756870  0.182800  0.053620  1.0  -0.5679
  O  O406  1  0.756870  0.682800  0.553620  1.0  -0.5679
  O  O407  1  0.256870  0.182800  0.553620  1.0  -0.5679
  O  O408  1  0.256870  0.682800  0.053620  1.0  -0.5679
  O  O409  1  0.756870  0.817200  0.946380  1.0  -0.5698
  O  O410  1  0.756870  0.317200  0.446380  1.0  -0.5698
  O  O411  1  0.256870  0.817200  0.446380  1.0  -0.5698
  O  O412  1  0.256870  0.317200  0.946380  1.0  -0.5698
  O  O413  1  0.243130  0.817200  0.053620  1.0  -0.5707
  O  O414  1  0.243130  0.317200  0.553620  1.0  -0.5707
  O  O415  1  0.743130  0.817200  0.553620  1.0  -0.5707
  O  O416  1  0.743130  0.317200  0.053620  1.0  -0.5707
  O  O417  1  0.182800  0.053620  0.756870  1.0  -0.5691
  O  O418  1  0.182800  0.553620  0.256870  1.0  -0.5691
  O  O419  1  0.682800  0.053620  0.256870  1.0  -0.5691
  O  O420  1  0.682800  0.553620  0.756870  1.0  -0.5691
  O  O421  1  0.182800  0.946380  0.243130  1.0  -0.5666
  O  O422  1  0.182800  0.446380  0.743130  1.0  -0.5666
  O  O423  1  0.682800  0.946380  0.743130  1.0  -0.5666
  O  O424  1  0.682800  0.446380  0.243130  1.0  -0.5666
  O  O425  1  0.817200  0.053620  0.243130  1.0  -0.5679
  O  O426  1  0.817200  0.553620  0.743130  1.0  -0.5681
  O  O427  1  0.317200  0.053620  0.743130  1.0  -0.5681
  O  O428  1  0.317200  0.553620  0.243130  1.0  -0.568
  O  O429  1  0.817200  0.946380  0.756870  1.0  -0.5687
  O  O430  1  0.817200  0.446380  0.256870  1.0  -0.5684
  O  O431  1  0.317200  0.946380  0.256870  1.0  -0.5687
  O  O432  1  0.317200  0.446380  0.756870  1.0  -0.5687
  O  O433  1  0.756870  0.946380  0.817200  1.0  -0.5666
  O  O434  1  0.756870  0.446380  0.317200  1.0  -0.5666
  O  O435  1  0.256870  0.946380  0.317200  1.0  -0.5666
  O  O436  1  0.256870  0.446380  0.817200  1.0  -0.5667
  O  O437  1  0.243130  0.053620  0.817200  1.0  -0.5677
  O  O438  1  0.243130  0.553620  0.317200  1.0  -0.5677
  O  O439  1  0.743130  0.053620  0.317200  1.0  -0.5677
  O  O440  1  0.743130  0.553620  0.817200  1.0  -0.5677
  O  O441  1  0.243130  0.946380  0.182800  1.0  -0.5679
  O  O442  1  0.243130  0.446380  0.682800  1.0  -0.5679
  O  O443  1  0.743130  0.946380  0.682800  1.0  -0.5679
  O  O444  1  0.743130  0.446380  0.182800  1.0  -0.5679
  O  O445  1  0.756870  0.053620  0.182800  1.0  -0.5669
  O  O446  1  0.756870  0.553620  0.682800  1.0  -0.5669
  O  O447  1  0.256870  0.053620  0.682800  1.0  -0.5669
  O  O448  1  0.256870  0.553620  0.182800  1.0  -0.5669
  O  O449  1  0.817200  0.756870  0.946380  1.0  -0.5682
  O  O450  1  0.817200  0.256870  0.446380  1.0  -0.5682
  O  O451  1  0.317200  0.756870  0.446380  1.0  -0.5682
  O  O452  1  0.317200  0.256870  0.946380  1.0  -0.5682
  O  O453  1  0.817200  0.243130  0.053620  1.0  -0.5684
  O  O454  1  0.817200  0.743130  0.553620  1.0  -0.5684
  O  O455  1  0.317200  0.243130  0.553620  1.0  -0.5684
  O  O456  1  0.317200  0.743130  0.053620  1.0  -0.5684
  O  O457  1  0.182800  0.243130  0.946380  1.0  -0.5689
  O  O458  1  0.182800  0.743130  0.446380  1.0  -0.5689
  O  O459  1  0.682800  0.243130  0.446380  1.0  -0.5689
  O  O460  1  0.682800  0.743130  0.946380  1.0  -0.5689
  O  O461  1  0.182800  0.756870  0.053620  1.0  -0.5675
  O  O462  1  0.182800  0.256870  0.553620  1.0  -0.5675
  O  O463  1  0.682800  0.756870  0.553620  1.0  -0.5675
  O  O464  1  0.682800  0.256870  0.053620  1.0  -0.5675
  O  O465  1  0.946380  0.817200  0.756870  1.0  -0.573
  O  O466  1  0.946380  0.317200  0.256870  1.0  -0.573
  O  O467  1  0.446380  0.817200  0.256870  1.0  -0.573
  O  O468  1  0.446380  0.317200  0.756870  1.0  -0.573
  O  O469  1  0.053620  0.817200  0.243130  1.0  -0.5697
  O  O470  1  0.053620  0.317200  0.743130  1.0  -0.5698
  O  O471  1  0.553620  0.817200  0.743130  1.0  -0.5698
  O  O472  1  0.553620  0.317200  0.243130  1.0  -0.5698
  O  O473  1  0.946380  0.182800  0.243130  1.0  -0.5692
  O  O474  1  0.946380  0.682800  0.743130  1.0  -0.5692
  O  O475  1  0.446380  0.182800  0.743130  1.0  -0.5692
  O  O476  1  0.446380  0.682800  0.243130  1.0  -0.5692
  O  O477  1  0.053620  0.182800  0.756870  1.0  -0.5695
  O  O478  1  0.053620  0.682800  0.256870  1.0  -0.5695
  O  O479  1  0.553620  0.182800  0.256870  1.0  -0.5695
  O  O480  1  0.553620  0.682800  0.756870  1.0  -0.5695
  O  O481  1  0.946380  0.756870  0.182800  1.0  -0.5666
  O  O482  1  0.946380  0.256870  0.682800  1.0  -0.5666
  O  O483  1  0.446380  0.756870  0.682800  1.0  -0.5666
  O  O484  1  0.446380  0.256870  0.182800  1.0  -0.5666
  O  O485  1  0.053620  0.243130  0.182800  1.0  -0.5692
  O  O486  1  0.053620  0.743130  0.682800  1.0  -0.5692
  O  O487  1  0.553620  0.243130  0.682800  1.0  -0.5692
  O  O488  1  0.553620  0.743130  0.182800  1.0  -0.5692
  O  O489  1  0.946380  0.243130  0.817200  1.0  -0.5683
  O  O490  1  0.946380  0.743130  0.317200  1.0  -0.5683
  O  O491  1  0.446380  0.243130  0.317200  1.0  -0.5683
  O  O492  1  0.446380  0.743130  0.817200  1.0  -0.5683
  O  O493  1  0.053620  0.756870  0.817200  1.0  -0.5675
  O  O494  1  0.053620  0.256870  0.317200  1.0  -0.5679
  O  O495  1  0.553620  0.756870  0.317200  1.0  -0.5679
  O  O496  1  0.553620  0.256870  0.817200  1.0  -0.5679
  O  O497  1  0.756870  0.817200  0.053620  1.0  -0.5698
  O  O498  1  0.756870  0.317200  0.553620  1.0  -0.5698
  O  O499  1  0.256870  0.817200  0.553620  1.0  -0.5698
  O  O500  1  0.256870  0.317200  0.053620  1.0  -0.5698
  O  O501  1  0.243130  0.817200  0.946380  1.0  -0.5707
  O  O502  1  0.243130  0.317200  0.446380  1.0  -0.5707
  O  O503  1  0.743130  0.817200  0.446380  1.0  -0.5707
  O  O504  1  0.743130  0.317200  0.946380  1.0  -0.5707
  O  O505  1  0.243130  0.182800  0.053620  1.0  -0.5691
  O  O506  1  0.243130  0.682800  0.553620  1.0  -0.5691
  O  O507  1  0.743130  0.182800  0.553620  1.0  -0.5691
  O  O508  1  0.743130  0.682800  0.053620  1.0  -0.5691
  O  O509  1  0.756870  0.182800  0.946380  1.0  -0.5683
  O  O510  1  0.756870  0.682800  0.446380  1.0  -0.5683
  O  O511  1  0.256870  0.182800  0.446380  1.0  -0.5683
  O  O512  1  0.256870  0.682800  0.946380  1.0  -0.5683
  O  O513  1  0.817200  0.946380  0.243130  1.0  -0.568
  O  O514  1  0.817200  0.446380  0.743130  1.0  -0.5676
  O  O515  1  0.317200  0.946380  0.743130  1.0  -0.5675
  O  O516  1  0.317200  0.446380  0.243130  1.0  -0.5675
  O  O517  1  0.817200  0.053620  0.756870  1.0  -0.5688
  O  O518  1  0.817200  0.553620  0.256870  1.0  -0.569
  O  O519  1  0.317200  0.053620  0.256870  1.0  -0.569
  O  O520  1  0.317200  0.553620  0.756870  1.0  -0.569
  O  O521  1  0.182800  0.946380  0.756870  1.0  -0.5693
  O  O522  1  0.182800  0.446380  0.256870  1.0  -0.5693
  O  O523  1  0.682800  0.946380  0.256870  1.0  -0.5693
  O  O524  1  0.682800  0.446380  0.756870  1.0  -0.5693
  O  O525  1  0.182800  0.053620  0.243130  1.0  -0.5669
  O  O526  1  0.182800  0.553620  0.743130  1.0  -0.5669
  O  O527  1  0.682800  0.053620  0.743130  1.0  -0.5669
  O  O528  1  0.682800  0.553620  0.243130  1.0  -0.5669
