# generated using pymatgen
data_CeMo2H3C7NO8
_symmetry_space_group_name_H-M   'P 1'
_cell_length_a   11.50840000
_cell_length_b   12.71580000
_cell_length_c   14.53870000
_cell_angle_alpha   94.24100000
_cell_angle_beta   109.06600000
_cell_angle_gamma   115.60300000
_symmetry_Int_Tables_number   1
_chemical_formula_structural   CeMo2H3C7NO8
_chemical_formula_sum   'Ce4 Mo8 H12 C28 N4 O32'
_cell_volume   1754.71068760
_cell_formula_units_Z   4
loop_
 _symmetry_equiv_pos_site_id
 _symmetry_equiv_pos_as_xyz
  1  'x, y, z'
loop_
 _atom_site_type_symbol
 _atom_site_label
 _atom_site_symmetry_multiplicity
 _atom_site_fract_x
 _atom_site_fract_y
 _atom_site_fract_z
 _atom_site_occupancy
 _atom_site_charge
  Ce  Ce1  1  0.382200  0.452200  0.831770  1.0  2.1809
  Ce  Ce2  1  0.233270  0.524040  0.441130  1.0  2.0016
  Ce  Ce3  1  0.617800  0.547800  0.168230  1.0  2.18
  Ce  Ce4  1  0.766730  0.475960  0.558870  1.0  1.9995
  Mo  Mo5  1  0.349350  0.758320  0.886410  1.0  1.301
  Mo  Mo6  1  0.372360  0.925130  0.727190  1.0  0.7087
  Mo  Mo7  1  0.377300  0.125190  0.883230  1.0  1.296
  Mo  Mo8  1  0.646880  0.043350  0.961940  1.0  1.2345
  Mo  Mo9  1  0.650650  0.241680  0.113590  1.0  1.2992
  Mo  Mo10  1  0.627640  0.074870  0.272810  1.0  0.7087
  Mo  Mo11  1  0.622700  0.874810  0.116770  1.0  1.2958
  Mo  Mo12  1  0.353120  0.956650  0.038060  1.0  1.2348
  H  H13  1  0.711600  0.831700  0.703300  1.0  0.1304
  H  H14  1  0.914000  0.929300  0.849900  1.0  0.118
  H  H15  1  0.924400  0.850000  0.988400  1.0  0.1188
  H  H16  1  0.953900  0.616900  0.097400  1.0  0.1321
  H  H17  1  0.109400  0.650300  0.021300  1.0  0.1105
  H  H18  1  0.312600  0.633300  0.100100  1.0  0.1355
  H  H19  1  0.288400  0.168300  0.296700  1.0  0.1309
  H  H20  1  0.086000  0.070700  0.150100  1.0  0.1172
  H  H21  1  0.075600  0.150000  0.011600  1.0  0.1187
  H  H22  1  0.046100  0.383100  0.902600  1.0  0.1314
  H  H23  1  0.890600  0.349700  0.978700  1.0  0.1104
  H  H24  1  0.687400  0.366700  0.899900  1.0  0.136
  C  C25  1  0.470800  0.624800  0.668100  1.0  0.6654
  C  C26  1  0.607100  0.698800  0.759900  1.0  0.1606
  C  C27  1  0.717800  0.801900  0.760200  1.0  -0.1005
  C  C28  1  0.837300  0.859300  0.847000  1.0  -0.0989
  C  C29  1  0.843100  0.812600  0.929600  1.0  -0.098
  C  C30  1  0.727500  0.709900  0.924900  1.0  0.1376
  C  C31  1  0.720200  0.654600  0.009500  1.0  0.6697
  C  C32  1  0.965300  0.550900  0.273600  1.0  0.6936
  C  C33  1  0.061800  0.576800  0.218500  1.0  0.1247
  C  C34  1  0.033800  0.609400  0.127100  1.0  -0.0901
  C  C35  1  0.126800  0.630000  0.082600  1.0  -0.0794
  C  C36  1  0.248500  0.620500  0.129400  1.0  -0.0739
  C  C37  1  0.268300  0.591400  0.221100  1.0  0.1383
  C  C38  1  0.398700  0.584400  0.281000  1.0  0.7062
  C  C39  1  0.529200  0.375200  0.331900  1.0  0.6636
  C  C40  1  0.392900  0.301200  0.240100  1.0  0.1601
  C  C41  1  0.282200  0.198100  0.239800  1.0  -0.1009
  C  C42  1  0.162700  0.140700  0.153000  1.0  -0.0966
  C  C43  1  0.156900  0.187400  0.070400  1.0  -0.0991
  C  C44  1  0.272500  0.290100  0.075100  1.0  0.1388
  C  C45  1  0.279800  0.345400  0.990500  1.0  0.6694
  C  C46  1  0.034700  0.449100  0.726400  1.0  0.6952
  C  C47  1  0.938200  0.423200  0.781500  1.0  0.1231
  C  C48  1  0.966200  0.390600  0.872900  1.0  -0.0916
  C  C49  1  0.873200  0.370000  0.917400  1.0  -0.0773
  C  C50  1  0.751500  0.379500  0.870600  1.0  -0.0742
  C  C51  1  0.731700  0.408600  0.778900  1.0  0.1395
  C  C52  1  0.601300  0.415600  0.719000  1.0  0.7053
  N  N53  1  0.608700  0.651600  0.839900  1.0  -0.4563
  N  N54  1  0.176300  0.569800  0.264000  1.0  -0.4601
  N  N55  1  0.391300  0.348400  0.160100  1.0  -0.4567
  N  N56  1  0.823700  0.430200  0.736000  1.0  -0.4647
  O  O57  1  0.371000  0.539200  0.677900  1.0  -0.7347
  O  O58  1  0.465500  0.651400  0.586400  1.0  -0.6599
  O  O59  1  0.616000  0.547900  0.988600  1.0  -0.7939
  O  O60  1  0.808800  0.707300  0.096700  1.0  -0.6171
  O  O61  1  0.004900  0.523000  0.355400  1.0  -0.7078
  O  O62  1  0.857200  0.559300  0.238700  1.0  -0.6912
  O  O63  1  0.408600  0.561600  0.364900  1.0  -0.688
  O  O64  1  0.486800  0.603200  0.244400  1.0  -0.7052
  O  O65  1  0.396100  0.952400  0.902700  1.0  -0.8281
  O  O66  1  0.389300  0.792100  0.772300  1.0  -0.6679
  O  O67  1  0.381900  0.639700  0.898000  1.0  -0.6989
  O  O68  1  0.415000  0.087700  0.771200  1.0  -0.6739
  O  O69  1  0.605800  0.015900  0.832900  1.0  -0.6331
  O  O70  1  0.613700  0.180700  0.973200  1.0  -0.7086
  O  O71  1  0.407100  0.119800  0.025300  1.0  -0.7453
  O  O72  1  0.421400  0.273700  0.890500  1.0  -0.7414
  O  O73  1  0.629000  0.460800  0.322100  1.0  -0.735
  O  O74  1  0.534500  0.348600  0.413600  1.0  -0.6594
  O  O75  1  0.384000  0.452100  0.011400  1.0  -0.7922
  O  O76  1  0.191200  0.292700  0.903300  1.0  -0.6188
  O  O77  1  0.995100  0.477000  0.644600  1.0  -0.7095
  O  O78  1  0.142800  0.440700  0.761300  1.0  -0.6917
  O  O79  1  0.591400  0.438400  0.635100  1.0  -0.689
  O  O80  1  0.513200  0.396800  0.755600  1.0  -0.7063
  O  O81  1  0.603900  0.047600  0.097300  1.0  -0.8265
  O  O82  1  0.610700  0.207900  0.227700  1.0  -0.6671
  O  O83  1  0.618100  0.360300  0.102000  1.0  -0.6975
  O  O84  1  0.585000  0.912300  0.228800  1.0  -0.6767
  O  O85  1  0.394200  0.984100  0.167100  1.0  -0.6348
  O  O86  1  0.386300  0.819300  0.026800  1.0  -0.7092
  O  O87  1  0.592900  0.880200  0.974700  1.0  -0.752
  O  O88  1  0.578600  0.726300  0.109500  1.0  -0.7426
