# generated using pymatgen
data_TbH7C15O7
_symmetry_space_group_name_H-M   'P 1'
_cell_length_a   29.07400000
_cell_length_b   29.07400000
_cell_length_c   13.85400000
_cell_angle_alpha   90.00000000
_cell_angle_beta   90.00000000
_cell_angle_gamma   90.00000000
_symmetry_Int_Tables_number   1
_chemical_formula_structural   TbH7C15O7
_chemical_formula_sum   'Tb16 H112 C240 O112'
_cell_volume   11710.75123250
_cell_formula_units_Z   16
loop_
 _symmetry_equiv_pos_site_id
 _symmetry_equiv_pos_as_xyz
  1  'x, y, z'
loop_
 _atom_site_type_symbol
 _atom_site_label
 _atom_site_symmetry_multiplicity
 _atom_site_fract_x
 _atom_site_fract_y
 _atom_site_fract_z
 _atom_site_occupancy
 _atom_site_charge
  Tb  Tb1  1  0.705150  0.044550  0.595240  1.0  2.2832
  Tb  Tb2  1  0.205150  0.544550  0.095240  1.0  2.2832
  Tb  Tb3  1  0.794850  0.955450  0.095240  1.0  2.2834
  Tb  Tb4  1  0.294850  0.455450  0.595240  1.0  2.2834
  Tb  Tb5  1  0.705450  0.955150  0.845240  1.0  2.2836
  Tb  Tb6  1  0.205450  0.455150  0.345240  1.0  2.2836
  Tb  Tb7  1  0.794550  0.044850  0.345240  1.0  2.2826
  Tb  Tb8  1  0.294550  0.544850  0.845240  1.0  2.2826
  Tb  Tb9  1  0.294850  0.955450  0.404760  1.0  2.2834
  Tb  Tb10  1  0.794850  0.455450  0.904760  1.0  2.2834
  Tb  Tb11  1  0.205150  0.044550  0.904760  1.0  2.2835
  Tb  Tb12  1  0.705150  0.544550  0.404760  1.0  2.2835
  Tb  Tb13  1  0.294550  0.044850  0.154760  1.0  2.2829
  Tb  Tb14  1  0.794550  0.544850  0.654760  1.0  2.2829
  Tb  Tb15  1  0.205450  0.955150  0.654760  1.0  2.2838
  Tb  Tb16  1  0.705450  0.455150  0.154760  1.0  2.2838
  H  H17  1  0.794100  0.192700  0.371400  1.0  0.1062
  H  H18  1  0.798400  0.273300  0.376400  1.0  0.1223
  H  H19  1  0.747700  0.270000  0.644800  1.0  0.0919
  H  H20  1  0.750600  0.338900  0.373800  1.0  0.1113
  H  H21  1  0.748600  0.455800  0.525100  1.0  0.0786
  H  H22  1  0.785700  0.338900  0.653700  1.0  0.1071
  H  H23  1  0.739700  0.157500  0.663200  1.0  0.3555
  H  H24  1  0.294100  0.692700  0.871400  1.0  0.1062
  H  H25  1  0.298400  0.773300  0.876400  1.0  0.1223
  H  H26  1  0.247700  0.770000  0.144800  1.0  0.0919
  H  H27  1  0.250600  0.838900  0.873800  1.0  0.1113
  H  H28  1  0.248600  0.955800  0.025100  1.0  0.0786
  H  H29  1  0.285700  0.838900  0.153700  1.0  0.1071
  H  H30  1  0.239700  0.657500  0.163200  1.0  0.3555
  H  H31  1  0.705900  0.807300  0.871400  1.0  0.106
  H  H32  1  0.701600  0.726700  0.876400  1.0  0.1225
  H  H33  1  0.752300  0.730000  0.144800  1.0  0.0918
  H  H34  1  0.749400  0.661100  0.873800  1.0  0.1117
  H  H35  1  0.751400  0.544200  0.025100  1.0  0.0809
  H  H36  1  0.714300  0.661100  0.153700  1.0  0.1067
  H  H37  1  0.760300  0.842500  0.163200  1.0  0.3547
  H  H38  1  0.205900  0.307300  0.371400  1.0  0.106
  H  H39  1  0.201600  0.226700  0.376400  1.0  0.1225
  H  H40  1  0.252300  0.230000  0.644800  1.0  0.0918
  H  H41  1  0.249400  0.161100  0.373800  1.0  0.1117
  H  H42  1  0.251400  0.044200  0.525100  1.0  0.0809
  H  H43  1  0.214300  0.161100  0.653700  1.0  0.1067
  H  H44  1  0.260300  0.342500  0.663200  1.0  0.3547
  H  H45  1  0.557300  0.044100  0.621400  1.0  0.1065
  H  H46  1  0.476700  0.048400  0.626400  1.0  0.1228
  H  H47  1  0.480000  0.997700  0.894800  1.0  0.0919
  H  H48  1  0.411100  0.000600  0.623800  1.0  0.1117
  H  H49  1  0.294200  0.998600  0.775100  1.0  0.0799
  H  H50  1  0.411100  0.035700  0.903700  1.0  0.1073
  H  H51  1  0.592500  0.989700  0.913200  1.0  0.3558
  H  H52  1  0.057300  0.544100  0.121400  1.0  0.1065
  H  H53  1  0.976700  0.548400  0.126400  1.0  0.1248
  H  H54  1  0.980000  0.497700  0.394800  1.0  0.0919
  H  H55  1  0.911100  0.500600  0.123800  1.0  0.1117
  H  H56  1  0.794200  0.498600  0.275100  1.0  0.0799
  H  H57  1  0.911100  0.535700  0.403700  1.0  0.1073
  H  H58  1  0.092500  0.489700  0.413200  1.0  0.3558
  H  H59  1  0.942700  0.955900  0.121400  1.0  0.1061
  H  H60  1  0.023300  0.951600  0.126400  1.0  0.1249
  H  H61  1  0.020000  0.002300  0.394800  1.0  0.0918
  H  H62  1  0.088900  0.999400  0.123800  1.0  0.1115
  H  H63  1  0.205800  0.001400  0.275100  1.0  0.0806
  H  H64  1  0.088900  0.964300  0.403700  1.0  0.1082
  H  H65  1  0.907500  0.010300  0.413200  1.0  0.3557
  H  H66  1  0.442700  0.455900  0.621400  1.0  0.1061
  H  H67  1  0.523300  0.451600  0.626400  1.0  0.1228
  H  H68  1  0.520000  0.502300  0.894800  1.0  0.0918
  H  H69  1  0.588900  0.499400  0.623800  1.0  0.1115
  H  H70  1  0.705800  0.501400  0.775100  1.0  0.0806
  H  H71  1  0.588900  0.464300  0.903700  1.0  0.1082
  H  H72  1  0.407500  0.510300  0.913200  1.0  0.3557
  H  H73  1  0.205900  0.807300  0.628600  1.0  0.1058
  H  H74  1  0.201600  0.726700  0.623600  1.0  0.1232
  H  H75  1  0.252300  0.730000  0.355200  1.0  0.0916
  H  H76  1  0.249400  0.661100  0.626200  1.0  0.112
  H  H77  1  0.251400  0.544200  0.474900  1.0  0.0806
  H  H78  1  0.214300  0.661100  0.346300  1.0  0.1062
  H  H79  1  0.260300  0.842500  0.336800  1.0  0.3549
  H  H80  1  0.705900  0.307300  0.128600  1.0  0.1058
  H  H81  1  0.701600  0.226700  0.123600  1.0  0.1232
  H  H82  1  0.752300  0.230000  0.855200  1.0  0.0916
  H  H83  1  0.749400  0.161100  0.126200  1.0  0.1114
  H  H84  1  0.751400  0.044200  0.974900  1.0  0.0806
  H  H85  1  0.714300  0.161100  0.846300  1.0  0.1062
  H  H86  1  0.760300  0.342500  0.836800  1.0  0.3549
  H  H87  1  0.294100  0.192700  0.128600  1.0  0.1059
  H  H88  1  0.298400  0.273300  0.123600  1.0  0.1226
  H  H89  1  0.247700  0.270000  0.855200  1.0  0.0917
  H  H90  1  0.250600  0.338900  0.126200  1.0  0.111
  H  H91  1  0.248600  0.455800  0.974900  1.0  0.0782
  H  H92  1  0.285700  0.338900  0.846300  1.0  0.1063
  H  H93  1  0.239700  0.157500  0.836800  1.0  0.3561
  H  H94  1  0.794100  0.692700  0.628600  1.0  0.1059
  H  H95  1  0.798400  0.773300  0.623600  1.0  0.1226
  H  H96  1  0.747700  0.770000  0.355200  1.0  0.0917
  H  H97  1  0.750600  0.838900  0.626200  1.0  0.111
  H  H98  1  0.748600  0.955800  0.474900  1.0  0.0782
  H  H99  1  0.785700  0.838900  0.346300  1.0  0.1063
  H  H100  1  0.739700  0.657500  0.336800  1.0  0.3561
  H  H101  1  0.442700  0.955900  0.378600  1.0  0.1062
  H  H102  1  0.523300  0.951600  0.373600  1.0  0.1234
  H  H103  1  0.520000  0.002300  0.105200  1.0  0.0917
  H  H104  1  0.588900  0.999400  0.376200  1.0  0.1113
  H  H105  1  0.705800  0.001400  0.224900  1.0  0.0804
  H  H106  1  0.588900  0.964300  0.096300  1.0  0.1072
  H  H107  1  0.407500  0.010300  0.086800  1.0  0.3561
  H  H108  1  0.942700  0.455900  0.878600  1.0  0.1062
  H  H109  1  0.023300  0.451600  0.873600  1.0  0.1256
  H  H110  1  0.020000  0.502300  0.605200  1.0  0.0917
  H  H111  1  0.088900  0.499400  0.876200  1.0  0.1113
  H  H112  1  0.205800  0.501400  0.724900  1.0  0.0804
  H  H113  1  0.088900  0.464300  0.596300  1.0  0.1072
  H  H114  1  0.907500  0.510300  0.586800  1.0  0.3558
  H  H115  1  0.057300  0.044100  0.878600  1.0  0.1063
  H  H116  1  0.976700  0.048400  0.873600  1.0  0.1252
  H  H117  1  0.980000  0.997700  0.605200  1.0  0.0916
  H  H118  1  0.911100  0.000600  0.876200  1.0  0.1115
  H  H119  1  0.794200  0.998600  0.724900  1.0  0.0797
  H  H120  1  0.911100  0.035700  0.596300  1.0  0.1069
  H  H121  1  0.092500  0.989700  0.586800  1.0  0.3556
  H  H122  1  0.557300  0.544100  0.378600  1.0  0.1063
  H  H123  1  0.476700  0.548400  0.373600  1.0  0.1231
  H  H124  1  0.480000  0.497700  0.105200  1.0  0.0916
  H  H125  1  0.411100  0.500600  0.376200  1.0  0.1115
  H  H126  1  0.294200  0.498600  0.224900  1.0  0.0797
  H  H127  1  0.411100  0.535700  0.096300  1.0  0.1069
  H  H128  1  0.592500  0.489700  0.086800  1.0  0.3556
  C  C129  1  0.767100  0.132200  0.496100  1.0  0.7021
  C  C130  1  0.776500  0.427700  0.695200  1.0  0.6942
  C  C131  1  0.770000  0.183100  0.505400  1.0  -0.1837
  C  C132  1  0.784900  0.208200  0.426900  1.0  -0.0652
  C  C133  1  0.786600  0.256800  0.428200  1.0  -0.1371
  C  C134  1  0.769700  0.279100  0.510200  1.0  -0.0172
  C  C135  1  0.756600  0.254400  0.589300  1.0  -0.1317
  C  C136  1  0.756400  0.206900  0.589300  1.0  0.2888
  C  C137  1  0.767800  0.330800  0.512800  1.0  -0.0131
  C  C138  1  0.754800  0.354500  0.431800  1.0  -0.059
  C  C139  1  0.747900  0.402700  0.436100  1.0  -0.1319
  C  C140  1  0.754100  0.424400  0.522100  1.0  -0.0252
  C  C141  1  0.768000  0.402400  0.604200  1.0  -0.157
  C  C142  1  0.775500  0.354700  0.599400  1.0  -0.0842
  C  C143  1  0.735000  0.426300  0.346300  1.0  0.6591
  C  C144  1  0.267100  0.632200  0.996100  1.0  0.7021
  C  C145  1  0.276500  0.927700  0.195200  1.0  0.6942
  C  C146  1  0.270000  0.683100  0.005400  1.0  -0.1837
  C  C147  1  0.284900  0.708200  0.926900  1.0  -0.0652
  C  C148  1  0.286600  0.756800  0.928200  1.0  -0.1371
  C  C149  1  0.269700  0.779100  0.010200  1.0  -0.0172
  C  C150  1  0.256600  0.754400  0.089300  1.0  -0.1317
  C  C151  1  0.256400  0.706900  0.089300  1.0  0.2888
  C  C152  1  0.267800  0.830800  0.012800  1.0  -0.0131
  C  C153  1  0.254800  0.854500  0.931800  1.0  -0.059
  C  C154  1  0.247900  0.902700  0.936100  1.0  -0.1319
  C  C155  1  0.254100  0.924400  0.022100  1.0  -0.0256
  C  C156  1  0.268000  0.902400  0.104200  1.0  -0.157
  C  C157  1  0.275500  0.854700  0.099400  1.0  -0.0869
  C  C158  1  0.235000  0.926300  0.846300  1.0  0.6591
  C  C159  1  0.732900  0.867800  0.996100  1.0  0.705
  C  C160  1  0.723500  0.572300  0.195200  1.0  0.6929
  C  C161  1  0.730000  0.816900  0.005400  1.0  -0.1842
  C  C162  1  0.715100  0.791800  0.926900  1.0  -0.0649
  C  C163  1  0.713400  0.743200  0.928200  1.0  -0.1406
  C  C164  1  0.730300  0.720900  0.010200  1.0  -0.017
  C  C165  1  0.743400  0.745600  0.089300  1.0  -0.1306
  C  C166  1  0.743600  0.793100  0.089300  1.0  0.2924
  C  C167  1  0.732200  0.669200  0.012800  1.0  -0.0131
  C  C168  1  0.745200  0.645500  0.931800  1.0  -0.0588
  C  C169  1  0.752100  0.597300  0.936100  1.0  -0.1329
  C  C170  1  0.745900  0.575600  0.022100  1.0  -0.0231
  C  C171  1  0.732000  0.597600  0.104200  1.0  -0.1571
  C  C172  1  0.724500  0.645300  0.099400  1.0  -0.0838
  C  C173  1  0.765000  0.573700  0.846300  1.0  0.6588
  C  C174  1  0.232900  0.367800  0.496100  1.0  0.705
  C  C175  1  0.223500  0.072300  0.695200  1.0  0.6929
  C  C176  1  0.230000  0.316900  0.505400  1.0  -0.1842
  C  C177  1  0.215100  0.291800  0.426900  1.0  -0.0649
  C  C178  1  0.213400  0.243200  0.428200  1.0  -0.1406
  C  C179  1  0.230300  0.220900  0.510200  1.0  -0.017
  C  C180  1  0.243400  0.245600  0.589300  1.0  -0.1306
  C  C181  1  0.243600  0.293100  0.589300  1.0  0.2924
  C  C182  1  0.232200  0.169200  0.512800  1.0  -0.0131
  C  C183  1  0.245200  0.145500  0.431800  1.0  -0.0588
  C  C184  1  0.252100  0.097300  0.436100  1.0  -0.1329
  C  C185  1  0.245900  0.075600  0.522100  1.0  -0.0234
  C  C186  1  0.232000  0.097600  0.604200  1.0  -0.1571
  C  C187  1  0.224500  0.145300  0.599400  1.0  -0.0854
  C  C188  1  0.265000  0.073700  0.346300  1.0  0.6588
  C  C189  1  0.617800  0.017100  0.746100  1.0  0.7011
  C  C190  1  0.322300  0.026500  0.945200  1.0  0.6947
  C  C191  1  0.566900  0.020000  0.755400  1.0  -0.1827
  C  C192  1  0.541800  0.034900  0.676900  1.0  -0.0665
  C  C193  1  0.493200  0.036600  0.678200  1.0  -0.1385
  C  C194  1  0.470900  0.019700  0.760200  1.0  -0.0167
  C  C195  1  0.495600  0.006600  0.839300  1.0  -0.1296
  C  C196  1  0.543100  0.006400  0.839300  1.0  0.2887
  C  C197  1  0.419200  0.017800  0.762800  1.0  -0.0143
  C  C198  1  0.395500  0.004800  0.681800  1.0  -0.06
  C  C199  1  0.347300  0.997900  0.686100  1.0  -0.1328
  C  C200  1  0.325600  0.004100  0.772100  1.0  -0.0259
  C  C201  1  0.347600  0.018000  0.854200  1.0  -0.1583
  C  C202  1  0.395300  0.025500  0.849400  1.0  -0.0863
  C  C203  1  0.323700  0.985000  0.596300  1.0  0.6597
  C  C204  1  0.117800  0.517100  0.246100  1.0  0.7015
  C  C205  1  0.822300  0.526500  0.445200  1.0  0.6947
  C  C206  1  0.066900  0.520000  0.255400  1.0  -0.1827
  C  C207  1  0.041800  0.534900  0.176900  1.0  -0.0665
  C  C208  1  0.993200  0.536600  0.178200  1.0  -0.1385
  C  C209  1  0.970900  0.519700  0.260200  1.0  -0.0167
  C  C210  1  0.995600  0.506600  0.339300  1.0  -0.1296
  C  C211  1  0.043100  0.506400  0.339300  1.0  0.2884
  C  C212  1  0.919200  0.517800  0.262800  1.0  -0.0143
  C  C213  1  0.895500  0.504800  0.181800  1.0  -0.06
  C  C214  1  0.847300  0.497900  0.186100  1.0  -0.1328
  C  C215  1  0.825600  0.504100  0.272100  1.0  -0.0259
  C  C216  1  0.847600  0.518000  0.354200  1.0  -0.1583
  C  C217  1  0.895300  0.525500  0.349400  1.0  -0.0863
  C  C218  1  0.823700  0.485000  0.096300  1.0  0.6595
  C  C219  1  0.882200  0.982900  0.246100  1.0  0.7025
  C  C220  1  0.177700  0.973500  0.445200  1.0  0.693
  C  C221  1  0.933100  0.980000  0.255400  1.0  -0.1829
  C  C222  1  0.958200  0.965100  0.176900  1.0  -0.0656
  C  C223  1  0.006800  0.963400  0.178200  1.0  -0.1434
  C  C224  1  0.029100  0.980300  0.260200  1.0  -0.0177
  C  C225  1  0.004400  0.993400  0.339300  1.0  -0.1301
  C  C226  1  0.956900  0.993600  0.339300  1.0  0.2883
  C  C227  1  0.080800  0.982200  0.262800  1.0  -0.0155
  C  C228  1  0.104500  0.995200  0.181800  1.0  -0.06
  C  C229  1  0.152700  0.002100  0.186100  1.0  -0.1312
  C  C230  1  0.174400  0.995900  0.272100  1.0  -0.0252
  C  C231  1  0.152400  0.982000  0.354200  1.0  -0.1575
  C  C232  1  0.104700  0.974500  0.349400  1.0  -0.0887
  C  C233  1  0.176300  0.015000  0.096300  1.0  0.66
  C  C234  1  0.382200  0.482900  0.746100  1.0  0.7014
  C  C235  1  0.677700  0.473500  0.945200  1.0  0.693
  C  C236  1  0.433100  0.480000  0.755400  1.0  -0.1829
  C  C237  1  0.458200  0.465100  0.676900  1.0  -0.0656
  C  C238  1  0.506800  0.463400  0.678200  1.0  -0.1434
  C  C239  1  0.529100  0.480300  0.760200  1.0  -0.0174
  C  C240  1  0.504400  0.493400  0.839300  1.0  -0.1301
  C  C241  1  0.456900  0.493600  0.839300  1.0  0.2883
  C  C242  1  0.580800  0.482200  0.762800  1.0  -0.0155
  C  C243  1  0.604500  0.495200  0.681800  1.0  -0.06
  C  C244  1  0.652700  0.502100  0.686100  1.0  -0.1312
  C  C245  1  0.674400  0.495900  0.772100  1.0  -0.0252
  C  C246  1  0.652400  0.482000  0.854200  1.0  -0.1575
  C  C247  1  0.604700  0.474500  0.849400  1.0  -0.0887
  C  C248  1  0.676300  0.515000  0.596300  1.0  0.66
  C  C249  1  0.232900  0.867800  0.503900  1.0  0.7034
  C  C250  1  0.223500  0.572300  0.304800  1.0  0.6942
  C  C251  1  0.230000  0.816900  0.494600  1.0  -0.1839
  C  C252  1  0.215100  0.791800  0.573100  1.0  -0.0654
  C  C253  1  0.213400  0.743200  0.571800  1.0  -0.1417
  C  C254  1  0.230300  0.720900  0.489800  1.0  -0.017
  C  C255  1  0.243400  0.745600  0.410700  1.0  -0.1311
  C  C256  1  0.243600  0.793100  0.410700  1.0  0.2928
  C  C257  1  0.232200  0.669200  0.487200  1.0  -0.0134
  C  C258  1  0.245200  0.645500  0.568200  1.0  -0.0589
  C  C259  1  0.252100  0.597300  0.563900  1.0  -0.1332
  C  C260  1  0.245900  0.575600  0.477900  1.0  -0.0237
  C  C261  1  0.232000  0.597600  0.395800  1.0  -0.1578
  C  C262  1  0.224500  0.645300  0.400600  1.0  -0.0875
  C  C263  1  0.265000  0.573700  0.653700  1.0  0.66
  C  C264  1  0.732900  0.367800  0.003900  1.0  0.7034
  C  C265  1  0.723500  0.072300  0.804800  1.0  0.6942
  C  C266  1  0.730000  0.316900  0.994600  1.0  -0.1839
  C  C267  1  0.715100  0.291800  0.073100  1.0  -0.0654
  C  C268  1  0.713400  0.243200  0.071800  1.0  -0.1417
  C  C269  1  0.730300  0.220900  0.989800  1.0  -0.017
  C  C270  1  0.743400  0.245600  0.910700  1.0  -0.1311
  C  C271  1  0.743600  0.293100  0.910700  1.0  0.2928
  C  C272  1  0.732200  0.169200  0.987200  1.0  -0.0134
  C  C273  1  0.745200  0.145500  0.068200  1.0  -0.0589
  C  C274  1  0.752100  0.097300  0.063900  1.0  -0.1332
  C  C275  1  0.745900  0.075600  0.977900  1.0  -0.0237
  C  C276  1  0.732000  0.097600  0.895800  1.0  -0.1578
  C  C277  1  0.724500  0.145300  0.900600  1.0  -0.0875
  C  C278  1  0.765000  0.073700  0.153700  1.0  0.66
  C  C279  1  0.267100  0.132200  0.003900  1.0  0.7023
  C  C280  1  0.276500  0.427700  0.804800  1.0  0.6948
  C  C281  1  0.270000  0.183100  0.994600  1.0  -0.1834
  C  C282  1  0.284900  0.208200  0.073100  1.0  -0.0641
  C  C283  1  0.286600  0.256800  0.071800  1.0  -0.1373
  C  C284  1  0.269700  0.279100  0.989800  1.0  -0.019
  C  C285  1  0.256600  0.254400  0.910700  1.0  -0.1319
  C  C286  1  0.256400  0.206900  0.910700  1.0  0.2896
  C  C287  1  0.267800  0.330800  0.987200  1.0  -0.0134
  C  C288  1  0.254800  0.354500  0.068200  1.0  -0.0593
  C  C289  1  0.247900  0.402700  0.063900  1.0  -0.1323
  C  C290  1  0.254100  0.424400  0.977900  1.0  -0.0271
  C  C291  1  0.268000  0.402400  0.895800  1.0  -0.1579
  C  C292  1  0.275500  0.354700  0.900600  1.0  -0.0888
  C  C293  1  0.235000  0.426300  0.153700  1.0  0.6596
  C  C294  1  0.767100  0.632200  0.503900  1.0  0.7023
  C  C295  1  0.776500  0.927700  0.304800  1.0  0.6948
  C  C296  1  0.770000  0.683100  0.494600  1.0  -0.1834
  C  C297  1  0.784900  0.708200  0.573100  1.0  -0.0641
  C  C298  1  0.786600  0.756800  0.571800  1.0  -0.1373
  C  C299  1  0.769700  0.779100  0.489800  1.0  -0.019
  C  C300  1  0.756600  0.754400  0.410700  1.0  -0.1319
  C  C301  1  0.756400  0.706900  0.410700  1.0  0.2896
  C  C302  1  0.767800  0.830800  0.487200  1.0  -0.0134
  C  C303  1  0.754800  0.854500  0.568200  1.0  -0.0593
  C  C304  1  0.747900  0.902700  0.563900  1.0  -0.1323
  C  C305  1  0.754100  0.924400  0.477900  1.0  -0.0271
  C  C306  1  0.768000  0.902400  0.395800  1.0  -0.1579
  C  C307  1  0.775500  0.854700  0.400600  1.0  -0.0888
  C  C308  1  0.735000  0.926300  0.653700  1.0  0.6596
  C  C309  1  0.382200  0.982900  0.253900  1.0  0.7015
  C  C310  1  0.677700  0.973500  0.054800  1.0  0.694
  C  C311  1  0.433100  0.980000  0.244600  1.0  -0.1827
  C  C312  1  0.458200  0.965100  0.323100  1.0  -0.0657
  C  C313  1  0.506800  0.963400  0.321800  1.0  -0.1438
  C  C314  1  0.529100  0.980300  0.239800  1.0  -0.0179
  C  C315  1  0.504400  0.993400  0.160700  1.0  -0.1302
  C  C316  1  0.456900  0.993600  0.160700  1.0  0.2886
  C  C317  1  0.580800  0.982200  0.237200  1.0  -0.0157
  C  C318  1  0.604500  0.995200  0.318200  1.0  -0.0608
  C  C319  1  0.652700  0.002100  0.313900  1.0  -0.1319
  C  C320  1  0.674400  0.995900  0.227900  1.0  -0.0248
  C  C321  1  0.652400  0.982000  0.145800  1.0  -0.1588
  C  C322  1  0.604700  0.974500  0.150600  1.0  -0.0884
  C  C323  1  0.676300  0.015000  0.403700  1.0  0.66
  C  C324  1  0.882200  0.482900  0.753900  1.0  0.7009
  C  C325  1  0.177700  0.473500  0.554800  1.0  0.694
  C  C326  1  0.933100  0.480000  0.744600  1.0  -0.1827
  C  C327  1  0.958200  0.465100  0.823100  1.0  -0.0657
  C  C328  1  0.006800  0.463400  0.821800  1.0  -0.1438
  C  C329  1  0.029100  0.480300  0.739800  1.0  -0.018
  C  C330  1  0.004400  0.493400  0.660700  1.0  -0.1302
  C  C331  1  0.956900  0.493600  0.660700  1.0  0.2886
  C  C332  1  0.080800  0.482200  0.737200  1.0  -0.0157
  C  C333  1  0.104500  0.495200  0.818200  1.0  -0.0608
  C  C334  1  0.152700  0.502100  0.813900  1.0  -0.1319
  C  C335  1  0.174400  0.495900  0.727900  1.0  -0.0248
  C  C336  1  0.152400  0.482000  0.645800  1.0  -0.1588
  C  C337  1  0.104700  0.474500  0.650600  1.0  -0.0884
  C  C338  1  0.176300  0.515000  0.903700  1.0  0.66
  C  C339  1  0.117800  0.017100  0.753900  1.0  0.7015
  C  C340  1  0.822300  0.026500  0.554800  1.0  0.6956
  C  C341  1  0.066900  0.020000  0.744600  1.0  -0.1825
  C  C342  1  0.041800  0.034900  0.823100  1.0  -0.0656
  C  C343  1  0.993200  0.036600  0.821800  1.0  -0.1398
  C  C344  1  0.970900  0.019700  0.739800  1.0  -0.0169
  C  C345  1  0.995600  0.006600  0.660700  1.0  -0.1304
  C  C346  1  0.043100  0.006400  0.660700  1.0  0.2889
  C  C347  1  0.919200  0.017800  0.737200  1.0  -0.0148
  C  C348  1  0.895500  0.004800  0.818200  1.0  -0.0599
  C  C349  1  0.847300  0.997900  0.813900  1.0  -0.1329
  C  C350  1  0.825600  0.004100  0.727900  1.0  -0.0258
  C  C351  1  0.847600  0.018000  0.645800  1.0  -0.1587
  C  C352  1  0.895300  0.025500  0.650600  1.0  -0.0872
  C  C353  1  0.823700  0.985000  0.903700  1.0  0.6614
  C  C354  1  0.617800  0.517100  0.253900  1.0  0.7014
  C  C355  1  0.322300  0.526500  0.054800  1.0  0.6956
  C  C356  1  0.566900  0.520000  0.244600  1.0  -0.1825
  C  C357  1  0.541800  0.534900  0.323100  1.0  -0.0656
  C  C358  1  0.493200  0.536600  0.321800  1.0  -0.1398
  C  C359  1  0.470900  0.519700  0.239800  1.0  -0.0169
  C  C360  1  0.495600  0.506600  0.160700  1.0  -0.1304
  C  C361  1  0.543100  0.506400  0.160700  1.0  0.2882
  C  C362  1  0.419200  0.517800  0.237200  1.0  -0.0148
  C  C363  1  0.395500  0.504800  0.318200  1.0  -0.0599
  C  C364  1  0.347300  0.497900  0.313900  1.0  -0.1329
  C  C365  1  0.325600  0.504100  0.227900  1.0  -0.0258
  C  C366  1  0.347600  0.518000  0.145800  1.0  -0.1587
  C  C367  1  0.395300  0.525500  0.150600  1.0  -0.0872
  C  C368  1  0.323700  0.485000  0.403700  1.0  0.6614
  O  O369  1  0.749200  0.110500  0.568500  1.0  -0.6518
  O  O370  1  0.781400  0.112300  0.423300  1.0  -0.6935
  O  O371  1  0.746000  0.410900  0.266800  1.0  -0.6077
  O  O372  1  0.714000  0.465700  0.348700  1.0  -0.7904
  O  O373  1  0.773100  0.470600  0.697000  1.0  -0.6958
  O  O374  1  0.790600  0.405800  0.769200  1.0  -0.6362
  O  O375  1  0.740000  0.185400  0.671600  1.0  -0.5184
  O  O376  1  0.249200  0.610500  0.068500  1.0  -0.6518
  O  O377  1  0.281400  0.612300  0.923300  1.0  -0.6935
  O  O378  1  0.246000  0.910900  0.766800  1.0  -0.6077
  O  O379  1  0.214000  0.965700  0.848700  1.0  -0.7904
  O  O380  1  0.273100  0.970600  0.197000  1.0  -0.6958
  O  O381  1  0.290600  0.905800  0.269200  1.0  -0.6362
  O  O382  1  0.240000  0.685400  0.171600  1.0  -0.5184
  O  O383  1  0.750800  0.889500  0.068500  1.0  -0.6518
  O  O384  1  0.718600  0.887700  0.923300  1.0  -0.6936
  O  O385  1  0.754000  0.589100  0.766800  1.0  -0.6055
  O  O386  1  0.786000  0.534300  0.848700  1.0  -0.7916
  O  O387  1  0.726900  0.529400  0.197000  1.0  -0.6962
  O  O388  1  0.709400  0.594200  0.269200  1.0  -0.6384
  O  O389  1  0.760000  0.814600  0.171600  1.0  -0.5178
  O  O390  1  0.250800  0.389500  0.568500  1.0  -0.6518
  O  O391  1  0.218600  0.387700  0.423300  1.0  -0.6936
  O  O392  1  0.254000  0.089100  0.266800  1.0  -0.6055
  O  O393  1  0.286000  0.034300  0.348700  1.0  -0.7916
  O  O394  1  0.226900  0.029400  0.697000  1.0  -0.6962
  O  O395  1  0.209400  0.094200  0.769200  1.0  -0.6384
  O  O396  1  0.260000  0.314600  0.671600  1.0  -0.5178
  O  O397  1  0.639500  0.999200  0.818500  1.0  -0.6504
  O  O398  1  0.637700  0.031400  0.673300  1.0  -0.6949
  O  O399  1  0.339100  0.996000  0.516800  1.0  -0.6084
  O  O400  1  0.284300  0.964000  0.598700  1.0  -0.7906
  O  O401  1  0.279400  0.023100  0.947000  1.0  -0.6927
  O  O402  1  0.344200  0.040600  0.019200  1.0  -0.6378
  O  O403  1  0.564600  0.990000  0.921600  1.0  -0.516
  O  O404  1  0.139500  0.499200  0.318500  1.0  -0.6504
  O  O405  1  0.137700  0.531400  0.173300  1.0  -0.6949
  O  O406  1  0.839100  0.496000  0.016800  1.0  -0.6084
  O  O407  1  0.784300  0.464000  0.098700  1.0  -0.7906
  O  O408  1  0.779400  0.523100  0.447000  1.0  -0.6927
  O  O409  1  0.844200  0.540600  0.519200  1.0  -0.6378
  O  O410  1  0.064600  0.490000  0.421600  1.0  -0.5161
  O  O411  1  0.860500  0.000800  0.318500  1.0  -0.6507
  O  O412  1  0.862300  0.968600  0.173300  1.0  -0.6941
  O  O413  1  0.160900  0.004000  0.016800  1.0  -0.6099
  O  O414  1  0.215700  0.036000  0.098700  1.0  -0.7904
  O  O415  1  0.220600  0.976900  0.447000  1.0  -0.6927
  O  O416  1  0.155800  0.959400  0.519200  1.0  -0.6393
  O  O417  1  0.935400  0.010000  0.421600  1.0  -0.5164
  O  O418  1  0.360500  0.500800  0.818500  1.0  -0.6507
  O  O419  1  0.362300  0.468600  0.673300  1.0  -0.6941
  O  O420  1  0.660900  0.504000  0.516800  1.0  -0.6099
  O  O421  1  0.715700  0.536000  0.598700  1.0  -0.7904
  O  O422  1  0.720600  0.476900  0.947000  1.0  -0.6927
  O  O423  1  0.655800  0.459400  0.019200  1.0  -0.6393
  O  O424  1  0.435400  0.510000  0.921600  1.0  -0.5161
  O  O425  1  0.250800  0.889500  0.431500  1.0  -0.6516
  O  O426  1  0.218600  0.887700  0.576700  1.0  -0.6929
  O  O427  1  0.254000  0.589100  0.733200  1.0  -0.6069
  O  O428  1  0.286000  0.534300  0.651300  1.0  -0.7914
  O  O429  1  0.226900  0.529400  0.303000  1.0  -0.6963
  O  O430  1  0.209400  0.594200  0.230800  1.0  -0.6357
  O  O431  1  0.260000  0.814600  0.328400  1.0  -0.5165
  O  O432  1  0.750800  0.389500  0.931500  1.0  -0.6514
  O  O433  1  0.718600  0.387700  0.076700  1.0  -0.6929
  O  O434  1  0.754000  0.089100  0.233200  1.0  -0.6069
  O  O435  1  0.786000  0.034300  0.151300  1.0  -0.7914
  O  O436  1  0.726900  0.029400  0.803000  1.0  -0.6963
  O  O437  1  0.709400  0.094200  0.730800  1.0  -0.6357
  O  O438  1  0.760000  0.314600  0.828400  1.0  -0.5165
  O  O439  1  0.249200  0.110500  0.931500  1.0  -0.6518
  O  O440  1  0.281400  0.112300  0.076700  1.0  -0.6928
  O  O441  1  0.246000  0.410900  0.233200  1.0  -0.607
  O  O442  1  0.214000  0.465700  0.151300  1.0  -0.7903
  O  O443  1  0.273100  0.470600  0.803000  1.0  -0.6957
  O  O444  1  0.290600  0.405800  0.730800  1.0  -0.6354
  O  O445  1  0.240000  0.185400  0.828400  1.0  -0.516
  O  O446  1  0.749200  0.610500  0.431500  1.0  -0.6518
  O  O447  1  0.781400  0.612300  0.576700  1.0  -0.6928
  O  O448  1  0.746000  0.910900  0.733200  1.0  -0.607
  O  O449  1  0.714000  0.965700  0.651300  1.0  -0.7903
  O  O450  1  0.773100  0.970600  0.303000  1.0  -0.6957
  O  O451  1  0.790600  0.905800  0.230800  1.0  -0.6354
  O  O452  1  0.740000  0.685400  0.328400  1.0  -0.516
  O  O453  1  0.360500  0.000800  0.181500  1.0  -0.651
  O  O454  1  0.362300  0.968600  0.326700  1.0  -0.6938
  O  O455  1  0.660900  0.004000  0.483200  1.0  -0.6084
  O  O456  1  0.715700  0.036000  0.401300  1.0  -0.7904
  O  O457  1  0.720600  0.976900  0.053000  1.0  -0.6925
  O  O458  1  0.655800  0.959400  0.980800  1.0  -0.6366
  O  O459  1  0.435400  0.010000  0.078400  1.0  -0.515
  O  O460  1  0.860500  0.500800  0.681500  1.0  -0.651
  O  O461  1  0.862300  0.468600  0.826700  1.0  -0.6938
  O  O462  1  0.160900  0.504000  0.983200  1.0  -0.6084
  O  O463  1  0.215700  0.536000  0.901300  1.0  -0.7904
  O  O464  1  0.220600  0.476900  0.553000  1.0  -0.6925
  O  O465  1  0.155800  0.459400  0.480800  1.0  -0.6366
  O  O466  1  0.935400  0.510000  0.578400  1.0  -0.5147
  O  O467  1  0.139500  0.999200  0.681500  1.0  -0.6508
  O  O468  1  0.137700  0.031400  0.826700  1.0  -0.6943
  O  O469  1  0.839100  0.996000  0.983200  1.0  -0.6093
  O  O470  1  0.784300  0.964000  0.901300  1.0  -0.7904
  O  O471  1  0.779400  0.023100  0.553000  1.0  -0.6925
  O  O472  1  0.844200  0.040600  0.480800  1.0  -0.6358
  O  O473  1  0.064600  0.990000  0.578400  1.0  -0.5156
  O  O474  1  0.639500  0.499200  0.181500  1.0  -0.6508
  O  O475  1  0.637700  0.531400  0.326700  1.0  -0.6943
  O  O476  1  0.339100  0.496000  0.483200  1.0  -0.6093
  O  O477  1  0.284300  0.464000  0.401300  1.0  -0.7904
  O  O478  1  0.279400  0.523100  0.053000  1.0  -0.6925
  O  O479  1  0.344200  0.540600  0.980800  1.0  -0.6358
  O  O480  1  0.564600  0.490000  0.078400  1.0  -0.5158
