# generated using pymatgen
data_Zn2H30C30(NO2)3
_symmetry_space_group_name_H-M   'P 1'
_cell_length_a   22.39920000
_cell_length_b   22.39920000
_cell_length_c   22.39920000
_cell_angle_alpha   109.47100000
_cell_angle_beta   109.47100000
_cell_angle_gamma   109.47100000
_symmetry_Int_Tables_number   1
_chemical_formula_structural   Zn2H30C30(NO2)3
_chemical_formula_sum   'Zn16 H240 C240 N24 O48'
_cell_volume   8651.25631917
_cell_formula_units_Z   8
loop_
 _symmetry_equiv_pos_site_id
 _symmetry_equiv_pos_as_xyz
  1  'x, y, z'
loop_
 _atom_site_type_symbol
 _atom_site_label
 _atom_site_symmetry_multiplicity
 _atom_site_fract_x
 _atom_site_fract_y
 _atom_site_fract_z
 _atom_site_occupancy
 _atom_site_charge
  Zn  Zn1  1  0.500000  0.962620  0.500000  1.0  0.7595
  Zn  Zn2  1  0.500000  0.805620  0.500000  1.0  0.716
  Zn  Zn3  1  0.962620  0.000000  0.000000  1.0  0.7678
  Zn  Zn4  1  0.805620  0.000000  0.000000  1.0  0.7108
  Zn  Zn5  1  0.537380  0.537380  0.037380  1.0  0.7556
  Zn  Zn6  1  0.694380  0.694380  0.194380  1.0  0.7187
  Zn  Zn7  1  0.000000  0.500000  0.462620  1.0  0.7722
  Zn  Zn8  1  0.000000  0.500000  0.305620  1.0  0.7141
  Zn  Zn9  1  0.500000  0.462620  0.500000  1.0  0.7595
  Zn  Zn10  1  0.500000  0.305620  0.500000  1.0  0.716
  Zn  Zn11  1  0.462620  0.000000  0.000000  1.0  0.7678
  Zn  Zn12  1  0.305620  0.000000  0.000000  1.0  0.7108
  Zn  Zn13  1  0.000000  0.500000  0.962620  1.0  0.7721
  Zn  Zn14  1  0.000000  0.500000  0.805620  1.0  0.714
  Zn  Zn15  1  0.037380  0.037380  0.537380  1.0  0.7556
  Zn  Zn16  1  0.194380  0.194380  0.694380  1.0  0.7187
  H  H17  1  0.676900  0.997900  0.463600  1.0  0.0999
  H  H18  1  0.793300  0.048200  0.480300  1.0  0.1199
  H  H19  1  0.851700  0.972300  0.618000  1.0  0.0978
  H  H20  1  0.734500  0.919200  0.595900  1.0  0.1051
  H  H21  1  0.921400  0.087500  0.550900  1.0  0.0887
  H  H22  1  0.947900  0.063100  0.609600  1.0  0.0998
  H  H23  1  0.854300  0.896600  0.495100  1.0  0.0701
  H  H24  1  0.932800  0.942100  0.567500  1.0  0.0721
  H  H25  1  0.842900  0.991300  0.429600  1.0  0.0813
  H  H26  1  0.854300  0.923100  0.398400  1.0  0.0846
  H  H27  1  0.034300  0.213300  0.036400  1.0  0.1018
  H  H28  1  0.067900  0.313000  0.019700  1.0  0.1183
  H  H29  1  0.854300  0.233700  0.882000  1.0  0.0986
  H  H30  1  0.823300  0.138600  0.904100  1.0  0.1055
  H  H31  1  0.036600  0.370500  0.949100  1.0  0.0854
  H  H32  1  0.953500  0.338300  0.890400  1.0  0.0999
  H  H33  1  0.901500  0.359200  0.004900  1.0  0.0744
  H  H34  1  0.874600  0.365300  0.932500  1.0  0.0708
  H  H35  1  0.061700  0.413300  0.070400  1.0  0.0761
  H  H36  1  0.024700  0.455900  0.101600  1.0  0.084
  H  H37  1  0.465700  0.502100  0.179000  1.0  0.1012
  H  H38  1  0.432100  0.451800  0.245100  1.0  0.1196
  H  H39  1  0.645700  0.527700  0.379400  1.0  0.1008
  H  H40  1  0.676700  0.580800  0.315300  1.0  0.1059
  H  H41  1  0.463400  0.412500  0.333900  1.0  0.0891
  H  H42  1  0.546500  0.436900  0.384800  1.0  0.0993
  H  H43  1  0.598500  0.603400  0.457700  1.0  0.0734
  H  H44  1  0.625400  0.557900  0.490700  1.0  0.0726
  H  H45  1  0.438300  0.508700  0.351600  1.0  0.0785
  H  H46  1  0.475300  0.576900  0.431200  1.0  0.0867
  H  H47  1  0.823100  0.286700  0.321000  1.0  0.1017
  H  H48  1  0.706700  0.187000  0.254900  1.0  0.1193
  H  H49  1  0.648300  0.266300  0.120600  1.0  0.0989
  H  H50  1  0.765500  0.361400  0.184700  1.0  0.1069
  H  H51  1  0.578600  0.129500  0.166100  1.0  0.0845
  H  H52  1  0.552100  0.161700  0.115200  1.0  0.0985
  H  H53  1  0.645700  0.140800  0.042300  1.0  0.0705
  H  H54  1  0.567200  0.134700  0.009300  1.0  0.0706
  H  H55  1  0.657100  0.086700  0.148400  1.0  0.076
  H  H56  1  0.645700  0.044100  0.068800  1.0  0.0839
  H  H57  1  0.679000  0.465700  0.002100  1.0  0.1015
  H  H58  1  0.745100  0.432100  0.951800  1.0  0.1171
  H  H59  1  0.879400  0.645700  0.027700  1.0  0.0975
  H  H60  1  0.815300  0.676700  0.080800  1.0  0.1055
  H  H61  1  0.833900  0.463400  0.912500  1.0  0.0874
  H  H62  1  0.884800  0.546500  0.936900  1.0  0.1003
  H  H63  1  0.957700  0.598500  0.103400  1.0  0.0706
  H  H64  1  0.990700  0.625400  0.057900  1.0  0.0701
  H  H65  1  0.851600  0.438300  0.008700  1.0  0.0762
  H  H66  1  0.931200  0.475300  0.076900  1.0  0.0854
  H  H67  1  0.821000  0.823100  0.786700  1.0  0.1012
  H  H68  1  0.754900  0.706700  0.687000  1.0  0.1201
  H  H69  1  0.620600  0.648300  0.766300  1.0  0.0996
  H  H70  1  0.684700  0.765500  0.861400  1.0  0.1045
  H  H71  1  0.666100  0.578600  0.629500  1.0  0.0862
  H  H72  1  0.615200  0.552100  0.661700  1.0  0.0995
  H  H73  1  0.542300  0.645700  0.640800  1.0  0.0694
  H  H74  1  0.509300  0.567200  0.634700  1.0  0.0729
  H  H75  1  0.648400  0.657100  0.586700  1.0  0.0763
  H  H76  1  0.568800  0.645700  0.544100  1.0  0.0838
  H  H77  1  0.963600  0.676900  0.497900  1.0  0.1015
  H  H78  1  0.980300  0.793300  0.548200  1.0  0.1199
  H  H79  1  0.118000  0.851700  0.472300  1.0  0.0999
  H  H80  1  0.095900  0.734500  0.419200  1.0  0.1063
  H  H81  1  0.050900  0.921400  0.587500  1.0  0.0845
  H  H82  1  0.109600  0.947900  0.563100  1.0  0.0995
  H  H83  1  0.995100  0.854300  0.396600  1.0  0.0666
  H  H84  1  0.067500  0.932800  0.442100  1.0  0.07
  H  H85  1  0.929600  0.842900  0.491300  1.0  0.078
  H  H86  1  0.898400  0.854300  0.423100  1.0  0.0857
  H  H87  1  0.536400  0.034300  0.713300  1.0  0.1007
  H  H88  1  0.519700  0.067900  0.813000  1.0  0.1185
  H  H89  1  0.382000  0.854300  0.733700  1.0  0.099
  H  H90  1  0.404100  0.823300  0.638600  1.0  0.1052
  H  H91  1  0.449100  0.036600  0.870500  1.0  0.089
  H  H92  1  0.390400  0.953500  0.838300  1.0  0.1001
  H  H93  1  0.504900  0.901500  0.859200  1.0  0.072
  H  H94  1  0.432500  0.874600  0.865300  1.0  0.0712
  H  H95  1  0.570400  0.061700  0.913300  1.0  0.077
  H  H96  1  0.601600  0.024700  0.955900  1.0  0.0913
  H  H97  1  0.213300  0.536400  0.534300  1.0  0.1011
  H  H98  1  0.313000  0.519700  0.567900  1.0  0.1196
  H  H99  1  0.233700  0.382000  0.354300  1.0  0.098
  H  H100  1  0.138600  0.404100  0.323300  1.0  0.1058
  H  H101  1  0.370500  0.449100  0.536600  1.0  0.0852
  H  H102  1  0.338300  0.390400  0.453500  1.0  0.1008
  H  H103  1  0.359200  0.504900  0.401500  1.0  0.0679
  H  H104  1  0.365300  0.432500  0.374600  1.0  0.0708
  H  H105  1  0.413300  0.570400  0.561700  1.0  0.0756
  H  H106  1  0.455900  0.601600  0.524700  1.0  0.0876
  H  H107  1  0.997900  0.963600  0.176900  1.0  0.1018
  H  H108  1  0.048200  0.980300  0.293300  1.0  0.1196
  H  H109  1  0.972300  0.118000  0.351700  1.0  0.0998
  H  H110  1  0.919200  0.095900  0.234500  1.0  0.1055
  H  H111  1  0.087500  0.050900  0.421400  1.0  0.0842
  H  H112  1  0.063100  0.109600  0.447900  1.0  0.0997
  H  H113  1  0.896600  0.995100  0.354300  1.0  0.0727
  H  H114  1  0.942100  0.067500  0.432800  1.0  0.0719
  H  H115  1  0.991300  0.929600  0.342900  1.0  0.074
  H  H116  1  0.923100  0.898400  0.354300  1.0  0.0846
  H  H117  1  0.286700  0.821000  0.323100  1.0  0.1017
  H  H118  1  0.187000  0.754900  0.206700  1.0  0.1195
  H  H119  1  0.266300  0.620600  0.148300  1.0  0.0993
  H  H120  1  0.361400  0.684700  0.265500  1.0  0.1049
  H  H121  1  0.129500  0.666100  0.078600  1.0  0.0882
  H  H122  1  0.161700  0.615200  0.052100  1.0  0.0991
  H  H123  1  0.140800  0.542300  0.145700  1.0  0.0717
  H  H124  1  0.134700  0.509300  0.067200  1.0  0.0695
  H  H125  1  0.086700  0.648400  0.157100  1.0  0.074
  H  H126  1  0.044100  0.568800  0.145700  1.0  0.0831
  H  H127  1  0.502100  0.679000  0.965700  1.0  0.1013
  H  H128  1  0.451800  0.745100  0.932100  1.0  0.1199
  H  H129  1  0.527700  0.879400  0.145700  1.0  0.0982
  H  H130  1  0.580800  0.815300  0.176700  1.0  0.1042
  H  H131  1  0.412500  0.833900  0.963400  1.0  0.089
  H  H132  1  0.436900  0.884800  0.046500  1.0  0.0982
  H  H133  1  0.603400  0.957700  0.098500  1.0  0.0628
  H  H134  1  0.557900  0.990700  0.125400  1.0  0.0727
  H  H135  1  0.508700  0.851600  0.938300  1.0  0.0758
  H  H136  1  0.576900  0.931200  0.975300  1.0  0.0903
  H  H137  1  0.713300  0.534300  0.536400  1.0  0.1011
  H  H138  1  0.813000  0.567900  0.519700  1.0  0.1173
  H  H139  1  0.733700  0.354300  0.382000  1.0  0.0972
  H  H140  1  0.638600  0.323300  0.404100  1.0  0.1058
  H  H141  1  0.870500  0.536600  0.449100  1.0  0.0889
  H  H142  1  0.838300  0.453500  0.390400  1.0  0.0997
  H  H143  1  0.859200  0.401500  0.504900  1.0  0.0728
  H  H144  1  0.865300  0.374600  0.432500  1.0  0.0701
  H  H145  1  0.913300  0.561700  0.570400  1.0  0.0751
  H  H146  1  0.955900  0.524700  0.601600  1.0  0.0846
  H  H147  1  0.497900  0.176900  0.963600  1.0  0.1015
  H  H148  1  0.548200  0.293300  0.980300  1.0  0.12
  H  H149  1  0.472300  0.351700  0.118000  1.0  0.0994
  H  H150  1  0.419200  0.234500  0.095900  1.0  0.1049
  H  H151  1  0.587500  0.421400  0.050900  1.0  0.0859
  H  H152  1  0.563100  0.447900  0.109600  1.0  0.0991
  H  H153  1  0.396600  0.354300  0.995100  1.0  0.0672
  H  H154  1  0.442100  0.432800  0.067500  1.0  0.0726
  H  H155  1  0.491300  0.342900  0.929600  1.0  0.0743
  H  H156  1  0.423100  0.354300  0.898400  1.0  0.0828
  H  H157  1  0.786700  0.323100  0.821000  1.0  0.1018
  H  H158  1  0.687000  0.206700  0.754900  1.0  0.1194
  H  H159  1  0.766300  0.148300  0.620600  1.0  0.1002
  H  H160  1  0.861400  0.265500  0.684700  1.0  0.1064
  H  H161  1  0.629500  0.078600  0.666100  1.0  0.0848
  H  H162  1  0.661700  0.052100  0.615200  1.0  0.0996
  H  H163  1  0.640800  0.145700  0.542300  1.0  0.0702
  H  H164  1  0.634700  0.067200  0.509300  1.0  0.0714
  H  H165  1  0.586700  0.157100  0.648400  1.0  0.0763
  H  H166  1  0.544100  0.145700  0.568800  1.0  0.087
  H  H167  1  0.002100  0.965700  0.679000  1.0  0.1014
  H  H168  1  0.951800  0.932100  0.745100  1.0  0.1185
  H  H169  1  0.027700  0.145700  0.879400  1.0  0.0991
  H  H170  1  0.080800  0.176700  0.815300  1.0  0.1054
  H  H171  1  0.912500  0.963400  0.833900  1.0  0.0875
  H  H172  1  0.936900  0.046500  0.884800  1.0  0.0999
  H  H173  1  0.103400  0.098500  0.957700  1.0  0.0713
  H  H174  1  0.057900  0.125400  0.990700  1.0  0.0708
  H  H175  1  0.008700  0.938300  0.851600  1.0  0.0755
  H  H176  1  0.076900  0.975300  0.931200  1.0  0.0921
  H  H177  1  0.176900  0.463600  0.997900  1.0  0.101
  H  H178  1  0.293300  0.480300  0.048200  1.0  0.1205
  H  H179  1  0.351700  0.618000  0.972300  1.0  0.0983
  H  H180  1  0.234500  0.595900  0.919200  1.0  0.1062
  H  H181  1  0.421400  0.550900  0.087500  1.0  0.0841
  H  H182  1  0.447900  0.609600  0.063100  1.0  0.0993
  H  H183  1  0.354300  0.495100  0.896600  1.0  0.0679
  H  H184  1  0.432800  0.567500  0.942100  1.0  0.0715
  H  H185  1  0.342900  0.429600  0.991300  1.0  0.0762
  H  H186  1  0.354300  0.398400  0.923100  1.0  0.086
  H  H187  1  0.534300  0.036400  0.213300  1.0  0.1013
  H  H188  1  0.567900  0.019700  0.313000  1.0  0.1199
  H  H189  1  0.354300  0.882000  0.233700  1.0  0.0993
  H  H190  1  0.323300  0.904100  0.138600  1.0  0.1049
  H  H191  1  0.536600  0.949100  0.370500  1.0  0.0839
  H  H192  1  0.453500  0.890400  0.338300  1.0  0.1
  H  H193  1  0.401500  0.004900  0.359200  1.0  0.0728
  H  H194  1  0.374600  0.932500  0.365300  1.0  0.0724
  H  H195  1  0.561700  0.070400  0.413300  1.0  0.0759
  H  H196  1  0.524700  0.101600  0.455900  1.0  0.087
  H  H197  1  0.965700  0.179000  0.502100  1.0  0.1015
  H  H198  1  0.932100  0.245100  0.451800  1.0  0.1195
  H  H199  1  0.145700  0.379400  0.527700  1.0  0.0987
  H  H200  1  0.176700  0.315300  0.580800  1.0  0.1051
  H  H201  1  0.963400  0.333900  0.412500  1.0  0.0878
  H  H202  1  0.046500  0.384800  0.436900  1.0  0.0991
  H  H203  1  0.098500  0.457700  0.603400  1.0  0.0721
  H  H204  1  0.125400  0.490700  0.557900  1.0  0.0696
  H  H205  1  0.938300  0.351600  0.508700  1.0  0.0754
  H  H206  1  0.975300  0.431200  0.576900  1.0  0.0844
  H  H207  1  0.323100  0.321000  0.286700  1.0  0.1013
  H  H208  1  0.206700  0.254900  0.187000  1.0  0.1204
  H  H209  1  0.148300  0.120600  0.266300  1.0  0.0984
  H  H210  1  0.265500  0.184700  0.361400  1.0  0.1043
  H  H211  1  0.078600  0.166100  0.129500  1.0  0.0897
  H  H212  1  0.052100  0.115200  0.161700  1.0  0.0981
  H  H213  1  0.145700  0.042300  0.140800  1.0  0.0629
  H  H214  1  0.067200  0.009300  0.134700  1.0  0.0735
  H  H215  1  0.157100  0.148400  0.086700  1.0  0.0766
  H  H216  1  0.145700  0.068800  0.044100  1.0  0.0872
  H  H217  1  0.179000  0.002100  0.465700  1.0  0.1
  H  H218  1  0.245100  0.951800  0.432100  1.0  0.12
  H  H219  1  0.379400  0.027700  0.645700  1.0  0.0972
  H  H220  1  0.315300  0.080800  0.676700  1.0  0.1053
  H  H221  1  0.333900  0.912500  0.463400  1.0  0.0891
  H  H222  1  0.384800  0.936900  0.546500  1.0  0.1017
  H  H223  1  0.457700  0.103400  0.598500  1.0  0.0694
  H  H224  1  0.490700  0.057900  0.625400  1.0  0.0705
  H  H225  1  0.351600  0.008700  0.438300  1.0  0.0815
  H  H226  1  0.431200  0.076900  0.475300  1.0  0.0855
  H  H227  1  0.321000  0.786700  0.823100  1.0  0.1022
  H  H228  1  0.254900  0.687000  0.706700  1.0  0.1184
  H  H229  1  0.120600  0.766300  0.648300  1.0  0.0983
  H  H230  1  0.184700  0.861400  0.765500  1.0  0.106
  H  H231  1  0.166100  0.629500  0.578600  1.0  0.0855
  H  H232  1  0.115200  0.661700  0.552100  1.0  0.1001
  H  H233  1  0.042300  0.640800  0.645700  1.0  0.0719
  H  H234  1  0.009300  0.634700  0.567200  1.0  0.0699
  H  H235  1  0.148400  0.586700  0.657100  1.0  0.0755
  H  H236  1  0.068800  0.544100  0.645700  1.0  0.0833
  H  H237  1  0.463600  0.497900  0.676900  1.0  0.1011
  H  H238  1  0.480300  0.548200  0.793300  1.0  0.1197
  H  H239  1  0.618000  0.472300  0.851700  1.0  0.101
  H  H240  1  0.595900  0.419200  0.734500  1.0  0.105
  H  H241  1  0.550900  0.587500  0.921400  1.0  0.0889
  H  H242  1  0.609600  0.563100  0.947900  1.0  0.0994
  H  H243  1  0.495100  0.396600  0.854300  1.0  0.0732
  H  H244  1  0.567500  0.442100  0.932800  1.0  0.0723
  H  H245  1  0.429600  0.491300  0.842900  1.0  0.0778
  H  H246  1  0.398400  0.423100  0.854300  1.0  0.0855
  H  H247  1  0.036400  0.713300  0.034300  1.0  0.1013
  H  H248  1  0.019700  0.813000  0.067900  1.0  0.1189
  H  H249  1  0.882000  0.733700  0.854300  1.0  0.0991
  H  H250  1  0.904100  0.638600  0.823300  1.0  0.1063
  H  H251  1  0.949100  0.870500  0.036600  1.0  0.0847
  H  H252  1  0.890400  0.838300  0.953500  1.0  0.0994
  H  H253  1  0.004900  0.859200  0.901500  1.0  0.0704
  H  H254  1  0.932500  0.865300  0.874600  1.0  0.07
  H  H255  1  0.070400  0.913300  0.061700  1.0  0.0761
  H  H256  1  0.101600  0.955900  0.024700  1.0  0.0858
  C  C257  1  0.616100  0.918000  0.512100  1.0  0.6831
  C  C258  1  0.693200  0.951300  0.525900  1.0  -0.1609
  C  C259  1  0.712500  0.991200  0.493700  1.0  -0.0975
  C  C260  1  0.781600  0.021500  0.503900  1.0  -0.1639
  C  C261  1  0.835500  0.013300  0.549600  1.0  0.1242
  C  C262  1  0.815800  0.976200  0.584600  1.0  -0.1653
  C  C263  1  0.746600  0.945500  0.572100  1.0  -0.0676
  C  C264  1  0.911500  0.045100  0.558800  1.0  -0.0931
  C  C265  1  0.907400  0.926500  0.514900  1.0  -0.0233
  C  C266  1  0.880300  0.976500  0.432400  1.0  -0.0555
  C  C267  1  0.905900  0.104000  0.987900  1.0  0.6814
  C  C268  1  0.925400  0.167300  0.974100  1.0  -0.1598
  C  C269  1  0.997500  0.218800  0.006300  1.0  -0.096
  C  C270  1  0.017600  0.277700  0.996100  1.0  -0.1655
  C  C271  1  0.963700  0.285900  0.950400  1.0  0.1247
  C  C272  1  0.891600  0.231200  0.915400  1.0  -0.1711
  C  C273  1  0.873400  0.174500  0.927900  1.0  -0.0664
  C  C274  1  0.986300  0.352700  0.941200  1.0  -0.0982
  C  C275  1  0.911600  0.392500  0.985100  1.0  -0.0197
  C  C276  1  0.044100  0.447900  0.067600  1.0  -0.059
  C  C277  1  0.594100  0.582000  0.198100  1.0  0.6821
  C  C278  1  0.574600  0.548700  0.241900  1.0  -0.1605
  C  C279  1  0.502500  0.508800  0.221300  1.0  -0.0967
  C  C280  1  0.482400  0.478500  0.260100  1.0  -0.1649
  C  C281  1  0.536300  0.486700  0.322200  1.0  0.1282
  C  C282  1  0.608400  0.523800  0.339600  1.0  -0.1696
  C  C283  1  0.626600  0.554500  0.301100  1.0  -0.0654
  C  C284  1  0.513700  0.454900  0.366400  1.0  -0.0961
  C  C285  1  0.588400  0.573500  0.480900  1.0  -0.0216
  C  C286  1  0.455900  0.523500  0.403800  1.0  -0.0575
  C  C287  1  0.883900  0.396000  0.301900  1.0  0.6813
  C  C288  1  0.806800  0.332700  0.258100  1.0  -0.1616
  C  C289  1  0.787500  0.281200  0.278700  1.0  -0.1004
  C  C290  1  0.718400  0.222300  0.239900  1.0  -0.1662
  C  C291  1  0.664500  0.214100  0.177800  1.0  0.1256
  C  C292  1  0.684200  0.268800  0.160400  1.0  -0.1698
  C  C293  1  0.753400  0.325500  0.198900  1.0  -0.0652
  C  C294  1  0.588500  0.147300  0.133600  1.0  -0.099
  C  C295  1  0.592600  0.107500  0.019100  1.0  -0.0194
  C  C296  1  0.619700  0.052100  0.096200  1.0  -0.0538
  C  C297  1  0.698100  0.594100  0.082000  1.0  0.683
  C  C298  1  0.741900  0.574600  0.048700  1.0  -0.162
  C  C299  1  0.721300  0.502500  0.008800  1.0  -0.0967
  C  C300  1  0.760100  0.482400  0.978500  1.0  -0.1717
  C  C301  1  0.822200  0.536300  0.986700  1.0  0.1214
  C  C302  1  0.839600  0.608400  0.023800  1.0  -0.1695
  C  C303  1  0.801100  0.626600  0.054500  1.0  -0.0653
  C  C304  1  0.866400  0.513700  0.954900  1.0  -0.0945
  C  C305  1  0.980900  0.588400  0.073500  1.0  -0.0215
  C  C306  1  0.903800  0.455900  0.023500  1.0  -0.0603
  C  C307  1  0.801900  0.883900  0.896000  1.0  0.681
  C  C308  1  0.758100  0.806800  0.832700  1.0  -0.1618
  C  C309  1  0.778700  0.787500  0.781200  1.0  -0.0984
  C  C310  1  0.739900  0.718400  0.722300  1.0  -0.1665
  C  C311  1  0.677800  0.664500  0.714100  1.0  0.1227
  C  C312  1  0.660400  0.684200  0.768800  1.0  -0.1678
  C  C313  1  0.698900  0.753400  0.825500  1.0  -0.062
  C  C314  1  0.633600  0.588500  0.647300  1.0  -0.0962
  C  C315  1  0.519100  0.592600  0.607500  1.0  -0.024
  C  C316  1  0.596200  0.619700  0.552100  1.0  -0.0514
  C  C317  1  0.012100  0.616100  0.418000  1.0  0.6824
  C  C318  1  0.025900  0.693200  0.451300  1.0  -0.1634
  C  C319  1  0.993700  0.712500  0.491200  1.0  -0.099
  C  C320  1  0.003900  0.781600  0.521500  1.0  -0.1659
  C  C321  1  0.049600  0.835500  0.513300  1.0  0.1233
  C  C322  1  0.084600  0.815800  0.476200  1.0  -0.1709
  C  C323  1  0.072100  0.746600  0.445500  1.0  -0.0636
  C  C324  1  0.058800  0.911500  0.545100  1.0  -0.0974
  C  C325  1  0.014900  0.907400  0.426500  1.0  -0.0185
  C  C326  1  0.932400  0.880300  0.476500  1.0  -0.0496
  C  C327  1  0.487900  0.905900  0.604000  1.0  0.6804
  C  C328  1  0.474100  0.925400  0.667300  1.0  -0.1644
  C  C329  1  0.506300  0.997500  0.718800  1.0  -0.0994
  C  C330  1  0.496100  0.017600  0.777700  1.0  -0.1705
  C  C331  1  0.450400  0.963700  0.785900  1.0  0.1277
  C  C332  1  0.415400  0.891600  0.731200  1.0  -0.1721
  C  C333  1  0.427900  0.873400  0.674500  1.0  -0.0691
  C  C334  1  0.441200  0.986300  0.852700  1.0  -0.0948
  C  C335  1  0.485100  0.911600  0.892500  1.0  -0.0187
  C  C336  1  0.567600  0.044100  0.947900  1.0  -0.0553
  C  C337  1  0.104000  0.487900  0.405900  1.0  0.6817
  C  C338  1  0.167300  0.474100  0.425400  1.0  -0.1598
  C  C339  1  0.218800  0.506300  0.497500  1.0  -0.1021
  C  C340  1  0.277700  0.496100  0.517600  1.0  -0.1679
  C  C341  1  0.285900  0.450400  0.463700  1.0  0.1238
  C  C342  1  0.231200  0.415400  0.391600  1.0  -0.167
  C  C343  1  0.174500  0.427900  0.373400  1.0  -0.0643
  C  C344  1  0.352700  0.441200  0.486300  1.0  -0.0972
  C  C345  1  0.392500  0.485100  0.411600  1.0  -0.0208
  C  C346  1  0.447900  0.567600  0.544100  1.0  -0.0562
  C  C347  1  0.918000  0.012100  0.116100  1.0  0.6793
  C  C348  1  0.951300  0.025900  0.193200  1.0  -0.1638
  C  C349  1  0.991200  0.993700  0.212500  1.0  -0.1002
  C  C350  1  0.021500  0.003900  0.281600  1.0  -0.1658
  C  C351  1  0.013300  0.049600  0.335500  1.0  0.1291
  C  C352  1  0.976200  0.084600  0.315800  1.0  -0.1698
  C  C353  1  0.945500  0.072100  0.246600  1.0  -0.0639
  C  C354  1  0.045100  0.058800  0.411500  1.0  -0.0959
  C  C355  1  0.926500  0.014900  0.407400  1.0  -0.0232
  C  C356  1  0.976500  0.932400  0.380300  1.0  -0.0562
  C  C357  1  0.396000  0.801900  0.383900  1.0  0.6834
  C  C358  1  0.332700  0.758100  0.306800  1.0  -0.1624
  C  C359  1  0.281200  0.778700  0.287500  1.0  -0.0964
  C  C360  1  0.222300  0.739900  0.218400  1.0  -0.1704
  C  C361  1  0.214100  0.677800  0.164500  1.0  0.1239
  C  C362  1  0.268800  0.660400  0.184200  1.0  -0.1672
  C  C363  1  0.325500  0.698900  0.253400  1.0  -0.0595
  C  C364  1  0.147300  0.633600  0.088500  1.0  -0.0973
  C  C365  1  0.107500  0.519100  0.092600  1.0  -0.0188
  C  C366  1  0.052100  0.596200  0.119700  1.0  -0.0607
  C  C367  1  0.582000  0.698100  0.094100  1.0  0.6839
  C  C368  1  0.548700  0.741900  0.074600  1.0  -0.1619
  C  C369  1  0.508800  0.721300  0.002500  1.0  -0.1005
  C  C370  1  0.478500  0.760100  0.982400  1.0  -0.1696
  C  C371  1  0.486700  0.822200  0.036300  1.0  0.126
  C  C372  1  0.523800  0.839600  0.108400  1.0  -0.166
  C  C373  1  0.554500  0.801100  0.126600  1.0  -0.0655
  C  C374  1  0.454900  0.866400  0.013700  1.0  -0.0976
  C  C375  1  0.573500  0.980900  0.088400  1.0  -0.0262
  C  C376  1  0.523500  0.903800  0.955900  1.0  -0.0578
  C  C377  1  0.604000  0.405900  0.487900  1.0  0.6842
  C  C378  1  0.667300  0.425400  0.474100  1.0  -0.162
  C  C379  1  0.718800  0.497500  0.506300  1.0  -0.0962
  C  C380  1  0.777700  0.517600  0.496100  1.0  -0.1712
  C  C381  1  0.785900  0.463700  0.450400  1.0  0.1213
  C  C382  1  0.731200  0.391600  0.415400  1.0  -0.171
  C  C383  1  0.674500  0.373400  0.427900  1.0  -0.0684
  C  C384  1  0.852700  0.486300  0.441200  1.0  -0.0963
  C  C385  1  0.892500  0.411600  0.485100  1.0  -0.0195
  C  C386  1  0.947900  0.544100  0.567600  1.0  -0.0606
  C  C387  1  0.418000  0.116100  0.012100  1.0  0.6804
  C  C388  1  0.451300  0.193200  0.025900  1.0  -0.1623
  C  C389  1  0.491200  0.212500  0.993700  1.0  -0.0989
  C  C390  1  0.521500  0.281600  0.003900  1.0  -0.1663
  C  C391  1  0.513300  0.335500  0.049600  1.0  0.1232
  C  C392  1  0.476200  0.315800  0.084600  1.0  -0.1676
  C  C393  1  0.445500  0.246600  0.072100  1.0  -0.0621
  C  C394  1  0.545100  0.411500  0.058800  1.0  -0.0958
  C  C395  1  0.426500  0.407400  0.014900  1.0  -0.023
  C  C396  1  0.476500  0.380300  0.932400  1.0  -0.0505
  C  C397  1  0.896000  0.383900  0.801900  1.0  0.682
  C  C398  1  0.832700  0.306800  0.758100  1.0  -0.161
  C  C399  1  0.781200  0.287500  0.778700  1.0  -0.0985
  C  C400  1  0.722300  0.218400  0.739900  1.0  -0.1662
  C  C401  1  0.714100  0.164500  0.677800  1.0  0.1227
  C  C402  1  0.768800  0.184200  0.660400  1.0  -0.1707
  C  C403  1  0.825500  0.253400  0.698900  1.0  -0.063
  C  C404  1  0.647300  0.088500  0.633600  1.0  -0.0973
  C  C405  1  0.607500  0.092600  0.519100  1.0  -0.0184
  C  C406  1  0.552100  0.119700  0.596200  1.0  -0.0532
  C  C407  1  0.082000  0.094100  0.698100  1.0  0.6793
  C  C408  1  0.048700  0.074600  0.741900  1.0  -0.1638
  C  C409  1  0.008800  0.002500  0.721300  1.0  -0.1
  C  C410  1  0.978500  0.982400  0.760100  1.0  -0.1709
  C  C411  1  0.986700  0.036300  0.822200  1.0  0.1277
  C  C412  1  0.023800  0.108400  0.839600  1.0  -0.1703
  C  C413  1  0.054500  0.126600  0.801100  1.0  -0.0662
  C  C414  1  0.954900  0.013700  0.866400  1.0  -0.0941
  C  C415  1  0.073500  0.088400  0.980900  1.0  -0.0204
  C  C416  1  0.023500  0.955900  0.903800  1.0  -0.0579
  C  C417  1  0.116100  0.512100  0.918000  1.0  0.6815
  C  C418  1  0.193200  0.525900  0.951300  1.0  -0.1617
  C  C419  1  0.212500  0.493700  0.991200  1.0  -0.1024
  C  C420  1  0.281600  0.503900  0.021500  1.0  -0.167
  C  C421  1  0.335500  0.549600  0.013300  1.0  0.1247
  C  C422  1  0.315800  0.584600  0.976200  1.0  -0.1647
  C  C423  1  0.246600  0.572100  0.945500  1.0  -0.0635
  C  C424  1  0.411500  0.558800  0.045100  1.0  -0.0975
  C  C425  1  0.407400  0.514900  0.926500  1.0  -0.0209
  C  C426  1  0.380300  0.432400  0.976500  1.0  -0.0562
  C  C427  1  0.405900  0.987900  0.104000  1.0  0.68
  C  C428  1  0.425400  0.974100  0.167300  1.0  -0.1632
  C  C429  1  0.497500  0.006300  0.218800  1.0  -0.0991
  C  C430  1  0.517600  0.996100  0.277700  1.0  -0.1663
  C  C431  1  0.463700  0.950400  0.285900  1.0  0.1276
  C  C432  1  0.391600  0.915400  0.231200  1.0  -0.1724
  C  C433  1  0.373400  0.927900  0.174500  1.0  -0.0647
  C  C434  1  0.486300  0.941200  0.352700  1.0  -0.0983
  C  C435  1  0.411600  0.985100  0.392500  1.0  -0.023
  C  C436  1  0.544100  0.067600  0.447900  1.0  -0.0554
  C  C437  1  0.094100  0.198100  0.582000  1.0  0.6844
  C  C438  1  0.074600  0.241900  0.548700  1.0  -0.1611
  C  C439  1  0.002500  0.221300  0.508800  1.0  -0.0972
  C  C440  1  0.982400  0.260100  0.478500  1.0  -0.1687
  C  C441  1  0.036300  0.322200  0.486700  1.0  0.1246
  C  C442  1  0.108400  0.339600  0.523800  1.0  -0.1677
  C  C443  1  0.126600  0.301100  0.554500  1.0  -0.0599
  C  C444  1  0.013700  0.366400  0.454900  1.0  -0.0971
  C  C445  1  0.088400  0.480900  0.573500  1.0  -0.0196
  C  C446  1  0.955900  0.403800  0.523500  1.0  -0.0592
  C  C447  1  0.383900  0.301900  0.396000  1.0  0.6826
  C  C448  1  0.306800  0.258100  0.332700  1.0  -0.1624
  C  C449  1  0.287500  0.278700  0.281200  1.0  -0.1002
  C  C450  1  0.218400  0.239900  0.222300  1.0  -0.1702
  C  C451  1  0.164500  0.177800  0.214100  1.0  0.1257
  C  C452  1  0.184200  0.160400  0.268800  1.0  -0.165
  C  C453  1  0.253400  0.198900  0.325500  1.0  -0.0651
  C  C454  1  0.088500  0.133600  0.147300  1.0  -0.0994
  C  C455  1  0.092600  0.019100  0.107500  1.0  -0.0258
  C  C456  1  0.119700  0.096200  0.052100  1.0  -0.0542
  C  C457  1  0.198100  0.082000  0.594100  1.0  0.6836
  C  C458  1  0.241900  0.048700  0.574600  1.0  -0.1589
  C  C459  1  0.221300  0.008800  0.502500  1.0  -0.0976
  C  C460  1  0.260100  0.978500  0.482400  1.0  -0.1638
  C  C461  1  0.322200  0.986700  0.536300  1.0  0.1239
  C  C462  1  0.339600  0.023800  0.608400  1.0  -0.1651
  C  C463  1  0.301100  0.054500  0.626600  1.0  -0.0661
  C  C464  1  0.366400  0.954900  0.513700  1.0  -0.0911
  C  C465  1  0.480900  0.073500  0.588400  1.0  -0.0254
  C  C466  1  0.403800  0.023500  0.455900  1.0  -0.0541
  C  C467  1  0.301900  0.896000  0.883900  1.0  0.6816
  C  C468  1  0.258100  0.832700  0.806800  1.0  -0.1599
  C  C469  1  0.278700  0.781200  0.787500  1.0  -0.0968
  C  C470  1  0.239900  0.722300  0.718400  1.0  -0.1656
  C  C471  1  0.177800  0.714100  0.664500  1.0  0.1242
  C  C472  1  0.160400  0.768800  0.684200  1.0  -0.1705
  C  C473  1  0.198900  0.825500  0.753400  1.0  -0.0654
  C  C474  1  0.133600  0.647300  0.588500  1.0  -0.0963
  C  C475  1  0.019100  0.607500  0.592600  1.0  -0.0223
  C  C476  1  0.096200  0.552100  0.619700  1.0  -0.0595
  C  C477  1  0.512100  0.418000  0.616100  1.0  0.6816
  C  C478  1  0.525900  0.451300  0.693200  1.0  -0.1639
  C  C479  1  0.493700  0.491200  0.712500  1.0  -0.0963
  C  C480  1  0.503900  0.521500  0.781600  1.0  -0.165
  C  C481  1  0.549600  0.513300  0.835500  1.0  0.1289
  C  C482  1  0.584600  0.476200  0.815800  1.0  -0.1698
  C  C483  1  0.572100  0.445500  0.746600  1.0  -0.0667
  C  C484  1  0.558800  0.545100  0.911500  1.0  -0.0957
  C  C485  1  0.514900  0.426500  0.907400  1.0  -0.0207
  C  C486  1  0.432400  0.476500  0.880300  1.0  -0.06
  C  C487  1  0.987900  0.604000  0.905900  1.0  0.6824
  C  C488  1  0.974100  0.667300  0.925400  1.0  -0.163
  C  C489  1  0.006300  0.718800  0.997500  1.0  -0.0996
  C  C490  1  0.996100  0.777700  0.017600  1.0  -0.1659
  C  C491  1  0.950400  0.785900  0.963700  1.0  0.1257
  C  C492  1  0.915400  0.731200  0.891600  1.0  -0.1707
  C  C493  1  0.927900  0.674500  0.873400  1.0  -0.0678
  C  C494  1  0.941200  0.852700  0.986300  1.0  -0.0969
  C  C495  1  0.985100  0.892500  0.911600  1.0  -0.0194
  C  C496  1  0.067600  0.947900  0.044100  1.0  -0.0552
  N  N497  1  0.921400  0.991200  0.507200  1.0  -0.1798
  N  N498  1  0.984000  0.414200  0.992800  1.0  -0.1763
  N  N499  1  0.516000  0.508800  0.430200  1.0  -0.1649
  N  N500  1  0.578600  0.085800  0.069800  1.0  -0.1653
  N  N501  1  0.930200  0.516000  0.008800  1.0  -0.1694
  N  N502  1  0.569800  0.578600  0.585800  1.0  -0.1653
  N  N503  1  0.007200  0.921400  0.491200  1.0  -0.1787
  N  N504  1  0.492800  0.984000  0.914200  1.0  -0.1734
  N  N505  1  0.414200  0.492800  0.484000  1.0  -0.1758
  N  N506  1  0.991200  0.007200  0.421400  1.0  -0.1777
  N  N507  1  0.085800  0.569800  0.078600  1.0  -0.1642
  N  N508  1  0.508800  0.930200  0.016000  1.0  -0.1676
  N  N509  1  0.914200  0.484000  0.492800  1.0  -0.1771
  N  N510  1  0.491200  0.421400  0.007200  1.0  -0.1785
  N  N511  1  0.585800  0.078600  0.569800  1.0  -0.1655
  N  N512  1  0.008800  0.016000  0.930200  1.0  -0.1647
  N  N513  1  0.421400  0.507200  0.991200  1.0  -0.1799
  N  N514  1  0.484000  0.992800  0.414200  1.0  -0.1734
  N  N515  1  0.016000  0.430200  0.508800  1.0  -0.1671
  N  N516  1  0.078600  0.069800  0.085800  1.0  -0.1651
  N  N517  1  0.430200  0.008800  0.516000  1.0  -0.1689
  N  N518  1  0.069800  0.585800  0.578600  1.0  -0.165
  N  N519  1  0.507200  0.491200  0.921400  1.0  -0.1779
  N  N520  1  0.992800  0.914200  0.984000  1.0  -0.1753
  O  O521  1  0.574650  0.934660  0.482630  1.0  -0.5927
  O  O522  1  0.600250  0.871000  0.533450  1.0  -0.6209
  O  O523  1  0.952030  0.092020  0.017370  1.0  -0.5942
  O  O524  1  0.837550  0.066800  0.966550  1.0  -0.6089
  O  O525  1  0.547970  0.565340  0.139990  1.0  -0.5941
  O  O526  1  0.662450  0.629000  0.229250  1.0  -0.6167
  O  O527  1  0.925350  0.407980  0.360010  1.0  -0.5926
  O  O528  1  0.899750  0.433200  0.270750  1.0  -0.6156
  O  O529  1  0.639990  0.547970  0.065340  1.0  -0.5943
  O  O530  1  0.729250  0.662450  0.129000  1.0  -0.6168
  O  O531  1  0.860010  0.925350  0.907980  1.0  -0.5923
  O  O532  1  0.770750  0.899750  0.933200  1.0  -0.6092
  O  O533  1  0.982630  0.574650  0.434660  1.0  -0.592
  O  O534  1  0.033450  0.600250  0.371000  1.0  -0.6146
  O  O535  1  0.517370  0.952030  0.592020  1.0  -0.5966
  O  O536  1  0.466550  0.837550  0.566800  1.0  -0.6139
  O  O537  1  0.092020  0.517370  0.452030  1.0  -0.5929
  O  O538  1  0.066800  0.466550  0.337550  1.0  -0.6138
  O  O539  1  0.934660  0.982630  0.074650  1.0  -0.5943
  O  O540  1  0.871000  0.033450  0.100250  1.0  -0.6076
  O  O541  1  0.407980  0.860010  0.425350  1.0  -0.596
  O  O542  1  0.433200  0.770750  0.399750  1.0  -0.6185
  O  O543  1  0.565340  0.639990  0.047970  1.0  -0.5915
  O  O544  1  0.629000  0.729250  0.162450  1.0  -0.6157
  O  O545  1  0.592020  0.452030  0.517370  1.0  -0.5952
  O  O546  1  0.566800  0.337550  0.466550  1.0  -0.6176
  O  O547  1  0.434660  0.074650  0.982630  1.0  -0.5911
  O  O548  1  0.371000  0.100250  0.033450  1.0  -0.6099
  O  O549  1  0.907980  0.425350  0.860010  1.0  -0.5937
  O  O550  1  0.933200  0.399750  0.770750  1.0  -0.6136
  O  O551  1  0.065340  0.047970  0.639990  1.0  -0.5964
  O  O552  1  0.129000  0.162450  0.729250  1.0  -0.6137
  O  O553  1  0.074650  0.482630  0.934660  1.0  -0.5942
  O  O554  1  0.100250  0.533450  0.871000  1.0  -0.6147
  O  O555  1  0.452030  0.017370  0.092020  1.0  -0.5936
  O  O556  1  0.337550  0.966550  0.066800  1.0  -0.6068
  O  O557  1  0.047970  0.139990  0.565340  1.0  -0.5923
  O  O558  1  0.162450  0.229250  0.629000  1.0  -0.6179
  O  O559  1  0.425350  0.360010  0.407980  1.0  -0.5952
  O  O560  1  0.399750  0.270750  0.433200  1.0  -0.6184
  O  O561  1  0.139990  0.065340  0.547970  1.0  -0.5916
  O  O562  1  0.229250  0.129000  0.662450  1.0  -0.6188
  O  O563  1  0.360010  0.907980  0.925350  1.0  -0.5927
  O  O564  1  0.270750  0.933200  0.899750  1.0  -0.6079
  O  O565  1  0.482630  0.434660  0.574650  1.0  -0.5952
  O  O566  1  0.533450  0.371000  0.600250  1.0  -0.6172
  O  O567  1  0.017370  0.592020  0.952030  1.0  -0.5913
  O  O568  1  0.966550  0.566800  0.837550  1.0  -0.6158
