# generated using pymatgen
data_Zn2H20C34N3O10
_symmetry_space_group_name_H-M   'P 1'
_cell_length_a   15.08550000
_cell_length_b   15.08550000
_cell_length_c   21.51500000
_cell_angle_alpha   83.86720000
_cell_angle_beta   83.86720000
_cell_angle_gamma   65.55560000
_symmetry_Int_Tables_number   1
_chemical_formula_structural   Zn2H20C34N3O10
_chemical_formula_sum   'Zn8 H80 C136 N12 O40'
_cell_volume   4421.20777994
_cell_formula_units_Z   4
loop_
 _symmetry_equiv_pos_site_id
 _symmetry_equiv_pos_as_xyz
  1  'x, y, z'
loop_
 _atom_site_type_symbol
 _atom_site_label
 _atom_site_symmetry_multiplicity
 _atom_site_fract_x
 _atom_site_fract_y
 _atom_site_fract_z
 _atom_site_occupancy
 _atom_site_charge
  Zn  Zn1  1  0.009650  0.012850  0.681470  1.0  1.1367
  Zn  Zn2  1  0.951840  0.432360  0.006100  1.0  0.9178
  Zn  Zn3  1  0.987150  0.990350  0.818530  1.0  1.1369
  Zn  Zn4  1  0.567640  0.048160  0.493900  1.0  0.9188
  Zn  Zn5  1  0.990350  0.987150  0.318530  1.0  1.1371
  Zn  Zn6  1  0.048160  0.567640  0.993900  1.0  0.9185
  Zn  Zn7  1  0.012850  0.009650  0.181470  1.0  1.1364
  Zn  Zn8  1  0.432360  0.951840  0.506100  1.0  0.9182
  H  H9  1  0.677800  0.103000  0.836100  1.0  0.1023
  H  H10  1  0.512200  0.152000  0.839200  1.0  0.1282
  H  H11  1  0.533000  0.112400  0.656600  1.0  0.1159
  H  H12  1  0.699800  0.062600  0.653500  1.0  0.1047
  H  H13  1  0.263100  0.409300  0.863800  1.0  0.0983
  H  H14  1  0.391300  0.314700  0.797300  1.0  0.1256
  H  H15  1  0.263300  0.130300  0.792200  1.0  0.1202
  H  H16  1  0.132900  0.228100  0.857200  1.0  0.1014
  H  H17  1  0.111900  0.558700  0.621900  1.0  0.1361
  H  H18  1  0.087100  0.718300  0.632900  1.0  0.1024
  H  H19  1  0.038300  0.681100  0.818000  1.0  0.089
  H  H20  1  0.068600  0.520400  0.809300  1.0  0.1319
  H  H21  1  0.208800  0.150400  0.633000  1.0  0.0953
  H  H22  1  0.094400  0.277800  0.687100  1.0  0.1204
  H  H23  1  0.269500  0.421300  0.654800  1.0  0.1239
  H  H24  1  0.381600  0.293600  0.599700  1.0  0.0968
  H  H25  1  0.938900  0.252100  0.076500  1.0  0.0806
  H  H26  1  0.825700  0.189300  0.108100  1.0  0.118
  H  H27  1  0.665800  0.275200  0.080600  1.0  0.1033
  H  H28  1  0.744800  0.481000  0.991900  1.0  0.0829
  H  H29  1  0.897000  0.322200  0.663900  1.0  0.1029
  H  H30  1  0.848000  0.487800  0.660800  1.0  0.1282
  H  H31  1  0.887600  0.467000  0.843400  1.0  0.1151
  H  H32  1  0.937400  0.300200  0.846500  1.0  0.1042
  H  H33  1  0.590700  0.736900  0.636200  1.0  0.099
  H  H34  1  0.685300  0.608700  0.702700  1.0  0.1249
  H  H35  1  0.869700  0.736700  0.707800  1.0  0.1205
  H  H36  1  0.771900  0.867100  0.642800  1.0  0.1025
  H  H37  1  0.441300  0.888100  0.878100  1.0  0.1354
  H  H38  1  0.281700  0.912900  0.867100  1.0  0.1031
  H  H39  1  0.318900  0.961700  0.682000  1.0  0.0887
  H  H40  1  0.479600  0.931400  0.690700  1.0  0.1322
  H  H41  1  0.849600  0.791200  0.867000  1.0  0.0959
  H  H42  1  0.722200  0.905600  0.812900  1.0  0.1192
  H  H43  1  0.578700  0.730500  0.845200  1.0  0.1264
  H  H44  1  0.706400  0.618400  0.900300  1.0  0.096
  H  H45  1  0.747900  0.061100  0.423500  1.0  0.0834
  H  H46  1  0.810700  0.174300  0.391900  1.0  0.1191
  H  H47  1  0.724800  0.334200  0.419400  1.0  0.1029
  H  H48  1  0.519000  0.255200  0.508100  1.0  0.0824
  H  H49  1  0.322200  0.897000  0.163900  1.0  0.103
  H  H50  1  0.487800  0.848000  0.160800  1.0  0.1292
  H  H51  1  0.467000  0.887600  0.343400  1.0  0.1163
  H  H52  1  0.300200  0.937400  0.346500  1.0  0.1045
  H  H53  1  0.736900  0.590700  0.136200  1.0  0.0974
  H  H54  1  0.608700  0.685300  0.202700  1.0  0.1273
  H  H55  1  0.736700  0.869700  0.207800  1.0  0.1205
  H  H56  1  0.867100  0.771900  0.142800  1.0  0.102
  H  H57  1  0.888100  0.441300  0.378100  1.0  0.1348
  H  H58  1  0.912900  0.281700  0.367100  1.0  0.1029
  H  H59  1  0.961700  0.318900  0.182000  1.0  0.089
  H  H60  1  0.931400  0.479600  0.190700  1.0  0.1321
  H  H61  1  0.791200  0.849600  0.367000  1.0  0.0957
  H  H62  1  0.905600  0.722200  0.312900  1.0  0.12
  H  H63  1  0.730500  0.578700  0.345200  1.0  0.1252
  H  H64  1  0.618400  0.706400  0.400300  1.0  0.0953
  H  H65  1  0.061100  0.747900  0.923500  1.0  0.0809
  H  H66  1  0.174300  0.810700  0.891900  1.0  0.118
  H  H67  1  0.334200  0.724800  0.919400  1.0  0.1034
  H  H68  1  0.255200  0.519000  0.008100  1.0  0.0829
  H  H69  1  0.103000  0.677800  0.336100  1.0  0.1027
  H  H70  1  0.152000  0.512200  0.339200  1.0  0.1283
  H  H71  1  0.112400  0.533000  0.156600  1.0  0.1151
  H  H72  1  0.062600  0.699800  0.153500  1.0  0.1044
  H  H73  1  0.409300  0.263100  0.363800  1.0  0.0997
  H  H74  1  0.314700  0.391300  0.297300  1.0  0.1231
  H  H75  1  0.130300  0.263300  0.292200  1.0  0.1203
  H  H76  1  0.228100  0.132900  0.357200  1.0  0.102
  H  H77  1  0.558700  0.111900  0.121900  1.0  0.136
  H  H78  1  0.718300  0.087100  0.132900  1.0  0.1031
  H  H79  1  0.681100  0.038300  0.318000  1.0  0.0888
  H  H80  1  0.520400  0.068600  0.309300  1.0  0.1317
  H  H81  1  0.150400  0.208800  0.133000  1.0  0.095
  H  H82  1  0.277800  0.094400  0.187100  1.0  0.1191
  H  H83  1  0.421300  0.269500  0.154800  1.0  0.1251
  H  H84  1  0.293600  0.381600  0.099700  1.0  0.0965
  H  H85  1  0.252100  0.938900  0.576500  1.0  0.0823
  H  H86  1  0.189300  0.825700  0.608100  1.0  0.1175
  H  H87  1  0.275200  0.665800  0.580600  1.0  0.1025
  H  H88  1  0.481000  0.744800  0.491900  1.0  0.0829
  C  C89  1  0.706590  0.079990  0.744060  1.0  -0.2103
  C  C90  1  0.648600  0.105600  0.799660  1.0  0.0109
  C  C91  1  0.549860  0.134260  0.801830  1.0  -0.2582
  C  C92  1  0.506540  0.136540  0.748080  1.0  0.296
  C  C93  1  0.562580  0.110380  0.692830  1.0  -0.1867
  C  C94  1  0.662220  0.081420  0.690860  1.0  0.0024
  C  C95  1  0.815740  0.046140  0.744060  1.0  0.7192
  C  C96  1  0.186240  0.326520  0.868650  1.0  -0.1838
  C  C97  1  0.262890  0.353290  0.849700  1.0  -0.0063
  C  C98  1  0.339710  0.296710  0.809600  1.0  -0.2628
  C  C99  1  0.339080  0.213880  0.788310  1.0  0.2918
  C  C100  1  0.263260  0.186460  0.806200  1.0  -0.2272
  C  C101  1  0.185500  0.244900  0.846020  1.0  -0.0012
  C  C102  1  0.106360  0.386700  0.913650  1.0  0.6854
  C  C103  1  0.094140  0.523940  0.715400  1.0  0.289
  C  C104  1  0.098440  0.583240  0.661400  1.0  -0.26
  C  C105  1  0.082440  0.678640  0.668180  1.0  0.0149
  C  C106  1  0.059670  0.716490  0.726070  1.0  -0.2069
  C  C107  1  0.054200  0.656000  0.778710  1.0  0.016
  C  C108  1  0.071800  0.560200  0.773750  1.0  -0.2222
  C  C109  1  0.039140  0.821940  0.732300  1.0  0.7111
  C  C110  1  0.305550  0.209690  0.610000  1.0  -0.1908
  C  C111  1  0.220490  0.205290  0.636950  1.0  0.0237
  C  C112  1  0.152300  0.280900  0.669700  1.0  -0.2361
  C  C113  1  0.171640  0.361640  0.676200  1.0  0.2892
  C  C114  1  0.256980  0.366980  0.650200  1.0  -0.2648
  C  C115  1  0.323700  0.290700  0.617200  1.0  0.0218
  C  C116  1  0.378670  0.126950  0.573770  1.0  0.6891
  C  C117  1  0.586770  0.448970  0.014800  1.0  0.3664
  C  C118  1  0.875120  0.286720  0.065300  1.0  0.1813
  C  C119  1  0.807730  0.248730  0.084600  1.0  -0.1807
  C  C120  1  0.712650  0.300050  0.068600  1.0  0.0325
  C  C121  1  0.687610  0.389610  0.034030  1.0  -0.1771
  C  C122  1  0.760510  0.421970  0.015730  1.0  0.189
  C  C123  1  0.920010  0.293410  0.755940  1.0  -0.2057
  C  C124  1  0.894400  0.351400  0.700340  1.0  0.0159
  C  C125  1  0.865740  0.450140  0.698170  1.0  -0.2527
  C  C126  1  0.863460  0.493460  0.751920  1.0  0.2966
  C  C127  1  0.889620  0.437420  0.807170  1.0  -0.1911
  C  C128  1  0.918580  0.337780  0.809140  1.0  0.0105
  C  C129  1  0.953860  0.184260  0.755940  1.0  0.7183
  C  C130  1  0.673480  0.813760  0.631350  1.0  -0.1825
  C  C131  1  0.646710  0.737110  0.650300  1.0  -0.009
  C  C132  1  0.703290  0.660290  0.690400  1.0  -0.2671
  C  C133  1  0.786120  0.660920  0.711690  1.0  0.299
  C  C134  1  0.813540  0.736740  0.693800  1.0  -0.2271
  C  C135  1  0.755100  0.814500  0.653980  1.0  0.0074
  C  C136  1  0.613300  0.893640  0.586350  1.0  0.6845
  C  C137  1  0.476060  0.905860  0.784600  1.0  0.2898
  C  C138  1  0.416760  0.901560  0.838600  1.0  -0.2567
  C  C139  1  0.321360  0.917560  0.831820  1.0  0.0171
  C  C140  1  0.283510  0.940330  0.773930  1.0  -0.2091
  C  C141  1  0.344000  0.945800  0.721290  1.0  0.0215
  C  C142  1  0.439800  0.928200  0.726250  1.0  -0.2181
  C  C143  1  0.178060  0.960860  0.767700  1.0  0.7112
  C  C144  1  0.790310  0.694450  0.890000  1.0  -0.1909
  C  C145  1  0.794710  0.779510  0.863050  1.0  0.02
  C  C146  1  0.719100  0.847700  0.830300  1.0  -0.2302
  C  C147  1  0.638360  0.828360  0.823800  1.0  0.2941
  C  C148  1  0.633020  0.743020  0.849800  1.0  -0.2692
  C  C149  1  0.709300  0.676300  0.882800  1.0  0.0239
  C  C150  1  0.873050  0.621330  0.926230  1.0  0.6862
  C  C151  1  0.551030  0.413230  0.485200  1.0  0.3662
  C  C152  1  0.713280  0.124880  0.434700  1.0  0.1769
  C  C153  1  0.751270  0.192270  0.415400  1.0  -0.1779
  C  C154  1  0.699950  0.287350  0.431400  1.0  0.0334
  C  C155  1  0.610390  0.312390  0.465970  1.0  -0.1763
  C  C156  1  0.578030  0.239490  0.484270  1.0  0.2013
  C  C157  1  0.293410  0.920010  0.255940  1.0  -0.2084
  C  C158  1  0.351400  0.894400  0.200340  1.0  0.0095
  C  C159  1  0.450140  0.865740  0.198170  1.0  -0.2547
  C  C160  1  0.493460  0.863460  0.251920  1.0  0.2864
  C  C161  1  0.437420  0.889620  0.307170  1.0  -0.1952
  C  C162  1  0.337780  0.918580  0.309140  1.0  0.016
  C  C163  1  0.184260  0.953860  0.255940  1.0  0.7182
  C  C164  1  0.813760  0.673480  0.131350  1.0  -0.1824
  C  C165  1  0.737110  0.646710  0.150300  1.0  -0.006
  C  C166  1  0.660290  0.703290  0.190400  1.0  -0.264
  C  C167  1  0.660920  0.786120  0.211690  1.0  0.299
  C  C168  1  0.736740  0.813540  0.193800  1.0  -0.2237
  C  C169  1  0.814500  0.755100  0.153980  1.0  0.0048
  C  C170  1  0.893640  0.613300  0.086350  1.0  0.6849
  C  C171  1  0.905860  0.476060  0.284600  1.0  0.2967
  C  C172  1  0.901560  0.416760  0.338600  1.0  -0.2563
  C  C173  1  0.917560  0.321360  0.331820  1.0  0.0159
  C  C174  1  0.940330  0.283510  0.273930  1.0  -0.2075
  C  C175  1  0.945800  0.344000  0.221290  1.0  0.0222
  C  C176  1  0.928200  0.439800  0.226250  1.0  -0.2175
  C  C177  1  0.960860  0.178060  0.267700  1.0  0.7102
  C  C178  1  0.694450  0.790310  0.390000  1.0  -0.1913
  C  C179  1  0.779510  0.794710  0.363050  1.0  0.0242
  C  C180  1  0.847700  0.719100  0.330300  1.0  -0.2356
  C  C181  1  0.828360  0.638360  0.323800  1.0  0.2934
  C  C182  1  0.743020  0.633020  0.349800  1.0  -0.2669
  C  C183  1  0.676300  0.709300  0.382800  1.0  0.0218
  C  C184  1  0.621330  0.873050  0.426230  1.0  0.6876
  C  C185  1  0.413230  0.551030  0.985200  1.0  0.3673
  C  C186  1  0.124880  0.713280  0.934700  1.0  0.18
  C  C187  1  0.192270  0.751270  0.915400  1.0  -0.1785
  C  C188  1  0.287350  0.699950  0.931400  1.0  0.0329
  C  C189  1  0.312390  0.610390  0.965970  1.0  -0.1778
  C  C190  1  0.239490  0.578030  0.984270  1.0  0.2032
  C  C191  1  0.079990  0.706590  0.244060  1.0  -0.2087
  C  C192  1  0.105600  0.648600  0.299660  1.0  0.0153
  C  C193  1  0.134260  0.549860  0.301830  1.0  -0.2544
  C  C194  1  0.136540  0.506540  0.248080  1.0  0.2884
  C  C195  1  0.110380  0.562580  0.192830  1.0  -0.1868
  C  C196  1  0.081420  0.662220  0.190860  1.0  0.0056
  C  C197  1  0.046140  0.815740  0.244060  1.0  0.7198
  C  C198  1  0.326520  0.186240  0.368650  1.0  -0.1841
  C  C199  1  0.353290  0.262890  0.349700  1.0  -0.0087
  C  C200  1  0.296710  0.339710  0.309600  1.0  -0.2653
  C  C201  1  0.213880  0.339080  0.288310  1.0  0.2934
  C  C202  1  0.186460  0.263260  0.306200  1.0  -0.2285
  C  C203  1  0.244900  0.185500  0.346020  1.0  0.0021
  C  C204  1  0.386700  0.106360  0.413650  1.0  0.6824
  C  C205  1  0.523940  0.094140  0.215400  1.0  0.2953
  C  C206  1  0.583240  0.098440  0.161400  1.0  -0.2631
  C  C207  1  0.678640  0.082440  0.168180  1.0  0.0158
  C  C208  1  0.716490  0.059670  0.226070  1.0  -0.2074
  C  C209  1  0.656000  0.054200  0.278710  1.0  0.0162
  C  C210  1  0.560200  0.071800  0.273750  1.0  -0.2203
  C  C211  1  0.821940  0.039140  0.232300  1.0  0.7116
  C  C212  1  0.209690  0.305550  0.110000  1.0  -0.1893
  C  C213  1  0.205290  0.220490  0.136950  1.0  0.021
  C  C214  1  0.280900  0.152300  0.169700  1.0  -0.2349
  C  C215  1  0.361640  0.171640  0.176200  1.0  0.2894
  C  C216  1  0.366980  0.256980  0.150200  1.0  -0.2658
  C  C217  1  0.290700  0.323700  0.117200  1.0  0.0242
  C  C218  1  0.126950  0.378670  0.073770  1.0  0.6886
  C  C219  1  0.448970  0.586770  0.514800  1.0  0.3667
  C  C220  1  0.286720  0.875120  0.565300  1.0  0.1791
  C  C221  1  0.248730  0.807730  0.584600  1.0  -0.1789
  C  C222  1  0.300050  0.712650  0.568600  1.0  0.0345
  C  C223  1  0.389610  0.687610  0.534030  1.0  -0.1772
  C  C224  1  0.421970  0.760510  0.515730  1.0  0.1901
  N  N225  1  0.517420  0.419120  0.039120  1.0  -0.1882
  N  N226  1  0.571880  0.527680  0.976300  1.0  -0.1705
  N  N227  1  0.853350  0.371150  0.031080  1.0  -0.3023
  N  N228  1  0.580880  0.482580  0.460880  1.0  -0.1823
  N  N229  1  0.472320  0.428120  0.523700  1.0  -0.1772
  N  N230  1  0.628850  0.146650  0.468920  1.0  -0.3003
  N  N231  1  0.482580  0.580880  0.960880  1.0  -0.1815
  N  N232  1  0.428120  0.472320  0.023700  1.0  -0.1707
  N  N233  1  0.146650  0.628850  0.968920  1.0  -0.3006
  N  N234  1  0.419120  0.517420  0.539120  1.0  -0.1849
  N  N235  1  0.527680  0.571880  0.476300  1.0  -0.1675
  N  N236  1  0.371150  0.853350  0.531080  1.0  -0.3016
  O  O237  1  0.409300  0.156600  0.745860  1.0  -0.233
  O  O238  1  0.864370  0.034310  0.692240  1.0  -0.6207
  O  O239  1  0.849880  0.033580  0.796980  1.0  -0.6372
  O  O240  1  0.041870  0.354910  0.935510  1.0  -0.5986
  O  O241  1  0.108240  0.463360  0.928640  1.0  -0.6079
  O  O242  1  0.101900  0.429680  0.714070  1.0  -0.2338
  O  O243  1  0.046480  0.870820  0.681870  1.0  -0.622
  O  O244  1  0.016710  0.853990  0.785920  1.0  -0.6352
  O  O245  1  0.353660  0.059180  0.563760  1.0  -0.5861
  O  O246  1  0.459850  0.129930  0.554990  1.0  -0.5927
  O  O247  1  0.843400  0.590700  0.754140  1.0  -0.2329
  O  O248  1  0.965690  0.135630  0.807760  1.0  -0.6202
  O  O249  1  0.966420  0.150120  0.703020  1.0  -0.6374
  O  O250  1  0.645090  0.958130  0.564490  1.0  -0.595
  O  O251  1  0.536640  0.891760  0.571360  1.0  -0.6085
  O  O252  1  0.570320  0.898100  0.785930  1.0  -0.2337
  O  O253  1  0.129180  0.953520  0.818130  1.0  -0.6189
  O  O254  1  0.146010  0.983290  0.714080  1.0  -0.6354
  O  O255  1  0.940820  0.646340  0.936240  1.0  -0.5851
  O  O256  1  0.870070  0.540150  0.945010  1.0  -0.5919
  O  O257  1  0.590700  0.843400  0.254140  1.0  -0.2333
  O  O258  1  0.135630  0.965690  0.307760  1.0  -0.617
  O  O259  1  0.150120  0.966420  0.203020  1.0  -0.6361
  O  O260  1  0.958130  0.645090  0.064490  1.0  -0.5987
  O  O261  1  0.891760  0.536640  0.071360  1.0  -0.6084
  O  O262  1  0.898100  0.570320  0.285930  1.0  -0.2333
  O  O263  1  0.953520  0.129180  0.318130  1.0  -0.6202
  O  O264  1  0.983290  0.146010  0.214080  1.0  -0.6346
  O  O265  1  0.646340  0.940820  0.436240  1.0  -0.5857
  O  O266  1  0.540150  0.870070  0.445010  1.0  -0.5916
  O  O267  1  0.156600  0.409300  0.245860  1.0  -0.2322
  O  O268  1  0.034310  0.864370  0.192240  1.0  -0.6211
  O  O269  1  0.033580  0.849880  0.296980  1.0  -0.6373
  O  O270  1  0.354910  0.041870  0.435510  1.0  -0.5964
  O  O271  1  0.463360  0.108240  0.428640  1.0  -0.6081
  O  O272  1  0.429680  0.101900  0.214070  1.0  -0.234
  O  O273  1  0.870820  0.046480  0.181870  1.0  -0.6192
  O  O274  1  0.853990  0.016710  0.285920  1.0  -0.6364
  O  O275  1  0.059180  0.353660  0.063760  1.0  -0.5866
  O  O276  1  0.129930  0.459850  0.054990  1.0  -0.5918
