# generated using pymatgen
data_Zn2H18C32S(NO2)4
_symmetry_space_group_name_H-M   'P 1'
_cell_length_a   15.45560000
_cell_length_b   18.38120000
_cell_length_c   31.09010000
_cell_angle_alpha   90.00000000
_cell_angle_beta   90.00000000
_cell_angle_gamma   90.00000000
_symmetry_Int_Tables_number   1
_chemical_formula_structural   Zn2H18C32S(NO2)4
_chemical_formula_sum   'Zn16 H144 C256 S8 N32 O64'
_cell_volume   8832.46344829
_cell_formula_units_Z   8
loop_
 _symmetry_equiv_pos_site_id
 _symmetry_equiv_pos_as_xyz
  1  'x, y, z'
loop_
 _atom_site_type_symbol
 _atom_site_label
 _atom_site_symmetry_multiplicity
 _atom_site_fract_x
 _atom_site_fract_y
 _atom_site_fract_z
 _atom_site_occupancy
 _atom_site_charge
  Zn  Zn1  1  0.573490  0.333550  0.124210  1.0  0.9118
  Zn  Zn2  1  0.573660  0.174620  0.125950  1.0  0.9209
  Zn  Zn3  1  0.073490  0.166450  0.875790  1.0  0.9111
  Zn  Zn4  1  0.073660  0.325380  0.874050  1.0  0.9212
  Zn  Zn5  1  0.073490  0.333550  0.375790  1.0  0.9116
  Zn  Zn6  1  0.073660  0.174620  0.374050  1.0  0.9207
  Zn  Zn7  1  0.573490  0.166450  0.624210  1.0  0.9113
  Zn  Zn8  1  0.573660  0.325380  0.625950  1.0  0.9214
  Zn  Zn9  1  0.926510  0.666450  0.624210  1.0  0.9117
  Zn  Zn10  1  0.926340  0.825380  0.625950  1.0  0.9222
  Zn  Zn11  1  0.426510  0.833550  0.375790  1.0  0.9118
  Zn  Zn12  1  0.426340  0.674620  0.374050  1.0  0.9216
  Zn  Zn13  1  0.426510  0.666450  0.875790  1.0  0.9115
  Zn  Zn14  1  0.426340  0.825380  0.874050  1.0  0.9221
  Zn  Zn15  1  0.926510  0.833550  0.124210  1.0  0.912
  Zn  Zn16  1  0.926340  0.674620  0.125950  1.0  0.9218
  H  H17  1  0.757900  0.149100  0.230800  1.0  0.1108
  H  H18  1  0.863100  0.149400  0.283300  1.0  0.1158
  H  H19  1  0.864900  0.367500  0.281900  1.0  0.1152
  H  H20  1  0.759700  0.367300  0.229300  1.0  0.1128
  H  H21  1  0.784800  0.360000  0.032800  1.0  0.1114
  H  H22  1  0.890000  0.358900  0.980200  1.0  0.1157
  H  H23  1  0.873200  0.141600  0.973800  1.0  0.11
  H  H24  1  0.768500  0.143100  0.026400  1.0  0.1099
  H  H25  1  0.603600  0.464100  0.178700  1.0  0.0913
  H  H26  1  0.601300  0.588100  0.175100  1.0  0.1228
  H  H27  1  0.548800  0.571900  0.048900  1.0  0.1157
  H  H28  1  0.553200  0.447500  0.056500  1.0  0.0845
  H  H29  1  0.663600  0.816500  0.153100  1.0  0.1027
  H  H30  1  0.663300  0.692100  0.152800  1.0  0.1
  H  H31  1  0.701700  0.926400  0.120600  1.0  0.1234
  H  H32  1  0.699500  0.049500  0.129200  1.0  0.0743
  H  H33  1  0.450000  0.055200  0.117100  1.0  0.0915
  H  H34  1  0.444100  0.932100  0.106000  1.0  0.1264
  H  H35  1  0.257900  0.350900  0.769200  1.0  0.1115
  H  H36  1  0.363100  0.350600  0.716700  1.0  0.1152
  H  H37  1  0.364900  0.132500  0.718100  1.0  0.1153
  H  H38  1  0.259700  0.132700  0.770700  1.0  0.1119
  H  H39  1  0.284800  0.140000  0.967200  1.0  0.1116
  H  H40  1  0.390000  0.141100  0.019800  1.0  0.1159
  H  H41  1  0.373200  0.358400  0.026200  1.0  0.1106
  H  H42  1  0.268500  0.356900  0.973600  1.0  0.111
  H  H43  1  0.103600  0.035900  0.821300  1.0  0.0917
  H  H44  1  0.101300  0.911900  0.824900  1.0  0.1226
  H  H45  1  0.048800  0.928100  0.951100  1.0  0.1158
  H  H46  1  0.053200  0.052500  0.943500  1.0  0.0849
  H  H47  1  0.163600  0.683500  0.846900  1.0  0.1024
  H  H48  1  0.163300  0.807900  0.847200  1.0  0.1
  H  H49  1  0.201700  0.573600  0.879400  1.0  0.1237
  H  H50  1  0.199500  0.450500  0.870800  1.0  0.0749
  H  H51  1  0.950000  0.444800  0.882900  1.0  0.0918
  H  H52  1  0.944100  0.567900  0.894000  1.0  0.1262
  H  H53  1  0.257900  0.149100  0.269200  1.0  0.111
  H  H54  1  0.363100  0.149400  0.216700  1.0  0.1155
  H  H55  1  0.364900  0.367500  0.218100  1.0  0.115
  H  H56  1  0.259700  0.367300  0.270700  1.0  0.112
  H  H57  1  0.284800  0.360000  0.467200  1.0  0.1117
  H  H58  1  0.390000  0.358900  0.519800  1.0  0.1154
  H  H59  1  0.373200  0.141600  0.526200  1.0  0.1106
  H  H60  1  0.268500  0.143100  0.473600  1.0  0.1108
  H  H61  1  0.103600  0.464100  0.321300  1.0  0.0918
  H  H62  1  0.101300  0.588100  0.324900  1.0  0.1223
  H  H63  1  0.048800  0.571900  0.451100  1.0  0.1163
  H  H64  1  0.053200  0.447500  0.443500  1.0  0.0852
  H  H65  1  0.163600  0.816500  0.346900  1.0  0.1026
  H  H66  1  0.163300  0.692100  0.347200  1.0  0.0999
  H  H67  1  0.201700  0.926400  0.379400  1.0  0.1235
  H  H68  1  0.199500  0.049500  0.370800  1.0  0.0745
  H  H69  1  0.950000  0.055200  0.382900  1.0  0.0915
  H  H70  1  0.944100  0.932100  0.394000  1.0  0.1264
  H  H71  1  0.757900  0.350900  0.730800  1.0  0.1115
  H  H72  1  0.863100  0.350600  0.783300  1.0  0.1156
  H  H73  1  0.864900  0.132500  0.781900  1.0  0.1155
  H  H74  1  0.759700  0.132700  0.729300  1.0  0.1127
  H  H75  1  0.784800  0.140000  0.532800  1.0  0.1109
  H  H76  1  0.890000  0.141100  0.480200  1.0  0.116
  H  H77  1  0.873200  0.358400  0.473800  1.0  0.1104
  H  H78  1  0.768500  0.356900  0.526400  1.0  0.1106
  H  H79  1  0.603600  0.035900  0.678700  1.0  0.0911
  H  H80  1  0.601300  0.911900  0.675100  1.0  0.123
  H  H81  1  0.548800  0.928100  0.548900  1.0  0.1156
  H  H82  1  0.553200  0.052500  0.556500  1.0  0.0844
  H  H83  1  0.663600  0.683500  0.653100  1.0  0.1029
  H  H84  1  0.663300  0.807900  0.652800  1.0  0.1
  H  H85  1  0.701700  0.573600  0.620600  1.0  0.1236
  H  H86  1  0.699500  0.450500  0.629200  1.0  0.0746
  H  H87  1  0.450000  0.444800  0.617100  1.0  0.0916
  H  H88  1  0.444100  0.567900  0.606000  1.0  0.1263
  H  H89  1  0.742100  0.850900  0.730800  1.0  0.111
  H  H90  1  0.636900  0.850600  0.783300  1.0  0.1156
  H  H91  1  0.635100  0.632500  0.781900  1.0  0.1153
  H  H92  1  0.740300  0.632700  0.729300  1.0  0.1129
  H  H93  1  0.715200  0.640000  0.532800  1.0  0.1113
  H  H94  1  0.610000  0.641100  0.480200  1.0  0.1158
  H  H95  1  0.626800  0.858400  0.473800  1.0  0.1106
  H  H96  1  0.731500  0.856900  0.526400  1.0  0.1105
  H  H97  1  0.896400  0.535900  0.678700  1.0  0.091
  H  H98  1  0.898700  0.411900  0.675100  1.0  0.1222
  H  H99  1  0.951200  0.428100  0.548900  1.0  0.1155
  H  H100  1  0.946800  0.552500  0.556500  1.0  0.0845
  H  H101  1  0.836400  0.183500  0.653100  1.0  0.1027
  H  H102  1  0.836700  0.307900  0.652800  1.0  0.0995
  H  H103  1  0.798300  0.073600  0.620600  1.0  0.1233
  H  H104  1  0.800500  0.950500  0.629200  1.0  0.0745
  H  H105  1  0.050000  0.944800  0.617100  1.0  0.0924
  H  H106  1  0.055900  0.067900  0.606000  1.0  0.1261
  H  H107  1  0.242100  0.649100  0.269200  1.0  0.111
  H  H108  1  0.136900  0.649400  0.216700  1.0  0.1154
  H  H109  1  0.135100  0.867500  0.218100  1.0  0.115
  H  H110  1  0.240300  0.867300  0.270700  1.0  0.1122
  H  H111  1  0.215200  0.860000  0.467200  1.0  0.1115
  H  H112  1  0.110000  0.858900  0.519800  1.0  0.1155
  H  H113  1  0.126800  0.641600  0.526200  1.0  0.1107
  H  H114  1  0.231500  0.643100  0.473600  1.0  0.1113
  H  H115  1  0.396400  0.964100  0.321300  1.0  0.092
  H  H116  1  0.398700  0.088100  0.324900  1.0  0.1224
  H  H117  1  0.451200  0.071900  0.451100  1.0  0.1165
  H  H118  1  0.446800  0.947500  0.443500  1.0  0.0852
  H  H119  1  0.336400  0.316500  0.346900  1.0  0.1027
  H  H120  1  0.336700  0.192100  0.347200  1.0  0.0995
  H  H121  1  0.298300  0.426400  0.379400  1.0  0.1233
  H  H122  1  0.300500  0.549500  0.370800  1.0  0.0743
  H  H123  1  0.550000  0.555200  0.382900  1.0  0.0924
  H  H124  1  0.555900  0.432100  0.394000  1.0  0.1262
  H  H125  1  0.242100  0.850900  0.769200  1.0  0.1112
  H  H126  1  0.136900  0.850600  0.716700  1.0  0.1153
  H  H127  1  0.135100  0.632500  0.718100  1.0  0.115
  H  H128  1  0.240300  0.632700  0.770700  1.0  0.1122
  H  H129  1  0.215200  0.640000  0.967200  1.0  0.1117
  H  H130  1  0.110000  0.641100  0.019800  1.0  0.1158
  H  H131  1  0.126800  0.858400  0.026200  1.0  0.1108
  H  H132  1  0.231500  0.856900  0.973600  1.0  0.1109
  H  H133  1  0.396400  0.535900  0.821300  1.0  0.0919
  H  H134  1  0.398700  0.411900  0.824900  1.0  0.1228
  H  H135  1  0.451200  0.428100  0.951100  1.0  0.1158
  H  H136  1  0.446800  0.552500  0.943500  1.0  0.0849
  H  H137  1  0.336400  0.183500  0.846900  1.0  0.1023
  H  H138  1  0.336700  0.307900  0.847200  1.0  0.0998
  H  H139  1  0.298300  0.073600  0.879400  1.0  0.1233
  H  H140  1  0.300500  0.950500  0.870800  1.0  0.0748
  H  H141  1  0.550000  0.944800  0.882900  1.0  0.0924
  H  H142  1  0.555900  0.067900  0.894000  1.0  0.1262
  H  H143  1  0.742100  0.649100  0.230800  1.0  0.111
  H  H144  1  0.636900  0.649400  0.283300  1.0  0.1158
  H  H145  1  0.635100  0.867500  0.281900  1.0  0.1151
  H  H146  1  0.740300  0.867300  0.229300  1.0  0.1128
  H  H147  1  0.715200  0.860000  0.032800  1.0  0.1116
  H  H148  1  0.610000  0.858900  0.980200  1.0  0.1158
  H  H149  1  0.626800  0.641600  0.973800  1.0  0.1103
  H  H150  1  0.731500  0.643100  0.026400  1.0  0.1104
  H  H151  1  0.896400  0.964100  0.178700  1.0  0.0911
  H  H152  1  0.898700  0.088100  0.175100  1.0  0.122
  H  H153  1  0.951200  0.071900  0.048900  1.0  0.1158
  H  H154  1  0.946800  0.947500  0.056500  1.0  0.0847
  H  H155  1  0.836400  0.316500  0.153100  1.0  0.1027
  H  H156  1  0.836700  0.192100  0.152800  1.0  0.0994
  H  H157  1  0.798300  0.426400  0.120600  1.0  0.1233
  H  H158  1  0.800500  0.549500  0.129200  1.0  0.0741
  H  H159  1  0.050000  0.555200  0.117100  1.0  0.0925
  H  H160  1  0.055900  0.432100  0.106000  1.0  0.126
  C  C161  1  0.683000  0.257570  0.187840  1.0  0.7086
  C  C162  1  0.748600  0.258230  0.223900  1.0  -0.0992
  C  C163  1  0.779800  0.193100  0.240840  1.0  -0.0323
  C  C164  1  0.842900  0.193230  0.272340  1.0  -0.0474
  C  C165  1  0.876220  0.258540  0.287710  1.0  -0.1227
  C  C166  1  0.843900  0.323530  0.271440  1.0  -0.0386
  C  C167  1  0.780700  0.323370  0.239880  1.0  -0.0343
  C  C168  1  0.947700  0.258800  0.320390  1.0  0.7113
  C  C169  1  0.697600  0.252500  0.069300  1.0  0.685
  C  C170  1  0.766200  0.251740  0.035160  1.0  -0.1428
  C  C171  1  0.802700  0.316000  0.020980  1.0  -0.0263
  C  C172  1  0.865600  0.315370  0.989360  1.0  -0.0281
  C  C173  1  0.892600  0.250160  0.971240  1.0  -0.1239
  C  C174  1  0.855600  0.185690  0.985580  1.0  -0.0182
  C  C175  1  0.793000  0.186610  0.017160  1.0  -0.0149
  C  C176  1  0.960100  0.249360  0.936470  1.0  0.695
  C  C177  1  0.591900  0.486200  0.152390  1.0  0.1648
  C  C178  1  0.590900  0.560730  0.150480  1.0  -0.2011
  C  C179  1  0.573900  0.595580  0.111080  1.0  0.0823
  C  C180  1  0.559800  0.551420  0.075730  1.0  -0.2065
  C  C181  1  0.562200  0.476460  0.080590  1.0  0.1744
  C  C182  1  0.572000  0.675700  0.109210  1.0  0.0232
  C  C183  1  0.516200  0.715230  0.081220  1.0  0.1272
  C  C184  1  0.514800  0.793770  0.082000  1.0  0.1678
  C  C185  1  0.571000  0.833330  0.109690  1.0  -0.0017
  C  C186  1  0.625200  0.792560  0.134940  1.0  -0.1565
  C  C187  1  0.625100  0.716240  0.134660  1.0  -0.1695
  C  C188  1  0.572300  0.913340  0.112540  1.0  0.1061
  C  C189  1  0.649400  0.951300  0.119520  1.0  -0.2146
  C  C190  1  0.647500  0.025300  0.124730  1.0  0.18
  C  C191  1  0.501300  0.028740  0.117330  1.0  0.1788
  C  C192  1  0.497100  0.954470  0.111100  1.0  -0.1689
  C  C193  1  0.183000  0.242430  0.812160  1.0  0.7102
  C  C194  1  0.248600  0.241770  0.776100  1.0  -0.0997
  C  C195  1  0.279800  0.306900  0.759160  1.0  -0.0304
  C  C196  1  0.342900  0.306770  0.727660  1.0  -0.0482
  C  C197  1  0.376220  0.241460  0.712290  1.0  -0.1235
  C  C198  1  0.343900  0.176470  0.728560  1.0  -0.0378
  C  C199  1  0.280700  0.176630  0.760120  1.0  -0.034
  C  C200  1  0.447700  0.241200  0.679610  1.0  0.7115
  C  C201  1  0.197600  0.247500  0.930700  1.0  0.685
  C  C202  1  0.266200  0.248260  0.964840  1.0  -0.142
  C  C203  1  0.302700  0.184000  0.979020  1.0  -0.0265
  C  C204  1  0.365600  0.184630  0.010640  1.0  -0.0288
  C  C205  1  0.392600  0.249840  0.028760  1.0  -0.1241
  C  C206  1  0.355600  0.314310  0.014420  1.0  -0.0176
  C  C207  1  0.293000  0.313390  0.982840  1.0  -0.0174
  C  C208  1  0.460100  0.250640  0.063530  1.0  0.6946
  C  C209  1  0.091900  0.013800  0.847610  1.0  0.1638
  C  C210  1  0.090900  0.939270  0.849520  1.0  -0.1992
  C  C211  1  0.073900  0.904420  0.888920  1.0  0.0821
  C  C212  1  0.059800  0.948580  0.924270  1.0  -0.2071
  C  C213  1  0.062200  0.023540  0.919410  1.0  0.174
  C  C214  1  0.072000  0.824300  0.890790  1.0  0.0221
  C  C215  1  0.016200  0.784770  0.918780  1.0  0.1278
  C  C216  1  0.014800  0.706230  0.918000  1.0  0.1678
  C  C217  1  0.071000  0.666667  0.890310  1.0  -0.0021
  C  C218  1  0.125200  0.707440  0.865060  1.0  -0.1555
  C  C219  1  0.125100  0.783760  0.865340  1.0  -0.1706
  C  C220  1  0.072300  0.586660  0.887460  1.0  0.1061
  C  C221  1  0.149400  0.548700  0.880480  1.0  -0.2145
  C  C222  1  0.147500  0.474700  0.875270  1.0  0.1794
  C  C223  1  0.001300  0.471260  0.882670  1.0  0.179
  C  C224  1  0.997100  0.545530  0.888900  1.0  -0.1703
  C  C225  1  0.183000  0.257570  0.312160  1.0  0.7102
  C  C226  1  0.248600  0.258230  0.276100  1.0  -0.0997
  C  C227  1  0.279800  0.193100  0.259160  1.0  -0.0307
  C  C228  1  0.342900  0.193230  0.227660  1.0  -0.0473
  C  C229  1  0.376220  0.258540  0.212290  1.0  -0.1235
  C  C230  1  0.343900  0.323530  0.228560  1.0  -0.0401
  C  C231  1  0.280700  0.323370  0.260120  1.0  -0.0333
  C  C232  1  0.447700  0.258800  0.179610  1.0  0.7115
  C  C233  1  0.197600  0.252500  0.430700  1.0  0.6851
  C  C234  1  0.266200  0.251740  0.464840  1.0  -0.1418
  C  C235  1  0.302700  0.316000  0.479020  1.0  -0.0283
  C  C236  1  0.365600  0.315370  0.510640  1.0  -0.0268
  C  C237  1  0.392600  0.250160  0.528760  1.0  -0.1245
  C  C238  1  0.355600  0.185690  0.514420  1.0  -0.0185
  C  C239  1  0.293000  0.186610  0.482840  1.0  -0.0162
  C  C240  1  0.460100  0.249360  0.563530  1.0  0.6945
  C  C241  1  0.091900  0.486200  0.347610  1.0  0.1636
  C  C242  1  0.090900  0.560730  0.349520  1.0  -0.1997
  C  C243  1  0.073900  0.595580  0.388920  1.0  0.0828
  C  C244  1  0.059800  0.551420  0.424270  1.0  -0.2066
  C  C245  1  0.062200  0.476460  0.419410  1.0  0.1747
  C  C246  1  0.072000  0.675700  0.390790  1.0  0.0216
  C  C247  1  0.016200  0.715230  0.418780  1.0  0.1273
  C  C248  1  0.014800  0.793770  0.418000  1.0  0.1683
  C  C249  1  0.071000  0.833330  0.390310  1.0  -0.0017
  C  C250  1  0.125200  0.792560  0.365060  1.0  -0.1559
  C  C251  1  0.125100  0.716240  0.365340  1.0  -0.1702
  C  C252  1  0.072300  0.913340  0.387460  1.0  0.1061
  C  C253  1  0.149400  0.951300  0.380480  1.0  -0.2147
  C  C254  1  0.147500  0.025300  0.375270  1.0  0.1797
  C  C255  1  0.001300  0.028740  0.382670  1.0  0.1785
  C  C256  1  0.997100  0.954470  0.388900  1.0  -0.1694
  C  C257  1  0.683000  0.242430  0.687840  1.0  0.7086
  C  C258  1  0.748600  0.241770  0.723900  1.0  -0.0993
  C  C259  1  0.779800  0.306900  0.740840  1.0  -0.0327
  C  C260  1  0.842900  0.306770  0.772340  1.0  -0.0467
  C  C261  1  0.876220  0.241460  0.787710  1.0  -0.1228
  C  C262  1  0.843900  0.176470  0.771440  1.0  -0.0381
  C  C263  1  0.780700  0.176630  0.739880  1.0  -0.0351
  C  C264  1  0.947700  0.241200  0.820390  1.0  0.7113
  C  C265  1  0.697600  0.247500  0.569300  1.0  0.6848
  C  C266  1  0.766200  0.248260  0.535160  1.0  -0.1429
  C  C267  1  0.802700  0.184000  0.520980  1.0  -0.0275
  C  C268  1  0.865600  0.184630  0.489360  1.0  -0.0297
  C  C269  1  0.892600  0.249840  0.471240  1.0  -0.1237
  C  C270  1  0.855600  0.314310  0.485580  1.0  -0.0164
  C  C271  1  0.793000  0.313390  0.517160  1.0  -0.0135
  C  C272  1  0.960100  0.250640  0.436470  1.0  0.695
  C  C273  1  0.591900  0.013800  0.652390  1.0  0.1644
  C  C274  1  0.590900  0.939270  0.650480  1.0  -0.2015
  C  C275  1  0.573900  0.904420  0.611080  1.0  0.0817
  C  C276  1  0.559800  0.948580  0.575730  1.0  -0.206
  C  C277  1  0.562200  0.023540  0.580590  1.0  0.1742
  C  C278  1  0.572000  0.824300  0.609210  1.0  0.0238
  C  C279  1  0.516200  0.784770  0.581220  1.0  0.1279
  C  C280  1  0.514800  0.706230  0.582000  1.0  0.1674
  C  C281  1  0.571000  0.666667  0.609690  1.0  -0.0021
  C  C282  1  0.625200  0.707440  0.634940  1.0  -0.1558
  C  C283  1  0.625100  0.783760  0.634660  1.0  -0.1701
  C  C284  1  0.572300  0.586660  0.612540  1.0  0.1061
  C  C285  1  0.649400  0.548700  0.619520  1.0  -0.2143
  C  C286  1  0.647500  0.474700  0.624730  1.0  0.1797
  C  C287  1  0.501300  0.471260  0.617330  1.0  0.1793
  C  C288  1  0.497100  0.545530  0.611100  1.0  -0.1697
  C  C289  1  0.817000  0.742430  0.687840  1.0  0.7084
  C  C290  1  0.751400  0.741770  0.723900  1.0  -0.097
  C  C291  1  0.720200  0.806900  0.740840  1.0  -0.0317
  C  C292  1  0.657100  0.806770  0.772340  1.0  -0.0461
  C  C293  1  0.623780  0.741460  0.787710  1.0  -0.123
  C  C294  1  0.656100  0.676470  0.771440  1.0  -0.0387
  C  C295  1  0.719300  0.676630  0.739880  1.0  -0.0349
  C  C296  1  0.552300  0.741200  0.820390  1.0  0.7118
  C  C297  1  0.802400  0.747500  0.569300  1.0  0.6869
  C  C298  1  0.733800  0.748260  0.535160  1.0  -0.143
  C  C299  1  0.697300  0.684000  0.520980  1.0  -0.0282
  C  C300  1  0.634400  0.684630  0.489360  1.0  -0.0304
  C  C301  1  0.607400  0.749840  0.471240  1.0  -0.1252
  C  C302  1  0.644400  0.814310  0.485580  1.0  -0.017
  C  C303  1  0.707000  0.813390  0.517160  1.0  -0.014
  C  C304  1  0.539900  0.750640  0.436470  1.0  0.6946
  C  C305  1  0.908100  0.513800  0.652390  1.0  0.1632
  C  C306  1  0.909100  0.439270  0.650480  1.0  -0.2015
  C  C307  1  0.926100  0.404420  0.611080  1.0  0.0823
  C  C308  1  0.940200  0.448580  0.575730  1.0  -0.2063
  C  C309  1  0.937800  0.523540  0.580590  1.0  0.1743
  C  C310  1  0.928000  0.324300  0.609210  1.0  0.0233
  C  C311  1  0.983800  0.284770  0.581220  1.0  0.1275
  C  C312  1  0.985200  0.206230  0.582000  1.0  0.1695
  C  C313  1  0.929000  0.166670  0.609690  1.0  -0.0019
  C  C314  1  0.874800  0.207440  0.634940  1.0  -0.1558
  C  C315  1  0.874900  0.283760  0.634660  1.0  -0.1685
  C  C316  1  0.927700  0.086660  0.612540  1.0  0.1054
  C  C317  1  0.850600  0.048700  0.619520  1.0  -0.2135
  C  C318  1  0.852500  0.974700  0.624730  1.0  0.1801
  C  C319  1  0.998700  0.971260  0.617330  1.0  0.1796
  C  C320  1  0.002900  0.045530  0.611100  1.0  -0.17
  C  C321  1  0.317000  0.757570  0.312160  1.0  0.7096
  C  C322  1  0.251400  0.758230  0.276100  1.0  -0.0989
  C  C323  1  0.220200  0.693100  0.259160  1.0  -0.0316
  C  C324  1  0.157100  0.693230  0.227660  1.0  -0.0474
  C  C325  1  0.123780  0.758540  0.212290  1.0  -0.1241
  C  C326  1  0.156100  0.823530  0.228560  1.0  -0.0401
  C  C327  1  0.219300  0.823370  0.260120  1.0  -0.034
  C  C328  1  0.052300  0.758800  0.179610  1.0  0.7117
  C  C329  1  0.302400  0.752500  0.430700  1.0  0.687
  C  C330  1  0.233800  0.751740  0.464840  1.0  -0.1413
  C  C331  1  0.197300  0.816000  0.479020  1.0  -0.0263
  C  C332  1  0.134400  0.815370  0.510640  1.0  -0.0277
  C  C333  1  0.107400  0.750160  0.528760  1.0  -0.1256
  C  C334  1  0.144400  0.685690  0.514420  1.0  -0.0189
  C  C335  1  0.207000  0.686610  0.482840  1.0  -0.015
  C  C336  1  0.039900  0.749360  0.563530  1.0  0.6941
  C  C337  1  0.408100  0.986200  0.347610  1.0  0.1633
  C  C338  1  0.409100  0.060730  0.349520  1.0  -0.1992
  C  C339  1  0.426100  0.095580  0.388920  1.0  0.0829
  C  C340  1  0.440200  0.051420  0.424270  1.0  -0.2067
  C  C341  1  0.437800  0.976460  0.419410  1.0  0.1757
  C  C342  1  0.428000  0.175700  0.390790  1.0  0.0215
  C  C343  1  0.483800  0.215230  0.418780  1.0  0.1278
  C  C344  1  0.485200  0.293770  0.418000  1.0  0.1691
  C  C345  1  0.429000  0.333333  0.390310  1.0  -0.0007
  C  C346  1  0.374800  0.292560  0.365060  1.0  -0.1561
  C  C347  1  0.374900  0.216240  0.365340  1.0  -0.1689
  C  C348  1  0.427700  0.413340  0.387460  1.0  0.1058
  C  C349  1  0.350600  0.451300  0.380480  1.0  -0.2135
  C  C350  1  0.352500  0.525300  0.375270  1.0  0.1798
  C  C351  1  0.498700  0.528740  0.382670  1.0  0.1799
  C  C352  1  0.502900  0.454470  0.388900  1.0  -0.1692
  C  C353  1  0.317000  0.742430  0.812160  1.0  0.7094
  C  C354  1  0.251400  0.741770  0.776100  1.0  -0.0989
  C  C355  1  0.220200  0.806900  0.759160  1.0  -0.0305
  C  C356  1  0.157100  0.806770  0.727660  1.0  -0.0477
  C  C357  1  0.123780  0.741460  0.712290  1.0  -0.1242
  C  C358  1  0.156100  0.676470  0.728560  1.0  -0.0384
  C  C359  1  0.219300  0.676630  0.760120  1.0  -0.0349
  C  C360  1  0.052300  0.741200  0.679610  1.0  0.7117
  C  C361  1  0.302400  0.747500  0.930700  1.0  0.687
  C  C362  1  0.233800  0.748260  0.964840  1.0  -0.1412
  C  C363  1  0.197300  0.684000  0.979020  1.0  -0.0255
  C  C364  1  0.134400  0.684630  0.010640  1.0  -0.0296
  C  C365  1  0.107400  0.749840  0.028760  1.0  -0.1253
  C  C366  1  0.144400  0.814310  0.014420  1.0  -0.0183
  C  C367  1  0.207000  0.813390  0.982840  1.0  -0.0164
  C  C368  1  0.039900  0.750640  0.063530  1.0  0.6942
  C  C369  1  0.408100  0.513800  0.847610  1.0  0.1632
  C  C370  1  0.409100  0.439270  0.849520  1.0  -0.199
  C  C371  1  0.426100  0.404420  0.888920  1.0  0.0827
  C  C372  1  0.440200  0.448580  0.924270  1.0  -0.2074
  C  C373  1  0.437800  0.523540  0.919410  1.0  0.175
  C  C374  1  0.428000  0.324300  0.890790  1.0  0.022
  C  C375  1  0.483800  0.284770  0.918780  1.0  0.1278
  C  C376  1  0.485200  0.206230  0.918000  1.0  0.1696
  C  C377  1  0.429000  0.166670  0.890310  1.0  -0.0016
  C  C378  1  0.374800  0.207440  0.865060  1.0  -0.1557
  C  C379  1  0.374900  0.283760  0.865340  1.0  -0.1693
  C  C380  1  0.427700  0.086660  0.887460  1.0  0.1054
  C  C381  1  0.350600  0.048700  0.880480  1.0  -0.2137
  C  C382  1  0.352500  0.974700  0.875270  1.0  0.1798
  C  C383  1  0.498700  0.971260  0.882670  1.0  0.1795
  C  C384  1  0.502900  0.045530  0.888900  1.0  -0.1696
  C  C385  1  0.817000  0.757570  0.187840  1.0  0.7084
  C  C386  1  0.751400  0.758230  0.223900  1.0  -0.097
  C  C387  1  0.720200  0.693100  0.240840  1.0  -0.0321
  C  C388  1  0.657100  0.693230  0.272340  1.0  -0.0472
  C  C389  1  0.623780  0.758540  0.287710  1.0  -0.1229
  C  C390  1  0.656100  0.823530  0.271440  1.0  -0.0388
  C  C391  1  0.719300  0.823370  0.239880  1.0  -0.0337
  C  C392  1  0.552300  0.758800  0.320390  1.0  0.7117
  C  C393  1  0.802400  0.752500  0.069300  1.0  0.687
  C  C394  1  0.733800  0.751740  0.035160  1.0  -0.143
  C  C395  1  0.697300  0.816000  0.020980  1.0  -0.0256
  C  C396  1  0.634400  0.815370  0.989360  1.0  -0.0288
  C  C397  1  0.607400  0.750160  0.971240  1.0  -0.1251
  C  C398  1  0.644400  0.685690  0.985580  1.0  -0.0188
  C  C399  1  0.707000  0.686610  0.017160  1.0  -0.0153
  C  C400  1  0.539900  0.749360  0.936470  1.0  0.6946
  C  C401  1  0.908100  0.986200  0.152390  1.0  0.1638
  C  C402  1  0.909100  0.060730  0.150480  1.0  -0.2008
  C  C403  1  0.926100  0.095580  0.111080  1.0  0.0826
  C  C404  1  0.940200  0.051420  0.075730  1.0  -0.2065
  C  C405  1  0.937800  0.976460  0.080590  1.0  0.1749
  C  C406  1  0.928000  0.175700  0.109210  1.0  0.0228
  C  C407  1  0.983800  0.215230  0.081220  1.0  0.127
  C  C408  1  0.985200  0.293770  0.082000  1.0  0.1693
  C  C409  1  0.929000  0.333333  0.109690  1.0  -0.0013
  C  C410  1  0.874800  0.292560  0.134940  1.0  -0.1566
  C  C411  1  0.874900  0.216240  0.134660  1.0  -0.1679
  C  C412  1  0.927700  0.413340  0.112540  1.0  0.1058
  C  C413  1  0.850600  0.451300  0.119520  1.0  -0.2134
  C  C414  1  0.852500  0.525300  0.124730  1.0  0.1801
  C  C415  1  0.998700  0.528740  0.117330  1.0  0.1799
  C  C416  1  0.002900  0.454470  0.111100  1.0  -0.1697
  S  S417  1  0.413700  0.754770  0.029290  1.0  0.1013
  S  S418  1  0.913700  0.745230  0.970710  1.0  0.1021
  S  S419  1  0.913700  0.754770  0.470710  1.0  0.1018
  S  S420  1  0.413700  0.745230  0.529290  1.0  0.1015
  S  S421  1  0.086300  0.245230  0.529290  1.0  0.1005
  S  S422  1  0.586300  0.254770  0.470710  1.0  0.0994
  S  S423  1  0.586300  0.245230  0.970710  1.0  0.0997
  S  S424  1  0.086300  0.254770  0.029290  1.0  0.1003
  N  N425  1  0.576890  0.443890  0.118320  1.0  -0.3149
  N  N426  1  0.575180  0.064280  0.123720  1.0  -0.3108
  N  N427  1  0.460630  0.686900  0.052200  1.0  -0.3665
  N  N428  1  0.458110  0.822500  0.053690  1.0  -0.3257
  N  N429  1  0.076890  0.056110  0.881680  1.0  -0.314
  N  N430  1  0.075180  0.435720  0.876280  1.0  -0.3106
  N  N431  1  0.960630  0.813100  0.947800  1.0  -0.3664
  N  N432  1  0.958110  0.677500  0.946310  1.0  -0.3251
  N  N433  1  0.076890  0.443890  0.381680  1.0  -0.3152
  N  N434  1  0.075180  0.064280  0.376280  1.0  -0.3111
  N  N435  1  0.960630  0.686900  0.447800  1.0  -0.367
  N  N436  1  0.958110  0.822500  0.446310  1.0  -0.3254
  N  N437  1  0.576890  0.056110  0.618320  1.0  -0.3139
  N  N438  1  0.575180  0.435720  0.623720  1.0  -0.3106
  N  N439  1  0.460630  0.813100  0.552200  1.0  -0.3656
  N  N440  1  0.458110  0.677500  0.553690  1.0  -0.3254
  N  N441  1  0.923110  0.556110  0.618320  1.0  -0.3146
  N  N442  1  0.924820  0.935720  0.623720  1.0  -0.3105
  N  N443  1  0.039370  0.313100  0.552200  1.0  -0.3672
  N  N444  1  0.041890  0.177500  0.553690  1.0  -0.3245
  N  N445  1  0.423110  0.943890  0.381680  1.0  -0.3155
  N  N446  1  0.424820  0.564280  0.376280  1.0  -0.3115
  N  N447  1  0.539370  0.186900  0.447800  1.0  -0.3671
  N  N448  1  0.541890  0.322500  0.446310  1.0  -0.3229
  N  N449  1  0.423110  0.556110  0.881680  1.0  -0.3148
  N  N450  1  0.424820  0.935720  0.876280  1.0  -0.3104
  N  N451  1  0.539370  0.313100  0.947800  1.0  -0.3677
  N  N452  1  0.541890  0.177500  0.946310  1.0  -0.3242
  N  N453  1  0.923110  0.943890  0.118320  1.0  -0.3154
  N  N454  1  0.924820  0.564280  0.123720  1.0  -0.3112
  N  N455  1  0.039370  0.186900  0.052200  1.0  -0.3666
  N  N456  1  0.041890  0.322500  0.053690  1.0  -0.3234
  O  O457  1  0.656210  0.317840  0.174870  1.0  -0.5741
  O  O458  1  0.662410  0.196680  0.172890  1.0  -0.602
  O  O459  1  0.972710  0.319090  0.333870  1.0  -0.5816
  O  O460  1  0.978390  0.197770  0.330340  1.0  -0.6078
  O  O461  1  0.673580  0.313190  0.083240  1.0  -0.5902
  O  O462  1  0.667780  0.192340  0.081220  1.0  -0.5862
  O  O463  1  0.983010  0.309880  0.921950  1.0  -0.5749
  O  O464  1  0.989620  0.188740  0.925600  1.0  -0.5948
  O  O465  1  0.156210  0.182160  0.825130  1.0  -0.5732
  O  O466  1  0.162410  0.303320  0.827110  1.0  -0.6039
  O  O467  1  0.472710  0.180910  0.666130  1.0  -0.5809
  O  O468  1  0.478390  0.302230  0.669660  1.0  -0.6076
  O  O469  1  0.173580  0.186810  0.916760  1.0  -0.5897
  O  O470  1  0.167780  0.307660  0.918780  1.0  -0.5867
  O  O471  1  0.483010  0.190120  0.078050  1.0  -0.5747
  O  O472  1  0.489620  0.311260  0.074400  1.0  -0.5955
  O  O473  1  0.156210  0.317840  0.325130  1.0  -0.5734
  O  O474  1  0.162410  0.196680  0.327110  1.0  -0.6027
  O  O475  1  0.472710  0.319090  0.166130  1.0  -0.5815
  O  O476  1  0.478390  0.197770  0.169660  1.0  -0.6068
  O  O477  1  0.173580  0.313190  0.416760  1.0  -0.5901
  O  O478  1  0.167780  0.192340  0.418780  1.0  -0.5861
  O  O479  1  0.483010  0.309880  0.578050  1.0  -0.5748
  O  O480  1  0.489620  0.188740  0.574400  1.0  -0.5949
  O  O481  1  0.656210  0.182160  0.674870  1.0  -0.5732
  O  O482  1  0.662410  0.303320  0.672890  1.0  -0.6036
  O  O483  1  0.972710  0.180910  0.833870  1.0  -0.5807
  O  O484  1  0.978390  0.302230  0.830340  1.0  -0.6076
  O  O485  1  0.673580  0.186810  0.583240  1.0  -0.5898
  O  O486  1  0.667780  0.307660  0.581220  1.0  -0.5867
  O  O487  1  0.983010  0.190120  0.421950  1.0  -0.575
  O  O488  1  0.989620  0.311260  0.425600  1.0  -0.5954
  O  O489  1  0.843790  0.682160  0.674870  1.0  -0.5726
  O  O490  1  0.837590  0.803320  0.672890  1.0  -0.6045
  O  O491  1  0.527290  0.680910  0.833870  1.0  -0.5811
  O  O492  1  0.521610  0.802230  0.830340  1.0  -0.6078
  O  O493  1  0.826420  0.686810  0.583240  1.0  -0.5903
  O  O494  1  0.832220  0.807660  0.581220  1.0  -0.5868
  O  O495  1  0.516990  0.690120  0.421950  1.0  -0.5747
  O  O496  1  0.510380  0.811260  0.425600  1.0  -0.5947
  O  O497  1  0.343790  0.817840  0.325130  1.0  -0.5736
  O  O498  1  0.337590  0.696680  0.327110  1.0  -0.6029
  O  O499  1  0.027290  0.819090  0.166130  1.0  -0.5803
  O  O500  1  0.021610  0.697770  0.169660  1.0  -0.6074
  O  O501  1  0.326420  0.813190  0.416760  1.0  -0.5906
  O  O502  1  0.332220  0.692340  0.418780  1.0  -0.5863
  O  O503  1  0.016990  0.809880  0.578050  1.0  -0.5743
  O  O504  1  0.010380  0.688740  0.574400  1.0  -0.5945
  O  O505  1  0.343790  0.682160  0.825130  1.0  -0.5727
  O  O506  1  0.337590  0.803320  0.827110  1.0  -0.6048
  O  O507  1  0.027290  0.680910  0.666130  1.0  -0.5802
  O  O508  1  0.021610  0.802230  0.669660  1.0  -0.6069
  O  O509  1  0.326420  0.686810  0.916760  1.0  -0.5901
  O  O510  1  0.332220  0.807660  0.918780  1.0  -0.5868
  O  O511  1  0.016990  0.690120  0.078050  1.0  -0.5746
  O  O512  1  0.010380  0.811260  0.074400  1.0  -0.5948
  O  O513  1  0.843790  0.817840  0.174870  1.0  -0.5733
  O  O514  1  0.837590  0.696680  0.172890  1.0  -0.603
  O  O515  1  0.527290  0.819090  0.333870  1.0  -0.5803
  O  O516  1  0.521610  0.697770  0.330340  1.0  -0.6078
  O  O517  1  0.826420  0.813190  0.083240  1.0  -0.5906
  O  O518  1  0.832220  0.692340  0.081220  1.0  -0.5864
  O  O519  1  0.516990  0.809880  0.921950  1.0  -0.5743
  O  O520  1  0.510380  0.688740  0.925600  1.0  -0.5945
