# generated using pymatgen
data_CuH9C21NO8
_symmetry_space_group_name_H-M   'P 1'
_cell_length_a   22.42580000
_cell_length_b   22.42580000
_cell_length_c   10.91900000
_cell_angle_alpha   90.00000000
_cell_angle_beta   90.00000000
_cell_angle_gamma   120.00000000
_symmetry_Int_Tables_number   1
_chemical_formula_structural   CuH9C21NO8
_chemical_formula_sum   'Cu6 H54 C126 N6 O48'
_cell_volume   4755.64455247
_cell_formula_units_Z   6
loop_
 _symmetry_equiv_pos_site_id
 _symmetry_equiv_pos_as_xyz
  1  'x, y, z'
loop_
 _atom_site_type_symbol
 _atom_site_label
 _atom_site_symmetry_multiplicity
 _atom_site_fract_x
 _atom_site_fract_y
 _atom_site_fract_z
 _atom_site_occupancy
 _atom_site_charge
  Cu  Cu1  1  0.336960  0.000000  0.333333  1.0  1.0294
  Cu  Cu2  1  0.000000  0.336960  0.666667  1.0  1.0291
  Cu  Cu3  1  0.663040  0.663040  0.000000  1.0  1.029
  Cu  Cu4  1  0.336790  0.336790  0.000000  1.0  1.0462
  Cu  Cu5  1  0.663210  0.000000  0.333333  1.0  1.0458
  Cu  Cu6  1  0.000000  0.663210  0.666667  1.0  1.0465
  H  H7  1  0.396200  0.199300  0.166900  1.0  0.1401
  H  H8  1  0.574100  0.199500  0.207900  1.0  0.0965
  H  H9  1  0.576300  0.369000  0.089100  1.0  0.1417
  H  H10  1  0.688300  0.419900  0.124600  1.0  0.1058
  H  H11  1  0.798800  0.467200  0.098600  1.0  0.1426
  H  H12  1  0.849300  0.397000  0.074600  1.0  0.1527
  H  H13  1  0.718700  0.182000  0.162400  1.0  0.119
  H  H14  1  0.853700  0.140200  0.992400  1.0  0.139
  H  H15  1  0.857700  0.320500  0.934200  1.0  0.1302
  H  H16  1  0.800700  0.196900  0.500230  1.0  0.1402
  H  H17  1  0.800500  0.374600  0.541230  1.0  0.0976
  H  H18  1  0.631000  0.207300  0.422430  1.0  0.1403
  H  H19  1  0.580100  0.268400  0.457930  1.0  0.1077
  H  H20  1  0.532800  0.331600  0.431930  1.0  0.1432
  H  H21  1  0.603000  0.452300  0.407930  1.0  0.1519
  H  H22  1  0.818000  0.536700  0.495730  1.0  0.1188
  H  H23  1  0.859800  0.713500  0.325730  1.0  0.1385
  H  H24  1  0.679500  0.537200  0.267530  1.0  0.1302
  H  H25  1  0.803100  0.603800  0.833570  1.0  0.1411
  H  H26  1  0.625400  0.425900  0.874570  1.0  0.0964
  H  H27  1  0.792700  0.423700  0.755770  1.0  0.1413
  H  H28  1  0.731600  0.311700  0.791270  1.0  0.1074
  H  H29  1  0.668400  0.201200  0.765270  1.0  0.1427
  H  H30  1  0.547700  0.150700  0.741270  1.0  0.1525
  H  H31  1  0.463300  0.281300  0.829070  1.0  0.1175
  H  H32  1  0.286500  0.146300  0.659070  1.0  0.1406
  H  H33  1  0.462800  0.142300  0.600870  1.0  0.1301
  H  H34  1  0.199300  0.396200  0.833100  1.0  0.1413
  H  H35  1  0.199500  0.574100  0.792100  1.0  0.0963
  H  H36  1  0.369000  0.576300  0.910900  1.0  0.141
  H  H37  1  0.419900  0.688300  0.875400  1.0  0.1078
  H  H38  1  0.467200  0.798800  0.901400  1.0  0.1434
  H  H39  1  0.397000  0.849300  0.925400  1.0  0.1531
  H  H40  1  0.182000  0.718700  0.837600  1.0  0.1185
  H  H41  1  0.140200  0.853700  0.007600  1.0  0.1398
  H  H42  1  0.320500  0.857700  0.065800  1.0  0.1296
  H  H43  1  0.196900  0.800700  0.499770  1.0  0.1406
  H  H44  1  0.374600  0.800500  0.458770  1.0  0.0964
  H  H45  1  0.207300  0.631000  0.577570  1.0  0.1415
  H  H46  1  0.268400  0.580100  0.542070  1.0  0.1056
  H  H47  1  0.331600  0.532800  0.568070  1.0  0.1442
  H  H48  1  0.452300  0.603000  0.592070  1.0  0.1529
  H  H49  1  0.536700  0.818000  0.504270  1.0  0.1191
  H  H50  1  0.713500  0.859800  0.674270  1.0  0.1397
  H  H51  1  0.537200  0.679500  0.732470  1.0  0.129
  H  H52  1  0.603800  0.803100  0.166430  1.0  0.1411
  H  H53  1  0.425900  0.625400  0.125430  1.0  0.0979
  H  H54  1  0.423700  0.792700  0.244230  1.0  0.14
  H  H55  1  0.311700  0.731600  0.208730  1.0  0.1072
  H  H56  1  0.201200  0.668400  0.234730  1.0  0.1435
  H  H57  1  0.150700  0.547700  0.258730  1.0  0.1521
  H  H58  1  0.281300  0.463300  0.170930  1.0  0.118
  H  H59  1  0.146300  0.286500  0.340930  1.0  0.1397
  H  H60  1  0.142300  0.462800  0.399130  1.0  0.1297
  C  C61  1  0.442700  0.326000  0.079900  1.0  0.7098
  C  C62  1  0.480800  0.289900  0.123100  1.0  -0.1048
  C  C63  1  0.444100  0.222500  0.163800  1.0  0.0176
  C  C64  1  0.481600  0.189400  0.201100  1.0  -0.1459
  C  C65  1  0.550500  0.222100  0.185100  1.0  -0.0017
  C  C66  1  0.585900  0.284900  0.138400  1.0  0.02
  C  C67  1  0.551500  0.323000  0.112500  1.0  -0.0789
  C  C68  1  0.440800  0.116900  0.246100  1.0  0.6867
  C  C69  1  0.662900  0.321500  0.111000  1.0  0.1102
  C  C70  1  0.706900  0.391500  0.112500  1.0  -0.0865
  C  C71  1  0.771500  0.419400  0.098300  1.0  -0.0722
  C  C72  1  0.801900  0.378000  0.081900  1.0  -0.1419
  C  C73  1  0.757600  0.307800  0.077400  1.0  0.2339
  C  C74  1  0.782500  0.258500  0.050000  1.0  0.0007
  C  C75  1  0.753800  0.194400  0.105400  1.0  -0.0203
  C  C76  1  0.776600  0.147700  0.077400  1.0  -0.1009
  C  C77  1  0.834000  0.167900  0.000600  1.0  0.0314
  C  C78  1  0.860300  0.228600  0.938200  1.0  -0.08
  C  C79  1  0.836300  0.276900  0.969400  1.0  -0.0175
  C  C80  1  0.748200  0.081300  0.149400  1.0  0.7128
  C  C81  1  0.919400  0.251500  0.851900  1.0  0.6881
  C  C82  1  0.674000  0.116700  0.413230  1.0  0.7073
  C  C83  1  0.710100  0.190900  0.456430  1.0  -0.1041
  C  C84  1  0.777500  0.221600  0.497130  1.0  0.0185
  C  C85  1  0.810600  0.292200  0.534430  1.0  -0.1453
  C  C86  1  0.777900  0.328400  0.518430  1.0  -0.0027
  C  C87  1  0.715100  0.301000  0.471730  1.0  0.0183
  C  C88  1  0.677000  0.228500  0.445830  1.0  -0.0804
  C  C89  1  0.883100  0.323900  0.579430  1.0  0.6892
  C  C90  1  0.678500  0.341400  0.444330  1.0  0.1095
  C  C91  1  0.608500  0.315400  0.445830  1.0  -0.083
  C  C92  1  0.580600  0.352100  0.431630  1.0  -0.0758
  C  C93  1  0.622000  0.423900  0.415230  1.0  -0.1411
  C  C94  1  0.692200  0.449800  0.410730  1.0  0.2348
  C  C95  1  0.741500  0.524000  0.383330  1.0  0.0019
  C  C96  1  0.805600  0.559400  0.438730  1.0  -0.0202
  C  C97  1  0.852300  0.628900  0.410730  1.0  -0.1018
  C  C98  1  0.832100  0.666100  0.333930  1.0  0.0329
  C  C99  1  0.771400  0.631700  0.271530  1.0  -0.0804
  C  C100  1  0.723100  0.559400  0.302730  1.0  -0.0175
  C  C101  1  0.918700  0.666900  0.482730  1.0  0.7095
  C  C102  1  0.748500  0.667900  0.185230  1.0  0.6869
  C  C103  1  0.883300  0.557300  0.746570  1.0  0.7094
  C  C104  1  0.809100  0.519200  0.789770  1.0  -0.1056
  C  C105  1  0.778400  0.555900  0.830470  1.0  0.0196
  C  C106  1  0.707800  0.518400  0.867770  1.0  -0.1478
  C  C107  1  0.671600  0.449500  0.851770  1.0  -0.0032
  C  C108  1  0.699000  0.414100  0.805070  1.0  0.0204
  C  C109  1  0.771500  0.448500  0.779170  1.0  -0.0778
  C  C110  1  0.676100  0.559200  0.912770  1.0  0.688
  C  C111  1  0.658600  0.337100  0.777670  1.0  0.1098
  C  C112  1  0.684600  0.293100  0.779170  1.0  -0.0862
  C  C113  1  0.647900  0.228500  0.764970  1.0  -0.0729
  C  C114  1  0.576100  0.198100  0.748570  1.0  -0.1419
  C  C115  1  0.550200  0.242400  0.744070  1.0  0.2334
  C  C116  1  0.476000  0.217500  0.716670  1.0  0.0006
  C  C117  1  0.440600  0.246200  0.772070  1.0  -0.0203
  C  C118  1  0.371100  0.223400  0.744070  1.0  -0.0988
  C  C119  1  0.333900  0.166000  0.667270  1.0  0.028
  C  C120  1  0.368300  0.139700  0.604870  1.0  -0.0802
  C  C121  1  0.440600  0.163700  0.636070  1.0  -0.0181
  C  C122  1  0.333100  0.251800  0.816070  1.0  0.7106
  C  C123  1  0.332100  0.080600  0.518570  1.0  0.6881
  C  C124  1  0.326000  0.442700  0.920100  1.0  0.7105
  C  C125  1  0.289900  0.480800  0.876900  1.0  -0.1048
  C  C126  1  0.222500  0.444100  0.836200  1.0  0.0201
  C  C127  1  0.189400  0.481600  0.798900  1.0  -0.1481
  C  C128  1  0.222100  0.550500  0.814900  1.0  -0.001
  C  C129  1  0.284900  0.585900  0.861600  1.0  0.0213
  C  C130  1  0.323000  0.551500  0.887500  1.0  -0.0778
  C  C131  1  0.116900  0.440800  0.753900  1.0  0.6873
  C  C132  1  0.321500  0.662900  0.889000  1.0  0.1092
  C  C133  1  0.391500  0.706900  0.887500  1.0  -0.0869
  C  C134  1  0.419400  0.771500  0.901700  1.0  -0.0711
  C  C135  1  0.378000  0.801900  0.918100  1.0  -0.139
  C  C136  1  0.307800  0.757600  0.922600  1.0  0.234
  C  C137  1  0.258500  0.782500  0.950000  1.0  0.0002
  C  C138  1  0.194400  0.753800  0.894600  1.0  -0.0201
  C  C139  1  0.147700  0.776600  0.922600  1.0  -0.0988
  C  C140  1  0.167900  0.834000  0.999400  1.0  0.0275
  C  C141  1  0.228600  0.860300  0.061800  1.0  -0.0791
  C  C142  1  0.276900  0.836300  0.030600  1.0  -0.0177
  C  C143  1  0.081300  0.748200  0.850600  1.0  0.7106
  C  C144  1  0.251500  0.919400  0.148100  1.0  0.6876
  C  C145  1  0.116700  0.674000  0.586770  1.0  0.711
  C  C146  1  0.190900  0.710100  0.543570  1.0  -0.105
  C  C147  1  0.221600  0.777500  0.502870  1.0  0.0175
  C  C148  1  0.292200  0.810600  0.465570  1.0  -0.1462
  C  C149  1  0.328400  0.777900  0.481570  1.0  -0.001
  C  C150  1  0.301000  0.715100  0.528270  1.0  0.0196
  C  C151  1  0.228500  0.677000  0.554170  1.0  -0.0785
  C  C152  1  0.323900  0.883100  0.420570  1.0  0.6875
  C  C153  1  0.341400  0.678500  0.555670  1.0  0.1104
  C  C154  1  0.315400  0.608500  0.554170  1.0  -0.0854
  C  C155  1  0.352100  0.580600  0.568370  1.0  -0.0719
  C  C156  1  0.423900  0.622000  0.584770  1.0  -0.1417
  C  C157  1  0.449800  0.692200  0.589270  1.0  0.2347
  C  C158  1  0.524000  0.741500  0.616670  1.0  0.0007
  C  C159  1  0.559400  0.805600  0.561270  1.0  -0.0208
  C  C160  1  0.628900  0.852300  0.589270  1.0  -0.1006
  C  C161  1  0.666100  0.832100  0.666070  1.0  0.0311
  C  C162  1  0.631700  0.771400  0.728470  1.0  -0.0799
  C  C163  1  0.559400  0.723100  0.697270  1.0  -0.0155
  C  C164  1  0.666900  0.918700  0.517270  1.0  0.7124
  C  C165  1  0.667900  0.748500  0.814770  1.0  0.6885
  C  C166  1  0.557300  0.883300  0.253430  1.0  0.7094
  C  C167  1  0.519200  0.809100  0.210230  1.0  -0.103
  C  C168  1  0.555900  0.778400  0.169530  1.0  0.0189
  C  C169  1  0.518400  0.707800  0.132230  1.0  -0.1442
  C  C170  1  0.449500  0.671600  0.148230  1.0  -0.0004
  C  C171  1  0.414100  0.699000  0.194930  1.0  0.0189
  C  C172  1  0.448500  0.771500  0.220830  1.0  -0.0795
  C  C173  1  0.559200  0.676100  0.087230  1.0  0.6888
  C  C174  1  0.337100  0.658600  0.222330  1.0  0.1103
  C  C175  1  0.293100  0.684600  0.220830  1.0  -0.0824
  C  C176  1  0.228500  0.647900  0.235030  1.0  -0.0758
  C  C177  1  0.198100  0.576100  0.251430  1.0  -0.1407
  C  C178  1  0.242400  0.550200  0.255930  1.0  0.2343
  C  C179  1  0.217500  0.476000  0.283330  1.0  0.0012
  C  C180  1  0.246200  0.440600  0.227930  1.0  -0.0198
  C  C181  1  0.223400  0.371100  0.255930  1.0  -0.1007
  C  C182  1  0.166000  0.333900  0.332730  1.0  0.0333
  C  C183  1  0.139700  0.368300  0.395130  1.0  -0.0806
  C  C184  1  0.163700  0.440600  0.363930  1.0  -0.0159
  C  C185  1  0.251800  0.333100  0.183930  1.0  0.7093
  C  C186  1  0.080600  0.332100  0.481430  1.0  0.6864
  N  N187  1  0.689300  0.278900  0.097800  1.0  -0.4268
  N  N188  1  0.721100  0.410400  0.431130  1.0  -0.4223
  N  N189  1  0.589600  0.310700  0.764470  1.0  -0.423
  N  N190  1  0.278900  0.689300  0.902200  1.0  -0.4246
  N  N191  1  0.410400  0.721100  0.568870  1.0  -0.4249
  N  N192  1  0.310700  0.589600  0.235530  1.0  -0.4219
  O  O193  1  0.949300  0.315200  0.819800  1.0  -0.5662
  O  O194  1  0.375900  0.289600  0.087000  1.0  -0.5689
  O  O195  1  0.472300  0.384500  0.042700  1.0  -0.4811
  O  O196  1  0.376000  0.088700  0.246500  1.0  -0.5585
  O  O197  1  0.471400  0.086000  0.281900  1.0  -0.5368
  O  O198  1  0.687000  0.053500  0.183200  1.0  -0.5403
  O  O199  1  0.786700  0.058500  0.180200  1.0  -0.4112
  O  O200  1  0.935200  0.208400  0.818200  1.0  -0.4809
  O  O201  1  0.684800  0.634100  0.153130  1.0  -0.565
  O  O202  1  0.710400  0.086300  0.420330  1.0  -0.5686
  O  O203  1  0.615500  0.087800  0.376030  1.0  -0.4865
  O  O204  1  0.911300  0.287300  0.579830  1.0  -0.5566
  O  O205  1  0.914000  0.385400  0.615230  1.0  -0.5343
  O  O206  1  0.946500  0.633500  0.516530  1.0  -0.5404
  O  O207  1  0.941500  0.728200  0.513530  1.0  -0.4082
  O  O208  1  0.791600  0.726800  0.151530  1.0  -0.4772
  O  O209  1  0.365900  0.050700  0.486470  1.0  -0.5641
  O  O210  1  0.913700  0.624100  0.753670  1.0  -0.5675
  O  O211  1  0.912200  0.527700  0.709370  1.0  -0.4882
  O  O212  1  0.712700  0.624000  0.913170  1.0  -0.5561
  O  O213  1  0.614600  0.528600  0.948570  1.0  -0.5391
  O  O214  1  0.366500  0.313000  0.849870  1.0  -0.5448
  O  O215  1  0.271800  0.213300  0.846870  1.0  -0.4037
  O  O216  1  0.273200  0.064800  0.484870  1.0  -0.4871
  O  O217  1  0.315200  0.949300  0.180200  1.0  -0.5636
  O  O218  1  0.289600  0.375900  0.913000  1.0  -0.5669
  O  O219  1  0.384500  0.472300  0.957300  1.0  -0.4899
  O  O220  1  0.088700  0.376000  0.753500  1.0  -0.5568
  O  O221  1  0.086000  0.471400  0.718100  1.0  -0.5379
  O  O222  1  0.053500  0.687000  0.816800  1.0  -0.5432
  O  O223  1  0.058500  0.786700  0.819800  1.0  -0.4037
  O  O224  1  0.208400  0.935200  0.181800  1.0  -0.4827
  O  O225  1  0.634100  0.684800  0.846870  1.0  -0.5669
  O  O226  1  0.086300  0.710400  0.579670  1.0  -0.5674
  O  O227  1  0.087800  0.615500  0.623970  1.0  -0.4813
  O  O228  1  0.287300  0.911300  0.420170  1.0  -0.5578
  O  O229  1  0.385400  0.914000  0.384770  1.0  -0.539
  O  O230  1  0.633500  0.946500  0.483470  1.0  -0.5417
  O  O231  1  0.728200  0.941500  0.486470  1.0  -0.4135
  O  O232  1  0.726800  0.791600  0.848470  1.0  -0.4813
  O  O233  1  0.050700  0.365900  0.513530  1.0  -0.5649
  O  O234  1  0.624100  0.913700  0.246330  1.0  -0.5677
  O  O235  1  0.527700  0.912200  0.290630  1.0  -0.4881
  O  O236  1  0.624000  0.712700  0.086830  1.0  -0.557
  O  O237  1  0.528600  0.614600  0.051430  1.0  -0.5361
  O  O238  1  0.313000  0.366500  0.150130  1.0  -0.5393
  O  O239  1  0.213300  0.271800  0.153130  1.0  -0.4044
  O  O240  1  0.064800  0.273200  0.515130  1.0  -0.4855
