# generated using pymatgen
data_ZnH8C14N2O5
_symmetry_space_group_name_H-M   'P 1'
_cell_length_a   13.26500000
_cell_length_b   13.98300000
_cell_length_c   14.18900000
_cell_angle_alpha   112.06600000
_cell_angle_beta   90.00000000
_cell_angle_gamma   90.00000000
_symmetry_Int_Tables_number   1
_chemical_formula_structural   ZnH8C14N2O5
_chemical_formula_sum   'Zn4 H32 C56 N8 O20'
_cell_volume   2439.06179271
_cell_formula_units_Z   4
loop_
 _symmetry_equiv_pos_site_id
 _symmetry_equiv_pos_as_xyz
  1  'x, y, z'
loop_
 _atom_site_type_symbol
 _atom_site_label
 _atom_site_symmetry_multiplicity
 _atom_site_fract_x
 _atom_site_fract_y
 _atom_site_fract_z
 _atom_site_occupancy
 _atom_site_charge
  Zn  Zn1  1  0.553140  0.400330  0.948970  1.0  0.9385
  Zn  Zn2  1  0.053140  0.599670  0.551030  1.0  0.9385
  Zn  Zn3  1  0.446860  0.599670  0.051030  1.0  0.9379
  Zn  Zn4  1  0.946860  0.400330  0.448970  1.0  0.938
  H  H5  1  0.257700  0.722500  0.087800  1.0  0.1137
  H  H6  1  0.205900  0.894900  0.153800  1.0  0.1239
  H  H7  1  0.493200  0.986000  0.215100  1.0  0.1277
  H  H8  1  0.542500  0.814300  0.159500  1.0  0.0991
  H  H9  1  0.439900  0.256800  0.135500  1.0  0.1143
  H  H10  1  0.289900  0.517800  0.290800  1.0  0.113
  H  H11  1  0.238200  0.260100  0.347900  1.0  0.1217
  H  H12  1  0.429500  0.117700  0.199200  1.0  0.3013
  H  H13  1  0.757700  0.277500  0.412200  1.0  0.1138
  H  H14  1  0.705900  0.105100  0.346200  1.0  0.1234
  H  H15  1  0.993200  0.014000  0.284900  1.0  0.1283
  H  H16  1  0.042500  0.185700  0.340500  1.0  0.0993
  H  H17  1  0.939900  0.743200  0.364500  1.0  0.1148
  H  H18  1  0.789900  0.482200  0.209200  1.0  0.1135
  H  H19  1  0.738200  0.739900  0.152100  1.0  0.1215
  H  H20  1  0.929500  0.882300  0.300800  1.0  0.3007
  H  H21  1  0.742300  0.277500  0.912200  1.0  0.1138
  H  H22  1  0.794100  0.105100  0.846200  1.0  0.1217
  H  H23  1  0.506800  0.014000  0.784900  1.0  0.1278
  H  H24  1  0.457500  0.185700  0.840500  1.0  0.099
  H  H25  1  0.560100  0.743200  0.864500  1.0  0.1145
  H  H26  1  0.710100  0.482200  0.709200  1.0  0.1133
  H  H27  1  0.761800  0.739900  0.652100  1.0  0.1213
  H  H28  1  0.570500  0.882300  0.800800  1.0  0.3016
  H  H29  1  0.242300  0.722500  0.587800  1.0  0.114
  H  H30  1  0.294100  0.894900  0.653800  1.0  0.1223
  H  H31  1  0.006800  0.986000  0.715100  1.0  0.1278
  H  H32  1  0.957500  0.814300  0.659500  1.0  0.0998
  H  H33  1  0.060100  0.256800  0.635500  1.0  0.1142
  H  H34  1  0.210100  0.517800  0.790800  1.0  0.1129
  H  H35  1  0.261800  0.260100  0.847900  1.0  0.1215
  H  H36  1  0.070500  0.117700  0.699200  1.0  0.3019
  C  C37  1  0.304700  0.775100  0.115200  1.0  0.1441
  C  C38  1  0.273900  0.878600  0.153200  1.0  -0.1364
  C  C39  1  0.344000  0.955300  0.189400  1.0  -0.0425
  C  C40  1  0.445800  0.933400  0.191400  1.0  -0.1798
  C  C41  1  0.474800  0.830500  0.156900  1.0  0.1727
  C  C42  1  0.304700  0.065600  0.225400  1.0  0.5236
  C  C43  1  0.344500  0.241800  0.238300  1.0  0.1876
  C  C44  1  0.393300  0.292500  0.185300  1.0  -0.1411
  C  C45  1  0.374800  0.395900  0.204500  1.0  -0.1263
  C  C46  1  0.303100  0.448700  0.277800  1.0  -0.0037
  C  C47  1  0.251900  0.399600  0.330800  1.0  -0.0902
  C  C48  1  0.272100  0.293900  0.312000  1.0  -0.1424
  C  C49  1  0.423700  0.443800  0.137300  1.0  0.7023
  C  C50  1  0.167000  0.448100  0.402100  1.0  0.709
  C  C51  1  0.804700  0.224900  0.384800  1.0  0.1438
  C  C52  1  0.773900  0.121400  0.346800  1.0  -0.1353
  C  C53  1  0.844000  0.044700  0.310600  1.0  -0.0429
  C  C54  1  0.945800  0.066600  0.308600  1.0  -0.1793
  C  C55  1  0.974800  0.169500  0.343100  1.0  0.1718
  C  C56  1  0.804700  0.934400  0.274600  1.0  0.5236
  C  C57  1  0.844500  0.758200  0.261700  1.0  0.1877
  C  C58  1  0.893300  0.707500  0.314700  1.0  -0.1411
  C  C59  1  0.874800  0.604100  0.295500  1.0  -0.1275
  C  C60  1  0.803100  0.551300  0.222200  1.0  -0.0014
  C  C61  1  0.751900  0.600400  0.169200  1.0  -0.0912
  C  C62  1  0.772100  0.706100  0.188000  1.0  -0.1412
  C  C63  1  0.923700  0.556200  0.362700  1.0  0.7044
  C  C64  1  0.667000  0.551900  0.097900  1.0  0.7091
  C  C65  1  0.695300  0.224900  0.884800  1.0  0.1446
  C  C66  1  0.726100  0.121400  0.846800  1.0  -0.133
  C  C67  1  0.656000  0.044700  0.810600  1.0  -0.0433
  C  C68  1  0.554200  0.066600  0.808600  1.0  -0.1786
  C  C69  1  0.525200  0.169500  0.843100  1.0  0.1708
  C  C70  1  0.695300  0.934400  0.774600  1.0  0.5288
  C  C71  1  0.655500  0.758200  0.761700  1.0  0.1879
  C  C72  1  0.606700  0.707500  0.814700  1.0  -0.1407
  C  C73  1  0.625200  0.604100  0.795500  1.0  -0.1275
  C  C74  1  0.696900  0.551300  0.722200  1.0  -0.0002
  C  C75  1  0.748100  0.600400  0.669200  1.0  -0.0906
  C  C76  1  0.727900  0.706100  0.688000  1.0  -0.1412
  C  C77  1  0.576300  0.556200  0.862700  1.0  0.7035
  C  C78  1  0.833000  0.551900  0.597900  1.0  0.7092
  C  C79  1  0.195300  0.775100  0.615200  1.0  0.1445
  C  C80  1  0.226100  0.878600  0.653200  1.0  -0.1339
  C  C81  1  0.156000  0.955300  0.689400  1.0  -0.0432
  C  C82  1  0.054200  0.933400  0.691400  1.0  -0.179
  C  C83  1  0.025200  0.830500  0.656900  1.0  0.1716
  C  C84  1  0.195300  0.065600  0.725400  1.0  0.5295
  C  C85  1  0.155500  0.241800  0.738300  1.0  0.1877
  C  C86  1  0.106700  0.292500  0.685300  1.0  -0.1404
  C  C87  1  0.125200  0.395900  0.704500  1.0  -0.1264
  C  C88  1  0.196900  0.448700  0.777800  1.0  -0.0027
  C  C89  1  0.248100  0.399600  0.830800  1.0  -0.0899
  C  C90  1  0.227900  0.293900  0.812000  1.0  -0.1418
  C  C91  1  0.076300  0.443800  0.637300  1.0  0.7015
  C  C92  1  0.333000  0.448100  0.902100  1.0  0.7092
  N  N93  1  0.405900  0.751880  0.118830  1.0  -0.3187
  N  N94  1  0.368760  0.137130  0.217920  1.0  -0.4094
  N  N95  1  0.905900  0.248120  0.381170  1.0  -0.3191
  N  N96  1  0.868760  0.862870  0.282080  1.0  -0.4094
  N  N97  1  0.594100  0.248120  0.881170  1.0  -0.3204
  N  N98  1  0.631240  0.862870  0.782080  1.0  -0.4109
  N  N99  1  0.094100  0.751880  0.618830  1.0  -0.3195
  N  N100  1  0.131240  0.137130  0.717920  1.0  -0.4108
  O  O101  1  0.216720  0.082000  0.252480  1.0  -0.5066
  O  O102  1  0.486720  0.390670  0.076090  1.0  -0.5961
  O  O103  1  0.397240  0.534400  0.149200  1.0  -0.5967
  O  O104  1  0.176530  0.540680  0.461510  1.0  -0.5994
  O  O105  1  0.091740  0.394070  0.397680  1.0  -0.6079
  O  O106  1  0.716720  0.918000  0.247520  1.0  -0.5054
  O  O107  1  0.986720  0.609330  0.423910  1.0  -0.5953
  O  O108  1  0.897240  0.465600  0.350800  1.0  -0.598
  O  O109  1  0.676530  0.459320  0.038490  1.0  -0.5986
  O  O110  1  0.591740  0.605930  0.102320  1.0  -0.6075
  O  O111  1  0.783280  0.918000  0.747520  1.0  -0.5068
  O  O112  1  0.513280  0.609330  0.923910  1.0  -0.5958
  O  O113  1  0.602760  0.465600  0.850800  1.0  -0.5982
  O  O114  1  0.823470  0.459320  0.538490  1.0  -0.5993
  O  O115  1  0.908260  0.605930  0.602320  1.0  -0.6072
  O  O116  1  0.283280  0.082000  0.752480  1.0  -0.5072
  O  O117  1  0.013280  0.390670  0.576090  1.0  -0.5956
  O  O118  1  0.102760  0.534400  0.649200  1.0  -0.5965
  O  O119  1  0.323470  0.540680  0.961510  1.0  -0.6009
  O  O120  1  0.408260  0.394070  0.897680  1.0  -0.607
