# generated using pymatgen
data_Mg3Ni2PH9C14NO16
_symmetry_space_group_name_H-M   'P 1'
_cell_length_a   28.01340000
_cell_length_b   17.89140000
_cell_length_c   12.76290000
_cell_angle_alpha   90.00000000
_cell_angle_beta   90.00000000
_cell_angle_gamma   90.00000000
_symmetry_Int_Tables_number   1
_chemical_formula_structural   Mg3Ni2PH9C14NO16
_chemical_formula_sum   'Mg24 Ni16 P8 H72 C112 N8 O128'
_cell_volume   6396.75201208
_cell_formula_units_Z   8
loop_
 _symmetry_equiv_pos_site_id
 _symmetry_equiv_pos_as_xyz
  1  'x, y, z'
loop_
 _atom_site_type_symbol
 _atom_site_label
 _atom_site_symmetry_multiplicity
 _atom_site_fract_x
 _atom_site_fract_y
 _atom_site_fract_z
 _atom_site_occupancy
 _atom_site_charge
  Mg  Mg1  1  0.946000  0.057750  0.339510  1.0  1.5258
  Mg  Mg2  1  0.877120  0.059140  0.581910  1.0  1.5591
  Mg  Mg3  1  0.446000  0.557750  0.339510  1.0  1.5258
  Mg  Mg4  1  0.377120  0.559140  0.581910  1.0  1.5591
  Mg  Mg5  1  0.054000  0.442250  0.839510  1.0  1.5254
  Mg  Mg6  1  0.122880  0.440860  0.081910  1.0  1.5601
  Mg  Mg7  1  0.554000  0.942250  0.839510  1.0  1.5254
  Mg  Mg8  1  0.622880  0.940860  0.081910  1.0  1.5601
  Mg  Mg9  1  0.122880  0.559140  0.918090  1.0  1.5611
  Mg  Mg10  1  0.622880  0.059140  0.918090  1.0  1.5611
  Mg  Mg11  1  0.877120  0.940860  0.418090  1.0  1.5597
  Mg  Mg12  1  0.377120  0.440860  0.418090  1.0  1.5597
  Mg  Mg13  1  0.054000  0.942250  0.660490  1.0  1.5254
  Mg  Mg14  1  0.122880  0.940860  0.418090  1.0  1.5605
  Mg  Mg15  1  0.554000  0.442250  0.660490  1.0  1.5254
  Mg  Mg16  1  0.622880  0.440860  0.418090  1.0  1.5605
  Mg  Mg17  1  0.946000  0.557750  0.160490  1.0  1.526
  Mg  Mg18  1  0.877120  0.559140  0.918090  1.0  1.5596
  Mg  Mg19  1  0.446000  0.057750  0.160490  1.0  1.526
  Mg  Mg20  1  0.377120  0.059140  0.918090  1.0  1.5596
  Mg  Mg21  1  0.877120  0.440860  0.081910  1.0  1.5592
  Mg  Mg22  1  0.377120  0.940860  0.081910  1.0  1.5592
  Mg  Mg23  1  0.122880  0.059140  0.581910  1.0  1.5608
  Mg  Mg24  1  0.622880  0.559140  0.581910  1.0  1.5608
  Ni  Ni25  1  0.946000  0.942250  0.660490  1.0  0.9753
  Ni  Ni26  1  0.446000  0.442250  0.660490  1.0  0.9753
  Ni  Ni27  1  0.054000  0.557750  0.160490  1.0  0.9743
  Ni  Ni28  1  0.554000  0.057750  0.160490  1.0  0.9743
  Ni  Ni29  1  0.054000  0.057750  0.339510  1.0  0.9738
  Ni  Ni30  1  0.554000  0.557750  0.339510  1.0  0.9738
  Ni  Ni31  1  0.946000  0.442250  0.839510  1.0  0.975
  Ni  Ni32  1  0.446000  0.942250  0.839510  1.0  0.975
  Ni  Ni33  1  0.000000  0.165080  0.188500  1.0  0.5571
  Ni  Ni34  1  0.500000  0.665080  0.188500  1.0  0.5571
  Ni  Ni35  1  0.000000  0.334920  0.688500  1.0  0.5575
  Ni  Ni36  1  0.500000  0.834920  0.688500  1.0  0.5575
  Ni  Ni37  1  0.000000  0.665080  0.311500  1.0  0.5498
  Ni  Ni38  1  0.500000  0.165080  0.311500  1.0  0.5498
  Ni  Ni39  1  0.000000  0.834920  0.811500  1.0  0.551
  Ni  Ni40  1  0.500000  0.334920  0.811500  1.0  0.551
  P  P41  1  0.000000  0.413050  0.068980  1.0  1.5461
  P  P42  1  0.500000  0.913050  0.068980  1.0  1.5461
  P  P43  1  0.000000  0.086950  0.568980  1.0  1.5464
  P  P44  1  0.500000  0.586950  0.568980  1.0  1.5464
  P  P45  1  0.000000  0.913050  0.431020  1.0  1.5465
  P  P46  1  0.500000  0.413050  0.431020  1.0  1.5465
  P  P47  1  0.000000  0.586950  0.931020  1.0  1.5469
  P  P48  1  0.500000  0.086950  0.931020  1.0  1.5469
  H  H49  1  0.930900  0.314800  0.211300  1.0  0.1014
  H  H50  1  0.962300  0.347000  0.302300  1.0  0.0992
  H  H51  1  0.972200  0.292700  0.056900  1.0  0.1436
  H  H52  1  0.778900  0.022500  0.845300  1.0  0.1019
  H  H53  1  0.430900  0.814800  0.211300  1.0  0.1014
  H  H54  1  0.462300  0.847000  0.302300  1.0  0.0992
  H  H55  1  0.472200  0.792700  0.056900  1.0  0.1436
  H  H56  1  0.278900  0.522500  0.845300  1.0  0.1019
  H  H57  1  0.069100  0.185200  0.711300  1.0  0.1003
  H  H58  1  0.037700  0.153000  0.802300  1.0  0.0998
  H  H59  1  0.027800  0.207300  0.556900  1.0  0.1433
  H  H60  1  0.221100  0.477500  0.345300  1.0  0.1021
  H  H61  1  0.569100  0.685200  0.711300  1.0  0.1003
  H  H62  1  0.537700  0.653000  0.802300  1.0  0.0998
  H  H63  1  0.527800  0.707300  0.556900  1.0  0.1433
  H  H64  1  0.721100  0.977500  0.345300  1.0  0.1021
  H  H65  1  0.069100  0.814800  0.288700  1.0  0.1002
  H  H66  1  0.037700  0.847000  0.197700  1.0  0.0997
  H  H67  1  0.027800  0.792700  0.443100  1.0  0.1439
  H  H68  1  0.221100  0.522500  0.654700  1.0  0.1018
  H  H69  1  0.569100  0.314800  0.288700  1.0  0.1002
  H  H70  1  0.537700  0.347000  0.197700  1.0  0.0997
  H  H71  1  0.527800  0.292700  0.443100  1.0  0.1439
  H  H72  1  0.721100  0.022500  0.654700  1.0  0.1018
  H  H73  1  0.930900  0.685200  0.788700  1.0  0.1016
  H  H74  1  0.962300  0.653000  0.697700  1.0  0.0994
  H  H75  1  0.972200  0.707300  0.943100  1.0  0.1437
  H  H76  1  0.778900  0.977500  0.154700  1.0  0.102
  H  H77  1  0.430900  0.185200  0.788700  1.0  0.1016
  H  H78  1  0.462300  0.153000  0.697700  1.0  0.0994
  H  H79  1  0.472200  0.207300  0.943100  1.0  0.1437
  H  H80  1  0.278900  0.477500  0.154700  1.0  0.102
  H  H81  1  0.069100  0.685200  0.788700  1.0  0.1001
  H  H82  1  0.037700  0.653000  0.697700  1.0  0.0994
  H  H83  1  0.027800  0.707300  0.943100  1.0  0.1434
  H  H84  1  0.221100  0.977500  0.154700  1.0  0.1019
  H  H85  1  0.569100  0.185200  0.788700  1.0  0.1001
  H  H86  1  0.537700  0.153000  0.697700  1.0  0.0994
  H  H87  1  0.527800  0.207300  0.943100  1.0  0.1434
  H  H88  1  0.721100  0.477500  0.154700  1.0  0.1019
  H  H89  1  0.930900  0.814800  0.288700  1.0  0.1014
  H  H90  1  0.962300  0.847000  0.197700  1.0  0.0997
  H  H91  1  0.972200  0.792700  0.443100  1.0  0.1445
  H  H92  1  0.778900  0.522500  0.654700  1.0  0.1019
  H  H93  1  0.430900  0.314800  0.288700  1.0  0.1014
  H  H94  1  0.462300  0.347000  0.197700  1.0  0.0997
  H  H95  1  0.472200  0.292700  0.443100  1.0  0.1445
  H  H96  1  0.278900  0.022500  0.654700  1.0  0.1019
  H  H97  1  0.930900  0.185200  0.711300  1.0  0.1019
  H  H98  1  0.962300  0.153000  0.802300  1.0  0.0998
  H  H99  1  0.972200  0.207300  0.556900  1.0  0.1436
  H  H100  1  0.778900  0.477500  0.345300  1.0  0.1017
  H  H101  1  0.430900  0.685200  0.711300  1.0  0.1019
  H  H102  1  0.462300  0.653000  0.802300  1.0  0.0998
  H  H103  1  0.472200  0.707300  0.556900  1.0  0.1436
  H  H104  1  0.278900  0.977500  0.345300  1.0  0.1017
  H  H105  1  0.069100  0.314800  0.211300  1.0  0.1002
  H  H106  1  0.037700  0.347000  0.302300  1.0  0.0992
  H  H107  1  0.027800  0.292700  0.056900  1.0  0.1431
  H  H108  1  0.221100  0.022500  0.845300  1.0  0.1019
  H  H109  1  0.569100  0.814800  0.211300  1.0  0.1002
  H  H110  1  0.537700  0.847000  0.302300  1.0  0.0992
  H  H111  1  0.527800  0.792700  0.056900  1.0  0.1431
  H  H112  1  0.721100  0.522500  0.845300  1.0  0.1019
  H  H113  1  0.902000  0.000000  0.000000  1.0  0.0894
  H  H114  1  0.402000  0.500000  0.000000  1.0  0.0894
  H  H115  1  0.098000  0.500000  0.500000  1.0  0.0896
  H  H116  1  0.598000  0.000000  0.500000  1.0  0.0896
  H  H117  1  0.098000  0.000000  0.000000  1.0  0.0896
  H  H118  1  0.598000  0.500000  0.000000  1.0  0.0896
  H  H119  1  0.902000  0.500000  0.500000  1.0  0.0894
  H  H120  1  0.402000  0.000000  0.500000  1.0  0.0894
  C  C121  1  0.956100  0.302700  0.260500  1.0  -0.2224
  C  C122  1  0.939100  0.240100  0.332300  1.0  0.725
  C  C123  1  0.795300  0.012300  0.907100  1.0  -0.0293
  C  C124  1  0.871900  0.012500  0.804900  1.0  0.7135
  C  C125  1  0.844600  0.009500  0.907200  1.0  -0.0934
  C  C126  1  0.456100  0.802700  0.260500  1.0  -0.2224
  C  C127  1  0.439100  0.740100  0.332300  1.0  0.725
  C  C128  1  0.295300  0.512300  0.907100  1.0  -0.0293
  C  C129  1  0.371900  0.512500  0.804900  1.0  0.7135
  C  C130  1  0.344600  0.509500  0.907200  1.0  -0.0934
  C  C131  1  0.043900  0.197300  0.760500  1.0  -0.2242
  C  C132  1  0.060900  0.259900  0.832300  1.0  0.7246
  C  C133  1  0.204700  0.487700  0.407100  1.0  -0.0296
  C  C134  1  0.128100  0.487500  0.304900  1.0  0.7135
  C  C135  1  0.155400  0.490500  0.407200  1.0  -0.0935
  C  C136  1  0.543900  0.697300  0.760500  1.0  -0.2242
  C  C137  1  0.560900  0.759900  0.832300  1.0  0.7246
  C  C138  1  0.704700  0.987700  0.407100  1.0  -0.0296
  C  C139  1  0.628100  0.987500  0.304900  1.0  0.7135
  C  C140  1  0.655400  0.990500  0.407200  1.0  -0.0935
  C  C141  1  0.043900  0.802700  0.239500  1.0  -0.2233
  C  C142  1  0.060900  0.740100  0.167700  1.0  0.7261
  C  C143  1  0.204700  0.512300  0.592900  1.0  -0.0313
  C  C144  1  0.128100  0.512500  0.695100  1.0  0.7136
  C  C145  1  0.155400  0.509500  0.592800  1.0  -0.0936
  C  C146  1  0.543900  0.302700  0.239500  1.0  -0.2233
  C  C147  1  0.560900  0.240100  0.167700  1.0  0.7261
  C  C148  1  0.704700  0.012300  0.592900  1.0  -0.0313
  C  C149  1  0.628100  0.012500  0.695100  1.0  0.7136
  C  C150  1  0.655400  0.009500  0.592800  1.0  -0.0936
  C  C151  1  0.956100  0.697300  0.739500  1.0  -0.2244
  C  C152  1  0.939100  0.759900  0.667700  1.0  0.7263
  C  C153  1  0.795300  0.987700  0.092900  1.0  -0.0307
  C  C154  1  0.871900  0.987500  0.195100  1.0  0.7136
  C  C155  1  0.844600  0.990500  0.092800  1.0  -0.0935
  C  C156  1  0.456100  0.197300  0.739500  1.0  -0.2244
  C  C157  1  0.439100  0.259900  0.667700  1.0  0.7263
  C  C158  1  0.295300  0.487700  0.092900  1.0  -0.0307
  C  C159  1  0.371900  0.487500  0.195100  1.0  0.7136
  C  C160  1  0.344600  0.490500  0.092800  1.0  -0.0935
  C  C161  1  0.043900  0.697300  0.739500  1.0  -0.2236
  C  C162  1  0.060900  0.759900  0.667700  1.0  0.7259
  C  C163  1  0.204700  0.987700  0.092900  1.0  -0.03
  C  C164  1  0.128100  0.987500  0.195100  1.0  0.7136
  C  C165  1  0.155400  0.990500  0.092800  1.0  -0.0935
  C  C166  1  0.543900  0.197300  0.739500  1.0  -0.2236
  C  C167  1  0.560900  0.259900  0.667700  1.0  0.7259
  C  C168  1  0.704700  0.487700  0.092900  1.0  -0.03
  C  C169  1  0.628100  0.487500  0.195100  1.0  0.7136
  C  C170  1  0.655400  0.490500  0.092800  1.0  -0.0935
  C  C171  1  0.956100  0.802700  0.239500  1.0  -0.2231
  C  C172  1  0.939100  0.740100  0.167700  1.0  0.7266
  C  C173  1  0.795300  0.512300  0.592900  1.0  -0.03
  C  C174  1  0.871900  0.512500  0.695100  1.0  0.7136
  C  C175  1  0.844600  0.509500  0.592800  1.0  -0.0936
  C  C176  1  0.456100  0.302700  0.239500  1.0  -0.2231
  C  C177  1  0.439100  0.240100  0.167700  1.0  0.7266
  C  C178  1  0.295300  0.012300  0.592900  1.0  -0.03
  C  C179  1  0.371900  0.012500  0.695100  1.0  0.7136
  C  C180  1  0.344600  0.009500  0.592800  1.0  -0.0936
  C  C181  1  0.956100  0.197300  0.760500  1.0  -0.2251
  C  C182  1  0.939100  0.259900  0.832300  1.0  0.7242
  C  C183  1  0.795300  0.487700  0.407100  1.0  -0.0301
  C  C184  1  0.871900  0.487500  0.304900  1.0  0.7136
  C  C185  1  0.844600  0.490500  0.407200  1.0  -0.0934
  C  C186  1  0.456100  0.697300  0.760500  1.0  -0.2251
  C  C187  1  0.439100  0.759900  0.832300  1.0  0.7242
  C  C188  1  0.295300  0.987700  0.407100  1.0  -0.0301
  C  C189  1  0.371900  0.987500  0.304900  1.0  0.7136
  C  C190  1  0.344600  0.990500  0.407200  1.0  -0.0934
  C  C191  1  0.043900  0.302700  0.260500  1.0  -0.2227
  C  C192  1  0.060900  0.240100  0.332300  1.0  0.7252
  C  C193  1  0.204700  0.012300  0.907100  1.0  -0.0309
  C  C194  1  0.128100  0.012500  0.804900  1.0  0.7134
  C  C195  1  0.155400  0.009500  0.907200  1.0  -0.0934
  C  C196  1  0.543900  0.802700  0.260500  1.0  -0.2227
  C  C197  1  0.560900  0.740100  0.332300  1.0  0.7252
  C  C198  1  0.704700  0.512300  0.907100  1.0  -0.0309
  C  C199  1  0.628100  0.512500  0.804900  1.0  0.7134
  C  C200  1  0.655400  0.509500  0.907200  1.0  -0.0934
  C  C201  1  0.000000  0.313100  0.092100  1.0  -0.4609
  C  C202  1  0.500000  0.813100  0.092100  1.0  -0.4609
  C  C203  1  0.000000  0.186900  0.592100  1.0  -0.4605
  C  C204  1  0.500000  0.686900  0.592100  1.0  -0.4605
  C  C205  1  0.000000  0.813100  0.407900  1.0  -0.4617
  C  C206  1  0.500000  0.313100  0.407900  1.0  -0.4617
  C  C207  1  0.000000  0.686900  0.907900  1.0  -0.46
  C  C208  1  0.500000  0.186900  0.907900  1.0  -0.46
  C  C209  1  0.716700  0.000000  0.000000  1.0  0.7234
  C  C210  1  0.770000  0.000000  0.000000  1.0  -0.1709
  C  C211  1  0.868800  0.000000  0.000000  1.0  -0.0371
  C  C212  1  0.216700  0.500000  0.000000  1.0  0.7234
  C  C213  1  0.270000  0.500000  0.000000  1.0  -0.1709
  C  C214  1  0.368800  0.500000  0.000000  1.0  -0.0371
  C  C215  1  0.283300  0.500000  0.500000  1.0  0.7217
  C  C216  1  0.230000  0.500000  0.500000  1.0  -0.1709
  C  C217  1  0.131200  0.500000  0.500000  1.0  -0.041
  C  C218  1  0.783300  0.000000  0.500000  1.0  0.7217
  C  C219  1  0.730000  0.000000  0.500000  1.0  -0.1709
  C  C220  1  0.631200  0.000000  0.500000  1.0  -0.041
  C  C221  1  0.283300  0.000000  0.000000  1.0  0.7217
  C  C222  1  0.230000  0.000000  0.000000  1.0  -0.1709
  C  C223  1  0.131200  0.000000  0.000000  1.0  -0.041
  C  C224  1  0.783300  0.500000  0.000000  1.0  0.7217
  C  C225  1  0.730000  0.500000  0.000000  1.0  -0.1709
  C  C226  1  0.631200  0.500000  0.000000  1.0  -0.041
  C  C227  1  0.716700  0.500000  0.500000  1.0  0.7234
  C  C228  1  0.770000  0.500000  0.500000  1.0  -0.1709
  C  C229  1  0.868800  0.500000  0.500000  1.0  -0.0371
  C  C230  1  0.216700  0.000000  0.500000  1.0  0.7234
  C  C231  1  0.270000  0.000000  0.500000  1.0  -0.1709
  C  C232  1  0.368800  0.000000  0.500000  1.0  -0.0371
  N  N233  1  0.000000  0.282800  0.201300  1.0  -0.0637
  N  N234  1  0.500000  0.782800  0.201300  1.0  -0.0637
  N  N235  1  0.000000  0.217200  0.701300  1.0  -0.0632
  N  N236  1  0.500000  0.717200  0.701300  1.0  -0.0632
  N  N237  1  0.000000  0.782800  0.298700  1.0  -0.0633
  N  N238  1  0.500000  0.282800  0.298700  1.0  -0.0633
  N  N239  1  0.000000  0.717200  0.798700  1.0  -0.0634
  N  N240  1  0.500000  0.217200  0.798700  1.0  -0.0634
  O  O241  1  0.947410  0.173600  0.300400  1.0  -0.6792
  O  O242  1  0.916900  0.256500  0.413300  1.0  -0.5416
  O  O243  1  0.887110  0.055300  0.425100  1.0  -0.767
  O  O244  1  0.045750  0.444900  0.116600  1.0  -0.8441
  O  O245  1  0.696340  0.047200  0.941800  1.0  -0.6191
  O  O246  1  0.904680  0.965600  0.793200  1.0  -0.6009
  O  O247  1  0.860180  0.062000  0.738800  1.0  -0.6018
  O  O248  1  0.447410  0.673600  0.300400  1.0  -0.6792
  O  O249  1  0.416900  0.756500  0.413300  1.0  -0.5416
  O  O250  1  0.387110  0.555300  0.425100  1.0  -0.767
  O  O251  1  0.545750  0.944900  0.116600  1.0  -0.8441
  O  O252  1  0.196340  0.547200  0.941800  1.0  -0.6191
  O  O253  1  0.404680  0.465600  0.793200  1.0  -0.6009
  O  O254  1  0.360180  0.562000  0.738800  1.0  -0.6018
  O  O255  1  0.052590  0.326400  0.800400  1.0  -0.6781
  O  O256  1  0.083100  0.243500  0.913300  1.0  -0.5461
  O  O257  1  0.112890  0.444700  0.925100  1.0  -0.7682
  O  O258  1  0.954250  0.055100  0.616600  1.0  -0.8454
  O  O259  1  0.303660  0.452800  0.441800  1.0  -0.6198
  O  O260  1  0.095320  0.534400  0.293200  1.0  -0.599
  O  O261  1  0.139820  0.438000  0.238800  1.0  -0.6027
  O  O262  1  0.552590  0.826400  0.800400  1.0  -0.6781
  O  O263  1  0.583100  0.743500  0.913300  1.0  -0.5461
  O  O264  1  0.612890  0.944700  0.925100  1.0  -0.7682
  O  O265  1  0.454250  0.555100  0.616600  1.0  -0.8454
  O  O266  1  0.803660  0.952800  0.441800  1.0  -0.6198
  O  O267  1  0.595320  0.034400  0.293200  1.0  -0.599
  O  O268  1  0.639820  0.938000  0.238800  1.0  -0.6027
  O  O269  1  0.052590  0.673600  0.199600  1.0  -0.674
  O  O270  1  0.083100  0.756500  0.086700  1.0  -0.541
  O  O271  1  0.112890  0.555300  0.074900  1.0  -0.7697
  O  O272  1  0.954250  0.944900  0.383400  1.0  -0.848
  O  O273  1  0.303660  0.547200  0.558200  1.0  -0.6198
  O  O274  1  0.095320  0.465600  0.706800  1.0  -0.5968
  O  O275  1  0.139820  0.562000  0.761200  1.0  -0.6021
  O  O276  1  0.552590  0.173600  0.199600  1.0  -0.674
  O  O277  1  0.583100  0.256500  0.086700  1.0  -0.541
  O  O278  1  0.612890  0.055300  0.074900  1.0  -0.7697
  O  O279  1  0.454250  0.444900  0.383400  1.0  -0.848
  O  O280  1  0.803660  0.047200  0.558200  1.0  -0.6198
  O  O281  1  0.595320  0.965600  0.706800  1.0  -0.5968
  O  O282  1  0.639820  0.062000  0.761200  1.0  -0.6021
  O  O283  1  0.947410  0.826400  0.699600  1.0  -0.6763
  O  O284  1  0.916900  0.743500  0.586700  1.0  -0.5405
  O  O285  1  0.887110  0.944700  0.574900  1.0  -0.7688
  O  O286  1  0.045750  0.555100  0.883400  1.0  -0.848
  O  O287  1  0.696340  0.952800  0.058200  1.0  -0.6192
  O  O288  1  0.904680  0.034400  0.206800  1.0  -0.5972
  O  O289  1  0.860180  0.938000  0.261200  1.0  -0.6016
  O  O290  1  0.447410  0.326400  0.699600  1.0  -0.6763
  O  O291  1  0.416900  0.243500  0.586700  1.0  -0.5405
  O  O292  1  0.387110  0.444700  0.574900  1.0  -0.7688
  O  O293  1  0.545750  0.055100  0.883400  1.0  -0.848
  O  O294  1  0.196340  0.452800  0.058200  1.0  -0.6192
  O  O295  1  0.404680  0.534400  0.206800  1.0  -0.5972
  O  O296  1  0.360180  0.438000  0.261200  1.0  -0.6016
  O  O297  1  0.052590  0.826400  0.699600  1.0  -0.6792
  O  O298  1  0.083100  0.743500  0.586700  1.0  -0.5416
  O  O299  1  0.112890  0.944700  0.574900  1.0  -0.7688
  O  O300  1  0.954250  0.555100  0.883400  1.0  -0.8445
  O  O301  1  0.303660  0.952800  0.058200  1.0  -0.6197
  O  O302  1  0.095320  0.034400  0.206800  1.0  -0.5993
  O  O303  1  0.139820  0.938000  0.261200  1.0  -0.6026
  O  O304  1  0.552590  0.326400  0.699600  1.0  -0.6792
  O  O305  1  0.583100  0.243500  0.586700  1.0  -0.5416
  O  O306  1  0.612890  0.444700  0.574900  1.0  -0.7688
  O  O307  1  0.454250  0.055100  0.883400  1.0  -0.8445
  O  O308  1  0.803660  0.452800  0.058200  1.0  -0.6197
  O  O309  1  0.595320  0.534400  0.206800  1.0  -0.5993
  O  O310  1  0.639820  0.438000  0.261200  1.0  -0.6026
  O  O311  1  0.947410  0.673600  0.199600  1.0  -0.6791
  O  O312  1  0.916900  0.756500  0.086700  1.0  -0.5403
  O  O313  1  0.887110  0.555300  0.074900  1.0  -0.7672
  O  O314  1  0.045750  0.944900  0.383400  1.0  -0.8429
  O  O315  1  0.696340  0.547200  0.558200  1.0  -0.6188
  O  O316  1  0.904680  0.465600  0.706800  1.0  -0.6007
  O  O317  1  0.860180  0.562000  0.761200  1.0  -0.6021
  O  O318  1  0.447410  0.173600  0.199600  1.0  -0.6791
  O  O319  1  0.416900  0.256500  0.086700  1.0  -0.5403
  O  O320  1  0.387110  0.055300  0.074900  1.0  -0.7672
  O  O321  1  0.545750  0.444900  0.383400  1.0  -0.8429
  O  O322  1  0.196340  0.047200  0.558200  1.0  -0.6188
  O  O323  1  0.404680  0.965600  0.706800  1.0  -0.6007
  O  O324  1  0.360180  0.062000  0.761200  1.0  -0.6021
  O  O325  1  0.947410  0.326400  0.800400  1.0  -0.6756
  O  O326  1  0.916900  0.243500  0.913300  1.0  -0.5412
  O  O327  1  0.887110  0.444700  0.925100  1.0  -0.7686
  O  O328  1  0.045750  0.055100  0.616600  1.0  -0.8491
  O  O329  1  0.696340  0.452800  0.441800  1.0  -0.6191
  O  O330  1  0.904680  0.534400  0.293200  1.0  -0.5969
  O  O331  1  0.860180  0.438000  0.238800  1.0  -0.6019
  O  O332  1  0.447410  0.826400  0.800400  1.0  -0.6756
  O  O333  1  0.416900  0.743500  0.913300  1.0  -0.5412
  O  O334  1  0.387110  0.944700  0.925100  1.0  -0.7686
  O  O335  1  0.545750  0.555100  0.616600  1.0  -0.8491
  O  O336  1  0.196340  0.952800  0.441800  1.0  -0.6191
  O  O337  1  0.404680  0.034400  0.293200  1.0  -0.5969
  O  O338  1  0.360180  0.938000  0.238800  1.0  -0.6019
  O  O339  1  0.052590  0.173600  0.300400  1.0  -0.6736
  O  O340  1  0.083100  0.256500  0.413300  1.0  -0.5465
  O  O341  1  0.112890  0.055300  0.425100  1.0  -0.7697
  O  O342  1  0.954250  0.444900  0.116600  1.0  -0.8489
  O  O343  1  0.303660  0.047200  0.941800  1.0  -0.6205
  O  O344  1  0.095320  0.965600  0.793200  1.0  -0.5966
  O  O345  1  0.139820  0.062000  0.738800  1.0  -0.6014
  O  O346  1  0.552590  0.673600  0.300400  1.0  -0.6736
  O  O347  1  0.583100  0.756500  0.413300  1.0  -0.5465
  O  O348  1  0.612890  0.555300  0.425100  1.0  -0.7697
  O  O349  1  0.454250  0.944900  0.116600  1.0  -0.8489
  O  O350  1  0.803660  0.547200  0.941800  1.0  -0.6205
  O  O351  1  0.595320  0.465600  0.793200  1.0  -0.5966
  O  O352  1  0.639820  0.562000  0.738800  1.0  -0.6014
  O  O353  1  0.000000  0.058300  0.236200  1.0  -0.7654
  O  O354  1  0.000000  0.418400  0.949600  1.0  -0.8004
  O  O355  1  0.500000  0.558300  0.236200  1.0  -0.7654
  O  O356  1  0.500000  0.918400  0.949600  1.0  -0.8004
  O  O357  1  0.000000  0.441700  0.736200  1.0  -0.7647
  O  O358  1  0.000000  0.081600  0.449600  1.0  -0.8
  O  O359  1  0.500000  0.941700  0.736200  1.0  -0.7647
  O  O360  1  0.500000  0.581600  0.449600  1.0  -0.8
  O  O361  1  0.000000  0.558300  0.263800  1.0  -0.7653
  O  O362  1  0.000000  0.918400  0.550400  1.0  -0.8012
  O  O363  1  0.500000  0.058300  0.263800  1.0  -0.7653
  O  O364  1  0.500000  0.418400  0.550400  1.0  -0.8012
  O  O365  1  0.000000  0.941700  0.763800  1.0  -0.7646
  O  O366  1  0.000000  0.581600  0.050400  1.0  -0.8013
  O  O367  1  0.500000  0.441700  0.763800  1.0  -0.7646
  O  O368  1  0.500000  0.081600  0.050400  1.0  -0.8013
