# generated using pymatgen
data_MnH4C10(SO2)2
_symmetry_space_group_name_H-M   'P 1'
_cell_length_a   12.01780000
_cell_length_b   12.01780000
_cell_length_c   19.42500000
_cell_angle_alpha   77.41860000
_cell_angle_beta   77.41860000
_cell_angle_gamma   77.68940000
_symmetry_Int_Tables_number   1
_chemical_formula_structural   MnH4C10(SO2)2
_chemical_formula_sum   'Mn6 H24 C60 S12 O24'
_cell_volume   2631.61310288
_cell_formula_units_Z   6
loop_
 _symmetry_equiv_pos_site_id
 _symmetry_equiv_pos_as_xyz
  1  'x, y, z'
loop_
 _atom_site_type_symbol
 _atom_site_label
 _atom_site_symmetry_multiplicity
 _atom_site_fract_x
 _atom_site_fract_y
 _atom_site_fract_z
 _atom_site_occupancy
 _atom_site_charge
  Mn  Mn1  1  0.675700  0.018040  0.322190  1.0  1.0019
  Mn  Mn2  1  0.981960  0.324300  0.177810  1.0  1.0015
  Mn  Mn3  1  0.324300  0.981960  0.677810  1.0  1.0019
  Mn  Mn4  1  0.018040  0.675700  0.822190  1.0  1.0021
  Mn  Mn5  1  0.500000  0.000000  0.500000  1.0  1.0932
  Mn  Mn6  1  0.000000  0.500000  0.000000  1.0  1.0932
  H  H7  1  0.789500  0.342300  0.405500  1.0  0.1173
  H  H8  1  0.697900  0.514300  0.457500  1.0  0.112
  H  H9  1  0.298500  0.766300  0.437500  1.0  0.0924
  H  H10  1  0.204000  0.672600  0.373000  1.0  0.1059
  H  H11  1  0.751700  0.714900  0.589500  1.0  0.1271
  H  H12  1  0.893100  0.535700  0.609200  1.0  0.102
  H  H13  1  0.657700  0.210500  0.094500  1.0  0.118
  H  H14  1  0.485700  0.302100  0.042500  1.0  0.1119
  H  H15  1  0.233700  0.701500  0.062500  1.0  0.0922
  H  H16  1  0.327400  0.796000  0.127000  1.0  0.1059
  H  H17  1  0.285100  0.248300  0.910500  1.0  0.1277
  H  H18  1  0.464300  0.106900  0.890800  1.0  0.102
  H  H19  1  0.210500  0.657700  0.594500  1.0  0.1181
  H  H20  1  0.302100  0.485700  0.542500  1.0  0.1122
  H  H21  1  0.701500  0.233700  0.562500  1.0  0.0925
  H  H22  1  0.796000  0.327400  0.627000  1.0  0.1051
  H  H23  1  0.248300  0.285100  0.410500  1.0  0.1276
  H  H24  1  0.106900  0.464300  0.390800  1.0  0.1017
  H  H25  1  0.342300  0.789500  0.905500  1.0  0.1189
  H  H26  1  0.514300  0.697900  0.957500  1.0  0.1115
  H  H27  1  0.766300  0.298500  0.937500  1.0  0.0918
  H  H28  1  0.672600  0.204000  0.873000  1.0  0.1062
  H  H29  1  0.714900  0.751700  0.089500  1.0  0.128
  H  H30  1  0.535700  0.893100  0.109200  1.0  0.1024
  C  C31  1  0.659400  0.179000  0.395700  1.0  0.6951
  C  C32  1  0.633300  0.288100  0.426700  1.0  -0.2347
  C  C33  1  0.711000  0.358200  0.424800  1.0  -0.0475
  C  C34  1  0.658400  0.457000  0.455200  1.0  -0.13
  C  C35  1  0.540600  0.459200  0.481500  1.0  -0.0184
  C  C36  1  0.462200  0.904200  0.365800  1.0  0.7585
  C  C37  1  0.385400  0.841200  0.344900  1.0  -0.2149
  C  C38  1  0.311800  0.775600  0.387800  1.0  -0.0333
  C  C39  1  0.256100  0.722100  0.350400  1.0  -0.1376
  C  C40  1  0.286500  0.750300  0.278400  1.0  -0.0126
  C  C41  1  0.739300  0.837900  0.449500  1.0  0.7292
  C  C42  1  0.811700  0.729500  0.481200  1.0  -0.2173
  C  C43  1  0.803900  0.683100  0.553000  1.0  -0.062
  C  C44  1  0.886900  0.579100  0.563800  1.0  -0.1455
  C  C45  1  0.955400  0.548600  0.504000  1.0  -0.0096
  C  C46  1  0.821000  0.340600  0.104300  1.0  0.6952
  C  C47  1  0.711900  0.366700  0.073300  1.0  -0.2327
  C  C48  1  0.641800  0.289000  0.075200  1.0  -0.0472
  C  C49  1  0.543000  0.341600  0.044800  1.0  -0.1315
  C  C50  1  0.540800  0.459400  0.018500  1.0  -0.02
  C  C51  1  0.095800  0.537800  0.134200  1.0  0.7554
  C  C52  1  0.158800  0.614600  0.155100  1.0  -0.2158
  C  C53  1  0.224400  0.688200  0.112200  1.0  -0.0342
  C  C54  1  0.277900  0.743900  0.149600  1.0  -0.1374
  C  C55  1  0.249700  0.713500  0.221600  1.0  -0.0154
  C  C56  1  0.162100  0.260700  0.050500  1.0  0.7298
  C  C57  1  0.270500  0.188300  0.018800  1.0  -0.212
  C  C58  1  0.316900  0.196100  0.947000  1.0  -0.0622
  C  C59  1  0.420900  0.113100  0.936200  1.0  -0.1432
  C  C60  1  0.451400  0.044600  0.996000  1.0  -0.0127
  C  C61  1  0.340600  0.821000  0.604300  1.0  0.6969
  C  C62  1  0.366700  0.711900  0.573300  1.0  -0.2327
  C  C63  1  0.289000  0.641800  0.575200  1.0  -0.0473
  C  C64  1  0.341600  0.543000  0.544800  1.0  -0.1303
  C  C65  1  0.459400  0.540800  0.518500  1.0  -0.0182
  C  C66  1  0.537800  0.095800  0.634200  1.0  0.7565
  C  C67  1  0.614600  0.158800  0.655100  1.0  -0.2153
  C  C68  1  0.688200  0.224400  0.612200  1.0  -0.0354
  C  C69  1  0.743900  0.277900  0.649600  1.0  -0.1383
  C  C70  1  0.713500  0.249700  0.721600  1.0  -0.0148
  C  C71  1  0.260700  0.162100  0.550500  1.0  0.7308
  C  C72  1  0.188300  0.270500  0.518800  1.0  -0.2165
  C  C73  1  0.196100  0.316900  0.447000  1.0  -0.0628
  C  C74  1  0.113100  0.420900  0.436200  1.0  -0.1446
  C  C75  1  0.044600  0.451400  0.496000  1.0  -0.0105
  C  C76  1  0.179000  0.659400  0.895700  1.0  0.6926
  C  C77  1  0.288100  0.633300  0.926700  1.0  -0.2341
  C  C78  1  0.358200  0.711000  0.924800  1.0  -0.0469
  C  C79  1  0.457000  0.658400  0.955200  1.0  -0.1293
  C  C80  1  0.459200  0.540600  0.981500  1.0  -0.0195
  C  C81  1  0.904200  0.462200  0.865800  1.0  0.7572
  C  C82  1  0.841200  0.385400  0.844900  1.0  -0.2162
  C  C83  1  0.775600  0.311800  0.887800  1.0  -0.0333
  C  C84  1  0.722100  0.256100  0.850400  1.0  -0.1369
  C  C85  1  0.750300  0.286500  0.778400  1.0  -0.0132
  C  C86  1  0.837900  0.739300  0.949500  1.0  0.7268
  C  C87  1  0.729500  0.811700  0.981200  1.0  -0.2171
  C  C88  1  0.683100  0.803900  0.053000  1.0  -0.0616
  C  C89  1  0.579100  0.886900  0.063800  1.0  -0.147
  C  C90  1  0.548600  0.955400  0.004000  1.0  -0.0095
  S  S91  1  0.498090  0.339530  0.465820  1.0  0.1734
  S  S92  1  0.387930  0.838950  0.257490  1.0  0.1179
  S  S93  1  0.917400  0.648860  0.429960  1.0  0.1115
  S  S94  1  0.660470  0.501910  0.034180  1.0  0.1762
  S  S95  1  0.161050  0.612070  0.242510  1.0  0.1195
  S  S96  1  0.351140  0.082600  0.070040  1.0  0.111
  S  S97  1  0.501910  0.660470  0.534180  1.0  0.1701
  S  S98  1  0.612070  0.161050  0.742510  1.0  0.1205
  S  S99  1  0.082600  0.351140  0.570040  1.0  0.1063
  S  S100  1  0.339530  0.498090  0.965820  1.0  0.1763
  S  S101  1  0.838950  0.387930  0.757490  1.0  0.1156
  S  S102  1  0.648860  0.917400  0.929960  1.0  0.1066
  O  O103  1  0.577200  0.122800  0.408200  1.0  -0.6066
  O  O104  1  0.753200  0.151000  0.358000  1.0  -0.5624
  O  O105  1  0.539200  0.939600  0.317400  1.0  -0.6052
  O  O106  1  0.443800  0.919400  0.428700  1.0  -0.5783
  O  O107  1  0.761100  0.867500  0.384300  1.0  -0.5798
  O  O108  1  0.662000  0.886000  0.493900  1.0  -0.5918
  O  O109  1  0.877200  0.422800  0.091800  1.0  -0.6069
  O  O110  1  0.849000  0.246800  0.142000  1.0  -0.5585
  O  O111  1  0.060400  0.460800  0.182600  1.0  -0.606
  O  O112  1  0.080600  0.556200  0.071300  1.0  -0.5791
  O  O113  1  0.132500  0.238900  0.115700  1.0  -0.5815
  O  O114  1  0.114000  0.338000  0.006100  1.0  -0.5895
  O  O115  1  0.422800  0.877200  0.591800  1.0  -0.6047
  O  O116  1  0.246800  0.849000  0.642000  1.0  -0.5631
  O  O117  1  0.460800  0.060400  0.682600  1.0  -0.6053
  O  O118  1  0.556200  0.080600  0.571300  1.0  -0.5787
  O  O119  1  0.238900  0.132500  0.615700  1.0  -0.5799
  O  O120  1  0.338000  0.114000  0.506100  1.0  -0.591
  O  O121  1  0.122800  0.577200  0.908200  1.0  -0.6071
  O  O122  1  0.151000  0.753200  0.858000  1.0  -0.5591
  O  O123  1  0.939600  0.539200  0.817400  1.0  -0.6048
  O  O124  1  0.919400  0.443800  0.928700  1.0  -0.5827
  O  O125  1  0.867500  0.761100  0.884300  1.0  -0.5819
  O  O126  1  0.886000  0.662000  0.993900  1.0  -0.5903
