# generated using pymatgen
data_Co4H23C48(N3O5)4
_symmetry_space_group_name_H-M   'P 1'
_cell_length_a   20.89350000
_cell_length_b   16.03320000
_cell_length_c   28.16940000
_cell_angle_alpha   90.00000000
_cell_angle_beta   90.00000000
_cell_angle_gamma   90.00000000
_symmetry_Int_Tables_number   1
_chemical_formula_structural   Co4H23C48(N3O5)4
_chemical_formula_sum   'Co16 H92 C192 N48 O80'
_cell_volume   9436.45784672
_cell_formula_units_Z   4
loop_
 _symmetry_equiv_pos_site_id
 _symmetry_equiv_pos_as_xyz
  1  'x, y, z'
loop_
 _atom_site_type_symbol
 _atom_site_label
 _atom_site_symmetry_multiplicity
 _atom_site_fract_x
 _atom_site_fract_y
 _atom_site_fract_z
 _atom_site_occupancy
 _atom_site_charge
  Co  Co1  1  0.843150  0.248810  0.835130  1.0  0.9612
  Co  Co2  1  0.276770  0.378020  0.924940  1.0  1.0259
  Co  Co3  1  0.458320  0.878240  0.864090  1.0  1.0255
  Co  Co4  1  0.391530  0.750590  0.954220  1.0  0.907
  Co  Co5  1  0.156850  0.751190  0.335130  1.0  0.9594
  Co  Co6  1  0.723230  0.621980  0.424940  1.0  1.026
  Co  Co7  1  0.541680  0.121760  0.364090  1.0  1.0258
  Co  Co8  1  0.608470  0.249410  0.454220  1.0  0.9068
  Co  Co9  1  0.343150  0.251190  0.835130  1.0  0.9612
  Co  Co10  1  0.776770  0.121980  0.924940  1.0  1.0257
  Co  Co11  1  0.958320  0.621760  0.864090  1.0  1.0252
  Co  Co12  1  0.891530  0.749410  0.954220  1.0  0.9071
  Co  Co13  1  0.656850  0.748810  0.335130  1.0  0.96
  Co  Co14  1  0.223230  0.878020  0.424940  1.0  1.0261
  Co  Co15  1  0.041680  0.378240  0.364090  1.0  1.0255
  Co  Co16  1  0.108470  0.250590  0.454220  1.0  0.906
  H  H17  1  0.868400  0.438100  0.809000  1.0  0.289
  H  H18  1  0.799100  0.551700  0.803700  1.0  0.1241
  H  H19  1  0.512600  0.404400  0.843500  1.0  0.1411
  H  H20  1  0.575700  0.643200  0.834700  1.0  0.1221
  H  H21  1  0.393000  0.591000  0.873300  1.0  0.1221
  H  H22  1  0.525200  0.088700  0.714100  1.0  0.1187
  H  H23  1  0.609300  0.055800  0.841600  1.0  0.1256
  H  H24  1  0.703000  0.179700  0.737800  1.0  0.1311
  H  H25  1  0.595800  0.169900  0.565800  1.0  0.1216
  H  H26  1  0.693400  0.373500  0.607600  1.0  0.1342
  H  H27  1  0.844900  0.403000  0.917800  1.0  0.1353
  H  H28  1  0.663600  0.360500  0.958900  1.0  0.1288
  H  H29  1  0.691500  0.361800  0.525100  1.0  0.3335
  H  H30  1  0.725700  0.594600  0.952800  1.0  0.1397
  H  H31  1  0.437800  0.438500  0.972900  1.0  0.1476
  H  H32  1  0.532500  0.657400  0.970300  1.0  0.0948
  H  H33  1  0.367500  0.558000  0.974000  1.0  0.2958
  H  H34  1  0.621300  0.948900  0.950000  1.0  0.1321
  H  H35  1  0.529100  0.820600  0.050800  1.0  0.0941
  H  H36  1  0.702500  0.926800  0.076600  1.0  0.1197
  H  H37  1  0.495700  0.698300  0.207500  1.0  0.1341
  H  H38  1  0.659200  0.821900  0.221700  1.0  0.086
  H  H39  1  0.545700  0.678200  0.279300  1.0  0.2829
  H  H40  1  0.131600  0.561900  0.309000  1.0  0.2902
  H  H41  1  0.200900  0.448300  0.303700  1.0  0.1246
  H  H42  1  0.487400  0.595600  0.343500  1.0  0.1445
  H  H43  1  0.424300  0.356800  0.334700  1.0  0.1226
  H  H44  1  0.607000  0.409000  0.373300  1.0  0.121
  H  H45  1  0.474800  0.911300  0.214100  1.0  0.1183
  H  H46  1  0.390700  0.944200  0.341600  1.0  0.1255
  H  H47  1  0.297000  0.820300  0.237800  1.0  0.131
  H  H48  1  0.404200  0.830100  0.065800  1.0  0.1205
  H  H49  1  0.306600  0.626500  0.107600  1.0  0.1344
  H  H50  1  0.155100  0.597000  0.417800  1.0  0.1354
  H  H51  1  0.336400  0.639500  0.458900  1.0  0.1279
  H  H52  1  0.308500  0.638200  0.025100  1.0  0.3345
  H  H53  1  0.274300  0.405400  0.452800  1.0  0.1389
  H  H54  1  0.562200  0.561500  0.472900  1.0  0.1482
  H  H55  1  0.467500  0.342600  0.470300  1.0  0.0961
  H  H56  1  0.632500  0.442000  0.474000  1.0  0.2966
  H  H57  1  0.378700  0.051100  0.450000  1.0  0.132
  H  H58  1  0.470900  0.179400  0.550800  1.0  0.0936
  H  H59  1  0.297500  0.073200  0.576600  1.0  0.1194
  H  H60  1  0.504300  0.301700  0.707500  1.0  0.1341
  H  H61  1  0.340800  0.178100  0.721700  1.0  0.086
  H  H62  1  0.454300  0.321800  0.779300  1.0  0.2818
  H  H63  1  0.368400  0.061900  0.809000  1.0  0.289
  H  H64  1  0.299100  0.948300  0.803700  1.0  0.1247
  H  H65  1  0.012600  0.095600  0.843500  1.0  0.1434
  H  H66  1  0.075700  0.856800  0.834700  1.0  0.1224
  H  H67  1  0.893000  0.909000  0.873300  1.0  0.1224
  H  H68  1  0.025200  0.411300  0.714100  1.0  0.1189
  H  H69  1  0.109300  0.444200  0.841600  1.0  0.1254
  H  H70  1  0.203000  0.320300  0.737800  1.0  0.1314
  H  H71  1  0.095800  0.330100  0.565800  1.0  0.1205
  H  H72  1  0.193400  0.126500  0.607600  1.0  0.1345
  H  H73  1  0.344900  0.097000  0.917800  1.0  0.1356
  H  H74  1  0.163600  0.139500  0.958900  1.0  0.128
  H  H75  1  0.191500  0.138200  0.525100  1.0  0.3337
  H  H76  1  0.225700  0.905400  0.952800  1.0  0.1393
  H  H77  1  0.937800  0.061500  0.972900  1.0  0.1475
  H  H78  1  0.032500  0.842600  0.970300  1.0  0.0953
  H  H79  1  0.867500  0.942000  0.974000  1.0  0.2957
  H  H80  1  0.121300  0.551100  0.950000  1.0  0.1321
  H  H81  1  0.029100  0.679400  0.050800  1.0  0.0938
  H  H82  1  0.202500  0.573200  0.076600  1.0  0.1199
  H  H83  1  0.995700  0.801700  0.207500  1.0  0.1344
  H  H84  1  0.159200  0.678100  0.221700  1.0  0.0864
  H  H85  1  0.045700  0.821800  0.279300  1.0  0.2827
  H  H86  1  0.631600  0.938100  0.309000  1.0  0.2903
  H  H87  1  0.700900  0.051700  0.303700  1.0  0.1244
  H  H88  1  0.987400  0.904400  0.343500  1.0  0.1423
  H  H89  1  0.924300  0.143200  0.334700  1.0  0.1208
  H  H90  1  0.107000  0.091000  0.373300  1.0  0.1217
  H  H91  1  0.974800  0.588700  0.214100  1.0  0.119
  H  H92  1  0.890700  0.555800  0.341600  1.0  0.1255
  H  H93  1  0.797000  0.679700  0.237800  1.0  0.1315
  H  H94  1  0.904200  0.669900  0.065800  1.0  0.122
  H  H95  1  0.806600  0.873500  0.107600  1.0  0.1344
  H  H96  1  0.655100  0.903000  0.417800  1.0  0.1353
  H  H97  1  0.836400  0.860500  0.458900  1.0  0.1282
  H  H98  1  0.808500  0.861800  0.025100  1.0  0.3344
  H  H99  1  0.774300  0.094600  0.452800  1.0  0.1393
  H  H100  1  0.062200  0.938500  0.472900  1.0  0.1477
  H  H101  1  0.967500  0.157400  0.470300  1.0  0.0957
  H  H102  1  0.132500  0.058000  0.474000  1.0  0.2968
  H  H103  1  0.878700  0.448900  0.450000  1.0  0.132
  H  H104  1  0.970900  0.320600  0.550800  1.0  0.0942
  H  H105  1  0.797500  0.426800  0.576600  1.0  0.1194
  H  H106  1  0.004300  0.198300  0.707500  1.0  0.1337
  H  H107  1  0.840800  0.321900  0.721700  1.0  0.0857
  H  H108  1  0.954300  0.178200  0.779300  1.0  0.2825
  C  C109  1  0.733900  0.384500  0.819100  1.0  0.0579
  C  C110  1  0.728900  0.469800  0.814600  1.0  0.0292
  C  C111  1  0.787500  0.496400  0.808700  1.0  -0.012
  C  C112  1  0.671500  0.526300  0.822700  1.0  0.6453
  C  C113  1  0.555500  0.521200  0.836300  1.0  0.2308
  C  C114  1  0.504900  0.461400  0.845600  1.0  -0.0777
  C  C115  1  0.543700  0.604600  0.841400  1.0  0.009
  C  C116  1  0.444200  0.491300  0.857800  1.0  -0.1478
  C  C117  1  0.483700  0.631900  0.856500  1.0  -0.1476
  C  C118  1  0.433300  0.572700  0.864000  1.0  -0.0061
  C  C119  1  0.390500  0.427600  0.866900  1.0  0.7237
  C  C120  1  0.472000  0.723100  0.860500  1.0  0.7091
  C  C121  1  0.502800  0.013500  0.796400  1.0  0.7924
  C  C122  1  0.559700  0.060400  0.778700  1.0  -0.1223
  C  C123  1  0.560400  0.095300  0.733900  1.0  -0.0869
  C  C124  1  0.611200  0.076200  0.810700  1.0  0.0297
  C  C125  1  0.612600  0.139600  0.718200  1.0  0.1989
  C  C126  1  0.663800  0.121600  0.796100  1.0  -0.1333
  C  C127  1  0.666667  0.152100  0.748800  1.0  -0.0661
  C  C128  1  0.721400  0.141500  0.827600  1.0  0.7474
  C  C129  1  0.638900  0.242400  0.656100  1.0  0.6563
  C  C130  1  0.763500  0.277600  0.930300  1.0  0.6656
  C  C131  1  0.640800  0.261200  0.607800  1.0  -0.1427
  C  C132  1  0.753600  0.367900  0.934400  1.0  -0.1033
  C  C133  1  0.621100  0.217600  0.565300  1.0  0.0842
  C  C134  1  0.674600  0.331200  0.589800  1.0  -0.0664
  C  C135  1  0.804600  0.422800  0.926100  1.0  -0.0434
  C  C136  1  0.695600  0.397400  0.949600  1.0  -0.0324
  C  C137  1  0.792600  0.509500  0.930900  1.0  -0.1455
  C  C138  1  0.685000  0.482900  0.950900  1.0  0.1324
  C  C139  1  0.732400  0.538400  0.946200  1.0  -0.0347
  C  C140  1  0.844500  0.573700  0.921100  1.0  0.7192
  C  C141  1  0.566500  0.478700  0.972500  1.0  0.5628
  C  C142  1  0.510300  0.530300  0.973600  1.0  -0.0831
  C  C143  1  0.448700  0.494700  0.972900  1.0  -0.0776
  C  C144  1  0.499600  0.618300  0.970600  1.0  0.1125
  C  C145  1  0.517900  0.860700  0.962500  1.0  0.6958
  C  C146  1  0.567800  0.880500  0.998600  1.0  -0.1103
  C  C147  1  0.620800  0.928000  0.980800  1.0  -0.0409
  C  C148  1  0.564400  0.852600  0.042200  1.0  -0.0533
  C  C149  1  0.669700  0.940800  0.010900  1.0  -0.0598
  C  C150  1  0.610500  0.868300  0.076300  1.0  0.1943
  C  C151  1  0.668000  0.915400  0.056800  1.0  -0.0619
  C  C152  1  0.728400  0.990800  0.993800  1.0  0.7322
  C  C153  1  0.567100  0.795100  0.144100  1.0  0.5568
  C  C154  1  0.578600  0.768200  0.190700  1.0  -0.0729
  C  C155  1  0.535200  0.718900  0.217200  1.0  -0.0599
  C  C156  1  0.625100  0.785500  0.226300  1.0  0.1086
  C  C157  1  0.266100  0.615500  0.319100  1.0  0.0591
  C  C158  1  0.271100  0.530200  0.314600  1.0  0.0279
  C  C159  1  0.212500  0.503600  0.308700  1.0  -0.0161
  C  C160  1  0.328500  0.473700  0.322700  1.0  0.6454
  C  C161  1  0.444500  0.478800  0.336300  1.0  0.2322
  C  C162  1  0.495100  0.538600  0.345600  1.0  -0.0802
  C  C163  1  0.456300  0.395400  0.341400  1.0  0.0091
  C  C164  1  0.555800  0.508700  0.357800  1.0  -0.1463
  C  C165  1  0.516300  0.368100  0.356500  1.0  -0.1479
  C  C166  1  0.566700  0.427300  0.364000  1.0  -0.0064
  C  C167  1  0.609500  0.572400  0.366900  1.0  0.7231
  C  C168  1  0.528000  0.276900  0.360500  1.0  0.7114
  C  C169  1  0.497200  0.986500  0.296400  1.0  0.7909
  C  C170  1  0.440300  0.939600  0.278700  1.0  -0.1218
  C  C171  1  0.439600  0.904700  0.233900  1.0  -0.0863
  C  C172  1  0.388800  0.923800  0.310700  1.0  0.0289
  C  C173  1  0.387400  0.860400  0.218200  1.0  0.1995
  C  C174  1  0.336200  0.878400  0.296100  1.0  -0.1331
  C  C175  1  0.333333  0.847900  0.248800  1.0  -0.0676
  C  C176  1  0.278600  0.858500  0.327600  1.0  0.7479
  C  C177  1  0.361100  0.757600  0.156100  1.0  0.6564
  C  C178  1  0.236500  0.722400  0.430300  1.0  0.664
  C  C179  1  0.359200  0.738800  0.107800  1.0  -0.1429
  C  C180  1  0.246400  0.632100  0.434400  1.0  -0.1049
  C  C181  1  0.378900  0.782400  0.065300  1.0  0.0855
  C  C182  1  0.325400  0.668800  0.089800  1.0  -0.0663
  C  C183  1  0.195400  0.577200  0.426100  1.0  -0.0426
  C  C184  1  0.304400  0.602600  0.449600  1.0  -0.0319
  C  C185  1  0.207400  0.490500  0.430900  1.0  -0.1436
  C  C186  1  0.315000  0.517100  0.450900  1.0  0.1337
  C  C187  1  0.267600  0.461600  0.446200  1.0  -0.0343
  C  C188  1  0.155500  0.426300  0.421100  1.0  0.7197
  C  C189  1  0.433500  0.521300  0.472500  1.0  0.5641
  C  C190  1  0.489700  0.469700  0.473600  1.0  -0.0854
  C  C191  1  0.551300  0.505300  0.472900  1.0  -0.0764
  C  C192  1  0.500400  0.381700  0.470600  1.0  0.1131
  C  C193  1  0.482100  0.139300  0.462500  1.0  0.695
  C  C194  1  0.432200  0.119500  0.498600  1.0  -0.11
  C  C195  1  0.379200  0.072000  0.480800  1.0  -0.0408
  C  C196  1  0.435600  0.147400  0.542200  1.0  -0.0502
  C  C197  1  0.330300  0.059200  0.510900  1.0  -0.0605
  C  C198  1  0.389500  0.131700  0.576300  1.0  0.1944
  C  C199  1  0.332000  0.084600  0.556800  1.0  -0.0626
  C  C200  1  0.271600  0.009200  0.493800  1.0  0.7316
  C  C201  1  0.432900  0.204900  0.644100  1.0  0.5565
  C  C202  1  0.421400  0.231800  0.690700  1.0  -0.0722
  C  C203  1  0.464800  0.281100  0.717200  1.0  -0.0556
  C  C204  1  0.374900  0.214500  0.726300  1.0  0.108
  C  C205  1  0.233900  0.115500  0.819100  1.0  0.0595
  C  C206  1  0.228900  0.030200  0.814600  1.0  0.0289
  C  C207  1  0.287500  0.003600  0.808700  1.0  -0.0153
  C  C208  1  0.171500  0.973700  0.822700  1.0  0.6453
  C  C209  1  0.055500  0.978800  0.836300  1.0  0.2316
  C  C210  1  0.004900  0.038600  0.845600  1.0  -0.0808
  C  C211  1  0.043700  0.895400  0.841400  1.0  0.0078
  C  C212  1  0.944200  0.008700  0.857800  1.0  -0.1463
  C  C213  1  0.983700  0.868100  0.856500  1.0  -0.1475
  C  C214  1  0.933300  0.927300  0.864000  1.0  -0.005
  C  C215  1  0.890500  0.072400  0.866900  1.0  0.7234
  C  C216  1  0.972000  0.776900  0.860500  1.0  0.7114
  C  C217  1  0.002800  0.486500  0.796400  1.0  0.7917
  C  C218  1  0.059700  0.439600  0.778700  1.0  -0.1219
  C  C219  1  0.060400  0.404700  0.733900  1.0  -0.0866
  C  C220  1  0.111200  0.423800  0.810700  1.0  0.0286
  C  C221  1  0.112600  0.360400  0.718200  1.0  0.1994
  C  C222  1  0.163800  0.378400  0.796100  1.0  -0.1335
  C  C223  1  0.166700  0.347900  0.748800  1.0  -0.02
  C  C224  1  0.221400  0.358500  0.827600  1.0  0.7471
  C  C225  1  0.138900  0.257600  0.656100  1.0  0.6559
  C  C226  1  0.263500  0.222400  0.930300  1.0  0.6643
  C  C227  1  0.140800  0.238800  0.607800  1.0  -0.1433
  C  C228  1  0.253600  0.132100  0.934400  1.0  -0.1052
  C  C229  1  0.121100  0.282400  0.565300  1.0  0.0845
  C  C230  1  0.174600  0.168800  0.589800  1.0  -0.0664
  C  C231  1  0.304600  0.077200  0.926100  1.0  -0.0437
  C  C232  1  0.195600  0.102600  0.949600  1.0  -0.0329
  C  C233  1  0.292600  0.990500  0.930900  1.0  -0.1444
  C  C234  1  0.185000  0.017100  0.950900  1.0  0.1323
  C  C235  1  0.232400  0.961600  0.946200  1.0  -0.0346
  C  C236  1  0.344500  0.926300  0.921100  1.0  0.7192
  C  C237  1  0.066500  0.021300  0.972500  1.0  0.5644
  C  C238  1  0.010300  0.969700  0.973600  1.0  -0.0837
  C  C239  1  0.948700  0.005300  0.972900  1.0  -0.0754
  C  C240  1  0.999600  0.881700  0.970600  1.0  0.1129
  C  C241  1  0.017900  0.639300  0.962500  1.0  0.6956
  C  C242  1  0.067800  0.619500  0.998600  1.0  -0.1107
  C  C243  1  0.120800  0.572000  0.980800  1.0  -0.0413
  C  C244  1  0.064400  0.647400  0.042200  1.0  -0.0526
  C  C245  1  0.169700  0.559200  0.010900  1.0  -0.0592
  C  C246  1  0.110500  0.631700  0.076300  1.0  0.1947
  C  C247  1  0.168000  0.584600  0.056800  1.0  -0.0618
  C  C248  1  0.228400  0.509200  0.993800  1.0  0.7327
  C  C249  1  0.067100  0.704900  0.144100  1.0  0.5567
  C  C250  1  0.078600  0.731800  0.190700  1.0  -0.073
  C  C251  1  0.035200  0.781100  0.217200  1.0  -0.0582
  C  C252  1  0.125100  0.714500  0.226300  1.0  0.1088
  C  C253  1  0.766100  0.884500  0.319100  1.0  0.0584
  C  C254  1  0.771100  0.969800  0.314600  1.0  0.0281
  C  C255  1  0.712500  0.996400  0.308700  1.0  -0.0135
  C  C256  1  0.828500  0.026300  0.322700  1.0  0.6452
  C  C257  1  0.944500  0.021200  0.336300  1.0  0.2315
  C  C258  1  0.995100  0.961400  0.345600  1.0  -0.077
  C  C259  1  0.956300  0.104600  0.341400  1.0  -0.0017
  C  C260  1  0.055800  0.991300  0.357800  1.0  -0.1468
  C  C261  1  0.016300  0.131900  0.356500  1.0  -0.1478
  C  C262  1  0.066700  0.072700  0.364000  1.0  -0.0068
  C  C263  1  0.109500  0.927600  0.366900  1.0  0.723
  C  C264  1  0.028000  0.223100  0.360500  1.0  0.7092
  C  C265  1  0.997200  0.513500  0.296400  1.0  0.7909
  C  C266  1  0.940300  0.560400  0.278700  1.0  -0.122
  C  C267  1  0.939600  0.595300  0.233900  1.0  -0.0871
  C  C268  1  0.888800  0.576200  0.310700  1.0  0.0302
  C  C269  1  0.887400  0.639600  0.218200  1.0  0.1991
  C  C270  1  0.836200  0.621600  0.296100  1.0  -0.1329
  C  C271  1  0.833300  0.652100  0.248800  1.0  -0.0214
  C  C272  1  0.778600  0.641500  0.327600  1.0  0.7482
  C  C273  1  0.861100  0.742400  0.156100  1.0  0.6569
  C  C274  1  0.736500  0.777600  0.430300  1.0  0.6651
  C  C275  1  0.859200  0.761200  0.107800  1.0  -0.1423
  C  C276  1  0.746400  0.867900  0.434400  1.0  -0.1031
  C  C277  1  0.878900  0.717600  0.065300  1.0  0.0849
  C  C278  1  0.825400  0.831200  0.089800  1.0  -0.0666
  C  C279  1  0.695400  0.922800  0.426100  1.0  -0.0424
  C  C280  1  0.804400  0.897400  0.449600  1.0  -0.0325
  C  C281  1  0.707400  0.009500  0.430900  1.0  -0.144
  C  C282  1  0.815000  0.982900  0.450900  1.0  0.1333
  C  C283  1  0.767600  0.038400  0.446200  1.0  -0.0339
  C  C284  1  0.655500  0.073700  0.421100  1.0  0.7196
  C  C285  1  0.933500  0.978700  0.472500  1.0  0.5629
  C  C286  1  0.989700  0.030300  0.473600  1.0  -0.0853
  C  C287  1  0.051300  0.994700  0.472900  1.0  -0.0783
  C  C288  1  0.000400  0.118300  0.470600  1.0  0.1123
  C  C289  1  0.982100  0.360700  0.462500  1.0  0.6953
  C  C290  1  0.932200  0.380500  0.498600  1.0  -0.1098
  C  C291  1  0.879200  0.428000  0.480800  1.0  -0.0406
  C  C292  1  0.935600  0.352600  0.542200  1.0  -0.0506
  C  C293  1  0.830300  0.440800  0.510900  1.0  -0.0606
  C  C294  1  0.889500  0.368300  0.576300  1.0  0.194
  C  C295  1  0.832000  0.415400  0.556800  1.0  -0.0628
  C  C296  1  0.771600  0.490800  0.493800  1.0  0.7325
  C  C297  1  0.932900  0.295100  0.644100  1.0  0.5567
  C  C298  1  0.921400  0.268200  0.690700  1.0  -0.0729
  C  C299  1  0.964800  0.218900  0.717200  1.0  -0.06
  C  C300  1  0.874900  0.285500  0.726300  1.0  0.1079
  N  N301  1  0.796300  0.360000  0.817300  1.0  -0.321
  N  N302  1  0.883900  0.248300  0.763700  1.0  -0.2158
  N  N303  1  0.827500  0.433400  0.811100  1.0  -0.2085
  N  N304  1  0.616200  0.484800  0.828200  1.0  -0.3867
  N  N305  1  0.613900  0.170400  0.670900  1.0  -0.2747
  N  N306  1  0.643400  0.253200  0.524200  1.0  -0.4124
  N  N307  1  0.674100  0.324800  0.543100  1.0  -0.2331
  N  N308  1  0.623300  0.518100  0.965800  1.0  -0.3899
  N  N309  1  0.408500  0.562300  0.972200  1.0  -0.2286
  N  N310  1  0.439800  0.637900  0.968500  1.0  -0.3102
  N  N311  1  0.611900  0.843700  0.121600  1.0  -0.4126
  N  N312  1  0.562200  0.709000  0.257500  1.0  -0.1223
  N  N313  1  0.203700  0.640000  0.317300  1.0  -0.3222
  N  N314  1  0.116100  0.751700  0.263700  1.0  -0.2154
  N  N315  1  0.172500  0.566600  0.311100  1.0  -0.2067
  N  N316  1  0.383800  0.515200  0.328200  1.0  -0.388
  N  N317  1  0.386100  0.829600  0.170900  1.0  -0.2745
  N  N318  1  0.356600  0.746800  0.024200  1.0  -0.4116
  N  N319  1  0.325900  0.675200  0.043100  1.0  -0.2321
  N  N320  1  0.376700  0.481900  0.465800  1.0  -0.3902
  N  N321  1  0.591500  0.437700  0.472200  1.0  -0.2272
  N  N322  1  0.560200  0.362100  0.468500  1.0  -0.3108
  N  N323  1  0.388100  0.156300  0.621600  1.0  -0.4141
  N  N324  1  0.437800  0.291000  0.757500  1.0  -0.1228
  N  N325  1  0.296300  0.140000  0.817300  1.0  -0.3222
  N  N326  1  0.383900  0.251700  0.763700  1.0  -0.2159
  N  N327  1  0.327500  0.066600  0.811100  1.0  -0.208
  N  N328  1  0.116200  0.015200  0.828200  1.0  -0.3881
  N  N329  1  0.113900  0.329600  0.670900  1.0  -0.274
  N  N330  1  0.143400  0.246800  0.524200  1.0  -0.4109
  N  N331  1  0.174100  0.175200  0.543100  1.0  -0.2334
  N  N332  1  0.123300  0.981900  0.965800  1.0  -0.3902
  N  N333  1  0.908500  0.937700  0.972200  1.0  -0.2284
  N  N334  1  0.939800  0.862100  0.968500  1.0  -0.311
  N  N335  1  0.111900  0.656300  0.121600  1.0  -0.4121
  N  N336  1  0.062200  0.791000  0.257500  1.0  -0.1234
  N  N337  1  0.703700  0.860000  0.317300  1.0  -0.3208
  N  N338  1  0.616100  0.748300  0.263700  1.0  -0.2152
  N  N339  1  0.672500  0.933400  0.311100  1.0  -0.2068
  N  N340  1  0.883800  0.984800  0.328200  1.0  -0.3865
  N  N341  1  0.886100  0.670400  0.170900  1.0  -0.2747
  N  N342  1  0.856600  0.753200  0.024200  1.0  -0.4133
  N  N343  1  0.825900  0.824800  0.043100  1.0  -0.2316
  N  N344  1  0.876700  0.018100  0.465800  1.0  -0.3894
  N  N345  1  0.091500  0.062300  0.472200  1.0  -0.2273
  N  N346  1  0.060200  0.137900  0.468500  1.0  -0.3105
  N  N347  1  0.888100  0.343700  0.621600  1.0  -0.4138
  N  N348  1  0.937800  0.209000  0.757500  1.0  -0.1221
  O  O349  1  0.897500  0.143100  0.847400  1.0  -0.6028
  O  O350  1  0.763700  0.185500  0.810900  1.0  -0.575
  O  O351  1  0.810200  0.247300  0.905000  1.0  -0.7219
  O  O352  1  0.677600  0.600400  0.825500  1.0  -0.4173
  O  O353  1  0.346700  0.448100  0.893600  1.0  -0.5879
  O  O354  1  0.425000  0.752400  0.883000  1.0  -0.6538
  O  O355  1  0.511400  0.772300  0.841400  1.0  -0.5758
  O  O356  1  0.510300  0.971400  0.832800  1.0  -0.5932
  O  O357  1  0.387800  0.949900  0.895500  1.0  -0.5712
  O  O358  1  0.517600  0.889900  0.921600  1.0  -0.5782
  O  O359  1  0.454200  0.017200  0.773200  1.0  -0.4537
  O  O360  1  0.715200  0.112600  0.868300  1.0  -0.5929
  O  O361  1  0.721000  0.033200  0.956500  1.0  -0.5998
  O  O362  1  0.727200  0.229300  0.950600  1.0  -0.5719
  O  O363  1  0.658000  0.296400  0.686800  1.0  -0.5328
  O  O364  1  0.837200  0.646200  0.940000  1.0  -0.6495
  O  O365  1  0.562500  0.399100  0.972400  1.0  -0.4726
  O  O366  1  0.469800  0.813500  0.978800  1.0  -0.636
  O  O367  1  0.780600  0.982000  0.016400  1.0  -0.5275
  O  O368  1  0.524200  0.760700  0.121300  1.0  -0.4654
  O  O369  1  0.102500  0.856900  0.347400  1.0  -0.6014
  O  O370  1  0.236300  0.814500  0.310900  1.0  -0.5754
  O  O371  1  0.189800  0.752700  0.405000  1.0  -0.7238
  O  O372  1  0.322400  0.399600  0.325500  1.0  -0.4194
  O  O373  1  0.653300  0.551900  0.393600  1.0  -0.5887
  O  O374  1  0.575000  0.247600  0.383000  1.0  -0.6539
  O  O375  1  0.488600  0.227700  0.341400  1.0  -0.5742
  O  O376  1  0.489700  0.028600  0.332800  1.0  -0.5949
  O  O377  1  0.612200  0.050100  0.395500  1.0  -0.5709
  O  O378  1  0.482400  0.110100  0.421600  1.0  -0.5788
  O  O379  1  0.545800  0.982800  0.273200  1.0  -0.4539
  O  O380  1  0.284800  0.887400  0.368300  1.0  -0.5927
  O  O381  1  0.279000  0.966800  0.456500  1.0  -0.5991
  O  O382  1  0.272800  0.770700  0.450600  1.0  -0.5675
  O  O383  1  0.342000  0.703600  0.186800  1.0  -0.5317
  O  O384  1  0.162800  0.353800  0.440000  1.0  -0.65
  O  O385  1  0.437500  0.600900  0.472400  1.0  -0.4813
  O  O386  1  0.530200  0.186500  0.478800  1.0  -0.6371
  O  O387  1  0.219400  0.018000  0.516400  1.0  -0.5286
  O  O388  1  0.475800  0.239300  0.621300  1.0  -0.4682
  O  O389  1  0.397500  0.356900  0.847400  1.0  -0.6012
  O  O390  1  0.263700  0.314500  0.810900  1.0  -0.5748
  O  O391  1  0.310200  0.252700  0.905000  1.0  -0.7221
  O  O392  1  0.177600  0.899600  0.825500  1.0  -0.4188
  O  O393  1  0.846700  0.051900  0.893600  1.0  -0.588
  O  O394  1  0.925000  0.747600  0.883000  1.0  -0.6544
  O  O395  1  0.011400  0.727700  0.841400  1.0  -0.5746
  O  O396  1  0.010300  0.528600  0.832800  1.0  -0.5942
  O  O397  1  0.887800  0.550100  0.895500  1.0  -0.5711
  O  O398  1  0.017600  0.610100  0.921600  1.0  -0.5785
  O  O399  1  0.954200  0.482800  0.773200  1.0  -0.4535
  O  O400  1  0.215200  0.387400  0.868300  1.0  -0.5936
  O  O401  1  0.221000  0.466800  0.956500  1.0  -0.6002
  O  O402  1  0.227200  0.270700  0.950600  1.0  -0.5682
  O  O403  1  0.158000  0.203600  0.686800  1.0  -0.5311
  O  O404  1  0.337200  0.853800  0.940000  1.0  -0.6498
  O  O405  1  0.062500  0.100900  0.972400  1.0  -0.4737
  O  O406  1  0.969800  0.686500  0.978800  1.0  -0.6358
  O  O407  1  0.280600  0.518000  0.016400  1.0  -0.5277
  O  O408  1  0.024200  0.739300  0.121300  1.0  -0.4651
  O  O409  1  0.602500  0.643100  0.347400  1.0  -0.6029
  O  O410  1  0.736300  0.685500  0.310900  1.0  -0.5756
  O  O411  1  0.689800  0.747300  0.405000  1.0  -0.7232
  O  O412  1  0.822400  0.100400  0.325500  1.0  -0.4235
  O  O413  1  0.153300  0.948100  0.393600  1.0  -0.5884
  O  O414  1  0.075000  0.252400  0.383000  1.0  -0.6531
  O  O415  1  0.988600  0.272300  0.341400  1.0  -0.5814
  O  O416  1  0.989700  0.471400  0.332800  1.0  -0.594
  O  O417  1  0.112200  0.449900  0.395500  1.0  -0.5707
  O  O418  1  0.982400  0.389900  0.421600  1.0  -0.5785
  O  O419  1  0.045800  0.517200  0.273200  1.0  -0.4538
  O  O420  1  0.784800  0.612600  0.368300  1.0  -0.592
  O  O421  1  0.779000  0.533200  0.456500  1.0  -0.5989
  O  O422  1  0.772800  0.729300  0.450600  1.0  -0.5679
  O  O423  1  0.842000  0.796400  0.186800  1.0  -0.5334
  O  O424  1  0.662800  0.146200  0.440000  1.0  -0.6493
  O  O425  1  0.937500  0.899100  0.472400  1.0  -0.485
  O  O426  1  0.030200  0.313500  0.478800  1.0  -0.6372
  O  O427  1  0.719400  0.482000  0.516400  1.0  -0.528
  O  O428  1  0.975800  0.260700  0.621300  1.0  -0.468
