# generated using pymatgen
data_ZnH10C16NO4
_symmetry_space_group_name_H-M   'P 1'
_cell_length_a   10.89600000
_cell_length_b   19.69800000
_cell_length_c   21.55400000
_cell_angle_alpha   90.00000000
_cell_angle_beta   100.48000000
_cell_angle_gamma   90.00000000
_symmetry_Int_Tables_number   1
_chemical_formula_structural   ZnH10C16NO4
_chemical_formula_sum   'Zn8 H80 C128 N8 O32'
_cell_volume   4548.95141585
_cell_formula_units_Z   8
loop_
 _symmetry_equiv_pos_site_id
 _symmetry_equiv_pos_as_xyz
  1  'x, y, z'
loop_
 _atom_site_type_symbol
 _atom_site_label
 _atom_site_symmetry_multiplicity
 _atom_site_fract_x
 _atom_site_fract_y
 _atom_site_fract_z
 _atom_site_occupancy
 _atom_site_charge
  Zn  Zn1  1  0.645120  0.050680  0.634650  1.0  0.9305
  Zn  Zn2  1  0.684600  0.947720  0.734910  1.0  0.9261
  Zn  Zn3  1  0.645120  0.449320  0.134650  1.0  0.9305
  Zn  Zn4  1  0.684600  0.552280  0.234910  1.0  0.9263
  Zn  Zn5  1  0.354880  0.550680  0.865350  1.0  0.9296
  Zn  Zn6  1  0.315400  0.447720  0.765090  1.0  0.9253
  Zn  Zn7  1  0.354880  0.949320  0.365350  1.0  0.9295
  Zn  Zn8  1  0.315400  0.052280  0.265090  1.0  0.9258
  H  H9  1  0.636200  0.912700  0.484800  1.0  0.0986
  H  H10  1  0.688600  0.763700  0.613900  1.0  0.1067
  H  H11  1  0.638400  0.834000  0.405700  1.0  0.1123
  H  H12  1  0.091800  0.921700  0.751900  1.0  0.1084
  H  H13  1  0.300300  0.921200  0.742500  1.0  0.1055
  H  H14  1  0.660100  0.302300  0.111900  1.0  0.0894
  H  H15  1  0.765600  0.093400  0.886500  1.0  0.1119
  H  H16  1  0.661400  0.382200  0.913100  1.0  0.12
  H  H17  1  0.594600  0.227300  0.759400  1.0  0.0972
  H  H18  1  0.666667  0.226000  0.033100  1.0  0.1232
  H  H19  1  0.697500  0.684800  0.535000  1.0  0.1141
  H  H20  1  0.027000  0.074700  0.627100  1.0  0.1083
  H  H21  1  0.586700  0.304400  0.839700  1.0  0.107
  H  H22  1  0.233900  0.072100  0.615600  1.0  0.0982
  H  H23  1  0.798400  0.636700  0.456900  1.0  0.1294
  H  H24  1  0.650800  0.454600  0.995100  1.0  0.0838
  H  H25  1  0.761200  0.171700  0.965100  1.0  0.1105
  H  H26  1  0.805700  0.566500  0.371800  1.0  0.0885
  H  H27  1  0.551400  0.673200  0.265300  1.0  0.0785
  H  H28  1  0.539600  0.745900  0.346300  1.0  0.1196
  H  H29  1  0.636200  0.587300  0.984800  1.0  0.0983
  H  H30  1  0.688600  0.736300  0.113900  1.0  0.107
  H  H31  1  0.638400  0.666000  0.905700  1.0  0.1122
  H  H32  1  0.091800  0.578300  0.251900  1.0  0.1083
  H  H33  1  0.300300  0.578800  0.242500  1.0  0.1051
  H  H34  1  0.660100  0.197700  0.611900  1.0  0.0897
  H  H35  1  0.765600  0.406600  0.386500  1.0  0.1123
  H  H36  1  0.661400  0.117800  0.413100  1.0  0.1204
  H  H37  1  0.594600  0.272700  0.259400  1.0  0.0974
  H  H38  1  0.666667  0.274000  0.533100  1.0  0.1231
  H  H39  1  0.697500  0.815200  0.035000  1.0  0.1139
  H  H40  1  0.027000  0.425300  0.127100  1.0  0.1076
  H  H41  1  0.586700  0.195600  0.339700  1.0  0.1069
  H  H42  1  0.233900  0.427900  0.115600  1.0  0.0979
  H  H43  1  0.798400  0.863300  0.956900  1.0  0.1297
  H  H44  1  0.650800  0.045400  0.495100  1.0  0.0848
  H  H45  1  0.761200  0.328300  0.465100  1.0  0.1106
  H  H46  1  0.805700  0.933500  0.871800  1.0  0.0879
  H  H47  1  0.551400  0.826800  0.765300  1.0  0.0785
  H  H48  1  0.539600  0.754100  0.846300  1.0  0.12
  H  H49  1  0.363800  0.412700  0.015200  1.0  0.0982
  H  H50  1  0.311400  0.263700  0.886100  1.0  0.1076
  H  H51  1  0.361600  0.334000  0.094300  1.0  0.1112
  H  H52  1  0.908200  0.421700  0.748100  1.0  0.1079
  H  H53  1  0.699700  0.421200  0.757500  1.0  0.1054
  H  H54  1  0.339900  0.802300  0.388100  1.0  0.0902
  H  H55  1  0.234400  0.593400  0.613500  1.0  0.1113
  H  H56  1  0.338600  0.882200  0.586900  1.0  0.119
  H  H57  1  0.405400  0.727300  0.740600  1.0  0.0973
  H  H58  1  0.333400  0.726000  0.466900  1.0  0.1231
  H  H59  1  0.302500  0.184800  0.965000  1.0  0.1139
  H  H60  1  0.973000  0.574700  0.872900  1.0  0.1078
  H  H61  1  0.413300  0.804400  0.660300  1.0  0.1071
  H  H62  1  0.766100  0.572100  0.884400  1.0  0.098
  H  H63  1  0.201600  0.136700  0.043100  1.0  0.1294
  H  H64  1  0.349200  0.954600  0.504900  1.0  0.0838
  H  H65  1  0.238800  0.671700  0.534900  1.0  0.1105
  H  H66  1  0.194300  0.066500  0.128200  1.0  0.0876
  H  H67  1  0.448600  0.173200  0.234700  1.0  0.0786
  H  H68  1  0.460400  0.245900  0.153700  1.0  0.12
  H  H69  1  0.363800  0.087300  0.515200  1.0  0.0979
  H  H70  1  0.311400  0.236300  0.386100  1.0  0.1078
  H  H71  1  0.361600  0.166000  0.594300  1.0  0.1111
  H  H72  1  0.908200  0.078300  0.248100  1.0  0.1082
  H  H73  1  0.699700  0.078800  0.257500  1.0  0.1053
  H  H74  1  0.339900  0.697700  0.888100  1.0  0.0897
  H  H75  1  0.234400  0.906600  0.113500  1.0  0.1121
  H  H76  1  0.338600  0.617800  0.086900  1.0  0.1197
  H  H77  1  0.405400  0.772700  0.240600  1.0  0.0973
  H  H78  1  0.333400  0.774000  0.966900  1.0  0.1233
  H  H79  1  0.302500  0.315200  0.465000  1.0  0.1139
  H  H80  1  0.973000  0.925300  0.372900  1.0  0.1079
  H  H81  1  0.413300  0.695600  0.160300  1.0  0.1072
  H  H82  1  0.766100  0.927900  0.384400  1.0  0.0982
  H  H83  1  0.201600  0.363300  0.543100  1.0  0.1293
  H  H84  1  0.349200  0.545400  0.004900  1.0  0.0848
  H  H85  1  0.238800  0.828300  0.034900  1.0  0.1103
  H  H86  1  0.194300  0.433500  0.628200  1.0  0.0879
  H  H87  1  0.448600  0.326800  0.734700  1.0  0.0789
  H  H88  1  0.460400  0.254100  0.653700  1.0  0.1204
  C  C89  1  0.663100  0.846800  0.557100  1.0  -0.1431
  C  C90  1  0.669800  0.751200  0.462060  1.0  0.0166
  C  C91  1  0.673500  0.701700  0.409990  1.0  0.1297
  C  C92  1  0.673500  0.151100  0.814240  1.0  -0.125
  C  C93  1  0.038200  0.998100  0.690300  1.0  -0.1238
  C  C94  1  0.648000  0.867000  0.494960  1.0  -0.0214
  C  C95  1  0.425200  0.998400  0.674710  1.0  0.6674
  C  C96  1  0.658400  0.898600  0.607910  1.0  0.6781
  C  C97  1  0.680200  0.777800  0.572100  1.0  -0.0294
  C  C98  1  0.669000  0.245600  0.911300  1.0  0.0057
  C  C99  1  0.665100  0.294800  0.962800  1.0  0.1133
  C  C100  1  0.650100  0.819800  0.447540  1.0  -0.1343
  C  C101  1  0.672300  0.098300  0.762960  1.0  0.6844
  C  C102  1  0.120500  0.952200  0.724900  1.0  -0.0595
  C  C103  1  0.245400  0.951900  0.719200  1.0  -0.054
  C  C104  1  0.288500  0.997200  0.678800  1.0  -0.1346
  C  C105  1  0.902100  0.998000  0.694900  1.0  0.6832
  C  C106  1  0.659500  0.318400  0.071300  1.0  0.1662
  C  C107  1  0.727800  0.135400  0.876800  1.0  -0.0583
  C  C108  1  0.660500  0.364700  0.953100  1.0  -0.1874
  C  C109  1  0.625200  0.215000  0.801000  1.0  -0.0419
  C  C110  1  0.664100  0.272200  0.024200  1.0  -0.2085
  C  C111  1  0.684600  0.730400  0.524800  1.0  -0.1219
  C  C112  1  0.081500  0.043600  0.649900  1.0  -0.0572
  C  C113  1  0.621600  0.261700  0.849400  1.0  -0.1172
  C  C114  1  0.205700  0.042500  0.643500  1.0  -0.0493
  C  C115  1  0.749400  0.646100  0.417800  1.0  -0.2181
  C  C116  1  0.654600  0.408100  0.002780  1.0  0.175
  C  C117  1  0.724800  0.182500  0.923800  1.0  -0.1357
  C  C118  1  0.752100  0.603700  0.366400  1.0  0.165
  C  C119  1  0.603600  0.666200  0.304000  1.0  0.1732
  C  C120  1  0.596400  0.710200  0.352400  1.0  -0.2108
  C  C121  1  0.663100  0.653200  0.057100  1.0  -0.1428
  C  C122  1  0.669800  0.748800  0.962060  1.0  0.0165
  C  C123  1  0.673500  0.798300  0.909990  1.0  0.1294
  C  C124  1  0.673500  0.348900  0.314240  1.0  -0.125
  C  C125  1  0.038200  0.501900  0.190300  1.0  -0.1238
  C  C126  1  0.648000  0.633000  0.994960  1.0  -0.0214
  C  C127  1  0.425200  0.501600  0.174710  1.0  0.6675
  C  C128  1  0.658400  0.601400  0.107910  1.0  0.6781
  C  C129  1  0.680200  0.722200  0.072100  1.0  -0.0277
  C  C130  1  0.669000  0.254400  0.411300  1.0  0.0074
  C  C131  1  0.665100  0.205200  0.462800  1.0  0.1129
  C  C132  1  0.650100  0.680200  0.947540  1.0  -0.134
  C  C133  1  0.672300  0.401700  0.262960  1.0  0.6848
  C  C134  1  0.120500  0.547800  0.224900  1.0  -0.0602
  C  C135  1  0.245400  0.548100  0.219200  1.0  -0.054
  C  C136  1  0.288500  0.502800  0.178800  1.0  -0.1346
  C  C137  1  0.902100  0.502000  0.194900  1.0  0.6831
  C  C138  1  0.659500  0.181600  0.571300  1.0  0.1656
  C  C139  1  0.727800  0.364600  0.376800  1.0  -0.0596
  C  C140  1  0.660500  0.135300  0.453100  1.0  -0.1868
  C  C141  1  0.625200  0.285000  0.301000  1.0  -0.0411
  C  C142  1  0.664100  0.227800  0.524200  1.0  -0.2087
  C  C143  1  0.684600  0.769600  0.024800  1.0  -0.1281
  C  C144  1  0.081500  0.456400  0.149900  1.0  -0.0568
  C  C145  1  0.621600  0.238300  0.349400  1.0  -0.1176
  C  C146  1  0.205700  0.457500  0.143500  1.0  -0.0495
  C  C147  1  0.749400  0.853900  0.917800  1.0  -0.2181
  C  C148  1  0.654600  0.091900  0.502780  1.0  0.1762
  C  C149  1  0.724800  0.317500  0.423800  1.0  -0.1365
  C  C150  1  0.752100  0.896300  0.866400  1.0  0.1641
  C  C151  1  0.603600  0.833800  0.804000  1.0  0.1728
  C  C152  1  0.596400  0.789800  0.852400  1.0  -0.2114
  C  C153  1  0.336900  0.346800  0.942900  1.0  -0.1419
  C  C154  1  0.330200  0.251200  0.037940  1.0  0.0182
  C  C155  1  0.326500  0.201700  0.090010  1.0  0.1298
  C  C156  1  0.326500  0.651100  0.685760  1.0  -0.1248
  C  C157  1  0.961800  0.498100  0.809700  1.0  -0.1246
  C  C158  1  0.352000  0.367000  0.005040  1.0  -0.0222
  C  C159  1  0.574800  0.498400  0.825290  1.0  0.6685
  C  C160  1  0.341600  0.398600  0.892090  1.0  0.6777
  C  C161  1  0.319800  0.277800  0.927900  1.0  -0.0287
  C  C162  1  0.331000  0.745600  0.588700  1.0  0.008
  C  C163  1  0.334900  0.794800  0.537200  1.0  0.1131
  C  C164  1  0.349900  0.319800  0.052460  1.0  -0.1318
  C  C165  1  0.327700  0.598300  0.737040  1.0  0.6842
  C  C166  1  0.879500  0.452200  0.775100  1.0  -0.0596
  C  C167  1  0.754600  0.451900  0.780800  1.0  -0.0533
  C  C168  1  0.711500  0.497200  0.821200  1.0  -0.1347
  C  C169  1  0.097900  0.498000  0.805100  1.0  0.6826
  C  C170  1  0.340500  0.818400  0.428700  1.0  0.1656
  C  C171  1  0.272200  0.635400  0.623200  1.0  -0.059
  C  C172  1  0.339500  0.864700  0.546900  1.0  -0.1871
  C  C173  1  0.374800  0.715000  0.699000  1.0  -0.0415
  C  C174  1  0.335900  0.772200  0.475800  1.0  -0.208
  C  C175  1  0.315400  0.230400  0.975200  1.0  -0.125
  C  C176  1  0.918500  0.543600  0.850100  1.0  -0.0567
  C  C177  1  0.378400  0.761700  0.650600  1.0  -0.1187
  C  C178  1  0.794300  0.542500  0.856500  1.0  -0.0503
  C  C179  1  0.250600  0.146100  0.082200  1.0  -0.2189
  C  C180  1  0.345400  0.908100  0.497220  1.0  0.1752
  C  C181  1  0.275200  0.682500  0.576200  1.0  -0.1366
  C  C182  1  0.247900  0.103700  0.133600  1.0  0.1657
  C  C183  1  0.396400  0.166200  0.196000  1.0  0.1738
  C  C184  1  0.403600  0.210200  0.147600  1.0  -0.2113
  C  C185  1  0.336900  0.153200  0.442900  1.0  -0.142
  C  C186  1  0.330200  0.248800  0.537940  1.0  0.0183
  C  C187  1  0.326500  0.298300  0.590010  1.0  0.1292
  C  C188  1  0.326500  0.848900  0.185760  1.0  -0.1247
  C  C189  1  0.961800  0.001900  0.309700  1.0  -0.1247
  C  C190  1  0.352000  0.133000  0.505040  1.0  -0.0225
  C  C191  1  0.574800  0.001600  0.325290  1.0  0.6686
  C  C192  1  0.341600  0.101400  0.392090  1.0  0.6775
  C  C193  1  0.319800  0.222200  0.427900  1.0  -0.0295
  C  C194  1  0.331000  0.754400  0.088700  1.0  0.0089
  C  C195  1  0.334900  0.705200  0.037200  1.0  0.1127
  C  C196  1  0.349900  0.180200  0.552460  1.0  -0.1318
  C  C197  1  0.327700  0.901700  0.237040  1.0  0.6844
  C  C198  1  0.879500  0.047800  0.275100  1.0  -0.06
  C  C199  1  0.754600  0.048100  0.280800  1.0  -0.0527
  C  C200  1  0.711500  0.002800  0.321200  1.0  -0.1348
  C  C201  1  0.097900  0.002000  0.305100  1.0  0.6825
  C  C202  1  0.340500  0.681600  0.928700  1.0  0.1659
  C  C203  1  0.272200  0.864600  0.123200  1.0  -0.0599
  C  C204  1  0.339500  0.635300  0.046900  1.0  -0.1868
  C  C205  1  0.374800  0.785000  0.199000  1.0  -0.0412
  C  C206  1  0.335900  0.727800  0.975800  1.0  -0.2082
  C  C207  1  0.315400  0.269600  0.475200  1.0  -0.1308
  C  C208  1  0.918500  0.956400  0.350100  1.0  -0.0566
  C  C209  1  0.378400  0.738300  0.150600  1.0  -0.1189
  C  C210  1  0.794300  0.957500  0.356500  1.0  -0.0497
  C  C211  1  0.250600  0.353900  0.582200  1.0  -0.2191
  C  C212  1  0.345400  0.591900  0.997220  1.0  0.1759
  C  C213  1  0.275200  0.817500  0.076200  1.0  -0.1368
  C  C214  1  0.247900  0.396300  0.633600  1.0  0.165
  C  C215  1  0.396400  0.333800  0.696000  1.0  0.1735
  C  C216  1  0.403600  0.289800  0.647600  1.0  -0.2122
  N  N217  1  0.654200  0.386030  0.061600  1.0  -0.3331
  N  N218  1  0.682100  0.613700  0.309950  1.0  -0.3041
  N  N219  1  0.654200  0.113970  0.561600  1.0  -0.3329
  N  N220  1  0.682100  0.886300  0.809950  1.0  -0.3042
  N  N221  1  0.345800  0.886030  0.438400  1.0  -0.3316
  N  N222  1  0.317900  0.113700  0.190050  1.0  -0.3033
  N  N223  1  0.345800  0.613970  0.938400  1.0  -0.3322
  N  N224  1  0.317900  0.386300  0.690050  1.0  -0.3038
  O  O225  1  0.641100  0.117170  0.707030  1.0  -0.5886
  O  O226  1  0.459200  0.034750  0.632880  1.0  -0.5741
  O  O227  1  0.661400  0.878040  0.663270  1.0  -0.5863
  O  O228  1  0.835100  0.042500  0.664400  1.0  -0.6045
  O  O229  1  0.865500  0.952120  0.728190  1.0  -0.588
  O  O230  1  0.497300  0.963300  0.714620  1.0  -0.6096
  O  O231  1  0.653000  0.959350  0.591020  1.0  -0.5946
  O  O232  1  0.701800  0.038930  0.781360  1.0  -0.6067
  O  O233  1  0.641100  0.382830  0.207030  1.0  -0.5886
  O  O234  1  0.459200  0.465250  0.132880  1.0  -0.5743
  O  O235  1  0.661400  0.621960  0.163270  1.0  -0.5859
  O  O236  1  0.835100  0.457500  0.164400  1.0  -0.6046
  O  O237  1  0.865500  0.547880  0.228190  1.0  -0.5882
  O  O238  1  0.497300  0.536700  0.214620  1.0  -0.6094
  O  O239  1  0.653000  0.540650  0.091020  1.0  -0.596
  O  O240  1  0.701800  0.461070  0.281360  1.0  -0.6068
  O  O241  1  0.358900  0.617170  0.792970  1.0  -0.5883
  O  O242  1  0.540800  0.534750  0.867120  1.0  -0.5745
  O  O243  1  0.338600  0.378040  0.836730  1.0  -0.5867
  O  O244  1  0.164900  0.542500  0.835600  1.0  -0.6055
  O  O245  1  0.134500  0.452120  0.771810  1.0  -0.5883
  O  O246  1  0.502700  0.463300  0.785380  1.0  -0.6085
  O  O247  1  0.347000  0.459350  0.908980  1.0  -0.5961
  O  O248  1  0.298200  0.538930  0.718640  1.0  -0.6069
  O  O249  1  0.358900  0.882830  0.292970  1.0  -0.5881
  O  O250  1  0.540800  0.965250  0.367120  1.0  -0.5741
  O  O251  1  0.338600  0.121960  0.336730  1.0  -0.5862
  O  O252  1  0.164900  0.957500  0.335600  1.0  -0.6052
  O  O253  1  0.134500  0.047880  0.271810  1.0  -0.5888
  O  O254  1  0.502700  0.036700  0.285380  1.0  -0.6079
  O  O255  1  0.347000  0.040650  0.408980  1.0  -0.5962
  O  O256  1  0.298200  0.961070  0.218640  1.0  -0.6071
