# generated using pymatgen
data_YH8C9O7
_symmetry_space_group_name_H-M   'P 1'
_cell_length_a   6.72600000
_cell_length_b   11.29800000
_cell_length_c   19.80760000
_cell_angle_alpha   106.57000000
_cell_angle_beta   91.12140000
_cell_angle_gamma   90.00000000
_symmetry_Int_Tables_number   1
_chemical_formula_structural   YH8C9O7
_chemical_formula_sum   'Y4 H32 C36 O28'
_cell_volume   1442.37830112
_cell_formula_units_Z   4
loop_
 _symmetry_equiv_pos_site_id
 _symmetry_equiv_pos_as_xyz
  1  'x, y, z'
loop_
 _atom_site_type_symbol
 _atom_site_label
 _atom_site_symmetry_multiplicity
 _atom_site_fract_x
 _atom_site_fract_y
 _atom_site_fract_z
 _atom_site_occupancy
 _atom_site_charge
  Y  Y1  1  0.817760  0.418950  0.257220  1.0  2.0665
  Y  Y2  1  0.682240  0.161730  0.742780  1.0  2.0666
  Y  Y3  1  0.182240  0.581050  0.742780  1.0  2.0652
  Y  Y4  1  0.317760  0.838270  0.257220  1.0  2.0662
  H  H5  1  0.817300  0.509800  0.531200  1.0  0.111
  H  H6  1  0.621100  0.728300  0.544800  1.0  0.0976
  H  H7  1  0.640700  0.518500  0.424200  1.0  0.0881
  H  H8  1  0.488900  0.747000  0.430200  1.0  0.1098
  H  H9  1  0.474300  0.334100  0.035800  1.0  0.11
  H  H10  1  0.593500  0.573800  0.064600  1.0  0.0871
  H  H11  1  0.969000  0.259900  0.169800  1.0  0.3334
  H  H12  1  0.894000  0.150000  0.184000  1.0  0.4136
  H  H13  1  0.682700  0.978600  0.468800  1.0  0.1095
  H  H14  1  0.878900  0.183500  0.455200  1.0  0.0973
  H  H15  1  0.859300  0.094300  0.575800  1.0  0.0864
  H  H16  1  0.011100  0.316800  0.569800  1.0  0.1096
  H  H17  1  0.025700  0.298300  0.964200  1.0  0.1098
  H  H18  1  0.906500  0.509200  0.935400  1.0  0.0888
  H  H19  1  0.531000  0.090100  0.830200  1.0  0.3361
  H  H20  1  0.606000  0.966000  0.816000  1.0  0.4158
  H  H21  1  0.182700  0.490200  0.468800  1.0  0.11
  H  H22  1  0.378900  0.271700  0.455200  1.0  0.0976
  H  H23  1  0.359300  0.481500  0.575800  1.0  0.0879
  H  H24  1  0.511100  0.253000  0.569800  1.0  0.1091
  H  H25  1  0.525700  0.665900  0.964200  1.0  0.1089
  H  H26  1  0.406500  0.426200  0.935400  1.0  0.0869
  H  H27  1  0.031000  0.740100  0.830200  1.0  0.3339
  H  H28  1  0.106000  0.850000  0.816000  1.0  0.4147
  H  H29  1  0.317300  0.021400  0.531200  1.0  0.1098
  H  H30  1  0.121100  0.816500  0.544800  1.0  0.0971
  H  H31  1  0.140700  0.905700  0.424200  1.0  0.0863
  H  H32  1  0.988900  0.683200  0.430200  1.0  0.11
  H  H33  1  0.974300  0.701700  0.035800  1.0  0.1089
  H  H34  1  0.093500  0.490800  0.064600  1.0  0.0886
  H  H35  1  0.469000  0.909900  0.169800  1.0  0.3352
  H  H36  1  0.394000  0.034000  0.184000  1.0  0.4086
  C  C37  1  0.836900  0.638400  0.630400  1.0  0.7399
  C  C38  1  0.775800  0.588800  0.555400  1.0  -0.245
  C  C39  1  0.665600  0.650100  0.520600  1.0  -0.0381
  C  C40  1  0.610900  0.600600  0.446400  1.0  0.039
  C  C41  1  0.521300  0.665100  0.408400  1.0  -0.2948
  C  C42  1  0.471100  0.612500  0.333400  1.0  0.8223
  C  C43  1  0.630100  0.410800  0.129600  1.0  0.7229
  C  C44  1  0.537200  0.406600  0.061600  1.0  -0.2624
  C  C45  1  0.539300  0.500200  0.036200  1.0  -0.0059
  C  C46  1  0.663100  0.008000  0.369600  1.0  0.74
  C  C47  1  0.724200  0.033400  0.444600  1.0  -0.2318
  C  C48  1  0.834400  0.129500  0.479400  1.0  -0.0328
  C  C49  1  0.889100  0.154200  0.553600  1.0  0.0292
  C  C50  1  0.978700  0.256700  0.591600  1.0  -0.2839
  C  C51  1  0.028900  0.279100  0.666667  1.0  0.8213
  C  C52  1  0.869900  0.281200  0.870400  1.0  0.7213
  C  C53  1  0.962800  0.345000  0.938400  1.0  -0.2553
  C  C54  1  0.960700  0.464000  0.963800  1.0  -0.0127
  C  C55  1  0.163100  0.361600  0.369600  1.0  0.7395
  C  C56  1  0.224200  0.411200  0.444600  1.0  -0.2446
  C  C57  1  0.334400  0.349900  0.479400  1.0  -0.0326
  C  C58  1  0.389100  0.399400  0.553600  1.0  0.0295
  C  C59  1  0.478700  0.334900  0.591600  1.0  -0.2959
  C  C60  1  0.528900  0.387500  0.666667  1.0  0.815
  C  C61  1  0.369900  0.589200  0.870400  1.0  0.7275
  C  C62  1  0.462800  0.593400  0.938400  1.0  -0.261
  C  C63  1  0.460700  0.499800  0.963800  1.0  -0.0114
  C  C64  1  0.336900  0.992000  0.630400  1.0  0.747
  C  C65  1  0.275800  0.966600  0.555400  1.0  -0.2414
  C  C66  1  0.165600  0.870500  0.520600  1.0  -0.0396
  C  C67  1  0.110900  0.845800  0.446400  1.0  0.0286
  C  C68  1  0.021300  0.743300  0.408400  1.0  -0.2967
  C  C69  1  0.971100  0.720900  0.333400  1.0  0.8241
  C  C70  1  0.130100  0.718800  0.129600  1.0  0.718
  C  C71  1  0.037200  0.655000  0.061600  1.0  -0.262
  C  C72  1  0.039300  0.536000  0.036200  1.0  -0.0032
  O  O73  1  0.752100  0.729370  0.668940  1.0  -0.6161
  O  O74  1  0.980100  0.582420  0.649840  1.0  -0.7631
  O  O75  1  0.517800  0.501570  0.302340  1.0  -0.7244
  O  O76  1  0.877500  0.624290  0.303180  1.0  -0.7211
  O  O77  1  0.726400  0.504240  0.163680  1.0  -0.6549
  O  O78  1  0.618600  0.318980  0.153360  1.0  -0.7149
  O  O79  1  0.969800  0.225200  0.211200  1.0  -0.6971
  O  O80  1  0.747900  0.060430  0.331060  1.0  -0.6157
  O  O81  1  0.519900  0.932580  0.350160  1.0  -0.7655
  O  O82  1  0.982200  0.199230  0.697660  1.0  -0.7268
  O  O83  1  0.622500  0.321110  0.696820  1.0  -0.7223
  O  O84  1  0.773600  0.340560  0.836320  1.0  -0.6543
  O  O85  1  0.881400  0.165620  0.846640  1.0  -0.7235
  O  O86  1  0.530200  0.014000  0.788800  1.0  -0.7004
  O  O87  1  0.247900  0.270630  0.331060  1.0  -0.6138
  O  O88  1  0.019900  0.417580  0.350160  1.0  -0.7628
  O  O89  1  0.482200  0.498430  0.697660  1.0  -0.7233
  O  O90  1  0.122500  0.375710  0.696820  1.0  -0.722
  O  O91  1  0.273600  0.495760  0.836320  1.0  -0.6549
  O  O92  1  0.381400  0.681020  0.846640  1.0  -0.7128
  O  O93  1  0.030200  0.774800  0.788800  1.0  -0.6986
  O  O94  1  0.252100  0.939570  0.668940  1.0  -0.6166
  O  O95  1  0.480100  0.067420  0.649840  1.0  -0.7656
  O  O96  1  0.017800  0.800770  0.302340  1.0  -0.7282
  O  O97  1  0.377500  0.678890  0.303180  1.0  -0.7221
  O  O98  1  0.226400  0.659440  0.163680  1.0  -0.6533
  O  O99  1  0.118600  0.834380  0.153360  1.0  -0.7006
  O  O100  1  0.469800  0.986000  0.211200  1.0  -0.7005
