# generated using pymatgen
data_ErH6(C3O2)3
_symmetry_space_group_name_H-M   'P 1'
_cell_length_a   6.76700000
_cell_length_b   11.23100000
_cell_length_c   19.74250000
_cell_angle_alpha   106.52500000
_cell_angle_beta   90.92030000
_cell_angle_gamma   90.00000000
_symmetry_Int_Tables_number   1
_chemical_formula_structural   ErH6(C3O2)3
_chemical_formula_sum   'Er4 H24 C36 O24'
_cell_volume   1438.25727803
_cell_formula_units_Z   4
loop_
 _symmetry_equiv_pos_site_id
 _symmetry_equiv_pos_as_xyz
  1  'x, y, z'
loop_
 _atom_site_type_symbol
 _atom_site_label
 _atom_site_symmetry_multiplicity
 _atom_site_fract_x
 _atom_site_fract_y
 _atom_site_fract_z
 _atom_site_occupancy
 _atom_site_charge
  Er  Er1  1  0.809840  0.920250  0.259040  1.0  1.5731
  Er  Er2  1  0.690160  0.661210  0.740960  1.0  1.5715
  Er  Er3  1  0.190160  0.079750  0.740960  1.0  1.573
  Er  Er4  1  0.309840  0.338790  0.259040  1.0  1.5696
  H  H5  1  0.471600  0.833200  0.035800  1.0  0.1353
  H  H6  1  0.594900  0.075000  0.062400  1.0  0.097
  H  H7  1  0.485100  0.248300  0.432800  1.0  0.1176
  H  H8  1  0.629000  0.013100  0.426200  1.0  0.1043
  H  H9  1  0.619600  0.227600  0.546200  1.0  0.1035
  H  H10  1  0.827900  0.011000  0.530000  1.0  0.1182
  H  H11  1  0.028400  0.797400  0.964200  1.0  0.1341
  H  H12  1  0.905100  0.012600  0.937600  1.0  0.098
  H  H13  1  0.014900  0.815500  0.567200  1.0  0.1171
  H  H14  1  0.871000  0.586900  0.573800  1.0  0.1045
  H  H15  1  0.880400  0.681400  0.453800  1.0  0.1039
  H  H16  1  0.672100  0.481000  0.470000  1.0  0.1166
  H  H17  1  0.528400  0.166800  0.964200  1.0  0.1351
  H  H18  1  0.405100  0.925000  0.937600  1.0  0.097
  H  H19  1  0.514900  0.751700  0.567200  1.0  0.1177
  H  H20  1  0.371000  0.986900  0.573800  1.0  0.1054
  H  H21  1  0.380400  0.772400  0.453800  1.0  0.1044
  H  H22  1  0.172100  0.989000  0.470000  1.0  0.1178
  H  H23  1  0.971600  0.202600  0.035800  1.0  0.1385
  H  H24  1  0.094900  0.987400  0.062400  1.0  0.098
  H  H25  1  0.985100  0.184500  0.432800  1.0  0.1177
  H  H26  1  0.129000  0.413100  0.426200  1.0  0.1052
  H  H27  1  0.119600  0.318600  0.546200  1.0  0.1034
  H  H28  1  0.327900  0.519000  0.530000  1.0  0.1171
  C  C29  1  0.627600  0.910920  0.130240  1.0  0.6804
  C  C30  1  0.534900  0.905980  0.061360  1.0  -0.2302
  C  C31  1  0.538800  0.001210  0.034820  1.0  0.0041
  C  C32  1  0.462300  0.111980  0.335160  1.0  0.7517
  C  C33  1  0.514600  0.165600  0.410600  1.0  -0.2378
  C  C34  1  0.604700  0.096650  0.448100  1.0  0.0015
  C  C35  1  0.664700  0.149220  0.521840  1.0  -0.0026
  C  C36  1  0.781700  0.088820  0.555240  1.0  -0.2323
  C  C37  1  0.842800  0.138620  0.630640  1.0  0.7081
  C  C38  1  0.872400  0.780680  0.869760  1.0  0.6794
  C  C39  1  0.965100  0.844620  0.938640  1.0  -0.2297
  C  C40  1  0.961200  0.966390  0.965180  1.0  0.0003
  C  C41  1  0.037700  0.776820  0.664840  1.0  0.7494
  C  C42  1  0.985400  0.755000  0.589400  1.0  -0.2331
  C  C43  1  0.895300  0.648550  0.551900  1.0  -0.0008
  C  C44  1  0.835300  0.627380  0.478160  1.0  -0.0048
  C  C45  1  0.718300  0.533580  0.444760  1.0  -0.2351
  C  C46  1  0.657200  0.507980  0.369360  1.0  0.7084
  C  C47  1  0.372400  0.089080  0.869760  1.0  0.6811
  C  C48  1  0.465100  0.094020  0.938640  1.0  -0.2333
  C  C49  1  0.461200  0.998790  0.965180  1.0  -0.0014
  C  C50  1  0.537700  0.888020  0.664840  1.0  0.7474
  C  C51  1  0.485400  0.834400  0.589400  1.0  -0.2375
  C  C52  1  0.395300  0.903350  0.551900  1.0  0.0022
  C  C53  1  0.335300  0.850780  0.478160  1.0  -0.0032
  C  C54  1  0.218300  0.911180  0.444760  1.0  -0.2322
  C  C55  1  0.157200  0.861380  0.369360  1.0  0.7086
  C  C56  1  0.127600  0.219320  0.130240  1.0  0.677
  C  C57  1  0.034900  0.155380  0.061360  1.0  -0.2324
  C  C58  1  0.038800  0.033610  0.034820  1.0  0.0035
  C  C59  1  0.962300  0.223180  0.335160  1.0  0.7535
  C  C60  1  0.014600  0.245000  0.410600  1.0  -0.2384
  C  C61  1  0.104700  0.351450  0.448100  1.0  0.0013
  C  C62  1  0.164700  0.372620  0.521840  1.0  -0.004
  C  C63  1  0.281700  0.466420  0.555240  1.0  -0.2322
  C  C64  1  0.342800  0.492020  0.630640  1.0  0.7106
  O  O65  1  0.722700  0.005880  0.164760  1.0  -0.5897
  O  O66  1  0.613600  0.820250  0.155300  1.0  -0.6116
  O  O67  1  0.511000  0.002500  0.302200  1.0  -0.6666
  O  O68  1  0.370200  0.181600  0.307000  1.0  -0.6455
  O  O69  1  0.990800  0.084280  0.648760  1.0  -0.7059
  O  O70  1  0.757200  0.229620  0.669840  1.0  -0.4656
  O  O71  1  0.777300  0.841120  0.835240  1.0  -0.5898
  O  O72  1  0.886400  0.664950  0.844700  1.0  -0.6096
  O  O73  1  0.989000  0.700300  0.697800  1.0  -0.6694
  O  O74  1  0.129800  0.874600  0.693000  1.0  -0.6411
  O  O75  1  0.509200  0.435520  0.351240  1.0  -0.7048
  O  O76  1  0.742800  0.559780  0.330160  1.0  -0.4704
  O  O77  1  0.277300  0.994120  0.835240  1.0  -0.5891
  O  O78  1  0.386400  0.179750  0.844700  1.0  -0.6114
  O  O79  1  0.489000  0.997500  0.697800  1.0  -0.6663
  O  O80  1  0.629800  0.818400  0.693000  1.0  -0.6416
  O  O81  1  0.009200  0.915720  0.351240  1.0  -0.7046
  O  O82  1  0.242800  0.770380  0.330160  1.0  -0.4675
  O  O83  1  0.222700  0.158880  0.164760  1.0  -0.5913
  O  O84  1  0.113600  0.335050  0.155300  1.0  -0.6088
  O  O85  1  0.011000  0.299700  0.302200  1.0  -0.6701
  O  O86  1  0.870200  0.125400  0.307000  1.0  -0.643
  O  O87  1  0.490800  0.564480  0.648760  1.0  -0.708
  O  O88  1  0.257200  0.440220  0.669840  1.0  -0.4701
