# generated using pymatgen
data_Er2H26C42S3O19
_symmetry_space_group_name_H-M   'P 1'
_cell_length_a   12.60800000
_cell_length_b   12.76900000
_cell_length_c   21.87600000
_cell_angle_alpha   98.05000000
_cell_angle_beta   96.84000000
_cell_angle_gamma   118.10900000
_symmetry_Int_Tables_number   1
_chemical_formula_structural   Er2H26C42S3O19
_chemical_formula_sum   'Er4 H52 C84 S6 O38'
_cell_volume   3005.99227589
_cell_formula_units_Z   2
loop_
 _symmetry_equiv_pos_site_id
 _symmetry_equiv_pos_as_xyz
  1  'x, y, z'
loop_
 _atom_site_type_symbol
 _atom_site_label
 _atom_site_symmetry_multiplicity
 _atom_site_fract_x
 _atom_site_fract_y
 _atom_site_fract_z
 _atom_site_occupancy
 _atom_site_charge
  Er  Er1  1  0.061690  0.545210  0.094970  1.0  1.5626
  Er  Er2  1  0.931090  0.958430  0.402960  1.0  1.3902
  Er  Er3  1  0.938310  0.454790  0.905030  1.0  1.5656
  Er  Er4  1  0.068910  0.041570  0.597040  1.0  1.3883
  H  H5  1  0.676600  0.821500  0.377100  1.0  0.4668
  H  H6  1  0.743700  0.789700  0.350200  1.0  0.3786
  H  H7  1  0.102300  0.210700  0.895500  1.0  0.1232
  H  H8  1  0.188900  0.083800  0.894800  1.0  0.1256
  H  H9  1  0.170700  0.080000  0.078700  1.0  0.1416
  H  H10  1  0.093400  0.214700  0.079200  1.0  0.1129
  H  H11  1  0.662400  0.257700  0.111200  1.0  0.1208
  H  H12  1  0.454300  0.105900  0.093500  1.0  0.1279
  H  H13  1  0.420200  0.102200  0.906800  1.0  0.1297
  H  H14  1  0.627100  0.248400  0.924600  1.0  0.115
  H  H15  1  0.453200  0.645100  0.302900  1.0  0.1071
  H  H16  1  0.532200  0.518300  0.323600  1.0  0.1245
  H  H17  1  0.373400  0.313700  0.144600  1.0  0.1131
  H  H18  1  0.300400  0.445900  0.123300  1.0  0.1056
  H  H19  1  0.135800  0.921000  0.174200  1.0  0.1134
  H  H20  1  0.324000  0.079800  0.167400  1.0  0.1173
  H  H21  1  0.377600  0.239500  0.350900  1.0  0.1206
  H  H22  1  0.180400  0.085500  0.354000  1.0  0.109
  H  H23  1  0.223900  0.314700  0.396400  1.0  0.1145
  H  H24  1  0.360700  0.512500  0.388400  1.0  0.125
  H  H25  1  0.427000  0.627600  0.578000  1.0  0.1223
  H  H26  1  0.289500  0.430500  0.585800  1.0  0.1173
  H  H27  1  0.303800  0.937000  0.565900  1.0  0.1206
  H  H28  1  0.440900  0.860300  0.569400  1.0  0.126
  H  H29  1  0.370800  0.773600  0.377900  1.0  0.1231
  H  H30  1  0.232200  0.850500  0.374400  1.0  0.1175
  H  H31  1  0.323400  0.178500  0.622900  1.0  0.4695
  H  H32  1  0.256300  0.210300  0.649800  1.0  0.3787
  H  H33  1  0.897700  0.789300  0.104500  1.0  0.1236
  H  H34  1  0.811100  0.916200  0.105200  1.0  0.1257
  H  H35  1  0.829300  0.920000  0.921300  1.0  0.1418
  H  H36  1  0.906600  0.785300  0.920800  1.0  0.1131
  H  H37  1  0.337600  0.742300  0.888800  1.0  0.1212
  H  H38  1  0.545700  0.894100  0.906500  1.0  0.1277
  H  H39  1  0.579800  0.897800  0.093200  1.0  0.1294
  H  H40  1  0.372900  0.751600  0.075400  1.0  0.115
  H  H41  1  0.546800  0.354900  0.697100  1.0  0.1074
  H  H42  1  0.467800  0.481700  0.676400  1.0  0.1241
  H  H43  1  0.626600  0.686300  0.855400  1.0  0.1126
  H  H44  1  0.699600  0.554100  0.876700  1.0  0.1064
  H  H45  1  0.864200  0.079000  0.825800  1.0  0.1128
  H  H46  1  0.676000  0.920200  0.832600  1.0  0.1171
  H  H47  1  0.622400  0.760500  0.649100  1.0  0.1206
  H  H48  1  0.819600  0.914500  0.646000  1.0  0.1083
  H  H49  1  0.776100  0.685300  0.603600  1.0  0.1145
  H  H50  1  0.639300  0.487500  0.611600  1.0  0.1247
  H  H51  1  0.573000  0.372400  0.422000  1.0  0.1215
  H  H52  1  0.710500  0.569500  0.414200  1.0  0.1178
  H  H53  1  0.696200  0.063000  0.434100  1.0  0.1204
  H  H54  1  0.559100  0.139700  0.430600  1.0  0.1266
  H  H55  1  0.629200  0.226400  0.622100  1.0  0.123
  H  H56  1  0.767800  0.149500  0.625600  1.0  0.1176
  C  C57  1  0.051000  0.320400  0.991300  1.0  0.7178
  C  C58  1  0.092300  0.225800  0.988300  1.0  -0.1068
  C  C59  1  0.118600  0.186000  0.932900  1.0  -0.0344
  C  C60  1  0.168700  0.109900  0.932400  1.0  -0.0272
  C  C61  1  0.188900  0.072400  0.985900  1.0  -0.2107
  C  C62  1  0.159100  0.108400  0.042000  1.0  -0.0649
  C  C63  1  0.112200  0.187000  0.041600  1.0  0.0024
  C  C64  1  0.796500  0.364400  0.031300  1.0  0.7141
  C  C65  1  0.663800  0.269000  0.019400  1.0  -0.112
  C  C66  1  0.613100  0.226000  0.069600  1.0  -0.0356
  C  C67  1  0.489100  0.135800  0.059300  1.0  0.0172
  C  C68  1  0.419300  0.091600  0.999500  1.0  -0.1665
  C  C69  1  0.469600  0.133600  0.948400  1.0  -0.0502
  C  C70  1  0.591800  0.220900  0.959200  1.0  -0.0167
  C  C71  1  0.306900  0.633400  0.199900  1.0  0.7261
  C  C72  1  0.366000  0.557900  0.211300  1.0  -0.1046
  C  C73  1  0.437000  0.578300  0.270600  1.0  -0.0202
  C  C74  1  0.484000  0.503100  0.283200  1.0  -0.0797
  C  C75  1  0.459800  0.404400  0.235500  1.0  -0.184
  C  C76  1  0.390500  0.381500  0.176500  1.0  -0.074
  C  C77  1  0.345700  0.459700  0.164300  1.0  -0.0184
  C  C78  1  0.011900  0.888900  0.267500  1.0  0.7058
  C  C79  1  0.139500  0.988500  0.264800  1.0  -0.0941
  C  C80  1  0.183600  0.987000  0.209600  1.0  -0.0219
  C  C81  1  0.295800  0.080200  0.205800  1.0  -0.0216
  C  C82  1  0.368100  0.175500  0.258600  1.0  -0.193
  C  C83  1  0.327400  0.176600  0.314400  1.0  -0.0503
  C  C84  1  0.210800  0.083400  0.316500  1.0  -0.0483
  C  C85  1  0.152300  0.223500  0.495800  1.0  0.7325
  C  C86  1  0.243000  0.352600  0.491300  1.0  -0.1063
  C  C87  1  0.265000  0.378100  0.433400  1.0  0.0103
  C  C88  1  0.346400  0.495500  0.428500  1.0  -0.0365
  C  C89  1  0.406200  0.586800  0.482600  1.0  -0.1755
  C  C90  1  0.385600  0.563700  0.541100  1.0  -0.0277
  C  C91  1  0.304100  0.446900  0.545700  1.0  -0.0055
  C  C92  1  0.155300  0.935000  0.467700  1.0  0.7226
  C  C93  1  0.252900  0.896900  0.469900  1.0  -0.1111
  C  C94  1  0.315900  0.902400  0.527800  1.0  -0.0282
  C  C95  1  0.397100  0.856800  0.530000  1.0  -0.0467
  C  C96  1  0.412800  0.806700  0.474000  1.0  -0.1899
  C  C97  1  0.355400  0.805000  0.415700  1.0  -0.0414
  C  C98  1  0.273400  0.850900  0.413900  1.0  -0.0335
  C  C99  1  0.949000  0.679600  0.008700  1.0  0.718
  C  C100  1  0.907700  0.774200  0.011700  1.0  -0.1068
  C  C101  1  0.881400  0.814000  0.067100  1.0  -0.0336
  C  C102  1  0.831300  0.890100  0.067600  1.0  -0.0282
  C  C103  1  0.811100  0.927600  0.014100  1.0  -0.2123
  C  C104  1  0.840900  0.891600  0.958000  1.0  -0.0645
  C  C105  1  0.887800  0.813000  0.958400  1.0  0.0021
  C  C106  1  0.203500  0.635600  0.968700  1.0  0.7141
  C  C107  1  0.336200  0.731000  0.980600  1.0  -0.113
  C  C108  1  0.386900  0.774000  0.930400  1.0  -0.0367
  C  C109  1  0.510900  0.864200  0.940700  1.0  0.0168
  C  C110  1  0.580700  0.908400  0.000500  1.0  -0.1671
  C  C111  1  0.530400  0.866400  0.051600  1.0  -0.0494
  C  C112  1  0.408200  0.779100  0.040800  1.0  -0.0168
  C  C113  1  0.693100  0.366600  0.800100  1.0  0.7269
  C  C114  1  0.634000  0.442100  0.788700  1.0  -0.1052
  C  C115  1  0.563000  0.421700  0.729400  1.0  -0.02
  C  C116  1  0.516000  0.496900  0.716800  1.0  -0.0793
  C  C117  1  0.540200  0.595600  0.764500  1.0  -0.1847
  C  C118  1  0.609500  0.618500  0.823500  1.0  -0.073
  C  C119  1  0.654300  0.540300  0.835700  1.0  -0.0195
  C  C120  1  0.988100  0.111100  0.732500  1.0  0.7077
  C  C121  1  0.860500  0.011500  0.735200  1.0  -0.0939
  C  C122  1  0.816400  0.013000  0.790400  1.0  -0.0231
  C  C123  1  0.704200  0.919800  0.794200  1.0  -0.0208
  C  C124  1  0.631900  0.824500  0.741400  1.0  -0.1946
  C  C125  1  0.672600  0.823400  0.685600  1.0  -0.052
  C  C126  1  0.789200  0.916600  0.683500  1.0  -0.0479
  C  C127  1  0.847700  0.776500  0.504200  1.0  0.7304
  C  C128  1  0.757000  0.647400  0.508700  1.0  -0.1052
  C  C129  1  0.735000  0.621900  0.566600  1.0  0.0123
  C  C130  1  0.653600  0.504500  0.571500  1.0  -0.037
  C  C131  1  0.593800  0.413200  0.517400  1.0  -0.1746
  C  C132  1  0.614400  0.436300  0.458900  1.0  -0.0287
  C  C133  1  0.695900  0.553100  0.454300  1.0  -0.0016
  C  C134  1  0.844700  0.065000  0.532300  1.0  0.7228
  C  C135  1  0.747100  0.103100  0.530100  1.0  -0.1098
  C  C136  1  0.684100  0.097600  0.472200  1.0  -0.0276
  C  C137  1  0.602900  0.143200  0.470000  1.0  -0.0446
  C  C138  1  0.587200  0.193300  0.526000  1.0  -0.1887
  C  C139  1  0.644600  0.195000  0.584300  1.0  -0.0409
  C  C140  1  0.726600  0.149100  0.586100  1.0  -0.0329
  S  S141  1  0.261090  0.981730  0.986920  1.0  1.0849
  S  S142  1  0.507200  0.299600  0.252860  1.0  1.0868
  S  S143  1  0.506970  0.738100  0.476990  1.0  1.0864
  S  S144  1  0.738910  0.018270  0.013080  1.0  1.0846
  S  S145  1  0.492800  0.700400  0.747140  1.0  1.0881
  S  S146  1  0.493030  0.261900  0.523010  1.0  1.0875
  O  O147  1  0.052900  0.370200  0.045100  1.0  -0.6656
  O  O148  1  0.021700  0.343400  0.940100  1.0  -0.6686
  O  O149  1  0.222800  0.905200  0.924600  1.0  -0.5744
  O  O150  1  0.240400  0.928300  0.040900  1.0  -0.5338
  O  O151  1  0.855500  0.411800  0.088200  1.0  -0.625
  O  O152  1  0.845400  0.395400  0.985400  1.0  -0.7508
  O  O153  1  0.258700  0.620800  0.142200  1.0  -0.6406
  O  O154  1  0.303100  0.699800  0.246200  1.0  -0.513
  O  O155  1  0.546600  0.260500  0.199100  1.0  -0.594
  O  O156  1  0.589600  0.350500  0.313700  1.0  -0.5705
  O  O157  1  0.957400  0.917300  0.305900  1.0  -0.7254
  O  O158  1  0.968400  0.789100  0.229900  1.0  -0.5161
  O  O159  1  0.091300  0.916400  0.415000  1.0  -0.6187
  O  O160  1  0.143700  0.981000  0.519500  1.0  -0.6982
  O  O161  1  0.600000  0.799000  0.534000  1.0  -0.5431
  O  O162  1  0.542400  0.730700  0.416900  1.0  -0.4992
  O  O163  1  0.095200  0.146200  0.444600  1.0  -0.6873
  O  O164  1  0.142200  0.205500  0.550100  1.0  -0.6284
  O  O165  1  0.725300  0.836400  0.350300  1.0  -0.6981
  O  O166  1  0.947100  0.629800  0.954900  1.0  -0.6646
  O  O167  1  0.978300  0.656600  0.059900  1.0  -0.6658
  O  O168  1  0.777200  0.094800  0.075400  1.0  -0.5714
  O  O169  1  0.759600  0.071700  0.959100  1.0  -0.534
  O  O170  1  0.144500  0.588200  0.911800  1.0  -0.6217
  O  O171  1  0.154600  0.604600  0.014600  1.0  -0.7504
  O  O172  1  0.741300  0.379200  0.857800  1.0  -0.6378
  O  O173  1  0.696900  0.300200  0.753800  1.0  -0.5137
  O  O174  1  0.453400  0.739500  0.800900  1.0  -0.5925
  O  O175  1  0.410400  0.649500  0.686300  1.0  -0.5737
  O  O176  1  0.042600  0.082700  0.694100  1.0  -0.7255
  O  O177  1  0.031600  0.210900  0.770100  1.0  -0.5143
  O  O178  1  0.908700  0.083600  0.585000  1.0  -0.6194
  O  O179  1  0.856300  0.019000  0.480500  1.0  -0.698
  O  O180  1  0.400000  0.201000  0.466000  1.0  -0.5437
  O  O181  1  0.457600  0.269300  0.583100  1.0  -0.4996
  O  O182  1  0.904800  0.853800  0.555400  1.0  -0.6866
  O  O183  1  0.857800  0.794500  0.449900  1.0  -0.6297
  O  O184  1  0.274700  0.163600  0.649700  1.0  -0.6994
