# generated using pymatgen
data_ErH4(CO2)4
_symmetry_space_group_name_H-M   'P 1'
_cell_length_a   6.65520000
_cell_length_b   18.35490000
_cell_length_c   8.43460000
_cell_angle_alpha   90.00000000
_cell_angle_beta   90.00000000
_cell_angle_gamma   90.00000000
_symmetry_Int_Tables_number   1
_chemical_formula_structural   ErH4(CO2)4
_chemical_formula_sum   'Er4 H16 C16 O32'
_cell_volume   1030.33303739
_cell_formula_units_Z   4
loop_
 _symmetry_equiv_pos_site_id
 _symmetry_equiv_pos_as_xyz
  1  'x, y, z'
loop_
 _atom_site_type_symbol
 _atom_site_label
 _atom_site_symmetry_multiplicity
 _atom_site_fract_x
 _atom_site_fract_y
 _atom_site_fract_z
 _atom_site_occupancy
 _atom_site_charge
  Er  Er1  1  0.500000  0.357290  0.750000  1.0  1.2997
  Er  Er2  1  0.000000  0.857290  0.750000  1.0  1.2997
  Er  Er3  1  0.500000  0.642710  0.250000  1.0  1.3089
  Er  Er4  1  0.000000  0.142710  0.250000  1.0  1.3089
  H  H5  1  0.220000  0.282500  0.045500  1.0  0.0833
  H  H6  1  0.720000  0.782500  0.045500  1.0  0.0833
  H  H7  1  0.780000  0.717500  0.545500  1.0  0.0844
  H  H8  1  0.280000  0.217500  0.545500  1.0  0.0844
  H  H9  1  0.780000  0.282500  0.454500  1.0  0.084
  H  H10  1  0.280000  0.782500  0.454500  1.0  0.084
  H  H11  1  0.220000  0.717500  0.954500  1.0  0.084
  H  H12  1  0.720000  0.217500  0.954500  1.0  0.084
  H  H13  1  0.000000  0.323600  0.750000  1.0  0.1011
  H  H14  1  0.500000  0.823600  0.750000  1.0  0.1011
  H  H15  1  0.000000  0.676400  0.250000  1.0  0.1009
  H  H16  1  0.500000  0.176400  0.250000  1.0  0.1009
  H  H17  1  0.713800  0.500000  0.500000  1.0  0.0914
  H  H18  1  0.213800  0.000000  0.500000  1.0  0.0914
  H  H19  1  0.286200  0.500000  0.000000  1.0  0.0902
  H  H20  1  0.786200  0.000000  0.000000  1.0  0.0902
  C  C21  1  0.237100  0.243900  0.975300  1.0  0.7178
  C  C22  1  0.737100  0.743900  0.975300  1.0  0.7178
  C  C23  1  0.762900  0.756100  0.475300  1.0  0.7182
  C  C24  1  0.262900  0.256100  0.475300  1.0  0.7182
  C  C25  1  0.762900  0.243900  0.524700  1.0  0.718
  C  C26  1  0.262900  0.743900  0.524700  1.0  0.718
  C  C27  1  0.237100  0.756100  0.024700  1.0  0.7176
  C  C28  1  0.737100  0.256100  0.024700  1.0  0.7176
  C  C29  1  0.000000  0.374300  0.750000  1.0  0.6819
  C  C30  1  0.500000  0.874300  0.750000  1.0  0.6819
  C  C31  1  0.000000  0.625700  0.250000  1.0  0.6809
  C  C32  1  0.500000  0.125700  0.250000  1.0  0.6809
  C  C33  1  0.574100  0.500000  0.500000  1.0  0.829
  C  C34  1  0.074100  0.000000  0.500000  1.0  0.829
  C  C35  1  0.425900  0.500000  0.000000  1.0  0.8308
  C  C36  1  0.925900  0.000000  0.000000  1.0  0.8308
  O  O37  1  0.320700  0.258080  0.847100  1.0  -0.5845
  O  O38  1  0.174300  0.183750  0.018900  1.0  -0.5607
  O  O39  1  0.165600  0.405400  0.768700  1.0  -0.5708
  O  O40  1  0.488900  0.450120  0.570300  1.0  -0.5895
  O  O41  1  0.820700  0.758080  0.847100  1.0  -0.5845
  O  O42  1  0.674300  0.683750  0.018900  1.0  -0.5607
  O  O43  1  0.665600  0.905400  0.768700  1.0  -0.5708
  O  O44  1  0.988900  0.950120  0.570300  1.0  -0.5895
  O  O45  1  0.679300  0.741920  0.347100  1.0  -0.5844
  O  O46  1  0.825700  0.816250  0.518900  1.0  -0.5605
  O  O47  1  0.834400  0.594600  0.268700  1.0  -0.5708
  O  O48  1  0.511100  0.549880  0.070300  1.0  -0.5904
  O  O49  1  0.179300  0.241920  0.347100  1.0  -0.5844
  O  O50  1  0.325700  0.316250  0.518900  1.0  -0.5605
  O  O51  1  0.334400  0.094600  0.268700  1.0  -0.5708
  O  O52  1  0.011100  0.049880  0.070300  1.0  -0.5904
  O  O53  1  0.679300  0.258080  0.652900  1.0  -0.5856
  O  O54  1  0.825700  0.183750  0.481100  1.0  -0.5587
  O  O55  1  0.834400  0.405400  0.731300  1.0  -0.5693
  O  O56  1  0.511100  0.450120  0.929700  1.0  -0.5912
  O  O57  1  0.179300  0.758080  0.652900  1.0  -0.5856
  O  O58  1  0.325700  0.683750  0.481100  1.0  -0.5587
  O  O59  1  0.334400  0.905400  0.731300  1.0  -0.5693
  O  O60  1  0.011100  0.950120  0.929700  1.0  -0.5912
  O  O61  1  0.320700  0.741920  0.152900  1.0  -0.5857
  O  O62  1  0.174300  0.816250  0.981100  1.0  -0.5607
  O  O63  1  0.165600  0.594600  0.231300  1.0  -0.5702
  O  O64  1  0.488900  0.549880  0.429700  1.0  -0.5888
  O  O65  1  0.820700  0.241920  0.152900  1.0  -0.5857
  O  O66  1  0.674300  0.316250  0.981100  1.0  -0.5607
  O  O67  1  0.665600  0.094600  0.231300  1.0  -0.5702
  O  O68  1  0.988900  0.049880  0.429700  1.0  -0.5888
