# generated using pymatgen
data_ErH4(CO2)4
_symmetry_space_group_name_H-M   'P 1'
_cell_length_a   6.65390000
_cell_length_b   18.36060000
_cell_length_c   8.43300000
_cell_angle_alpha   90.00000000
_cell_angle_beta   90.00000000
_cell_angle_gamma   90.00000000
_symmetry_Int_Tables_number   1
_chemical_formula_structural   ErH4(CO2)4
_chemical_formula_sum   'Er4 H16 C16 O32'
_cell_volume   1030.25620594
_cell_formula_units_Z   4
loop_
 _symmetry_equiv_pos_site_id
 _symmetry_equiv_pos_as_xyz
  1  'x, y, z'
loop_
 _atom_site_type_symbol
 _atom_site_label
 _atom_site_symmetry_multiplicity
 _atom_site_fract_x
 _atom_site_fract_y
 _atom_site_fract_z
 _atom_site_occupancy
 _atom_site_charge
  Er  Er1  1  0.000000  0.357270  0.250000  1.0  1.3064
  Er  Er2  1  0.500000  0.857270  0.250000  1.0  1.3064
  Er  Er3  1  0.000000  0.642730  0.750000  1.0  1.3159
  Er  Er4  1  0.500000  0.142730  0.750000  1.0  1.3159
  H  H5  1  0.282200  0.281900  0.545900  1.0  0.0777
  H  H6  1  0.782200  0.781900  0.545900  1.0  0.0777
  H  H7  1  0.717800  0.718100  0.045900  1.0  0.0783
  H  H8  1  0.217800  0.218100  0.045900  1.0  0.0783
  H  H9  1  0.717800  0.281900  0.954100  1.0  0.0779
  H  H10  1  0.217800  0.781900  0.954100  1.0  0.0779
  H  H11  1  0.282200  0.718100  0.454100  1.0  0.0784
  H  H12  1  0.782200  0.218100  0.454100  1.0  0.0784
  H  H13  1  0.786000  0.500000  0.000000  1.0  0.1051
  H  H14  1  0.286000  0.000000  0.000000  1.0  0.1051
  H  H15  1  0.214000  0.500000  0.500000  1.0  0.1064
  H  H16  1  0.714000  0.000000  0.500000  1.0  0.1064
  H  H17  1  0.500000  0.323600  0.250000  1.0  0.1057
  H  H18  1  0.000000  0.823600  0.250000  1.0  0.1057
  H  H19  1  0.500000  0.676400  0.750000  1.0  0.1055
  H  H20  1  0.000000  0.176400  0.750000  1.0  0.1055
  C  C21  1  0.264000  0.243500  0.475500  1.0  0.7209
  C  C22  1  0.764000  0.743500  0.475500  1.0  0.7209
  C  C23  1  0.736000  0.756500  0.975500  1.0  0.7208
  C  C24  1  0.236000  0.256500  0.975500  1.0  0.7208
  C  C25  1  0.736000  0.243500  0.024500  1.0  0.7206
  C  C26  1  0.236000  0.743500  0.024500  1.0  0.7206
  C  C27  1  0.264000  0.756500  0.524500  1.0  0.721
  C  C28  1  0.764000  0.256500  0.524500  1.0  0.721
  C  C29  1  0.925700  0.500000  0.000000  1.0  0.8119
  C  C30  1  0.425700  0.000000  0.000000  1.0  0.8119
  C  C31  1  0.074300  0.500000  0.500000  1.0  0.8101
  C  C32  1  0.574300  0.000000  0.500000  1.0  0.8101
  C  C33  1  0.500000  0.374200  0.250000  1.0  0.6675
  C  C34  1  0.000000  0.874200  0.250000  1.0  0.6675
  C  C35  1  0.500000  0.625800  0.750000  1.0  0.6668
  C  C36  1  0.000000  0.125800  0.750000  1.0  0.6668
  O  O37  1  0.011900  0.450090  0.069600  1.0  -0.5906
  O  O38  1  0.335400  0.405740  0.270900  1.0  -0.5669
  O  O39  1  0.325400  0.183430  0.518600  1.0  -0.5549
  O  O40  1  0.179700  0.258200  0.347000  1.0  -0.5873
  O  O41  1  0.511900  0.950090  0.069600  1.0  -0.5906
  O  O42  1  0.835400  0.905740  0.270900  1.0  -0.5669
  O  O43  1  0.825400  0.683430  0.518600  1.0  -0.5549
  O  O44  1  0.679700  0.758200  0.347000  1.0  -0.5873
  O  O45  1  0.988100  0.549910  0.569600  1.0  -0.5884
  O  O46  1  0.664600  0.594260  0.770900  1.0  -0.5677
  O  O47  1  0.674600  0.816570  0.018600  1.0  -0.555
  O  O48  1  0.820300  0.741800  0.847000  1.0  -0.5863
  O  O49  1  0.488100  0.049910  0.569600  1.0  -0.5884
  O  O50  1  0.164600  0.094260  0.770900  1.0  -0.5677
  O  O51  1  0.174600  0.316570  0.018600  1.0  -0.555
  O  O52  1  0.320300  0.241800  0.847000  1.0  -0.5863
  O  O53  1  0.988100  0.450090  0.430400  1.0  -0.5894
  O  O54  1  0.664600  0.405740  0.229100  1.0  -0.5684
  O  O55  1  0.674600  0.183430  0.981400  1.0  -0.5538
  O  O56  1  0.820300  0.258200  0.153000  1.0  -0.5871
  O  O57  1  0.488100  0.950090  0.430400  1.0  -0.5894
  O  O58  1  0.164600  0.905740  0.229100  1.0  -0.5684
  O  O59  1  0.174600  0.683430  0.981400  1.0  -0.5538
  O  O60  1  0.320300  0.758200  0.153000  1.0  -0.5871
  O  O61  1  0.011900  0.549910  0.930400  1.0  -0.5904
  O  O62  1  0.335400  0.594260  0.729100  1.0  -0.5678
  O  O63  1  0.325400  0.816570  0.481400  1.0  -0.5558
  O  O64  1  0.179700  0.741800  0.653000  1.0  -0.5872
  O  O65  1  0.511900  0.049910  0.930400  1.0  -0.5904
  O  O66  1  0.835400  0.094260  0.729100  1.0  -0.5678
  O  O67  1  0.825400  0.316570  0.481400  1.0  -0.5558
  O  O68  1  0.679700  0.241800  0.653000  1.0  -0.5872
