# generated using pymatgen
data_ErH4(CO2)4
_symmetry_space_group_name_H-M   'P 1'
_cell_length_a   6.69730000
_cell_length_b   8.24970000
_cell_length_c   20.38220000
_cell_angle_alpha   90.00000000
_cell_angle_beta   90.00000000
_cell_angle_gamma   90.00000000
_symmetry_Int_Tables_number   1
_chemical_formula_structural   ErH4(CO2)4
_chemical_formula_sum   'Er4 H16 C16 O32'
_cell_volume   1126.13113978
_cell_formula_units_Z   4
loop_
 _symmetry_equiv_pos_site_id
 _symmetry_equiv_pos_as_xyz
  1  'x, y, z'
loop_
 _atom_site_type_symbol
 _atom_site_label
 _atom_site_symmetry_multiplicity
 _atom_site_fract_x
 _atom_site_fract_y
 _atom_site_fract_z
 _atom_site_occupancy
 _atom_site_charge
  Er  Er1  1  0.498610  0.434020  0.619150  1.0  1.4696
  Er  Er2  1  0.001390  0.565980  0.119150  1.0  1.4697
  Er  Er3  1  0.501390  0.934020  0.880850  1.0  1.4674
  Er  Er4  1  0.998610  0.065980  0.380850  1.0  1.4677
  H  H5  1  0.305100  0.686400  0.744200  1.0  0.0576
  H  H6  1  0.236200  0.326100  0.484700  1.0  0.0745
  H  H7  1  0.003900  0.491100  0.579900  1.0  0.0815
  H  H8  1  0.403900  0.818200  0.526100  1.0  0.0996
  H  H9  1  0.194900  0.313600  0.244200  1.0  0.0582
  H  H10  1  0.263800  0.673900  0.984700  1.0  0.0721
  H  H11  1  0.496100  0.508900  0.079900  1.0  0.0816
  H  H12  1  0.096100  0.181800  0.026100  1.0  0.0998
  H  H13  1  0.694900  0.186400  0.755800  1.0  0.0564
  H  H14  1  0.763800  0.826100  0.015300  1.0  0.0753
  H  H15  1  0.996100  0.991100  0.920100  1.0  0.0832
  H  H16  1  0.596100  0.318200  0.973900  1.0  0.1
  H  H17  1  0.805100  0.813600  0.255800  1.0  0.0561
  H  H18  1  0.736200  0.173900  0.515300  1.0  0.0748
  H  H19  1  0.503900  0.008900  0.420100  1.0  0.0836
  H  H20  1  0.903900  0.681800  0.473900  1.0  0.1001
  C  C21  1  0.431800  0.657200  0.758600  1.0  0.7733
  C  C22  1  0.253500  0.226600  0.505400  1.0  0.6797
  C  C23  1  0.003800  0.468900  0.624600  1.0  0.7631
  C  C24  1  0.420200  0.719700  0.547600  1.0  0.6897
  C  C25  1  0.068200  0.342800  0.258600  1.0  0.7713
  C  C26  1  0.246500  0.773400  0.005400  1.0  0.6805
  C  C27  1  0.496200  0.531100  0.124600  1.0  0.7635
  C  C28  1  0.079800  0.280300  0.047600  1.0  0.6903
  C  C29  1  0.568200  0.157200  0.741400  1.0  0.7718
  C  C30  1  0.746500  0.726600  0.994600  1.0  0.6799
  C  C31  1  0.996200  0.968900  0.875400  1.0  0.7641
  C  C32  1  0.579800  0.219700  0.952400  1.0  0.6915
  C  C33  1  0.931800  0.842800  0.241400  1.0  0.7722
  C  C34  1  0.753500  0.273400  0.494600  1.0  0.6799
  C  C35  1  0.503800  0.031100  0.375400  1.0  0.7644
  C  C36  1  0.920200  0.780300  0.452400  1.0  0.6923
  O  O37  1  0.520800  0.562600  0.723400  1.0  -0.5943
  O  O38  1  0.485700  0.720500  0.810960  1.0  -0.6145
  O  O39  1  0.336200  0.231600  0.558950  1.0  -0.5572
  O  O40  1  0.189600  0.107800  0.474900  1.0  -0.5858
  O  O41  1  0.169200  0.463500  0.652900  1.0  -0.5777
  O  O42  1  0.840700  0.447400  0.651200  1.0  -0.6025
  O  O43  1  0.541100  0.710800  0.595200  1.0  -0.5763
  O  O44  1  0.323500  0.600900  0.529000  1.0  -0.582
  O  O45  1  0.979200  0.437400  0.223400  1.0  -0.5943
  O  O46  1  0.014300  0.279500  0.310960  1.0  -0.6169
  O  O47  1  0.163800  0.768400  0.058950  1.0  -0.558
  O  O48  1  0.310400  0.892200  0.974900  1.0  -0.5848
  O  O49  1  0.330800  0.536500  0.152900  1.0  -0.5781
  O  O50  1  0.659300  0.552600  0.151200  1.0  -0.6033
  O  O51  1  0.958900  0.289200  0.095200  1.0  -0.5741
  O  O52  1  0.176500  0.399100  0.029000  1.0  -0.5814
  O  O53  1  0.479200  0.062600  0.776600  1.0  -0.5947
  O  O54  1  0.514300  0.220500  0.689040  1.0  -0.6146
  O  O55  1  0.663800  0.731600  0.941050  1.0  -0.5549
  O  O56  1  0.810400  0.607800  0.025100  1.0  -0.5851
  O  O57  1  0.830800  0.963500  0.847100  1.0  -0.5784
  O  O58  1  0.159300  0.947400  0.848800  1.0  -0.6038
  O  O59  1  0.458900  0.210800  0.904800  1.0  -0.5738
  O  O60  1  0.676500  0.100900  0.971000  1.0  -0.5825
  O  O61  1  0.020800  0.937400  0.276600  1.0  -0.5946
  O  O62  1  0.985700  0.779500  0.189040  1.0  -0.6152
  O  O63  1  0.836200  0.268400  0.441050  1.0  -0.5546
  O  O64  1  0.689600  0.392200  0.525100  1.0  -0.5863
  O  O65  1  0.669200  0.036500  0.347100  1.0  -0.5782
  O  O66  1  0.340700  0.052600  0.348800  1.0  -0.6034
  O  O67  1  0.041100  0.789200  0.404800  1.0  -0.5731
  O  O68  1  0.823500  0.899100  0.471000  1.0  -0.5819
