# generated using pymatgen
data_ErH4(CO2)4
_symmetry_space_group_name_H-M   'P 1'
_cell_length_a   6.64560000
_cell_length_b   8.08980000
_cell_length_c   20.15490000
_cell_angle_alpha   90.00000000
_cell_angle_beta   90.00000000
_cell_angle_gamma   90.00000000
_symmetry_Int_Tables_number   1
_chemical_formula_structural   ErH4(CO2)4
_chemical_formula_sum   'Er4 H16 C16 O32'
_cell_volume   1083.55916555
_cell_formula_units_Z   4
loop_
 _symmetry_equiv_pos_site_id
 _symmetry_equiv_pos_as_xyz
  1  'x, y, z'
loop_
 _atom_site_type_symbol
 _atom_site_label
 _atom_site_symmetry_multiplicity
 _atom_site_fract_x
 _atom_site_fract_y
 _atom_site_fract_z
 _atom_site_occupancy
 _atom_site_charge
  Er  Er1  1  0.492950  0.444710  0.619540  1.0  1.4392
  Er  Er2  1  0.007050  0.555290  0.119540  1.0  1.44
  Er  Er3  1  0.507050  0.944710  0.880460  1.0  1.4353
  Er  Er4  1  0.992950  0.055290  0.380460  1.0  1.4354
  H  H5  1  0.285000  0.687400  0.754600  1.0  0.066
  H  H6  1  0.268600  0.318100  0.479200  1.0  0.0683
  H  H7  1  0.998600  0.505900  0.587100  1.0  0.0659
  H  H8  1  0.428300  0.837500  0.531000  1.0  0.0881
  H  H9  1  0.215000  0.312600  0.254600  1.0  0.0672
  H  H10  1  0.231400  0.681900  0.979200  1.0  0.0676
  H  H11  1  0.501400  0.494100  0.087100  1.0  0.0659
  H  H12  1  0.071700  0.162500  0.031000  1.0  0.088
  H  H13  1  0.715000  0.187400  0.745400  1.0  0.0672
  H  H14  1  0.731400  0.818100  0.020800  1.0  0.0667
  H  H15  1  0.001400  0.005900  0.912900  1.0  0.067
  H  H16  1  0.571700  0.337500  0.969000  1.0  0.088
  H  H17  1  0.785000  0.812600  0.245400  1.0  0.0658
  H  H18  1  0.768600  0.181900  0.520800  1.0  0.0677
  H  H19  1  0.498600  0.994100  0.412900  1.0  0.0671
  H  H20  1  0.928300  0.662500  0.469000  1.0  0.0878
  C  C21  1  0.421000  0.666000  0.761300  1.0  0.7786
  C  C22  1  0.252900  0.225100  0.505800  1.0  0.7333
  C  C23  1  0.996500  0.468800  0.630800  1.0  0.7544
  C  C24  1  0.446400  0.737300  0.552800  1.0  0.675
  C  C25  1  0.079000  0.334000  0.261300  1.0  0.7765
  C  C26  1  0.247100  0.774900  0.005800  1.0  0.7326
  C  C27  1  0.503500  0.531200  0.130800  1.0  0.7548
  C  C28  1  0.053600  0.262700  0.052800  1.0  0.6749
  C  C29  1  0.579000  0.166000  0.738700  1.0  0.7762
  C  C30  1  0.747100  0.725100  0.994200  1.0  0.7342
  C  C31  1  0.003500  0.968800  0.869200  1.0  0.7558
  C  C32  1  0.553600  0.237300  0.947200  1.0  0.6754
  C  C33  1  0.921000  0.834000  0.238700  1.0  0.776
  C  C34  1  0.752900  0.274900  0.494200  1.0  0.7342
  C  C35  1  0.496500  0.031200  0.369200  1.0  0.7567
  C  C36  1  0.946400  0.762700  0.447200  1.0  0.6759
  O  O37  1  0.509100  0.586100  0.718600  1.0  -0.5976
  O  O38  1  0.499900  0.721300  0.813470  1.0  -0.6107
  O  O39  1  0.315800  0.232600  0.563100  1.0  -0.5581
  O  O40  1  0.166800  0.098000  0.480000  1.0  -0.5999
  O  O41  1  0.160000  0.457700  0.659600  1.0  -0.5832
  O  O42  1  0.827500  0.434400  0.655300  1.0  -0.6047
  O  O43  1  0.595800  0.722100  0.591000  1.0  -0.5892
  O  O44  1  0.324200  0.626900  0.543100  1.0  -0.5253
  O  O45  1  0.990900  0.413900  0.218600  1.0  -0.5962
  O  O46  1  0.000100  0.278700  0.313470  1.0  -0.6095
  O  O47  1  0.184200  0.767400  0.063100  1.0  -0.5592
  O  O48  1  0.333200  0.902000  0.980000  1.0  -0.5992
  O  O49  1  0.340000  0.542300  0.159600  1.0  -0.5819
  O  O50  1  0.672500  0.565600  0.155300  1.0  -0.6064
  O  O51  1  0.904200  0.277900  0.091000  1.0  -0.5883
  O  O52  1  0.175800  0.373100  0.043100  1.0  -0.5258
  O  O53  1  0.490900  0.086100  0.781400  1.0  -0.5975
  O  O54  1  0.500100  0.221300  0.686530  1.0  -0.6093
  O  O55  1  0.684200  0.732600  0.936900  1.0  -0.5549
  O  O56  1  0.833200  0.598000  0.020000  1.0  -0.5991
  O  O57  1  0.840000  0.957700  0.840400  1.0  -0.5826
  O  O58  1  0.172500  0.934400  0.844700  1.0  -0.6071
  O  O59  1  0.404200  0.222100  0.909000  1.0  -0.5899
  O  O60  1  0.675800  0.126900  0.956900  1.0  -0.5256
  O  O61  1  0.009100  0.913900  0.281400  1.0  -0.5974
  O  O62  1  0.999900  0.778700  0.186530  1.0  -0.6109
  O  O63  1  0.815800  0.267400  0.436900  1.0  -0.5556
  O  O64  1  0.666800  0.402000  0.520000  1.0  -0.5999
  O  O65  1  0.660000  0.042300  0.340400  1.0  -0.583
  O  O66  1  0.327500  0.065600  0.344700  1.0  -0.6055
  O  O67  1  0.095800  0.777900  0.409000  1.0  -0.5896
  O  O68  1  0.824200  0.873100  0.456900  1.0  -0.5258
