# generated using pymatgen
data_ErH4(CO2)4
_symmetry_space_group_name_H-M   'P 1'
_cell_length_a   6.63180000
_cell_length_b   18.37190000
_cell_length_c   8.41260000
_cell_angle_alpha   90.00000000
_cell_angle_beta   90.00000000
_cell_angle_gamma   90.00000000
_symmetry_Int_Tables_number   1
_chemical_formula_structural   ErH4(CO2)4
_chemical_formula_sum   'Er4 H16 C16 O32'
_cell_volume   1024.98080638
_cell_formula_units_Z   4
loop_
 _symmetry_equiv_pos_site_id
 _symmetry_equiv_pos_as_xyz
  1  'x, y, z'
loop_
 _atom_site_type_symbol
 _atom_site_label
 _atom_site_symmetry_multiplicity
 _atom_site_fract_x
 _atom_site_fract_y
 _atom_site_fract_z
 _atom_site_occupancy
 _atom_site_charge
  Er  Er1  1  0.000000  0.142930  0.250000  1.0  1.2991
  Er  Er2  1  0.500000  0.642930  0.250000  1.0  1.2991
  Er  Er3  1  0.000000  0.857070  0.750000  1.0  1.2949
  Er  Er4  1  0.500000  0.357070  0.750000  1.0  1.2949
  H  H5  1  0.213200  0.283000  0.045900  1.0  0.108
  H  H6  1  0.713200  0.783000  0.045900  1.0  0.108
  H  H7  1  0.786800  0.717000  0.545900  1.0  0.1088
  H  H8  1  0.286800  0.217000  0.545900  1.0  0.1088
  H  H9  1  0.786800  0.283000  0.454100  1.0  0.1084
  H  H10  1  0.286800  0.783000  0.454100  1.0  0.1084
  H  H11  1  0.213200  0.717000  0.954100  1.0  0.1078
  H  H12  1  0.713200  0.217000  0.954100  1.0  0.1078
  H  H13  1  0.218800  0.000000  0.500000  1.0  0.1054
  H  H14  1  0.718800  0.500000  0.500000  1.0  0.1054
  H  H15  1  0.781200  0.000000  0.000000  1.0  0.1047
  H  H16  1  0.281200  0.500000  0.000000  1.0  0.1047
  H  H17  1  0.500000  0.178300  0.250000  1.0  0.1131
  H  H18  1  0.000000  0.678300  0.250000  1.0  0.1131
  H  H19  1  0.500000  0.821700  0.750000  1.0  0.1147
  H  H20  1  0.000000  0.321700  0.750000  1.0  0.1147
  C  C21  1  0.234400  0.243600  0.974700  1.0  0.7191
  C  C22  1  0.734400  0.743600  0.974700  1.0  0.7191
  C  C23  1  0.765600  0.756400  0.474700  1.0  0.7197
  C  C24  1  0.265600  0.256400  0.474700  1.0  0.7197
  C  C25  1  0.765600  0.243600  0.525300  1.0  0.7191
  C  C26  1  0.265600  0.743600  0.525300  1.0  0.7191
  C  C27  1  0.234400  0.756400  0.025300  1.0  0.7188
  C  C28  1  0.734400  0.256400  0.025300  1.0  0.7188
  C  C29  1  0.075600  0.000000  0.500000  1.0  0.7604
  C  C30  1  0.575600  0.500000  0.500000  1.0  0.7604
  C  C31  1  0.924400  0.000000  0.000000  1.0  0.7617
  C  C32  1  0.424400  0.500000  0.000000  1.0  0.7617
  C  C33  1  0.500000  0.126600  0.250000  1.0  0.6766
  C  C34  1  0.000000  0.626600  0.250000  1.0  0.6766
  C  C35  1  0.500000  0.873400  0.750000  1.0  0.6764
  C  C36  1  0.000000  0.373400  0.750000  1.0  0.6764
  O  O37  1  0.985600  0.050100  0.430100  1.0  -0.5774
  O  O38  1  0.665400  0.095100  0.227100  1.0  -0.5726
  O  O39  1  0.320200  0.257100  0.845300  1.0  -0.5898
  O  O40  1  0.175300  0.182600  0.016600  1.0  -0.5648
  O  O41  1  0.485600  0.550100  0.430100  1.0  -0.5774
  O  O42  1  0.165400  0.595100  0.227100  1.0  -0.5726
  O  O43  1  0.820200  0.757100  0.845300  1.0  -0.5898
  O  O44  1  0.675300  0.682600  0.016600  1.0  -0.5648
  O  O45  1  0.014400  0.949900  0.930100  1.0  -0.5778
  O  O46  1  0.334600  0.904900  0.727100  1.0  -0.5715
  O  O47  1  0.679800  0.742900  0.345300  1.0  -0.5891
  O  O48  1  0.824700  0.817400  0.516600  1.0  -0.5642
  O  O49  1  0.514400  0.449900  0.930100  1.0  -0.5778
  O  O50  1  0.834600  0.404900  0.727100  1.0  -0.5715
  O  O51  1  0.179800  0.242900  0.345300  1.0  -0.5891
  O  O52  1  0.324700  0.317400  0.516600  1.0  -0.5642
  O  O53  1  0.014400  0.050100  0.069900  1.0  -0.5769
  O  O54  1  0.334600  0.095100  0.272900  1.0  -0.5728
  O  O55  1  0.679800  0.257100  0.654700  1.0  -0.5907
  O  O56  1  0.824700  0.182600  0.483400  1.0  -0.5635
  O  O57  1  0.514400  0.550100  0.069900  1.0  -0.5769
  O  O58  1  0.834600  0.595100  0.272900  1.0  -0.5728
  O  O59  1  0.179800  0.757100  0.654700  1.0  -0.5907
  O  O60  1  0.324700  0.682600  0.483400  1.0  -0.5635
  O  O61  1  0.985600  0.949900  0.569900  1.0  -0.5779
  O  O62  1  0.665400  0.904900  0.772900  1.0  -0.5732
  O  O63  1  0.320200  0.742900  0.154700  1.0  -0.5905
  O  O64  1  0.175300  0.817400  0.983400  1.0  -0.5638
  O  O65  1  0.485600  0.449900  0.569900  1.0  -0.5779
  O  O66  1  0.165400  0.404900  0.772900  1.0  -0.5732
  O  O67  1  0.820200  0.242900  0.154700  1.0  -0.5905
  O  O68  1  0.675300  0.317400  0.983400  1.0  -0.5638
