# generated using pymatgen
data_ErH4(CO2)4
_symmetry_space_group_name_H-M   'P 1'
_cell_length_a   6.61180000
_cell_length_b   7.56620000
_cell_length_c   9.27560000
_cell_angle_alpha   90.00000000
_cell_angle_beta   99.82670000
_cell_angle_gamma   90.00000000
_symmetry_Int_Tables_number   1
_chemical_formula_structural   ErH4(CO2)4
_chemical_formula_sum   'Er2 H8 C8 O16'
_cell_volume   457.21510522
_cell_formula_units_Z   2
loop_
 _symmetry_equiv_pos_site_id
 _symmetry_equiv_pos_as_xyz
  1  'x, y, z'
loop_
 _atom_site_type_symbol
 _atom_site_label
 _atom_site_symmetry_multiplicity
 _atom_site_fract_x
 _atom_site_fract_y
 _atom_site_fract_z
 _atom_site_occupancy
 _atom_site_charge
  Er  Er1  1  0.161540  0.271350  0.292990  1.0  1.3874
  Er  Er2  1  0.838460  0.771350  0.707010  1.0  1.3861
  H  H3  1  0.562300  0.514200  0.451300  1.0  0.0986
  H  H4  1  0.667200  0.156200  0.260200  1.0  0.0826
  H  H5  1  0.936600  0.560000  0.034300  1.0  0.0692
  H  H6  1  0.089200  0.795600  0.407900  1.0  0.0978
  H  H7  1  0.437700  0.014200  0.548700  1.0  0.0985
  H  H8  1  0.332800  0.656200  0.739800  1.0  0.0821
  H  H9  1  0.063400  0.060000  0.965700  1.0  0.0696
  H  H10  1  0.910800  0.295600  0.592100  1.0  0.0979
  C  C11  1  0.528300  0.466100  0.536300  1.0  0.6026
  C  C12  1  0.651700  0.276800  0.242200  1.0  0.7291
  C  C13  1  0.012600  0.492200  0.979200  1.0  0.7496
  C  C14  1  0.070000  0.675400  0.421600  1.0  0.7253
  C  C15  1  0.471700  0.966100  0.463700  1.0  0.6018
  C  C16  1  0.348300  0.776800  0.757800  1.0  0.7289
  C  C17  1  0.987400  0.992200  0.020800  1.0  0.7493
  C  C18  1  0.930000  0.175400  0.578400  1.0  0.7261
  O  O19  1  0.387600  0.349800  0.520200  1.0  -0.5733
  O  O20  1  0.624700  0.521900  0.653600  1.0  -0.5412
  O  O21  1  0.473500  0.337900  0.224200  1.0  -0.577
  O  O22  1  0.808600  0.363100  0.238000  1.0  -0.5472
  O  O23  1  0.115000  0.369700  0.042700  1.0  -0.5831
  O  O24  1  0.001900  0.533300  0.847100  1.0  -0.5677
  O  O25  1  0.134600  0.573300  0.334300  1.0  -0.5756
  O  O26  1  0.982500  0.633100  0.525100  1.0  -0.5746
  O  O27  1  0.612400  0.849800  0.479800  1.0  -0.5742
  O  O28  1  0.375300  0.021900  0.346400  1.0  -0.5396
  O  O29  1  0.526500  0.837900  0.775800  1.0  -0.5792
  O  O30  1  0.191400  0.863100  0.762000  1.0  -0.5465
  O  O31  1  0.885000  0.869700  0.957300  1.0  -0.5827
  O  O32  1  0.998100  0.033300  0.152900  1.0  -0.5703
  O  O33  1  0.865400  0.073300  0.665700  1.0  -0.5754
  O  O34  1  0.017500  0.133100  0.474900  1.0  -0.5749
