# generated using pymatgen
data_ErH4(CO2)4
_symmetry_space_group_name_H-M   'P 1'
_cell_length_a   6.65140000
_cell_length_b   18.34700000
_cell_length_c   8.43110000
_cell_angle_alpha   90.00000000
_cell_angle_beta   90.00000000
_cell_angle_gamma   90.00000000
_symmetry_Int_Tables_number   1
_chemical_formula_structural   ErH4(CO2)4
_chemical_formula_sum   'Er4 H16 C16 O32'
_cell_volume   1028.87441435
_cell_formula_units_Z   4
loop_
 _symmetry_equiv_pos_site_id
 _symmetry_equiv_pos_as_xyz
  1  'x, y, z'
loop_
 _atom_site_type_symbol
 _atom_site_label
 _atom_site_symmetry_multiplicity
 _atom_site_fract_x
 _atom_site_fract_y
 _atom_site_fract_z
 _atom_site_occupancy
 _atom_site_charge
  Er  Er1  1  0.000000  0.142720  0.250000  1.0  1.3002
  Er  Er2  1  0.500000  0.642720  0.250000  1.0  1.3002
  Er  Er3  1  0.000000  0.857280  0.750000  1.0  1.2909
  Er  Er4  1  0.500000  0.357280  0.750000  1.0  1.2909
  H  H5  1  0.219700  0.282600  0.045100  1.0  0.0911
  H  H6  1  0.719700  0.782600  0.045100  1.0  0.0916
  H  H7  1  0.780300  0.717400  0.545100  1.0  0.0928
  H  H8  1  0.280300  0.217400  0.545100  1.0  0.0928
  H  H9  1  0.780300  0.282600  0.454900  1.0  0.0927
  H  H10  1  0.280300  0.782600  0.454900  1.0  0.0928
  H  H11  1  0.219700  0.717400  0.954900  1.0  0.0924
  H  H12  1  0.719700  0.217400  0.954900  1.0  0.0924
  H  H13  1  0.215700  0.000000  0.500000  1.0  0.1129
  H  H14  1  0.715700  0.500000  0.500000  1.0  0.1129
  H  H15  1  0.784300  0.000000  0.000000  1.0  0.1119
  H  H16  1  0.284300  0.500000  0.000000  1.0  0.1119
  H  H17  1  0.500000  0.177000  0.250000  1.0  0.1074
  H  H18  1  0.000000  0.677000  0.250000  1.0  0.1074
  H  H19  1  0.500000  0.823000  0.750000  1.0  0.1075
  H  H20  1  0.000000  0.323000  0.750000  1.0  0.1075
  C  C21  1  0.237000  0.244000  0.974900  1.0  0.6866
  C  C22  1  0.737000  0.744000  0.974900  1.0  0.6866
  C  C23  1  0.763000  0.756000  0.474900  1.0  0.6886
  C  C24  1  0.263000  0.256000  0.474900  1.0  0.6886
  C  C25  1  0.763000  0.244000  0.525100  1.0  0.6898
  C  C26  1  0.263000  0.744000  0.525100  1.0  0.6898
  C  C27  1  0.237000  0.756000  0.025100  1.0  0.6824
  C  C28  1  0.737000  0.256000  0.025100  1.0  0.6824
  C  C29  1  0.075900  0.000000  0.500000  1.0  0.7869
  C  C30  1  0.575900  0.500000  0.500000  1.0  0.7869
  C  C31  1  0.924100  0.000000  0.000000  1.0  0.7883
  C  C32  1  0.424100  0.500000  0.000000  1.0  0.7883
  C  C33  1  0.500000  0.126300  0.250000  1.0  0.6779
  C  C34  1  0.000000  0.626300  0.250000  1.0  0.6779
  C  C35  1  0.500000  0.873700  0.750000  1.0  0.6778
  C  C36  1  0.000000  0.373700  0.750000  1.0  0.6778
  O  O37  1  0.987300  0.050100  0.430400  1.0  -0.5813
  O  O38  1  0.664700  0.095100  0.228600  1.0  -0.5567
  O  O39  1  0.319400  0.257900  0.847200  1.0  -0.5763
  O  O40  1  0.175100  0.183600  0.018200  1.0  -0.5527
  O  O41  1  0.487300  0.550100  0.430400  1.0  -0.5813
  O  O42  1  0.164700  0.595100  0.228600  1.0  -0.5568
  O  O43  1  0.819400  0.757900  0.847200  1.0  -0.5763
  O  O44  1  0.675100  0.683600  0.018200  1.0  -0.5527
  O  O45  1  0.012700  0.949900  0.930400  1.0  -0.5829
  O  O46  1  0.335300  0.904900  0.728600  1.0  -0.5562
  O  O47  1  0.680600  0.742100  0.347200  1.0  -0.5779
  O  O48  1  0.824900  0.816400  0.518200  1.0  -0.5524
  O  O49  1  0.512700  0.449900  0.930400  1.0  -0.5829
  O  O50  1  0.835300  0.404900  0.728600  1.0  -0.5562
  O  O51  1  0.180600  0.242100  0.347200  1.0  -0.5779
  O  O52  1  0.324900  0.316400  0.518200  1.0  -0.5531
  O  O53  1  0.012700  0.050100  0.069600  1.0  -0.5824
  O  O54  1  0.335300  0.095100  0.271400  1.0  -0.5572
  O  O55  1  0.680600  0.257900  0.652800  1.0  -0.5796
  O  O56  1  0.824900  0.183600  0.481800  1.0  -0.5515
  O  O57  1  0.512700  0.550100  0.069600  1.0  -0.5824
  O  O58  1  0.835300  0.595100  0.271400  1.0  -0.5573
  O  O59  1  0.180600  0.757900  0.652800  1.0  -0.5796
  O  O60  1  0.324900  0.683600  0.481800  1.0  -0.5513
  O  O61  1  0.987300  0.949900  0.569600  1.0  -0.5815
  O  O62  1  0.664700  0.904900  0.771400  1.0  -0.5578
  O  O63  1  0.319400  0.742100  0.152800  1.0  -0.5785
  O  O64  1  0.175100  0.816400  0.981800  1.0  -0.5532
  O  O65  1  0.487300  0.449900  0.569600  1.0  -0.5815
  O  O66  1  0.164700  0.404900  0.771400  1.0  -0.5578
  O  O67  1  0.819400  0.242100  0.152800  1.0  -0.5785
  O  O68  1  0.675100  0.316400  0.981800  1.0  -0.5526
