# generated using pymatgen
data_ErH4(CO2)4
_symmetry_space_group_name_H-M   'P 1'
_cell_length_a   6.62430000
_cell_length_b   8.63450000
_cell_length_c   9.75450000
_cell_angle_alpha   90.00000000
_cell_angle_beta   102.59900000
_cell_angle_gamma   90.00000000
_symmetry_Int_Tables_number   1
_chemical_formula_structural   ErH4(CO2)4
_chemical_formula_sum   'Er2 H8 C8 O16'
_cell_volume   544.49847899
_cell_formula_units_Z   2
loop_
 _symmetry_equiv_pos_site_id
 _symmetry_equiv_pos_as_xyz
  1  'x, y, z'
loop_
 _atom_site_type_symbol
 _atom_site_label
 _atom_site_symmetry_multiplicity
 _atom_site_fract_x
 _atom_site_fract_y
 _atom_site_fract_z
 _atom_site_occupancy
 _atom_site_charge
  Er  Er1  1  0.891180  0.769150  0.730550  1.0  1.4618
  Er  Er2  1  0.108820  0.269150  0.269450  1.0  1.4623
  H  H3  1  0.130700  0.568100  0.036600  1.0  0.0907
  H  H4  1  0.027100  0.405800  0.591500  1.0  0.0915
  H  H5  1  0.350400  0.760100  0.640600  1.0  0.1325
  H  H6  1  0.513800  0.070200  0.541200  1.0  0.1272
  H  H7  1  0.869300  0.068100  0.963400  1.0  0.0908
  H  H8  1  0.972900  0.905800  0.408500  1.0  0.0906
  H  H9  1  0.649600  0.260100  0.359400  1.0  0.1338
  H  H10  1  0.486200  0.570200  0.458800  1.0  0.1266
  C  C11  1  0.027200  0.501600  0.991100  1.0  0.7374
  C  C12  1  0.954400  0.471500  0.522500  1.0  0.7292
  C  C13  1  0.388400  0.719300  0.730800  1.0  0.6037
  C  C14  1  0.603300  0.993200  0.585100  1.0  0.6089
  C  C15  1  0.972800  0.001600  0.008900  1.0  0.7385
  C  C16  1  0.045600  0.971500  0.477500  1.0  0.7289
  C  C17  1  0.611600  0.219300  0.269200  1.0  0.6027
  C  C18  1  0.396700  0.493200  0.414900  1.0  0.6089
  O  O19  1  0.925500  0.543300  0.871400  1.0  -0.5982
  O  O20  1  0.001800  0.381300  0.053000  1.0  -0.5607
  O  O21  1  0.877000  0.588500  0.561400  1.0  -0.6252
  O  O22  1  0.942800  0.434600  0.397500  1.0  -0.5746
  O  O23  1  0.572500  0.693700  0.766400  1.0  -0.5539
  O  O24  1  0.245300  0.704100  0.785200  1.0  -0.5403
  O  O25  1  0.620100  0.871700  0.519500  1.0  -0.5489
  O  O26  1  0.703600  0.015000  0.708900  1.0  -0.5788
  O  O27  1  0.074500  0.043300  0.128600  1.0  -0.5973
  O  O28  1  0.998200  0.881300  0.947000  1.0  -0.5617
  O  O29  1  0.123000  0.088500  0.438600  1.0  -0.6252
  O  O30  1  0.057200  0.934600  0.602500  1.0  -0.5769
  O  O31  1  0.427500  0.193700  0.233600  1.0  -0.5561
  O  O32  1  0.754700  0.204100  0.214800  1.0  -0.5403
  O  O33  1  0.379900  0.371700  0.480500  1.0  -0.5494
  O  O34  1  0.296400  0.515000  0.291100  1.0  -0.5787
