# generated using pymatgen
data_ErH4(CO2)4
_symmetry_space_group_name_H-M   'P 1'
_cell_length_a   6.63490000
_cell_length_b   8.63710000
_cell_length_c   9.67270000
_cell_angle_alpha   90.00000000
_cell_angle_beta   102.10100000
_cell_angle_gamma   90.00000000
_symmetry_Int_Tables_number   1
_chemical_formula_structural   ErH4(CO2)4
_chemical_formula_sum   'Er2 H8 C8 O16'
_cell_volume   541.98967114
_cell_formula_units_Z   2
loop_
 _symmetry_equiv_pos_site_id
 _symmetry_equiv_pos_as_xyz
  1  'x, y, z'
loop_
 _atom_site_type_symbol
 _atom_site_label
 _atom_site_symmetry_multiplicity
 _atom_site_fract_x
 _atom_site_fract_y
 _atom_site_fract_z
 _atom_site_occupancy
 _atom_site_charge
  Er  Er1  1  0.105570  0.230940  0.270760  1.0  1.382
  Er  Er2  1  0.894430  0.730940  0.729240  1.0  1.3795
  H  H3  1  0.878500  0.429100  0.963800  1.0  0.0664
  H  H4  1  0.912300  0.530400  0.424400  1.0  0.1205
  H  H5  1  0.612800  0.148100  0.268700  1.0  0.1133
  H  H6  1  0.468600  0.926500  0.462300  1.0  0.1324
  H  H7  1  0.121500  0.929100  0.036200  1.0  0.0664
  H  H8  1  0.087700  0.030400  0.575600  1.0  0.1208
  H  H9  1  0.387200  0.648100  0.731300  1.0  0.1138
  H  H10  1  0.531400  0.426500  0.537700  1.0  0.1319
  C  C11  1  0.979000  0.496800  0.010200  1.0  0.7816
  C  C12  1  0.041100  0.514100  0.482600  1.0  0.6785
  C  C13  1  0.599000  0.250900  0.239600  1.0  0.7417
  C  C14  1  0.383100  0.004300  0.416500  1.0  0.5377
  C  C15  1  0.021000  0.996800  0.989800  1.0  0.7812
  C  C16  1  0.958900  0.014100  0.517400  1.0  0.6784
  C  C17  1  0.401000  0.750900  0.760400  1.0  0.7407
  C  C18  1  0.616900  0.504300  0.583500  1.0  0.5373
  O  O19  1  0.073400  0.456100  0.126200  1.0  -0.5991
  O  O20  1  0.002100  0.617900  0.946500  1.0  -0.5808
  O  O21  1  0.142200  0.425300  0.432300  1.0  -0.5559
  O  O22  1  0.063400  0.586900  0.588300  1.0  -0.5545
  O  O23  1  0.423500  0.300700  0.228800  1.0  -0.5617
  O  O24  1  0.754200  0.305300  0.220800  1.0  -0.5504
  O  O25  1  0.374100  0.130500  0.479300  1.0  -0.5781
  O  O26  1  0.280700  0.979900  0.294200  1.0  -0.5708
  O  O27  1  0.926600  0.956100  0.873800  1.0  -0.5999
  O  O28  1  0.997900  0.117900  0.053500  1.0  -0.5807
  O  O29  1  0.857800  0.925300  0.567700  1.0  -0.5573
  O  O30  1  0.936600  0.086900  0.411700  1.0  -0.5548
  O  O31  1  0.576500  0.800700  0.771200  1.0  -0.5639
  O  O32  1  0.245800  0.805300  0.779200  1.0  -0.5488
  O  O33  1  0.625900  0.630500  0.520700  1.0  -0.5777
  O  O34  1  0.719300  0.479900  0.705800  1.0  -0.5698
