# generated using pymatgen
data_Cd5H6C20(NO2)8
_symmetry_space_group_name_H-M   'P 1'
_cell_length_a   14.14300000
_cell_length_b   15.71780000
_cell_length_c   16.08890000
_cell_angle_alpha   90.00000000
_cell_angle_beta   90.00000000
_cell_angle_gamma   90.00000000
_symmetry_Int_Tables_number   1
_chemical_formula_structural   Cd5H6C20(NO2)8
_chemical_formula_sum   'Cd20 H24 C80 N32 O64'
_cell_volume   3576.51171596
_cell_formula_units_Z   4
loop_
 _symmetry_equiv_pos_site_id
 _symmetry_equiv_pos_as_xyz
  1  'x, y, z'
loop_
 _atom_site_type_symbol
 _atom_site_label
 _atom_site_symmetry_multiplicity
 _atom_site_fract_x
 _atom_site_fract_y
 _atom_site_fract_z
 _atom_site_occupancy
 _atom_site_charge
  Cd  Cd1  1  0.354620  0.070330  0.221310  1.0  1.0318
  Cd  Cd2  1  0.120150  0.986520  0.311010  1.0  1.0568
  Cd  Cd3  1  0.145380  0.929670  0.721310  1.0  1.0331
  Cd  Cd4  1  0.379850  0.013480  0.811010  1.0  1.0569
  Cd  Cd5  1  0.645380  0.570330  0.278690  1.0  1.0323
  Cd  Cd6  1  0.879850  0.486520  0.188990  1.0  1.0571
  Cd  Cd7  1  0.854620  0.429670  0.778690  1.0  1.0323
  Cd  Cd8  1  0.620150  0.513480  0.688990  1.0  1.0571
  Cd  Cd9  1  0.645380  0.929670  0.778690  1.0  1.0331
  Cd  Cd10  1  0.879850  0.013480  0.688990  1.0  1.0572
  Cd  Cd11  1  0.854620  0.070330  0.278690  1.0  1.0315
  Cd  Cd12  1  0.620150  0.986520  0.188990  1.0  1.0571
  Cd  Cd13  1  0.354620  0.429670  0.721310  1.0  1.0324
  Cd  Cd14  1  0.120150  0.513480  0.811010  1.0  1.0568
  Cd  Cd15  1  0.145380  0.570330  0.221310  1.0  1.0326
  Cd  Cd16  1  0.379850  0.486520  0.311010  1.0  1.0568
  Cd  Cd17  1  0.000000  0.000000  0.000000  1.0  1.2246
  Cd  Cd18  1  0.500000  0.000000  0.500000  1.0  1.2246
  Cd  Cd19  1  0.000000  0.500000  0.500000  1.0  1.2246
  Cd  Cd20  1  0.500000  0.500000  0.000000  1.0  1.2246
  H  H21  1  0.449400  0.073300  0.018800  1.0  0.0749
  H  H22  1  0.282700  0.270600  0.297900  1.0  0.0734
  H  H23  1  0.624000  0.316400  0.177000  1.0  0.3759
  H  H24  1  0.050600  0.926700  0.518800  1.0  0.0747
  H  H25  1  0.217300  0.729400  0.797900  1.0  0.073
  H  H26  1  0.876000  0.683600  0.677000  1.0  0.3767
  H  H27  1  0.550600  0.573300  0.481200  1.0  0.0748
  H  H28  1  0.717300  0.770600  0.202100  1.0  0.0739
  H  H29  1  0.376000  0.816400  0.323000  1.0  0.3769
  H  H30  1  0.949400  0.426700  0.981200  1.0  0.0744
  H  H31  1  0.782700  0.229400  0.702100  1.0  0.0742
  H  H32  1  0.124000  0.183600  0.823000  1.0  0.3761
  H  H33  1  0.550600  0.926700  0.981200  1.0  0.0756
  H  H34  1  0.717300  0.729400  0.702100  1.0  0.0739
  H  H35  1  0.376000  0.683600  0.823000  1.0  0.3768
  H  H36  1  0.949400  0.073300  0.481200  1.0  0.0756
  H  H37  1  0.782700  0.270600  0.202100  1.0  0.0739
  H  H38  1  0.124000  0.316400  0.323000  1.0  0.3762
  H  H39  1  0.449400  0.426700  0.518800  1.0  0.0753
  H  H40  1  0.282700  0.229400  0.797900  1.0  0.0733
  H  H41  1  0.624000  0.183600  0.677000  1.0  0.3762
  H  H42  1  0.050600  0.573300  0.018800  1.0  0.0758
  H  H43  1  0.217300  0.770600  0.297900  1.0  0.0733
  H  H44  1  0.876000  0.816400  0.177000  1.0  0.3762
  C  C45  1  0.174800  0.996900  0.119800  1.0  0.6757
  C  C46  1  0.247200  0.010800  0.057800  1.0  -0.0252
  C  C47  1  0.388200  0.051600  0.017500  1.0  0.3089
  C  C48  1  0.256400  0.997900  0.973900  1.0  -0.0023
  C  C49  1  0.194000  0.963600  0.907500  1.0  0.6569
  C  C50  1  0.343500  0.274100  0.276300  1.0  0.3206
  C  C51  1  0.474400  0.239900  0.217900  1.0  0.0129
  C  C52  1  0.554000  0.387500  0.232300  1.0  0.641
  C  C53  1  0.478100  0.325300  0.239500  1.0  -0.0391
  C  C54  1  0.546400  0.183400  0.180200  1.0  0.637
  C  C55  1  0.325200  0.003100  0.619800  1.0  0.6761
  C  C56  1  0.252800  0.989200  0.557800  1.0  -0.0253
  C  C57  1  0.111800  0.948400  0.517500  1.0  0.3095
  C  C58  1  0.243600  0.002100  0.473900  1.0  -0.002
  C  C59  1  0.306000  0.036400  0.407500  1.0  0.6576
  C  C60  1  0.156500  0.725900  0.776300  1.0  0.3209
  C  C61  1  0.025600  0.760100  0.717900  1.0  0.0126
  C  C62  1  0.946000  0.612500  0.732300  1.0  0.645
  C  C63  1  0.021900  0.674700  0.739500  1.0  -0.0393
  C  C64  1  0.953600  0.816600  0.680200  1.0  0.6364
  C  C65  1  0.825200  0.496900  0.380200  1.0  0.6752
  C  C66  1  0.752800  0.510800  0.442200  1.0  -0.0251
  C  C67  1  0.611800  0.551600  0.482500  1.0  0.3078
  C  C68  1  0.743600  0.497900  0.526100  1.0  -0.0021
  C  C69  1  0.806000  0.463600  0.592500  1.0  0.6579
  C  C70  1  0.656500  0.774100  0.223700  1.0  0.3206
  C  C71  1  0.525600  0.739900  0.282100  1.0  0.0125
  C  C72  1  0.446000  0.887500  0.267700  1.0  0.642
  C  C73  1  0.521900  0.825300  0.260500  1.0  -0.0401
  C  C74  1  0.453600  0.683400  0.319800  1.0  0.6371
  C  C75  1  0.674800  0.503100  0.880200  1.0  0.6748
  C  C76  1  0.747200  0.489200  0.942200  1.0  -0.0251
  C  C77  1  0.888200  0.448400  0.982500  1.0  0.3091
  C  C78  1  0.756400  0.502100  0.026100  1.0  -0.0023
  C  C79  1  0.694000  0.536400  0.092500  1.0  0.6563
  C  C80  1  0.843500  0.225900  0.723700  1.0  0.3203
  C  C81  1  0.974400  0.260100  0.782100  1.0  0.0123
  C  C82  1  0.054000  0.112500  0.767700  1.0  0.642
  C  C83  1  0.978100  0.174700  0.760500  1.0  -0.0386
  C  C84  1  0.046400  0.316600  0.819800  1.0  0.6358
  C  C85  1  0.825200  0.003100  0.880200  1.0  0.6751
  C  C86  1  0.752800  0.989200  0.942200  1.0  -0.025
  C  C87  1  0.611800  0.948400  0.982500  1.0  0.3092
  C  C88  1  0.743600  0.002100  0.026100  1.0  -0.0021
  C  C89  1  0.806000  0.036400  0.092500  1.0  0.6575
  C  C90  1  0.656500  0.725900  0.723700  1.0  0.3208
  C  C91  1  0.525600  0.760100  0.782100  1.0  0.0124
  C  C92  1  0.446000  0.612500  0.767700  1.0  0.6437
  C  C93  1  0.521900  0.674700  0.760500  1.0  -0.0395
  C  C94  1  0.453600  0.816600  0.819800  1.0  0.636
  C  C95  1  0.674800  0.996900  0.380200  1.0  0.6749
  C  C96  1  0.747200  0.010800  0.442200  1.0  -0.0251
  C  C97  1  0.888200  0.051600  0.482500  1.0  0.3086
  C  C98  1  0.756400  0.997900  0.526100  1.0  -0.0023
  C  C99  1  0.694000  0.963600  0.592500  1.0  0.6569
  C  C100  1  0.843500  0.274100  0.223700  1.0  0.3204
  C  C101  1  0.974400  0.239900  0.282100  1.0  0.0125
  C  C102  1  0.054000  0.387500  0.267700  1.0  0.6404
  C  C103  1  0.978100  0.325300  0.260500  1.0  -0.0394
  C  C104  1  0.046400  0.183400  0.319800  1.0  0.6369
  C  C105  1  0.174800  0.503100  0.619800  1.0  0.6757
  C  C106  1  0.247200  0.489200  0.557800  1.0  -0.0253
  C  C107  1  0.388200  0.448400  0.517500  1.0  0.3095
  C  C108  1  0.256400  0.502100  0.473900  1.0  -0.0023
  C  C109  1  0.194000  0.536400  0.407500  1.0  0.6566
  C  C110  1  0.343500  0.225900  0.776300  1.0  0.3203
  C  C111  1  0.474400  0.260100  0.717900  1.0  0.0125
  C  C112  1  0.554000  0.112500  0.732300  1.0  0.6431
  C  C113  1  0.478100  0.174700  0.739500  1.0  -0.0385
  C  C114  1  0.546400  0.316600  0.680200  1.0  0.6362
  C  C115  1  0.325200  0.496900  0.119800  1.0  0.6762
  C  C116  1  0.252800  0.510800  0.057800  1.0  -0.0254
  C  C117  1  0.111800  0.551600  0.017500  1.0  0.3081
  C  C118  1  0.243600  0.497900  0.973900  1.0  -0.002
  C  C119  1  0.306000  0.463600  0.907500  1.0  0.6578
  C  C120  1  0.156500  0.774100  0.276300  1.0  0.3209
  C  C121  1  0.025600  0.739900  0.217900  1.0  0.0128
  C  C122  1  0.946000  0.887500  0.232300  1.0  0.6428
  C  C123  1  0.021900  0.825300  0.239500  1.0  -0.0398
  C  C124  1  0.953600  0.683400  0.180200  1.0  0.6372
  N  N125  1  0.333000  0.045200  0.085500  1.0  -0.4353
  N  N126  1  0.346300  0.023500  0.947700  1.0  -0.443
  N  N127  1  0.388800  0.208100  0.242200  1.0  -0.4218
  N  N128  1  0.395100  0.346200  0.276200  1.0  -0.4369
  N  N129  1  0.167000  0.954800  0.585500  1.0  -0.4359
  N  N130  1  0.153700  0.976500  0.447700  1.0  -0.4434
  N  N131  1  0.111200  0.791900  0.742200  1.0  -0.4217
  N  N132  1  0.104900  0.653800  0.776200  1.0  -0.4365
  N  N133  1  0.667000  0.545200  0.414500  1.0  -0.4351
  N  N134  1  0.653700  0.523500  0.552300  1.0  -0.4433
  N  N135  1  0.611200  0.708100  0.257800  1.0  -0.4217
  N  N136  1  0.604900  0.846200  0.223800  1.0  -0.4356
  N  N137  1  0.833000  0.454800  0.914500  1.0  -0.4352
  N  N138  1  0.846300  0.476500  0.052300  1.0  -0.4424
  N  N139  1  0.888800  0.291900  0.757800  1.0  -0.4214
  N  N140  1  0.895100  0.153800  0.723800  1.0  -0.4368
  N  N141  1  0.667000  0.954800  0.914500  1.0  -0.4357
  N  N142  1  0.653700  0.976500  0.052300  1.0  -0.4431
  N  N143  1  0.611200  0.791900  0.757800  1.0  -0.4217
  N  N144  1  0.604900  0.653800  0.723800  1.0  -0.4361
  N  N145  1  0.833000  0.045200  0.414500  1.0  -0.4347
  N  N146  1  0.846300  0.023500  0.552300  1.0  -0.4426
  N  N147  1  0.888800  0.208100  0.257800  1.0  -0.4218
  N  N148  1  0.895100  0.346200  0.223800  1.0  -0.4362
  N  N149  1  0.333000  0.454800  0.585500  1.0  -0.4354
  N  N150  1  0.346300  0.476500  0.447700  1.0  -0.4427
  N  N151  1  0.388800  0.291900  0.742200  1.0  -0.4214
  N  N152  1  0.395100  0.153800  0.776200  1.0  -0.4373
  N  N153  1  0.167000  0.545200  0.085500  1.0  -0.4357
  N  N154  1  0.153700  0.523500  0.947700  1.0  -0.4436
  N  N155  1  0.111200  0.708100  0.242200  1.0  -0.4216
  N  N156  1  0.104900  0.846200  0.276200  1.0  -0.4361
  O  O157  1  0.192800  0.024500  0.192000  1.0  -0.5899
  O  O158  1  0.096900  0.960800  0.102200  1.0  -0.643
  O  O159  1  0.231300  0.953600  0.836700  1.0  -0.5805
  O  O160  1  0.109000  0.941800  0.920100  1.0  -0.6317
  O  O161  1  0.631600  0.366400  0.197500  1.0  -0.4614
  O  O162  1  0.526300  0.106700  0.173200  1.0  -0.6124
  O  O163  1  0.624500  0.215900  0.158600  1.0  -0.5959
  O  O164  1  0.540800  0.459600  0.263800  1.0  -0.5621
  O  O165  1  0.307200  0.975500  0.692000  1.0  -0.5894
  O  O166  1  0.403100  0.039200  0.602200  1.0  -0.6433
  O  O167  1  0.268700  0.046400  0.336700  1.0  -0.5801
  O  O168  1  0.391000  0.058200  0.420100  1.0  -0.6331
  O  O169  1  0.868400  0.633600  0.697500  1.0  -0.4617
  O  O170  1  0.973700  0.893300  0.673200  1.0  -0.6125
  O  O171  1  0.875500  0.784100  0.658600  1.0  -0.5947
  O  O172  1  0.959200  0.540400  0.763800  1.0  -0.5624
  O  O173  1  0.807200  0.524500  0.308000  1.0  -0.5895
  O  O174  1  0.903100  0.460800  0.397800  1.0  -0.6432
  O  O175  1  0.768700  0.453600  0.663300  1.0  -0.5808
  O  O176  1  0.891000  0.441800  0.579900  1.0  -0.633
  O  O177  1  0.368400  0.866400  0.302500  1.0  -0.4605
  O  O178  1  0.473700  0.606700  0.326800  1.0  -0.6127
  O  O179  1  0.375500  0.715900  0.341400  1.0  -0.5946
  O  O180  1  0.459200  0.959600  0.236200  1.0  -0.562
  O  O181  1  0.692800  0.475500  0.808000  1.0  -0.5897
  O  O182  1  0.596900  0.539200  0.897800  1.0  -0.6422
  O  O183  1  0.731300  0.546400  0.163300  1.0  -0.5815
  O  O184  1  0.609000  0.558200  0.079900  1.0  -0.6331
  O  O185  1  0.131600  0.133600  0.802500  1.0  -0.4617
  O  O186  1  0.026300  0.393300  0.826800  1.0  -0.6127
  O  O187  1  0.124500  0.284100  0.841400  1.0  -0.5957
  O  O188  1  0.040800  0.040400  0.736200  1.0  -0.5624
  O  O189  1  0.807200  0.975500  0.808000  1.0  -0.5901
  O  O190  1  0.903100  0.039200  0.897800  1.0  -0.643
  O  O191  1  0.768700  0.046400  0.163300  1.0  -0.5812
  O  O192  1  0.891000  0.058200  0.079900  1.0  -0.6337
  O  O193  1  0.368400  0.633600  0.802500  1.0  -0.461
  O  O194  1  0.473700  0.893300  0.826800  1.0  -0.6128
  O  O195  1  0.375500  0.784100  0.841400  1.0  -0.5947
  O  O196  1  0.459200  0.540400  0.736200  1.0  -0.562
  O  O197  1  0.692800  0.024500  0.308000  1.0  -0.5899
  O  O198  1  0.596900  0.960800  0.397800  1.0  -0.6424
  O  O199  1  0.731300  0.953600  0.663300  1.0  -0.581
  O  O200  1  0.609000  0.941800  0.579900  1.0  -0.6323
  O  O201  1  0.131600  0.366400  0.302500  1.0  -0.4611
  O  O202  1  0.026300  0.106700  0.326800  1.0  -0.6126
  O  O203  1  0.124500  0.215900  0.341400  1.0  -0.5955
  O  O204  1  0.040800  0.459600  0.236200  1.0  -0.5615
  O  O205  1  0.192800  0.475500  0.692000  1.0  -0.5898
  O  O206  1  0.096900  0.539200  0.602200  1.0  -0.6429
  O  O207  1  0.231300  0.546400  0.336700  1.0  -0.5805
  O  O208  1  0.109000  0.558200  0.420100  1.0  -0.6323
  O  O209  1  0.631600  0.133600  0.697500  1.0  -0.462
  O  O210  1  0.526300  0.393300  0.673200  1.0  -0.6125
  O  O211  1  0.624500  0.284100  0.658600  1.0  -0.596
  O  O212  1  0.540800  0.040400  0.763800  1.0  -0.5619
  O  O213  1  0.307200  0.524500  0.192000  1.0  -0.5903
  O  O214  1  0.403100  0.460800  0.102200  1.0  -0.6436
  O  O215  1  0.268700  0.453600  0.836700  1.0  -0.5807
  O  O216  1  0.391000  0.441800  0.920100  1.0  -0.6321
  O  O217  1  0.868400  0.866400  0.197500  1.0  -0.4609
  O  O218  1  0.973700  0.606700  0.173200  1.0  -0.6124
  O  O219  1  0.875500  0.715900  0.158600  1.0  -0.5946
  O  O220  1  0.959200  0.959600  0.263800  1.0  -0.5618
