# generated using pymatgen
data_Zn3P4(HO3)4
_symmetry_space_group_name_H-M   'P 1'
_cell_length_a   18.86130000
_cell_length_b   9.08560000
_cell_length_c   24.94850000
_cell_angle_alpha   90.00000000
_cell_angle_beta   107.21100000
_cell_angle_gamma   90.00000000
_symmetry_Int_Tables_number   1
_chemical_formula_structural   Zn3P4(HO3)4
_chemical_formula_sum   'Zn24 P32 H32 O96'
_cell_volume   4083.88775309
_cell_formula_units_Z   8
loop_
 _symmetry_equiv_pos_site_id
 _symmetry_equiv_pos_as_xyz
  1  'x, y, z'
loop_
 _atom_site_type_symbol
 _atom_site_label
 _atom_site_symmetry_multiplicity
 _atom_site_fract_x
 _atom_site_fract_y
 _atom_site_fract_z
 _atom_site_occupancy
 _atom_site_charge
  Zn  Zn1  1  0.085950  0.716370  0.277560  1.0  1.0982
  Zn  Zn2  1  0.768040  0.700600  0.175030  1.0  1.1232
  Zn  Zn3  1  0.241830  0.470900  0.501090  1.0  1.1216
  Zn  Zn4  1  0.263330  0.951520  0.493970  1.0  1.1291
  Zn  Zn5  1  0.279960  0.324200  0.179940  1.0  1.1036
  Zn  Zn6  1  0.406200  0.712420  0.721330  1.0  1.1188
  Zn  Zn7  1  0.914050  0.216370  0.222440  1.0  1.0989
  Zn  Zn8  1  0.231960  0.200600  0.324970  1.0  1.1231
  Zn  Zn9  1  0.758170  0.970900  0.998910  1.0  1.1218
  Zn  Zn10  1  0.736670  0.451520  0.006030  1.0  1.129
  Zn  Zn11  1  0.720040  0.824200  0.320060  1.0  1.1035
  Zn  Zn12  1  0.593800  0.212420  0.778670  1.0  1.119
  Zn  Zn13  1  0.914050  0.283630  0.722440  1.0  1.0989
  Zn  Zn14  1  0.231960  0.299400  0.824970  1.0  1.1232
  Zn  Zn15  1  0.758170  0.529100  0.498910  1.0  1.1215
  Zn  Zn16  1  0.736670  0.048480  0.506030  1.0  1.1289
  Zn  Zn17  1  0.720040  0.675800  0.820060  1.0  1.1035
  Zn  Zn18  1  0.593800  0.287580  0.278670  1.0  1.1188
  Zn  Zn19  1  0.085950  0.783630  0.777560  1.0  1.0983
  Zn  Zn20  1  0.768040  0.799400  0.675030  1.0  1.1233
  Zn  Zn21  1  0.241830  0.029100  0.001090  1.0  1.1214
  Zn  Zn22  1  0.263330  0.548480  0.993970  1.0  1.129
  Zn  Zn23  1  0.279960  0.175800  0.679940  1.0  1.1036
  Zn  Zn24  1  0.406200  0.787580  0.221330  1.0  1.1184
  P  P25  1  0.923910  0.559990  0.247510  1.0  1.562
  P  P26  1  0.177630  0.467370  0.239520  1.0  1.606
  P  P27  1  0.153440  0.727750  0.416220  1.0  1.4939
  P  P28  1  0.680070  0.739510  0.049530  1.0  1.4859
  P  P29  1  0.190240  0.186290  0.552460  1.0  1.5182
  P  P30  1  0.339930  0.708290  0.586220  1.0  1.5047
  P  P31  1  0.431210  0.453060  0.258930  1.0  1.5731
  P  P32  1  0.666300  0.559470  0.234500  1.0  1.6204
  P  P33  1  0.076090  0.059990  0.252490  1.0  1.5634
  P  P34  1  0.822370  0.967370  0.260480  1.0  1.6152
  P  P35  1  0.846560  0.227750  0.083780  1.0  1.5036
  P  P36  1  0.319930  0.239510  0.450470  1.0  1.4863
  P  P37  1  0.809760  0.686290  0.947540  1.0  1.5282
  P  P38  1  0.660070  0.208290  0.913780  1.0  1.4929
  P  P39  1  0.568790  0.953060  0.241070  1.0  1.5757
  P  P40  1  0.333700  0.059470  0.265500  1.0  1.6278
  P  P41  1  0.076090  0.440010  0.752490  1.0  1.5633
  P  P42  1  0.822370  0.532630  0.760480  1.0  1.6149
  P  P43  1  0.846560  0.272250  0.583780  1.0  1.5021
  P  P44  1  0.319930  0.260490  0.950470  1.0  1.4864
  P  P45  1  0.809760  0.813710  0.447540  1.0  1.5274
  P  P46  1  0.660070  0.291710  0.413780  1.0  1.4972
  P  P47  1  0.568790  0.546940  0.741070  1.0  1.5769
  P  P48  1  0.333700  0.440530  0.765500  1.0  1.6285
  P  P49  1  0.923910  0.940010  0.747510  1.0  1.5625
  P  P50  1  0.177630  0.032630  0.739520  1.0  1.6053
  P  P51  1  0.153440  0.772250  0.916220  1.0  1.4933
  P  P52  1  0.680070  0.760490  0.549530  1.0  1.4857
  P  P53  1  0.190240  0.313710  0.052460  1.0  1.5174
  P  P54  1  0.339930  0.791710  0.086220  1.0  1.503
  P  P55  1  0.431210  0.046940  0.758930  1.0  1.5737
  P  P56  1  0.666300  0.940530  0.734500  1.0  1.6214
  H  H57  1  0.914700  0.632000  0.285000  1.0  0.0353
  H  H58  1  0.117000  0.407000  0.229100  1.0  0.0074
  H  H59  1  0.114000  0.766000  0.447000  1.0  -0.0252
  H  H60  1  0.626000  0.750500  0.075000  1.0  -0.0693
  H  H61  1  0.137000  0.179400  0.576300  1.0  -0.0821
  H  H62  1  0.401000  0.640000  0.588330  1.0  -0.0823
  H  H63  1  0.408000  0.387000  0.296000  1.0  -0.1216
  H  H64  1  0.602000  0.616000  0.229000  1.0  -0.0999
  H  H65  1  0.085300  0.132000  0.215000  1.0  0.0372
  H  H66  1  0.883000  0.907000  0.270900  1.0  0.0073
  H  H67  1  0.886000  0.266000  0.053000  1.0  -0.0252
  H  H68  1  0.374000  0.250500  0.425000  1.0  -0.0685
  H  H69  1  0.863000  0.679400  0.923700  1.0  -0.0786
  H  H70  1  0.599000  0.140000  0.911670  1.0  -0.0832
  H  H71  1  0.592000  0.887000  0.204000  1.0  -0.1157
  H  H72  1  0.398000  0.116000  0.271000  1.0  -0.0992
  H  H73  1  0.085300  0.368000  0.715000  1.0  0.0379
  H  H74  1  0.883000  0.593000  0.770900  1.0  0.0072
  H  H75  1  0.886000  0.234000  0.553000  1.0  -0.0255
  H  H76  1  0.374000  0.249500  0.925000  1.0  -0.0685
  H  H77  1  0.863000  0.820600  0.423700  1.0  -0.0785
  H  H78  1  0.599000  0.360000  0.411670  1.0  -0.0829
  H  H79  1  0.592000  0.613000  0.704000  1.0  -0.1152
  H  H80  1  0.398000  0.384000  0.771000  1.0  -0.0994
  H  H81  1  0.914700  0.868000  0.785000  1.0  0.0363
  H  H82  1  0.117000  0.093000  0.729100  1.0  0.0074
  H  H83  1  0.114000  0.734000  0.947000  1.0  -0.0253
  H  H84  1  0.626000  0.749500  0.575000  1.0  -0.0698
  H  H85  1  0.137000  0.320600  0.076300  1.0  -0.0821
  H  H86  1  0.401000  0.860000  0.088330  1.0  -0.0817
  H  H87  1  0.408000  0.113000  0.796000  1.0  -0.1212
  H  H88  1  0.602000  0.884000  0.729000  1.0  -0.0999
  O  O89  1  0.999200  0.597700  0.243900  1.0  -0.8208
  O  O90  1  0.864600  0.608300  0.194500  1.0  -0.806
  O  O91  1  0.915100  0.400600  0.262100  1.0  -0.7805
  O  O92  1  0.167700  0.628400  0.253900  1.0  -0.7022
  O  O93  1  0.203000  0.458100  0.187300  1.0  -0.7857
  O  O94  1  0.229900  0.389300  0.289000  1.0  -0.8282
  O  O95  1  0.104000  0.729300  0.357600  1.0  -0.8507
  O  O96  1  0.214300  0.844500  0.425300  1.0  -0.7444
  O  O97  1  0.181700  0.576900  0.435500  1.0  -0.7828
  O  O98  1  0.673600  0.874700  0.012600  1.0  -0.7297
  O  O99  1  0.753300  0.732600  0.095400  1.0  -0.7786
  O  O100  1  0.664800  0.598600  0.014600  1.0  -0.74
  O  O101  1  0.184900  0.045800  0.518400  1.0  -0.7497
  O  O102  1  0.174000  0.320400  0.514500  1.0  -0.7456
  O  O103  1  0.261700  0.201700  0.599700  1.0  -0.7754
  O  O104  1  0.278600  0.600200  0.565000  1.0  -0.7837
  O  O105  1  0.344500  0.750000  0.646300  1.0  -0.7765
  O  O106  1  0.336100  0.839500  0.549700  1.0  -0.7696
  O  O107  1  0.508900  0.407300  0.270200  1.0  -0.8183
  O  O108  1  0.420400  0.613500  0.267900  1.0  -0.7854
  O  O109  1  0.381400  0.396100  0.203200  1.0  -0.7845
  O  O110  1  0.685200  0.582300  0.180200  1.0  -0.7922
  O  O111  1  0.661600  0.393100  0.245400  1.0  -0.7355
  O  O112  1  0.722200  0.633600  0.284000  1.0  -0.7747
  O  O113  1  0.000800  0.097700  0.256100  1.0  -0.8235
  O  O114  1  0.135400  0.108300  0.305500  1.0  -0.8072
  O  O115  1  0.084900  0.900600  0.237900  1.0  -0.7801
  O  O116  1  0.832300  0.128400  0.246100  1.0  -0.7031
  O  O117  1  0.797000  0.958100  0.312700  1.0  -0.7869
  O  O118  1  0.770100  0.889300  0.211000  1.0  -0.8278
  O  O119  1  0.896000  0.229300  0.142400  1.0  -0.8505
  O  O120  1  0.785700  0.344500  0.074700  1.0  -0.7462
  O  O121  1  0.818300  0.076900  0.064500  1.0  -0.7807
  O  O122  1  0.326400  0.374700  0.487400  1.0  -0.731
  O  O123  1  0.246700  0.232600  0.404600  1.0  -0.775
  O  O124  1  0.335200  0.098600  0.485400  1.0  -0.7402
  O  O125  1  0.815100  0.545800  0.981600  1.0  -0.7501
  O  O126  1  0.826000  0.820400  0.985500  1.0  -0.7459
  O  O127  1  0.738300  0.701700  0.900300  1.0  -0.7731
  O  O128  1  0.721400  0.100200  0.935000  1.0  -0.7808
  O  O129  1  0.655500  0.250000  0.853700  1.0  -0.7763
  O  O130  1  0.663900  0.339500  0.950300  1.0  -0.7691
  O  O131  1  0.491100  0.907300  0.229800  1.0  -0.8186
  O  O132  1  0.579600  0.113500  0.232100  1.0  -0.7846
  O  O133  1  0.618600  0.896100  0.296800  1.0  -0.7856
  O  O134  1  0.314800  0.082300  0.319800  1.0  -0.7938
  O  O135  1  0.338400  0.893100  0.254600  1.0  -0.7361
  O  O136  1  0.277800  0.133600  0.216000  1.0  -0.7754
  O  O137  1  0.000800  0.402300  0.756100  1.0  -0.8233
  O  O138  1  0.135400  0.391700  0.805500  1.0  -0.8071
  O  O139  1  0.084900  0.599400  0.737900  1.0  -0.7793
  O  O140  1  0.832300  0.371600  0.746100  1.0  -0.7048
  O  O141  1  0.797000  0.541900  0.812700  1.0  -0.7875
  O  O142  1  0.770100  0.610700  0.711000  1.0  -0.8275
  O  O143  1  0.896000  0.270700  0.642400  1.0  -0.8519
  O  O144  1  0.785700  0.155500  0.574700  1.0  -0.7462
  O  O145  1  0.818300  0.423100  0.564500  1.0  -0.7825
  O  O146  1  0.326400  0.125300  0.987400  1.0  -0.7308
  O  O147  1  0.246700  0.267400  0.904600  1.0  -0.7751
  O  O148  1  0.335200  0.401400  0.985400  1.0  -0.7405
  O  O149  1  0.815100  0.954200  0.481600  1.0  -0.7496
  O  O150  1  0.826000  0.679600  0.485500  1.0  -0.746
  O  O151  1  0.738300  0.798300  0.400300  1.0  -0.7731
  O  O152  1  0.721400  0.399800  0.435000  1.0  -0.7819
  O  O153  1  0.655500  0.250000  0.353700  1.0  -0.7772
  O  O154  1  0.663900  0.160500  0.450300  1.0  -0.7689
  O  O155  1  0.491100  0.592700  0.729800  1.0  -0.8186
  O  O156  1  0.579600  0.386500  0.732100  1.0  -0.7839
  O  O157  1  0.618600  0.603900  0.796800  1.0  -0.7855
  O  O158  1  0.314800  0.417700  0.819800  1.0  -0.7933
  O  O159  1  0.338400  0.606900  0.754600  1.0  -0.7363
  O  O160  1  0.277800  0.366400  0.716000  1.0  -0.775
  O  O161  1  0.999200  0.902300  0.743900  1.0  -0.8206
  O  O162  1  0.864600  0.891700  0.694500  1.0  -0.8062
  O  O163  1  0.915100  0.099400  0.762100  1.0  -0.7804
  O  O164  1  0.167700  0.871600  0.753900  1.0  -0.704
  O  O165  1  0.203000  0.041900  0.687300  1.0  -0.7859
  O  O166  1  0.229900  0.110700  0.789000  1.0  -0.8278
  O  O167  1  0.104000  0.770700  0.857600  1.0  -0.8497
  O  O168  1  0.214300  0.655500  0.925300  1.0  -0.7456
  O  O169  1  0.181700  0.923100  0.935500  1.0  -0.7821
  O  O170  1  0.673600  0.625300  0.512600  1.0  -0.7303
  O  O171  1  0.753300  0.767400  0.595400  1.0  -0.7789
  O  O172  1  0.664800  0.901400  0.514600  1.0  -0.7406
  O  O173  1  0.184900  0.454200  0.018400  1.0  -0.7499
  O  O174  1  0.174000  0.179600  0.014500  1.0  -0.7454
  O  O175  1  0.261700  0.298300  0.099700  1.0  -0.7755
  O  O176  1  0.278600  0.899800  0.065000  1.0  -0.7835
  O  O177  1  0.344500  0.750000  0.146300  1.0  -0.777
  O  O178  1  0.336100  0.660500  0.049700  1.0  -0.7682
  O  O179  1  0.508900  0.092700  0.770200  1.0  -0.8182
  O  O180  1  0.420400  0.886500  0.767900  1.0  -0.7852
  O  O181  1  0.381400  0.103900  0.703200  1.0  -0.7844
  O  O182  1  0.685200  0.917700  0.680200  1.0  -0.7924
  O  O183  1  0.661600  0.106900  0.745400  1.0  -0.7357
  O  O184  1  0.722200  0.866400  0.784000  1.0  -0.7747
