# generated using pymatgen
data_NiH3C8O5
_symmetry_space_group_name_H-M   'P 1'
_cell_length_a   15.17800000
_cell_length_b   15.17800000
_cell_length_c   12.08130000
_cell_angle_alpha   90.00000000
_cell_angle_beta   90.00000000
_cell_angle_gamma   90.00000000
_symmetry_Int_Tables_number   1
_chemical_formula_structural   NiH3C8O5
_chemical_formula_sum   'Ni8 H24 C64 O40'
_cell_volume   2783.18942591
_cell_formula_units_Z   8
loop_
 _symmetry_equiv_pos_site_id
 _symmetry_equiv_pos_as_xyz
  1  'x, y, z'
loop_
 _atom_site_type_symbol
 _atom_site_label
 _atom_site_symmetry_multiplicity
 _atom_site_fract_x
 _atom_site_fract_y
 _atom_site_fract_z
 _atom_site_occupancy
 _atom_site_charge
  Ni  Ni1  1  0.189640  0.310360  0.750000  1.0  1.1241
  Ni  Ni2  1  0.310360  0.189640  0.250000  1.0  1.1218
  Ni  Ni3  1  0.689640  0.689640  0.000000  1.0  1.1238
  Ni  Ni4  1  0.810360  0.810360  0.500000  1.0  1.1225
  Ni  Ni5  1  0.310360  0.310360  0.000000  1.0  1.1225
  Ni  Ni6  1  0.189640  0.189640  0.500000  1.0  1.1238
  Ni  Ni7  1  0.810360  0.689640  0.750000  1.0  1.1218
  Ni  Ni8  1  0.689640  0.810360  0.250000  1.0  1.1241
  H  H9  1  0.382200  0.439500  0.585700  1.0  0.1252
  H  H10  1  0.882200  0.939500  0.085700  1.0  0.1252
  H  H11  1  0.117800  0.060500  0.085700  1.0  0.1252
  H  H12  1  0.617800  0.560500  0.585700  1.0  0.1252
  H  H13  1  0.560500  0.882200  0.835700  1.0  0.1252
  H  H14  1  0.060500  0.382200  0.335700  1.0  0.1252
  H  H15  1  0.939500  0.617800  0.335700  1.0  0.1251
  H  H16  1  0.439500  0.117800  0.835700  1.0  0.1251
  H  H17  1  0.117800  0.439500  0.164300  1.0  0.1246
  H  H18  1  0.617800  0.939500  0.664300  1.0  0.1246
  H  H19  1  0.382200  0.060500  0.664300  1.0  0.1248
  H  H20  1  0.882200  0.560500  0.164300  1.0  0.1248
  H  H21  1  0.939500  0.882200  0.914300  1.0  0.1245
  H  H22  1  0.439500  0.382200  0.414300  1.0  0.1245
  H  H23  1  0.560500  0.617800  0.414300  1.0  0.1245
  H  H24  1  0.060500  0.117800  0.914300  1.0  0.1245
  H  H25  1  0.500000  0.500000  0.871500  1.0  0.143
  H  H26  1  0.000000  0.000000  0.371500  1.0  0.143
  H  H27  1  0.500000  0.000000  0.121500  1.0  0.143
  H  H28  1  0.000000  0.500000  0.621500  1.0  0.143
  H  H29  1  0.000000  0.500000  0.878500  1.0  0.1434
  H  H30  1  0.500000  0.000000  0.378500  1.0  0.1434
  H  H31  1  0.000000  0.000000  0.628500  1.0  0.1434
  H  H32  1  0.500000  0.500000  0.128500  1.0  0.1434
  C  C33  1  0.359900  0.410000  0.796800  1.0  0.7302
  C  C34  1  0.431500  0.460200  0.736000  1.0  -0.0949
  C  C35  1  0.430400  0.462900  0.623100  1.0  0.0002
  C  C36  1  0.859900  0.910000  0.296800  1.0  0.7302
  C  C37  1  0.931500  0.960200  0.236000  1.0  -0.0949
  C  C38  1  0.930400  0.962900  0.123100  1.0  0.0002
  C  C39  1  0.140100  0.090000  0.296800  1.0  0.7295
  C  C40  1  0.068500  0.039800  0.236000  1.0  -0.0955
  C  C41  1  0.069600  0.037100  0.123100  1.0  0.0002
  C  C42  1  0.640100  0.590000  0.796800  1.0  0.7295
  C  C43  1  0.568500  0.539800  0.736000  1.0  -0.0955
  C  C44  1  0.569600  0.537100  0.623100  1.0  0.0002
  C  C45  1  0.590000  0.859900  0.046800  1.0  0.7289
  C  C46  1  0.539800  0.931500  0.986000  1.0  -0.0943
  C  C47  1  0.537100  0.930400  0.873100  1.0  0.0004
  C  C48  1  0.090000  0.359900  0.546800  1.0  0.7289
  C  C49  1  0.039800  0.431500  0.486000  1.0  -0.0943
  C  C50  1  0.037100  0.430400  0.373100  1.0  0.0004
  C  C51  1  0.910000  0.640100  0.546800  1.0  0.7296
  C  C52  1  0.960200  0.568500  0.486000  1.0  -0.0955
  C  C53  1  0.962900  0.569600  0.373100  1.0  0.0003
  C  C54  1  0.410000  0.140100  0.046800  1.0  0.7296
  C  C55  1  0.460200  0.068500  0.986000  1.0  -0.0955
  C  C56  1  0.462900  0.069600  0.873100  1.0  0.0003
  C  C57  1  0.140100  0.410000  0.953200  1.0  0.7291
  C  C58  1  0.068500  0.460200  0.014000  1.0  -0.0959
  C  C59  1  0.069600  0.462900  0.126900  1.0  0.0005
  C  C60  1  0.640100  0.910000  0.453200  1.0  0.7291
  C  C61  1  0.568500  0.960200  0.514000  1.0  -0.0959
  C  C62  1  0.569600  0.962900  0.626900  1.0  0.0005
  C  C63  1  0.359900  0.090000  0.453200  1.0  0.7306
  C  C64  1  0.431500  0.039800  0.514000  1.0  -0.0949
  C  C65  1  0.430400  0.037100  0.626900  1.0  0.0007
  C  C66  1  0.859900  0.590000  0.953200  1.0  0.7306
  C  C67  1  0.931500  0.539800  0.014000  1.0  -0.0949
  C  C68  1  0.930400  0.537100  0.126900  1.0  0.0007
  C  C69  1  0.910000  0.859900  0.703200  1.0  0.7296
  C  C70  1  0.960200  0.931500  0.764000  1.0  -0.096
  C  C71  1  0.962900  0.930400  0.876900  1.0  0.0013
  C  C72  1  0.410000  0.359900  0.203200  1.0  0.7296
  C  C73  1  0.460200  0.431500  0.264000  1.0  -0.096
  C  C74  1  0.462900  0.430400  0.376900  1.0  0.0013
  C  C75  1  0.590000  0.640100  0.203200  1.0  0.7293
  C  C76  1  0.539800  0.568500  0.264000  1.0  -0.0949
  C  C77  1  0.537100  0.569600  0.376900  1.0  0.0003
  C  C78  1  0.090000  0.140100  0.703200  1.0  0.7293
  C  C79  1  0.039800  0.068500  0.764000  1.0  -0.0949
  C  C80  1  0.037100  0.069600  0.876900  1.0  0.0003
  C  C81  1  0.500000  0.500000  0.794500  1.0  0.0033
  C  C82  1  0.500000  0.500000  0.561400  1.0  0.0701
  C  C83  1  0.000000  0.000000  0.294500  1.0  0.0033
  C  C84  1  0.000000  0.000000  0.061400  1.0  0.0701
  C  C85  1  0.500000  0.000000  0.044500  1.0  0.0033
  C  C86  1  0.500000  0.000000  0.811400  1.0  0.0701
  C  C87  1  0.000000  0.500000  0.544500  1.0  0.0033
  C  C88  1  0.000000  0.500000  0.311400  1.0  0.0701
  C  C89  1  0.000000  0.500000  0.955500  1.0  0.0031
  C  C90  1  0.000000  0.500000  0.188600  1.0  0.0697
  C  C91  1  0.500000  0.000000  0.455500  1.0  0.0031
  C  C92  1  0.500000  0.000000  0.688600  1.0  0.0697
  C  C93  1  0.000000  0.000000  0.705500  1.0  0.0031
  C  C94  1  0.000000  0.000000  0.938600  1.0  0.0697
  C  C95  1  0.500000  0.500000  0.205500  1.0  0.0031
  C  C96  1  0.500000  0.500000  0.438600  1.0  0.0697
  O  O97  1  0.382700  0.376700  0.888200  1.0  -0.5701
  O  O98  1  0.286900  0.404500  0.749200  1.0  -0.5803
  O  O99  1  0.882700  0.876700  0.388200  1.0  -0.5701
  O  O100  1  0.786900  0.904500  0.249200  1.0  -0.5803
  O  O101  1  0.117300  0.123300  0.388200  1.0  -0.5706
  O  O102  1  0.213100  0.095500  0.249200  1.0  -0.5792
  O  O103  1  0.617300  0.623300  0.888200  1.0  -0.5706
  O  O104  1  0.713100  0.595500  0.749200  1.0  -0.5792
  O  O105  1  0.623300  0.882700  0.138200  1.0  -0.5688
  O  O106  1  0.595500  0.786900  0.999200  1.0  -0.5805
  O  O107  1  0.123300  0.382700  0.638200  1.0  -0.5688
  O  O108  1  0.095500  0.286900  0.499200  1.0  -0.5805
  O  O109  1  0.876700  0.617300  0.638200  1.0  -0.5697
  O  O110  1  0.904500  0.713100  0.499200  1.0  -0.5786
  O  O111  1  0.376700  0.117300  0.138200  1.0  -0.5697
  O  O112  1  0.404500  0.213100  0.999200  1.0  -0.5786
  O  O113  1  0.117300  0.376700  0.861800  1.0  -0.5708
  O  O114  1  0.213100  0.404500  0.000800  1.0  -0.5786
  O  O115  1  0.617300  0.876700  0.361800  1.0  -0.5708
  O  O116  1  0.713100  0.904500  0.500800  1.0  -0.5786
  O  O117  1  0.382700  0.123300  0.361800  1.0  -0.571
  O  O118  1  0.286900  0.095500  0.500800  1.0  -0.5803
  O  O119  1  0.882700  0.623300  0.861800  1.0  -0.571
  O  O120  1  0.786900  0.595500  0.000800  1.0  -0.5803
  O  O121  1  0.876700  0.882700  0.611800  1.0  -0.5704
  O  O122  1  0.904500  0.786900  0.750800  1.0  -0.5792
  O  O123  1  0.376700  0.382700  0.111800  1.0  -0.5704
  O  O124  1  0.404500  0.286900  0.250800  1.0  -0.5792
  O  O125  1  0.623300  0.617300  0.111800  1.0  -0.5692
  O  O126  1  0.595500  0.713100  0.250800  1.0  -0.5796
  O  O127  1  0.123300  0.117300  0.611800  1.0  -0.5692
  O  O128  1  0.095500  0.213100  0.750800  1.0  -0.5796
  O  O129  1  0.250000  0.236400  0.875000  1.0  -0.5617
  O  O130  1  0.750000  0.736400  0.375000  1.0  -0.5617
  O  O131  1  0.250000  0.263600  0.375000  1.0  -0.5575
  O  O132  1  0.750000  0.763600  0.875000  1.0  -0.5575
  O  O133  1  0.763600  0.750000  0.125000  1.0  -0.5589
  O  O134  1  0.263600  0.250000  0.625000  1.0  -0.5589
  O  O135  1  0.736400  0.750000  0.625000  1.0  -0.5602
  O  O136  1  0.236400  0.250000  0.125000  1.0  -0.5602
