# generated using pymatgen
data_CuH2(C3O2)2
_symmetry_space_group_name_H-M   'P 1'
_cell_length_a   26.35040000
_cell_length_b   26.35040000
_cell_length_c   26.35040000
_cell_angle_alpha   90.00000000
_cell_angle_beta   90.00000000
_cell_angle_gamma   90.00000000
_symmetry_Int_Tables_number   1
_chemical_formula_structural   CuH2(C3O2)2
_chemical_formula_sum   'Cu48 H96 C288 O192'
_cell_volume   18296.23107465
_cell_formula_units_Z   48
loop_
 _symmetry_equiv_pos_site_id
 _symmetry_equiv_pos_as_xyz
  1  'x, y, z'
loop_
 _atom_site_type_symbol
 _atom_site_label
 _atom_site_symmetry_multiplicity
 _atom_site_fract_x
 _atom_site_fract_y
 _atom_site_fract_z
 _atom_site_occupancy
 _atom_site_charge
  Cu  Cu1  1  0.714770  0.500000  0.285230  1.0  0.8883
  Cu  Cu2  1  0.714770  0.000000  0.785230  1.0  0.8883
  Cu  Cu3  1  0.214770  0.500000  0.785230  1.0  0.8883
  Cu  Cu4  1  0.214770  0.000000  0.285230  1.0  0.8883
  Cu  Cu5  1  0.285230  0.500000  0.285230  1.0  0.8875
  Cu  Cu6  1  0.285230  0.000000  0.785230  1.0  0.8875
  Cu  Cu7  1  0.785230  0.500000  0.785230  1.0  0.8875
  Cu  Cu8  1  0.785230  0.000000  0.285230  1.0  0.8875
  Cu  Cu9  1  0.285230  0.500000  0.714770  1.0  0.8876
  Cu  Cu10  1  0.285230  0.000000  0.214770  1.0  0.8876
  Cu  Cu11  1  0.785230  0.500000  0.214770  1.0  0.8876
  Cu  Cu12  1  0.785230  0.000000  0.714770  1.0  0.8876
  Cu  Cu13  1  0.714770  0.500000  0.714770  1.0  0.8887
  Cu  Cu14  1  0.714770  0.000000  0.214770  1.0  0.8887
  Cu  Cu15  1  0.214770  0.500000  0.214770  1.0  0.8887
  Cu  Cu16  1  0.214770  0.000000  0.714770  1.0  0.8887
  Cu  Cu17  1  0.285230  0.714770  0.500000  1.0  0.8886
  Cu  Cu18  1  0.285230  0.214770  0.000000  1.0  0.8886
  Cu  Cu19  1  0.785230  0.714770  0.000000  1.0  0.8886
  Cu  Cu20  1  0.785230  0.214770  0.500000  1.0  0.8886
  Cu  Cu21  1  0.285230  0.285230  0.500000  1.0  0.8899
  Cu  Cu22  1  0.285230  0.785230  0.000000  1.0  0.8899
  Cu  Cu23  1  0.785230  0.285230  0.000000  1.0  0.8899
  Cu  Cu24  1  0.785230  0.785230  0.500000  1.0  0.8899
  Cu  Cu25  1  0.714770  0.285230  0.500000  1.0  0.8897
  Cu  Cu26  1  0.714770  0.785230  0.000000  1.0  0.8897
  Cu  Cu27  1  0.214770  0.285230  0.000000  1.0  0.8897
  Cu  Cu28  1  0.214770  0.785230  0.500000  1.0  0.8897
  Cu  Cu29  1  0.714770  0.714770  0.500000  1.0  0.8896
  Cu  Cu30  1  0.714770  0.214770  0.000000  1.0  0.8896
  Cu  Cu31  1  0.214770  0.714770  0.000000  1.0  0.8896
  Cu  Cu32  1  0.214770  0.214770  0.500000  1.0  0.8896
  Cu  Cu33  1  0.500000  0.285230  0.714770  1.0  0.8874
  Cu  Cu34  1  0.500000  0.785230  0.214770  1.0  0.8874
  Cu  Cu35  1  0.000000  0.285230  0.214770  1.0  0.8874
  Cu  Cu36  1  0.000000  0.785230  0.714770  1.0  0.8874
  Cu  Cu37  1  0.500000  0.285230  0.285230  1.0  0.8879
  Cu  Cu38  1  0.500000  0.785230  0.785230  1.0  0.8879
  Cu  Cu39  1  0.000000  0.285230  0.785230  1.0  0.8879
  Cu  Cu40  1  0.000000  0.785230  0.285230  1.0  0.8879
  Cu  Cu41  1  0.500000  0.714770  0.285230  1.0  0.8871
  Cu  Cu42  1  0.500000  0.214770  0.785230  1.0  0.8871
  Cu  Cu43  1  0.000000  0.714770  0.785230  1.0  0.8871
  Cu  Cu44  1  0.000000  0.214770  0.285230  1.0  0.8871
  Cu  Cu45  1  0.500000  0.714770  0.714770  1.0  0.8873
  Cu  Cu46  1  0.500000  0.214770  0.214770  1.0  0.8873
  Cu  Cu47  1  0.000000  0.714770  0.214770  1.0  0.8873
  Cu  Cu48  1  0.000000  0.214770  0.714770  1.0  0.8873
  H  H49  1  0.620600  0.379400  0.228300  1.0  0.114
  H  H50  1  0.620600  0.879400  0.728300  1.0  0.114
  H  H51  1  0.120600  0.379400  0.728300  1.0  0.114
  H  H52  1  0.120600  0.879400  0.228300  1.0  0.114
  H  H53  1  0.379400  0.620600  0.228300  1.0  0.1139
  H  H54  1  0.379400  0.120600  0.728300  1.0  0.1139
  H  H55  1  0.879400  0.620600  0.728300  1.0  0.1139
  H  H56  1  0.879400  0.120600  0.228300  1.0  0.1139
  H  H57  1  0.379400  0.379400  0.771700  1.0  0.1139
  H  H58  1  0.379400  0.879400  0.271700  1.0  0.1139
  H  H59  1  0.879400  0.379400  0.271700  1.0  0.1139
  H  H60  1  0.879400  0.879400  0.771700  1.0  0.1139
  H  H61  1  0.620600  0.620600  0.771700  1.0  0.1141
  H  H62  1  0.620600  0.120600  0.271700  1.0  0.1141
  H  H63  1  0.120600  0.620600  0.271700  1.0  0.1141
  H  H64  1  0.120600  0.120600  0.771700  1.0  0.1141
  H  H65  1  0.228300  0.620600  0.379400  1.0  0.1138
  H  H66  1  0.228300  0.120600  0.879400  1.0  0.1138
  H  H67  1  0.728300  0.620600  0.879400  1.0  0.1138
  H  H68  1  0.728300  0.120600  0.379400  1.0  0.1138
  H  H69  1  0.228300  0.379400  0.620600  1.0  0.1133
  H  H70  1  0.228300  0.879400  0.120600  1.0  0.1133
  H  H71  1  0.728300  0.379400  0.120600  1.0  0.1133
  H  H72  1  0.728300  0.879400  0.620600  1.0  0.1133
  H  H73  1  0.771700  0.379400  0.379400  1.0  0.1133
  H  H74  1  0.771700  0.879400  0.879400  1.0  0.1133
  H  H75  1  0.271700  0.379400  0.879400  1.0  0.1133
  H  H76  1  0.271700  0.879400  0.379400  1.0  0.1133
  H  H77  1  0.771700  0.620600  0.620600  1.0  0.1135
  H  H78  1  0.771700  0.120600  0.120600  1.0  0.1135
  H  H79  1  0.271700  0.620600  0.120600  1.0  0.1135
  H  H80  1  0.271700  0.120600  0.620600  1.0  0.1135
  H  H81  1  0.379400  0.228300  0.620600  1.0  0.1134
  H  H82  1  0.379400  0.728300  0.120600  1.0  0.1134
  H  H83  1  0.879400  0.228300  0.120600  1.0  0.1134
  H  H84  1  0.879400  0.728300  0.620600  1.0  0.1134
  H  H85  1  0.620600  0.228300  0.379400  1.0  0.1138
  H  H86  1  0.620600  0.728300  0.879400  1.0  0.1138
  H  H87  1  0.120600  0.228300  0.879400  1.0  0.1138
  H  H88  1  0.120600  0.728300  0.379400  1.0  0.1138
  H  H89  1  0.379400  0.771700  0.379400  1.0  0.1134
  H  H90  1  0.379400  0.271700  0.879400  1.0  0.1134
  H  H91  1  0.879400  0.771700  0.879400  1.0  0.1134
  H  H92  1  0.879400  0.271700  0.379400  1.0  0.1134
  H  H93  1  0.620600  0.771700  0.620600  1.0  0.1136
  H  H94  1  0.620600  0.271700  0.120600  1.0  0.1136
  H  H95  1  0.120600  0.771700  0.120600  1.0  0.1136
  H  H96  1  0.120600  0.271700  0.620600  1.0  0.1136
  H  H97  1  0.379400  0.620600  0.771700  1.0  0.1141
  H  H98  1  0.379400  0.120600  0.271700  1.0  0.1141
  H  H99  1  0.879400  0.620600  0.271700  1.0  0.1141
  H  H100  1  0.879400  0.120600  0.771700  1.0  0.1141
  H  H101  1  0.620600  0.379400  0.771700  1.0  0.1136
  H  H102  1  0.620600  0.879400  0.271700  1.0  0.1136
  H  H103  1  0.120600  0.379400  0.271700  1.0  0.1136
  H  H104  1  0.120600  0.879400  0.771700  1.0  0.1136
  H  H105  1  0.379400  0.379400  0.228300  1.0  0.114
  H  H106  1  0.379400  0.879400  0.728300  1.0  0.114
  H  H107  1  0.879400  0.379400  0.728300  1.0  0.114
  H  H108  1  0.879400  0.879400  0.228300  1.0  0.114
  H  H109  1  0.620600  0.620600  0.228300  1.0  0.1142
  H  H110  1  0.620600  0.120600  0.728300  1.0  0.1142
  H  H111  1  0.120600  0.620600  0.728300  1.0  0.1142
  H  H112  1  0.120600  0.120600  0.228300  1.0  0.1142
  H  H113  1  0.620600  0.228300  0.620600  1.0  0.1132
  H  H114  1  0.620600  0.728300  0.120600  1.0  0.1132
  H  H115  1  0.120600  0.228300  0.120600  1.0  0.1132
  H  H116  1  0.120600  0.728300  0.620600  1.0  0.1132
  H  H117  1  0.379400  0.228300  0.379400  1.0  0.1137
  H  H118  1  0.379400  0.728300  0.879400  1.0  0.1137
  H  H119  1  0.879400  0.228300  0.879400  1.0  0.1137
  H  H120  1  0.879400  0.728300  0.379400  1.0  0.1137
  H  H121  1  0.379400  0.771700  0.620600  1.0  0.1134
  H  H122  1  0.379400  0.271700  0.120600  1.0  0.1134
  H  H123  1  0.879400  0.771700  0.120600  1.0  0.1134
  H  H124  1  0.879400  0.271700  0.620600  1.0  0.1134
  H  H125  1  0.620600  0.771700  0.379400  1.0  0.1137
  H  H126  1  0.620600  0.271700  0.879400  1.0  0.1137
  H  H127  1  0.120600  0.771700  0.879400  1.0  0.1137
  H  H128  1  0.120600  0.271700  0.379400  1.0  0.1137
  H  H129  1  0.228300  0.379400  0.379400  1.0  0.1137
  H  H130  1  0.228300  0.879400  0.879400  1.0  0.1137
  H  H131  1  0.728300  0.379400  0.879400  1.0  0.1137
  H  H132  1  0.728300  0.879400  0.379400  1.0  0.1137
  H  H133  1  0.228300  0.620600  0.620600  1.0  0.1134
  H  H134  1  0.228300  0.120600  0.120600  1.0  0.1134
  H  H135  1  0.728300  0.620600  0.120600  1.0  0.1134
  H  H136  1  0.728300  0.120600  0.620600  1.0  0.1134
  H  H137  1  0.771700  0.379400  0.620600  1.0  0.1131
  H  H138  1  0.771700  0.879400  0.120600  1.0  0.1131
  H  H139  1  0.271700  0.379400  0.120600  1.0  0.1131
  H  H140  1  0.271700  0.879400  0.620600  1.0  0.1131
  H  H141  1  0.771700  0.620600  0.379400  1.0  0.1136
  H  H142  1  0.771700  0.120600  0.879400  1.0  0.1136
  H  H143  1  0.271700  0.620600  0.879400  1.0  0.1136
  H  H144  1  0.271700  0.120600  0.379400  1.0  0.1136
  C  C145  1  0.703550  0.430820  0.203550  1.0  0.7018
  C  C146  1  0.678020  0.386520  0.178020  1.0  -0.1617
  C  C147  1  0.703550  0.930820  0.703550  1.0  0.7018
  C  C148  1  0.678020  0.886520  0.678020  1.0  -0.1617
  C  C149  1  0.296450  0.569180  0.203550  1.0  0.7015
  C  C150  1  0.321980  0.613480  0.178020  1.0  -0.1617
  C  C151  1  0.296450  0.069180  0.703550  1.0  0.7015
  C  C152  1  0.321980  0.113480  0.678020  1.0  -0.1617
  C  C153  1  0.796450  0.569180  0.703550  1.0  0.7015
  C  C154  1  0.821980  0.613480  0.678020  1.0  -0.1617
  C  C155  1  0.296450  0.430820  0.796450  1.0  0.7015
  C  C156  1  0.321980  0.386520  0.821980  1.0  -0.1619
  C  C157  1  0.296450  0.930820  0.296450  1.0  0.7015
  C  C158  1  0.321980  0.886520  0.321980  1.0  -0.1619
  C  C159  1  0.796450  0.930820  0.796450  1.0  0.7015
  C  C160  1  0.821980  0.886520  0.821980  1.0  -0.1619
  C  C161  1  0.703550  0.569180  0.796450  1.0  0.7026
  C  C162  1  0.678020  0.613480  0.821980  1.0  -0.162
  C  C163  1  0.703550  0.069180  0.296450  1.0  0.7026
  C  C164  1  0.678020  0.113480  0.321980  1.0  -0.162
  C  C165  1  0.203550  0.703550  0.430820  1.0  0.7035
  C  C166  1  0.178020  0.678020  0.386520  1.0  -0.1629
  C  C167  1  0.203550  0.203550  0.930820  1.0  0.7035
  C  C168  1  0.178020  0.178020  0.886520  1.0  -0.1629
  C  C169  1  0.703550  0.703550  0.930820  1.0  0.7035
  C  C170  1  0.678020  0.678020  0.886520  1.0  -0.1629
  C  C171  1  0.203550  0.296450  0.569180  1.0  0.7031
  C  C172  1  0.178020  0.321980  0.613480  1.0  -0.1615
  C  C173  1  0.203550  0.796450  0.069180  1.0  0.7031
  C  C174  1  0.178020  0.821980  0.113480  1.0  -0.1615
  C  C175  1  0.703550  0.796450  0.569180  1.0  0.7031
  C  C176  1  0.678020  0.821980  0.613480  1.0  -0.1615
  C  C177  1  0.796450  0.296450  0.430820  1.0  0.7025
  C  C178  1  0.821980  0.321980  0.386520  1.0  -0.1628
  C  C179  1  0.796450  0.796450  0.930820  1.0  0.7025
  C  C180  1  0.821980  0.821980  0.886520  1.0  -0.1628
  C  C181  1  0.796450  0.703550  0.569180  1.0  0.7026
  C  C182  1  0.821980  0.678020  0.613480  1.0  -0.1614
  C  C183  1  0.796450  0.203550  0.069180  1.0  0.7026
  C  C184  1  0.821980  0.178020  0.113480  1.0  -0.1614
  C  C185  1  0.430820  0.203550  0.703550  1.0  0.7015
  C  C186  1  0.386520  0.178020  0.678020  1.0  -0.1611
  C  C187  1  0.930820  0.203550  0.203550  1.0  0.7015
  C  C188  1  0.886520  0.178020  0.178020  1.0  -0.1611
  C  C189  1  0.930820  0.703550  0.703550  1.0  0.7015
  C  C190  1  0.886520  0.678020  0.678020  1.0  -0.1611
  C  C191  1  0.569180  0.203550  0.296450  1.0  0.7022
  C  C192  1  0.613480  0.178020  0.321980  1.0  -0.1618
  C  C193  1  0.569180  0.703550  0.796450  1.0  0.7022
  C  C194  1  0.613480  0.678020  0.821980  1.0  -0.1618
  C  C195  1  0.069180  0.203550  0.796450  1.0  0.7022
  C  C196  1  0.113480  0.178020  0.821980  1.0  -0.1618
  C  C197  1  0.430820  0.796450  0.296450  1.0  0.7015
  C  C198  1  0.386520  0.821980  0.321980  1.0  -0.1615
  C  C199  1  0.930820  0.796450  0.796450  1.0  0.7015
  C  C200  1  0.886520  0.821980  0.821980  1.0  -0.1615
  C  C201  1  0.569180  0.796450  0.703550  1.0  0.7021
  C  C202  1  0.613480  0.821980  0.678020  1.0  -0.1615
  C  C203  1  0.069180  0.796450  0.203550  1.0  0.7021
  C  C204  1  0.113480  0.821980  0.178020  1.0  -0.1615
  C  C205  1  0.430820  0.703550  0.796450  1.0  0.7017
  C  C206  1  0.386520  0.678020  0.821980  1.0  -0.1613
  C  C207  1  0.930820  0.703550  0.296450  1.0  0.7017
  C  C208  1  0.886520  0.678020  0.321980  1.0  -0.1613
  C  C209  1  0.569180  0.296450  0.796450  1.0  0.7021
  C  C210  1  0.613480  0.321980  0.821980  1.0  -0.1618
  C  C211  1  0.069180  0.296450  0.296450  1.0  0.7021
  C  C212  1  0.113480  0.321980  0.321980  1.0  -0.1618
  C  C213  1  0.069180  0.796450  0.796450  1.0  0.7021
  C  C214  1  0.113480  0.821980  0.821980  1.0  -0.1618
  C  C215  1  0.430820  0.296450  0.203550  1.0  0.7012
  C  C216  1  0.386520  0.321980  0.178020  1.0  -0.1613
  C  C217  1  0.430820  0.796450  0.703550  1.0  0.7012
  C  C218  1  0.386520  0.821980  0.678020  1.0  -0.1613
  C  C219  1  0.930820  0.296450  0.703550  1.0  0.7012
  C  C220  1  0.886520  0.321980  0.678020  1.0  -0.1613
  C  C221  1  0.569180  0.703550  0.203550  1.0  0.7024
  C  C222  1  0.613480  0.678020  0.178020  1.0  -0.1615
  C  C223  1  0.069180  0.703550  0.703550  1.0  0.7024
  C  C224  1  0.113480  0.678020  0.678020  1.0  -0.1615
  C  C225  1  0.703550  0.203550  0.569180  1.0  0.7033
  C  C226  1  0.678020  0.178020  0.613480  1.0  -0.1614
  C  C227  1  0.703550  0.703550  0.069180  1.0  0.7033
  C  C228  1  0.678020  0.678020  0.113480  1.0  -0.1614
  C  C229  1  0.296450  0.203550  0.430820  1.0  0.7028
  C  C230  1  0.321980  0.178020  0.386520  1.0  -0.1628
  C  C231  1  0.296450  0.703550  0.930820  1.0  0.7028
  C  C232  1  0.321980  0.678020  0.886520  1.0  -0.1628
  C  C233  1  0.796450  0.703550  0.430820  1.0  0.7028
  C  C234  1  0.821980  0.678020  0.386520  1.0  -0.1628
  C  C235  1  0.296450  0.796450  0.569180  1.0  0.7023
  C  C236  1  0.321980  0.821980  0.613480  1.0  -0.1615
  C  C237  1  0.296450  0.296450  0.069180  1.0  0.7023
  C  C238  1  0.321980  0.321980  0.113480  1.0  -0.1615
  C  C239  1  0.796450  0.796450  0.069180  1.0  0.7023
  C  C240  1  0.821980  0.821980  0.113480  1.0  -0.1615
  C  C241  1  0.703550  0.796450  0.430820  1.0  0.7033
  C  C242  1  0.678020  0.821980  0.386520  1.0  -0.163
  C  C243  1  0.703550  0.296450  0.930820  1.0  0.7033
  C  C244  1  0.678020  0.321980  0.886520  1.0  -0.163
  C  C245  1  0.203550  0.430820  0.296450  1.0  0.7024
  C  C246  1  0.178020  0.386520  0.321980  1.0  -0.1619
  C  C247  1  0.203550  0.930820  0.796450  1.0  0.7024
  C  C248  1  0.178020  0.886520  0.821980  1.0  -0.1619
  C  C249  1  0.703550  0.430820  0.796450  1.0  0.7024
  C  C250  1  0.678020  0.386520  0.821980  1.0  -0.1619
  C  C251  1  0.203550  0.569180  0.703550  1.0  0.7021
  C  C252  1  0.178020  0.613480  0.678020  1.0  -0.1617
  C  C253  1  0.203550  0.069180  0.203550  1.0  0.7021
  C  C254  1  0.178020  0.113480  0.178020  1.0  -0.1617
  C  C255  1  0.703550  0.069180  0.703550  1.0  0.7021
  C  C256  1  0.678020  0.113480  0.678020  1.0  -0.1617
  C  C257  1  0.796450  0.430820  0.703550  1.0  0.7013
  C  C258  1  0.821980  0.386520  0.678020  1.0  -0.1618
  C  C259  1  0.796450  0.930820  0.203550  1.0  0.7013
  C  C260  1  0.821980  0.886520  0.178020  1.0  -0.1618
  C  C261  1  0.796450  0.569180  0.296450  1.0  0.7017
  C  C262  1  0.821980  0.613480  0.321980  1.0  -0.162
  C  C263  1  0.796450  0.069180  0.796450  1.0  0.7017
  C  C264  1  0.821980  0.113480  0.821980  1.0  -0.162
  C  C265  1  0.296450  0.569180  0.796450  1.0  0.7017
  C  C266  1  0.321980  0.613480  0.821980  1.0  -0.162
  C  C267  1  0.296450  0.069180  0.296450  1.0  0.7017
  C  C268  1  0.321980  0.113480  0.321980  1.0  -0.162
  C  C269  1  0.703550  0.930820  0.296450  1.0  0.7024
  C  C270  1  0.678020  0.886520  0.321980  1.0  -0.1619
  C  C271  1  0.703550  0.569180  0.203550  1.0  0.7021
  C  C272  1  0.678020  0.613480  0.178020  1.0  -0.1617
  C  C273  1  0.296450  0.430820  0.203550  1.0  0.7013
  C  C274  1  0.321980  0.386520  0.178020  1.0  -0.1618
  C  C275  1  0.296450  0.930820  0.703550  1.0  0.7013
  C  C276  1  0.321980  0.886520  0.678020  1.0  -0.1618
  C  C277  1  0.796450  0.296450  0.569180  1.0  0.7023
  C  C278  1  0.821980  0.321980  0.613480  1.0  -0.1615
  C  C279  1  0.796450  0.203550  0.930820  1.0  0.7028
  C  C280  1  0.821980  0.178020  0.886520  1.0  -0.1628
  C  C281  1  0.203550  0.703550  0.569180  1.0  0.7033
  C  C282  1  0.178020  0.678020  0.613480  1.0  -0.1614
  C  C283  1  0.203550  0.203550  0.069180  1.0  0.7033
  C  C284  1  0.178020  0.178020  0.113480  1.0  -0.1614
  C  C285  1  0.203550  0.296450  0.430820  1.0  0.7033
  C  C286  1  0.178020  0.321980  0.386520  1.0  -0.163
  C  C287  1  0.203550  0.796450  0.930820  1.0  0.7033
  C  C288  1  0.178020  0.821980  0.886520  1.0  -0.163
  C  C289  1  0.569180  0.796450  0.296450  1.0  0.7021
  C  C290  1  0.613480  0.821980  0.321980  1.0  -0.1618
  C  C291  1  0.930820  0.796450  0.203550  1.0  0.7012
  C  C292  1  0.886520  0.821980  0.178020  1.0  -0.1613
  C  C293  1  0.569180  0.203550  0.703550  1.0  0.7024
  C  C294  1  0.613480  0.178020  0.678020  1.0  -0.1615
  C  C295  1  0.069180  0.203550  0.203550  1.0  0.7024
  C  C296  1  0.113480  0.178020  0.178020  1.0  -0.1615
  C  C297  1  0.430820  0.203550  0.296450  1.0  0.7017
  C  C298  1  0.386520  0.178020  0.321980  1.0  -0.1613
  C  C299  1  0.930820  0.203550  0.796450  1.0  0.7017
  C  C300  1  0.886520  0.178020  0.821980  1.0  -0.1613
  C  C301  1  0.569180  0.296450  0.203550  1.0  0.7021
  C  C302  1  0.613480  0.321980  0.178020  1.0  -0.1615
  C  C303  1  0.069180  0.296450  0.703550  1.0  0.7021
  C  C304  1  0.113480  0.321980  0.678020  1.0  -0.1615
  C  C305  1  0.430820  0.703550  0.203550  1.0  0.7015
  C  C306  1  0.386520  0.678020  0.178020  1.0  -0.1611
  C  C307  1  0.069180  0.703550  0.296450  1.0  0.7022
  C  C308  1  0.113480  0.678020  0.321980  1.0  -0.1618
  C  C309  1  0.430820  0.296450  0.796450  1.0  0.7015
  C  C310  1  0.386520  0.321980  0.821980  1.0  -0.1615
  C  C311  1  0.930820  0.296450  0.296450  1.0  0.7015
  C  C312  1  0.886520  0.321980  0.321980  1.0  -0.1615
  C  C313  1  0.296450  0.796450  0.430820  1.0  0.7025
  C  C314  1  0.321980  0.821980  0.386520  1.0  -0.1628
  C  C315  1  0.296450  0.296450  0.930820  1.0  0.7025
  C  C316  1  0.321980  0.321980  0.886520  1.0  -0.1628
  C  C317  1  0.703550  0.296450  0.069180  1.0  0.7031
  C  C318  1  0.678020  0.321980  0.113480  1.0  -0.1615
  C  C319  1  0.703550  0.203550  0.430820  1.0  0.7035
  C  C320  1  0.678020  0.178020  0.386520  1.0  -0.1629
  C  C321  1  0.296450  0.203550  0.569180  1.0  0.7026
  C  C322  1  0.321980  0.178020  0.613480  1.0  -0.1614
  C  C323  1  0.296450  0.703550  0.069180  1.0  0.7026
  C  C324  1  0.321980  0.678020  0.113480  1.0  -0.1614
  C  C325  1  0.796450  0.069180  0.203550  1.0  0.7015
  C  C326  1  0.821980  0.113480  0.178020  1.0  -0.1617
  C  C327  1  0.796450  0.430820  0.296450  1.0  0.7015
  C  C328  1  0.821980  0.386520  0.321980  1.0  -0.1619
  C  C329  1  0.203550  0.569180  0.296450  1.0  0.7026
  C  C330  1  0.178020  0.613480  0.321980  1.0  -0.162
  C  C331  1  0.203550  0.069180  0.796450  1.0  0.7026
  C  C332  1  0.178020  0.113480  0.821980  1.0  -0.162
  C  C333  1  0.203550  0.430820  0.703550  1.0  0.7018
  C  C334  1  0.178020  0.386520  0.678020  1.0  -0.1617
  C  C335  1  0.203550  0.930820  0.203550  1.0  0.7018
  C  C336  1  0.178020  0.886520  0.178020  1.0  -0.1617
  C  C337  1  0.635010  0.364990  0.199510  1.0  0.0327
  C  C338  1  0.635010  0.864990  0.699510  1.0  0.0327
  C  C339  1  0.135010  0.364990  0.699510  1.0  0.0327
  C  C340  1  0.135010  0.864990  0.199510  1.0  0.0327
  C  C341  1  0.364990  0.635010  0.199510  1.0  0.0333
  C  C342  1  0.364990  0.135010  0.699510  1.0  0.0333
  C  C343  1  0.864990  0.635010  0.699510  1.0  0.0333
  C  C344  1  0.864990  0.135010  0.199510  1.0  0.0333
  C  C345  1  0.364990  0.364990  0.800490  1.0  0.0332
  C  C346  1  0.364990  0.864990  0.300490  1.0  0.0332
  C  C347  1  0.864990  0.364990  0.300490  1.0  0.0332
  C  C348  1  0.864990  0.864990  0.800490  1.0  0.0332
  C  C349  1  0.635010  0.635010  0.800490  1.0  0.0326
  C  C350  1  0.635010  0.135010  0.300490  1.0  0.0326
  C  C351  1  0.135010  0.635010  0.300490  1.0  0.0326
  C  C352  1  0.135010  0.135010  0.800490  1.0  0.0326
  C  C353  1  0.199510  0.635010  0.364990  1.0  0.0314
  C  C354  1  0.199510  0.135010  0.864990  1.0  0.0314
  C  C355  1  0.699510  0.635010  0.864990  1.0  0.0314
  C  C356  1  0.699510  0.135010  0.364990  1.0  0.0314
  C  C357  1  0.199510  0.364990  0.635010  1.0  0.0309
  C  C358  1  0.199510  0.864990  0.135010  1.0  0.0309
  C  C359  1  0.699510  0.364990  0.135010  1.0  0.0309
  C  C360  1  0.699510  0.864990  0.635010  1.0  0.0309
  C  C361  1  0.800490  0.364990  0.364990  1.0  0.0311
  C  C362  1  0.800490  0.864990  0.864990  1.0  0.0311
  C  C363  1  0.300490  0.364990  0.864990  1.0  0.0311
  C  C364  1  0.300490  0.864990  0.364990  1.0  0.0311
  C  C365  1  0.800490  0.635010  0.635010  1.0  0.0309
  C  C366  1  0.800490  0.135010  0.135010  1.0  0.0309
  C  C367  1  0.300490  0.635010  0.135010  1.0  0.0309
  C  C368  1  0.300490  0.135010  0.635010  1.0  0.0309
  C  C369  1  0.364990  0.199510  0.635010  1.0  0.033
  C  C370  1  0.364990  0.699510  0.135010  1.0  0.033
  C  C371  1  0.864990  0.199510  0.135010  1.0  0.033
  C  C372  1  0.864990  0.699510  0.635010  1.0  0.033
  C  C373  1  0.635010  0.199510  0.364990  1.0  0.0323
  C  C374  1  0.635010  0.699510  0.864990  1.0  0.0323
  C  C375  1  0.135010  0.199510  0.864990  1.0  0.0323
  C  C376  1  0.135010  0.699510  0.364990  1.0  0.0323
  C  C377  1  0.364990  0.800490  0.364990  1.0  0.0328
  C  C378  1  0.364990  0.300490  0.864990  1.0  0.0328
  C  C379  1  0.864990  0.800490  0.864990  1.0  0.0328
  C  C380  1  0.864990  0.300490  0.364990  1.0  0.0328
  C  C381  1  0.635010  0.800490  0.635010  1.0  0.0321
  C  C382  1  0.635010  0.300490  0.135010  1.0  0.0321
  C  C383  1  0.135010  0.800490  0.135010  1.0  0.0321
  C  C384  1  0.135010  0.300490  0.635010  1.0  0.0321
  C  C385  1  0.364990  0.635010  0.800490  1.0  0.033
  C  C386  1  0.364990  0.135010  0.300490  1.0  0.033
  C  C387  1  0.864990  0.635010  0.300490  1.0  0.033
  C  C388  1  0.864990  0.135010  0.800490  1.0  0.033
  C  C389  1  0.635010  0.364990  0.800490  1.0  0.0329
  C  C390  1  0.635010  0.864990  0.300490  1.0  0.0329
  C  C391  1  0.135010  0.364990  0.300490  1.0  0.0329
  C  C392  1  0.135010  0.864990  0.800490  1.0  0.0329
  C  C393  1  0.364990  0.364990  0.199510  1.0  0.0328
  C  C394  1  0.364990  0.864990  0.699510  1.0  0.0328
  C  C395  1  0.864990  0.364990  0.699510  1.0  0.0328
  C  C396  1  0.864990  0.864990  0.199510  1.0  0.0328
  C  C397  1  0.635010  0.635010  0.199510  1.0  0.0332
  C  C398  1  0.635010  0.135010  0.699510  1.0  0.0332
  C  C399  1  0.135010  0.635010  0.699510  1.0  0.0332
  C  C400  1  0.135010  0.135010  0.199510  1.0  0.0332
  C  C401  1  0.635010  0.199510  0.635010  1.0  0.0327
  C  C402  1  0.635010  0.699510  0.135010  1.0  0.0327
  C  C403  1  0.135010  0.199510  0.135010  1.0  0.0327
  C  C404  1  0.135010  0.699510  0.635010  1.0  0.0327
  C  C405  1  0.364990  0.199510  0.364990  1.0  0.0327
  C  C406  1  0.364990  0.699510  0.864990  1.0  0.0327
  C  C407  1  0.864990  0.199510  0.864990  1.0  0.0327
  C  C408  1  0.864990  0.699510  0.364990  1.0  0.0327
  C  C409  1  0.364990  0.800490  0.635010  1.0  0.0324
  C  C410  1  0.364990  0.300490  0.135010  1.0  0.0324
  C  C411  1  0.864990  0.800490  0.135010  1.0  0.0324
  C  C412  1  0.864990  0.300490  0.635010  1.0  0.0324
  C  C413  1  0.635010  0.800490  0.364990  1.0  0.0325
  C  C414  1  0.635010  0.300490  0.864990  1.0  0.0325
  C  C415  1  0.135010  0.800490  0.864990  1.0  0.0325
  C  C416  1  0.135010  0.300490  0.364990  1.0  0.0325
  C  C417  1  0.199510  0.364990  0.364990  1.0  0.0311
  C  C418  1  0.199510  0.864990  0.864990  1.0  0.0311
  C  C419  1  0.699510  0.364990  0.864990  1.0  0.0311
  C  C420  1  0.699510  0.864990  0.364990  1.0  0.0311
  C  C421  1  0.199510  0.635010  0.635010  1.0  0.0308
  C  C422  1  0.199510  0.135010  0.135010  1.0  0.0308
  C  C423  1  0.699510  0.635010  0.135010  1.0  0.0308
  C  C424  1  0.699510  0.135010  0.635010  1.0  0.0308
  C  C425  1  0.800490  0.364990  0.635010  1.0  0.0308
  C  C426  1  0.800490  0.864990  0.135010  1.0  0.0308
  C  C427  1  0.300490  0.364990  0.135010  1.0  0.0308
  C  C428  1  0.300490  0.864990  0.635010  1.0  0.0308
  C  C429  1  0.800490  0.635010  0.364990  1.0  0.0316
  C  C430  1  0.800490  0.135010  0.864990  1.0  0.0316
  C  C431  1  0.300490  0.635010  0.864990  1.0  0.0316
  C  C432  1  0.300490  0.135010  0.364990  1.0  0.0316
  O  O433  1  0.683410  0.447540  0.243250  1.0  -0.5653
  O  O434  1  0.683410  0.947540  0.743250  1.0  -0.5653
  O  O435  1  0.183410  0.447540  0.743250  1.0  -0.5648
  O  O436  1  0.183410  0.947540  0.243250  1.0  -0.5653
  O  O437  1  0.316590  0.552460  0.243250  1.0  -0.5647
  O  O438  1  0.316590  0.052460  0.743250  1.0  -0.5655
  O  O439  1  0.816590  0.552460  0.743250  1.0  -0.5648
  O  O440  1  0.816590  0.052460  0.243250  1.0  -0.5647
  O  O441  1  0.316590  0.447540  0.756750  1.0  -0.5642
  O  O442  1  0.316590  0.947540  0.256750  1.0  -0.5634
  O  O443  1  0.816590  0.447540  0.256750  1.0  -0.5633
  O  O444  1  0.816590  0.947540  0.756750  1.0  -0.5633
  O  O445  1  0.683410  0.552460  0.756750  1.0  -0.5653
  O  O446  1  0.683410  0.052460  0.256750  1.0  -0.5653
  O  O447  1  0.183410  0.552460  0.256750  1.0  -0.5647
  O  O448  1  0.183410  0.052460  0.756750  1.0  -0.5648
  O  O449  1  0.243250  0.683410  0.447540  1.0  -0.5659
  O  O450  1  0.243250  0.183410  0.947540  1.0  -0.5653
  O  O451  1  0.743250  0.683410  0.947540  1.0  -0.5659
  O  O452  1  0.743250  0.183410  0.447540  1.0  -0.5653
  O  O453  1  0.243250  0.316590  0.552460  1.0  -0.5661
  O  O454  1  0.243250  0.816590  0.052460  1.0  -0.5654
  O  O455  1  0.743250  0.316590  0.052460  1.0  -0.5661
  O  O456  1  0.743250  0.816590  0.552460  1.0  -0.5654
  O  O457  1  0.756750  0.316590  0.447540  1.0  -0.5656
  O  O458  1  0.756750  0.816590  0.947540  1.0  -0.5648
  O  O459  1  0.256750  0.316590  0.947540  1.0  -0.5656
  O  O460  1  0.256750  0.816590  0.447540  1.0  -0.5648
  O  O461  1  0.756750  0.683410  0.552460  1.0  -0.5659
  O  O462  1  0.756750  0.183410  0.052460  1.0  -0.5652
  O  O463  1  0.256750  0.683410  0.052460  1.0  -0.5655
  O  O464  1  0.256750  0.183410  0.552460  1.0  -0.5652
  O  O465  1  0.447540  0.243250  0.683410  1.0  -0.5654
  O  O466  1  0.447540  0.743250  0.183410  1.0  -0.5662
  O  O467  1  0.947540  0.243250  0.183410  1.0  -0.5654
  O  O468  1  0.947540  0.743250  0.683410  1.0  -0.5654
  O  O469  1  0.552460  0.243250  0.316590  1.0  -0.5666
  O  O470  1  0.552460  0.743250  0.816590  1.0  -0.5666
  O  O471  1  0.052460  0.243250  0.816590  1.0  -0.5658
  O  O472  1  0.052460  0.743250  0.316590  1.0  -0.5658
  O  O473  1  0.447540  0.756750  0.316590  1.0  -0.5661
  O  O474  1  0.447540  0.256750  0.816590  1.0  -0.5658
  O  O475  1  0.947540  0.756750  0.816590  1.0  -0.5666
  O  O476  1  0.947540  0.256750  0.316590  1.0  -0.5666
  O  O477  1  0.552460  0.756750  0.683410  1.0  -0.5658
  O  O478  1  0.552460  0.256750  0.183410  1.0  -0.5658
  O  O479  1  0.052460  0.756750  0.183410  1.0  -0.5661
  O  O480  1  0.052460  0.256750  0.683410  1.0  -0.5658
  O  O481  1  0.447540  0.683410  0.756750  1.0  -0.5649
  O  O482  1  0.447540  0.183410  0.256750  1.0  -0.5646
  O  O483  1  0.947540  0.683410  0.256750  1.0  -0.5649
  O  O484  1  0.947540  0.183410  0.756750  1.0  -0.5646
  O  O485  1  0.552460  0.316590  0.756750  1.0  -0.5647
  O  O486  1  0.552460  0.816590  0.256750  1.0  -0.5647
  O  O487  1  0.052460  0.316590  0.256750  1.0  -0.565
  O  O488  1  0.052460  0.816590  0.756750  1.0  -0.5647
  O  O489  1  0.447540  0.316590  0.243250  1.0  -0.5655
  O  O490  1  0.447540  0.816590  0.743250  1.0  -0.5652
  O  O491  1  0.947540  0.316590  0.743250  1.0  -0.5652
  O  O492  1  0.947540  0.816590  0.243250  1.0  -0.5652
  O  O493  1  0.552460  0.683410  0.243250  1.0  -0.5657
  O  O494  1  0.552460  0.183410  0.743250  1.0  -0.5653
  O  O495  1  0.052460  0.683410  0.743250  1.0  -0.5657
  O  O496  1  0.052460  0.183410  0.243250  1.0  -0.5657
  O  O497  1  0.683410  0.243250  0.552460  1.0  -0.5654
  O  O498  1  0.683410  0.743250  0.052460  1.0  -0.5651
  O  O499  1  0.183410  0.243250  0.052460  1.0  -0.5651
  O  O500  1  0.183410  0.743250  0.552460  1.0  -0.5651
  O  O501  1  0.316590  0.243250  0.447540  1.0  -0.5654
  O  O502  1  0.316590  0.743250  0.947540  1.0  -0.5651
  O  O503  1  0.816590  0.243250  0.947540  1.0  -0.5651
  O  O504  1  0.816590  0.743250  0.447540  1.0  -0.5651
  O  O505  1  0.316590  0.756750  0.552460  1.0  -0.5649
  O  O506  1  0.316590  0.256750  0.052460  1.0  -0.5649
  O  O507  1  0.816590  0.756750  0.052460  1.0  -0.5649
  O  O508  1  0.816590  0.256750  0.552460  1.0  -0.5649
  O  O509  1  0.683410  0.756750  0.447540  1.0  -0.5646
  O  O510  1  0.683410  0.256750  0.947540  1.0  -0.5646
  O  O511  1  0.183410  0.756750  0.947540  1.0  -0.5643
  O  O512  1  0.183410  0.256750  0.447540  1.0  -0.5646
  O  O513  1  0.243250  0.447540  0.316590  1.0  -0.5653
  O  O514  1  0.243250  0.947540  0.816590  1.0  -0.565
  O  O515  1  0.743250  0.447540  0.816590  1.0  -0.565
  O  O516  1  0.743250  0.947540  0.316590  1.0  -0.565
  O  O517  1  0.243250  0.552460  0.683410  1.0  -0.5653
  O  O518  1  0.243250  0.052460  0.183410  1.0  -0.5653
  O  O519  1  0.743250  0.552460  0.183410  1.0  -0.5653
  O  O520  1  0.743250  0.052460  0.683410  1.0  -0.5656
  O  O521  1  0.756750  0.447540  0.683410  1.0  -0.5649
  O  O522  1  0.756750  0.947540  0.183410  1.0  -0.5646
  O  O523  1  0.256750  0.447540  0.183410  1.0  -0.5647
  O  O524  1  0.256750  0.947540  0.683410  1.0  -0.5649
  O  O525  1  0.756750  0.552460  0.316590  1.0  -0.5649
  O  O526  1  0.756750  0.052460  0.816590  1.0  -0.5649
  O  O527  1  0.256750  0.552460  0.816590  1.0  -0.5652
  O  O528  1  0.256750  0.052460  0.316590  1.0  -0.5649
  O  O529  1  0.316590  0.552460  0.756750  1.0  -0.5641
  O  O530  1  0.316590  0.052460  0.256750  1.0  -0.5641
  O  O531  1  0.816590  0.552460  0.256750  1.0  -0.5646
  O  O532  1  0.816590  0.052460  0.756750  1.0  -0.5646
  O  O533  1  0.683410  0.447540  0.756750  1.0  -0.5641
  O  O534  1  0.683410  0.947540  0.256750  1.0  -0.5641
  O  O535  1  0.183410  0.447540  0.256750  1.0  -0.5649
  O  O536  1  0.183410  0.947540  0.756750  1.0  -0.5649
  O  O537  1  0.683410  0.552460  0.243250  1.0  -0.5644
  O  O538  1  0.683410  0.052460  0.743250  1.0  -0.5644
  O  O539  1  0.183410  0.552460  0.743250  1.0  -0.5645
  O  O540  1  0.183410  0.052460  0.243250  1.0  -0.5644
  O  O541  1  0.316590  0.447540  0.243250  1.0  -0.5644
  O  O542  1  0.316590  0.947540  0.743250  1.0  -0.5645
  O  O543  1  0.816590  0.447540  0.743250  1.0  -0.5653
  O  O544  1  0.816590  0.947540  0.243250  1.0  -0.5653
  O  O545  1  0.756750  0.316590  0.552460  1.0  -0.5653
  O  O546  1  0.756750  0.816590  0.052460  1.0  -0.5657
  O  O547  1  0.256750  0.316590  0.052460  1.0  -0.5653
  O  O548  1  0.256750  0.816590  0.552460  1.0  -0.5657
  O  O549  1  0.756750  0.683410  0.447540  1.0  -0.5648
  O  O550  1  0.756750  0.183410  0.947540  1.0  -0.5656
  O  O551  1  0.256750  0.683410  0.947540  1.0  -0.5648
  O  O552  1  0.256750  0.183410  0.447540  1.0  -0.5656
  O  O553  1  0.243250  0.683410  0.552460  1.0  -0.5653
  O  O554  1  0.243250  0.183410  0.052460  1.0  -0.5652
  O  O555  1  0.743250  0.683410  0.052460  1.0  -0.5651
  O  O556  1  0.743250  0.183410  0.552460  1.0  -0.5661
  O  O557  1  0.243250  0.316590  0.447540  1.0  -0.5651
  O  O558  1  0.243250  0.816590  0.947540  1.0  -0.5659
  O  O559  1  0.743250  0.316590  0.947540  1.0  -0.5654
  O  O560  1  0.743250  0.816590  0.447540  1.0  -0.5659
  O  O561  1  0.552460  0.756750  0.316590  1.0  -0.5666
  O  O562  1  0.552460  0.256750  0.816590  1.0  -0.5658
  O  O563  1  0.052460  0.756750  0.816590  1.0  -0.5658
  O  O564  1  0.052460  0.256750  0.316590  1.0  -0.5661
  O  O565  1  0.447540  0.756750  0.683410  1.0  -0.5665
  O  O566  1  0.447540  0.256750  0.183410  1.0  -0.5657
  O  O567  1  0.947540  0.756750  0.183410  1.0  -0.566
  O  O568  1  0.947540  0.256750  0.683410  1.0  -0.5665
  O  O569  1  0.552460  0.243250  0.683410  1.0  -0.5662
  O  O570  1  0.552460  0.743250  0.183410  1.0  -0.5657
  O  O571  1  0.052460  0.243250  0.183410  1.0  -0.5654
  O  O572  1  0.052460  0.743250  0.683410  1.0  -0.5654
  O  O573  1  0.447540  0.243250  0.316590  1.0  -0.5655
  O  O574  1  0.447540  0.743250  0.816590  1.0  -0.5655
  O  O575  1  0.947540  0.243250  0.816590  1.0  -0.5655
  O  O576  1  0.947540  0.743250  0.316590  1.0  -0.5663
  O  O577  1  0.552460  0.316590  0.243250  1.0  -0.5657
  O  O578  1  0.552460  0.816590  0.743250  1.0  -0.5659
  O  O579  1  0.052460  0.316590  0.743250  1.0  -0.5656
  O  O580  1  0.052460  0.816590  0.243250  1.0  -0.5656
  O  O581  1  0.447540  0.683410  0.243250  1.0  -0.5654
  O  O582  1  0.447540  0.183410  0.743250  1.0  -0.5654
  O  O583  1  0.947540  0.683410  0.743250  1.0  -0.5654
  O  O584  1  0.947540  0.183410  0.243250  1.0  -0.5654
  O  O585  1  0.552460  0.683410  0.756750  1.0  -0.5648
  O  O586  1  0.552460  0.183410  0.256750  1.0  -0.5648
  O  O587  1  0.052460  0.683410  0.256750  1.0  -0.5648
  O  O588  1  0.052460  0.183410  0.756750  1.0  -0.5648
  O  O589  1  0.447540  0.316590  0.756750  1.0  -0.5645
  O  O590  1  0.447540  0.816590  0.256750  1.0  -0.5648
  O  O591  1  0.947540  0.316590  0.256750  1.0  -0.5648
  O  O592  1  0.947540  0.816590  0.756750  1.0  -0.5648
  O  O593  1  0.316590  0.756750  0.447540  1.0  -0.5648
  O  O594  1  0.316590  0.256750  0.947540  1.0  -0.5651
  O  O595  1  0.816590  0.756750  0.947540  1.0  -0.5651
  O  O596  1  0.816590  0.256750  0.447540  1.0  -0.5651
  O  O597  1  0.683410  0.756750  0.552460  1.0  -0.5646
  O  O598  1  0.683410  0.256750  0.052460  1.0  -0.5649
  O  O599  1  0.183410  0.756750  0.052460  1.0  -0.5649
  O  O600  1  0.183410  0.256750  0.552460  1.0  -0.5649
  O  O601  1  0.683410  0.243250  0.447540  1.0  -0.565
  O  O602  1  0.683410  0.743250  0.947540  1.0  -0.565
  O  O603  1  0.183410  0.243250  0.947540  1.0  -0.565
  O  O604  1  0.183410  0.743250  0.447540  1.0  -0.565
  O  O605  1  0.316590  0.243250  0.552460  1.0  -0.5653
  O  O606  1  0.316590  0.743250  0.052460  1.0  -0.565
  O  O607  1  0.816590  0.243250  0.052460  1.0  -0.5653
  O  O608  1  0.816590  0.743250  0.552460  1.0  -0.5653
  O  O609  1  0.756750  0.552460  0.683410  1.0  -0.5649
  O  O610  1  0.756750  0.052460  0.183410  1.0  -0.5649
  O  O611  1  0.256750  0.552460  0.183410  1.0  -0.5652
  O  O612  1  0.256750  0.052460  0.683410  1.0  -0.5649
  O  O613  1  0.756750  0.447540  0.316590  1.0  -0.5649
  O  O614  1  0.756750  0.947540  0.816590  1.0  -0.5652
  O  O615  1  0.256750  0.447540  0.816590  1.0  -0.5649
  O  O616  1  0.256750  0.947540  0.316590  1.0  -0.5652
  O  O617  1  0.243250  0.552460  0.316590  1.0  -0.5652
  O  O618  1  0.243250  0.052460  0.816590  1.0  -0.5655
  O  O619  1  0.743250  0.552460  0.816590  1.0  -0.5655
  O  O620  1  0.743250  0.052460  0.316590  1.0  -0.5652
  O  O621  1  0.243250  0.447540  0.683410  1.0  -0.5652
  O  O622  1  0.243250  0.947540  0.183410  1.0  -0.5649
  O  O623  1  0.743250  0.447540  0.183410  1.0  -0.5649
  O  O624  1  0.743250  0.947540  0.683410  1.0  -0.5649
