# generated using pymatgen
data_CuH16(C5N)4
_symmetry_space_group_name_H-M   'P 1'
_cell_length_a   18.06400000
_cell_length_b   22.11370000
_cell_length_c   22.11370000
_cell_angle_alpha   80.39700000
_cell_angle_beta   65.89340000
_cell_angle_gamma   65.89330000
_symmetry_Int_Tables_number   1
_chemical_formula_structural   CuH16(C5N)4
_chemical_formula_sum   'Cu8 H128 C160 N32'
_cell_volume   7359.95964764
_cell_formula_units_Z   8
loop_
 _symmetry_equiv_pos_site_id
 _symmetry_equiv_pos_as_xyz
  1  'x, y, z'
loop_
 _atom_site_type_symbol
 _atom_site_label
 _atom_site_symmetry_multiplicity
 _atom_site_fract_x
 _atom_site_fract_y
 _atom_site_fract_z
 _atom_site_occupancy
 _atom_site_charge
  Cu  Cu1  1  0.759960  0.990040  0.490040  1.0  0.4097
  Cu  Cu2  1  0.740040  0.509960  0.009960  1.0  0.4099
  Cu  Cu3  1  0.250000  0.490040  0.509960  1.0  0.4099
  Cu  Cu4  1  0.750000  0.009960  0.990040  1.0  0.4098
  Cu  Cu5  1  0.750000  0.509960  0.490040  1.0  0.4098
  Cu  Cu6  1  0.250000  0.990040  0.009960  1.0  0.4099
  Cu  Cu7  1  0.240040  0.009960  0.509960  1.0  0.4099
  Cu  Cu8  1  0.259960  0.490040  0.990040  1.0  0.4097
  H  H9  1  0.724000  0.922300  0.620100  1.0  0.0688
  H  H10  1  0.716000  0.930300  0.724900  1.0  0.1035
  H  H11  1  0.789400  0.085300  0.663300  1.0  0.1048
  H  H12  1  0.786700  0.076800  0.562200  1.0  0.0512
  H  H13  1  0.637600  0.999200  0.928400  1.0  0.071
  H  H14  1  0.640300  0.992400  0.825800  1.0  0.1048
  H  H15  1  0.853500  0.039600  0.745800  1.0  0.1043
  H  H16  1  0.848300  0.041100  0.851900  1.0  0.063
  H  H17  1  0.766400  0.577700  0.879900  1.0  0.0697
  H  H18  1  0.871200  0.569700  0.775100  1.0  0.1046
  H  H19  1  0.038000  0.414700  0.836700  1.0  0.1052
  H  H20  1  0.925700  0.423200  0.937800  1.0  0.0528
  H  H21  1  0.065200  0.500800  0.571600  1.0  0.0711
  H  H22  1  0.958500  0.507600  0.674200  1.0  0.1062
  H  H23  1  0.138900  0.460400  0.754200  1.0  0.1046
  H  H24  1  0.241300  0.458900  0.648100  1.0  0.0635
  H  H25  1  0.733600  0.120100  0.422300  1.0  0.0693
  H  H26  1  0.628800  0.224900  0.430300  1.0  0.1046
  H  H27  1  0.462000  0.163300  0.585300  1.0  0.1073
  H  H28  1  0.574300  0.062200  0.576800  1.0  0.0525
  H  H29  1  0.434800  0.428400  0.499200  1.0  0.0709
  H  H30  1  0.541500  0.325800  0.492400  1.0  0.1036
  H  H31  1  0.361100  0.245800  0.539600  1.0  0.1044
  H  H32  1  0.258700  0.351900  0.541100  1.0  0.0628
  H  H33  1  0.776000  0.379900  0.077700  1.0  0.0697
  H  H34  1  0.784000  0.275100  0.069700  1.0  0.1041
  H  H35  1  0.710600  0.336700  0.914700  1.0  0.1055
  H  H36  1  0.713300  0.437800  0.923200  1.0  0.0521
  H  H37  1  0.862400  0.071600  0.000800  1.0  0.0701
  H  H38  1  0.859700  0.174200  0.007600  1.0  0.105
  H  H39  1  0.646500  0.254200  0.960400  1.0  0.1045
  H  H40  1  0.651700  0.148100  0.958900  1.0  0.0617
  H  H41  1  0.155900  0.620100  0.577700  1.0  0.0691
  H  H42  1  0.059100  0.724900  0.569700  1.0  0.104
  H  H43  1  0.047300  0.663300  0.414700  1.0  0.1055
  H  H44  1  0.151100  0.562200  0.423200  1.0  0.0525
  H  H45  1  0.934000  0.928400  0.500800  1.0  0.0699
  H  H46  1  0.033900  0.825800  0.507600  1.0  0.1047
  H  H47  1  0.900700  0.745800  0.460400  1.0  0.1043
  H  H48  1  0.799800  0.851900  0.458900  1.0  0.0617
  H  H49  1  0.853700  0.879900  0.922300  1.0  0.0684
  H  H50  1  0.853700  0.775100  0.930300  1.0  0.1045
  H  H51  1  0.625300  0.836700  0.085300  1.0  0.1072
  H  H52  1  0.636500  0.937800  0.076800  1.0  0.0523
  H  H53  1  0.863200  0.571600  0.999200  1.0  0.0709
  H  H54  1  0.867300  0.674200  0.992400  1.0  0.1039
  H  H55  1  0.606900  0.754200  0.039600  1.0  0.1049
  H  H56  1  0.610600  0.648100  0.041100  1.0  0.0631
  H  H57  1  0.646300  0.077700  0.120100  1.0  0.0688
  H  H58  1  0.646300  0.069700  0.224900  1.0  0.1039
  H  H59  1  0.874700  0.914700  0.163300  1.0  0.1051
  H  H60  1  0.863500  0.923200  0.062200  1.0  0.0513
  H  H61  1  0.636800  0.000800  0.428400  1.0  0.071
  H  H62  1  0.632700  0.007600  0.325800  1.0  0.105
  H  H63  1  0.893100  0.960400  0.245800  1.0  0.1042
  H  H64  1  0.889400  0.958900  0.351900  1.0  0.0632
  H  H65  1  0.344100  0.422300  0.379900  1.0  0.0684
  H  H66  1  0.440900  0.430300  0.275100  1.0  0.1039
  H  H67  1  0.452700  0.585300  0.336700  1.0  0.1047
  H  H68  1  0.348900  0.576800  0.437800  1.0  0.0524
  H  H69  1  0.566000  0.499200  0.071600  1.0  0.0711
  H  H70  1  0.466100  0.492400  0.174200  1.0  0.1061
  H  H71  1  0.599300  0.539600  0.254200  1.0  0.1046
  H  H72  1  0.700200  0.541100  0.148100  1.0  0.0632
  H  H73  1  0.844100  0.379900  0.422300  1.0  0.0699
  H  H74  1  0.940900  0.275100  0.430300  1.0  0.1029
  H  H75  1  0.952700  0.336700  0.585300  1.0  0.1059
  H  H76  1  0.848900  0.437800  0.576800  1.0  0.0522
  H  H77  1  0.066000  0.071600  0.499200  1.0  0.0701
  H  H78  1  0.966100  0.174200  0.492400  1.0  0.1052
  H  H79  1  0.099300  0.254200  0.539600  1.0  0.1039
  H  H80  1  0.200200  0.148100  0.541100  1.0  0.0626
  H  H81  1  0.146300  0.120100  0.077700  1.0  0.0699
  H  H82  1  0.146300  0.224900  0.069700  1.0  0.1045
  H  H83  1  0.374700  0.163300  0.914700  1.0  0.1065
  H  H84  1  0.363500  0.062200  0.923200  1.0  0.0529
  H  H85  1  0.136800  0.428400  0.000800  1.0  0.0713
  H  H86  1  0.132700  0.325800  0.007600  1.0  0.1055
  H  H87  1  0.393100  0.245800  0.960400  1.0  0.1044
  H  H88  1  0.389400  0.351900  0.958900  1.0  0.0626
  H  H89  1  0.353700  0.922300  0.879900  1.0  0.069
  H  H90  1  0.353700  0.930300  0.775100  1.0  0.1034
  H  H91  1  0.125300  0.085300  0.836700  1.0  0.1055
  H  H92  1  0.136500  0.076800  0.937800  1.0  0.0513
  H  H93  1  0.363200  0.999200  0.571600  1.0  0.0707
  H  H94  1  0.367300  0.992400  0.674200  1.0  0.1049
  H  H95  1  0.106900  0.039600  0.754200  1.0  0.1047
  H  H96  1  0.110600  0.041100  0.648100  1.0  0.0626
  H  H97  1  0.655900  0.577700  0.620100  1.0  0.0692
  H  H98  1  0.559100  0.569700  0.724900  1.0  0.1043
  H  H99  1  0.547300  0.414700  0.663300  1.0  0.1055
  H  H100  1  0.651100  0.423200  0.562200  1.0  0.0524
  H  H101  1  0.434000  0.500800  0.928400  1.0  0.0705
  H  H102  1  0.533900  0.507600  0.825800  1.0  0.1056
  H  H103  1  0.400700  0.460400  0.745800  1.0  0.1051
  H  H104  1  0.299800  0.458900  0.851900  1.0  0.0635
  H  H105  1  0.276000  0.077700  0.379900  1.0  0.0685
  H  H106  1  0.284000  0.069700  0.275100  1.0  0.1038
  H  H107  1  0.210600  0.914700  0.336700  1.0  0.105
  H  H108  1  0.213300  0.923200  0.437800  1.0  0.0518
  H  H109  1  0.362400  0.000800  0.071600  1.0  0.0708
  H  H110  1  0.359700  0.007600  0.174200  1.0  0.1047
  H  H111  1  0.146500  0.960400  0.254200  1.0  0.1049
  H  H112  1  0.151700  0.958900  0.148100  1.0  0.0626
  H  H113  1  0.233600  0.422300  0.120100  1.0  0.0684
  H  H114  1  0.128800  0.430300  0.224900  1.0  0.1042
  H  H115  1  0.962000  0.585300  0.163300  1.0  0.1061
  H  H116  1  0.074300  0.576800  0.062200  1.0  0.0522
  H  H117  1  0.934800  0.499200  0.428400  1.0  0.0706
  H  H118  1  0.041500  0.492400  0.325800  1.0  0.1058
  H  H119  1  0.861100  0.539600  0.245800  1.0  0.1051
  H  H120  1  0.758700  0.541100  0.351900  1.0  0.0636
  H  H121  1  0.266400  0.879900  0.577700  1.0  0.0691
  H  H122  1  0.371200  0.775100  0.569700  1.0  0.1046
  H  H123  1  0.538000  0.836700  0.414700  1.0  0.1064
  H  H124  1  0.425700  0.937800  0.423200  1.0  0.0524
  H  H125  1  0.565200  0.571600  0.500800  1.0  0.0706
  H  H126  1  0.458500  0.674200  0.507600  1.0  0.1053
  H  H127  1  0.638900  0.754200  0.460400  1.0  0.1039
  H  H128  1  0.741300  0.648100  0.458900  1.0  0.0627
  H  H129  1  0.224000  0.620100  0.922300  1.0  0.0692
  H  H130  1  0.216000  0.724900  0.930300  1.0  0.103
  H  H131  1  0.289400  0.663300  0.085300  1.0  0.1061
  H  H132  1  0.286700  0.562200  0.076800  1.0  0.0528
  H  H133  1  0.137600  0.928400  0.999200  1.0  0.071
  H  H134  1  0.140300  0.825800  0.992400  1.0  0.105
  H  H135  1  0.353500  0.745800  0.039600  1.0  0.1042
  H  H136  1  0.348300  0.851900  0.041100  1.0  0.0625
  C  C137  1  0.735600  0.956200  0.629600  1.0  0.1297
  C  C138  1  0.731400  0.960400  0.692400  1.0  -0.2345
  C  C139  1  0.750200  0.010300  0.706900  1.0  0.1066
  C  C140  1  0.773700  0.052700  0.656300  1.0  -0.231
  C  C141  1  0.773600  0.046390  0.595210  1.0  0.1347
  C  C142  1  0.682600  0.005700  0.891300  1.0  0.1363
  C  C143  1  0.683100  0.002600  0.830000  1.0  -0.2361
  C  C144  1  0.747600  0.014400  0.774000  1.0  0.0755
  C  C145  1  0.810300  0.030100  0.782100  1.0  -0.2224
  C  C146  1  0.806400  0.031000  0.846200  1.0  0.1244
  C  C147  1  0.821400  0.543800  0.870400  1.0  0.1278
  C  C148  1  0.884200  0.539600  0.807600  1.0  -0.2354
  C  C149  1  0.967400  0.489700  0.793100  1.0  0.1071
  C  C150  1  0.982700  0.447300  0.843700  1.0  -0.2316
  C  C151  1  0.915200  0.453610  0.904790  1.0  0.1319
  C  C152  1  0.079600  0.494300  0.608700  1.0  0.1352
  C  C153  1  0.015700  0.497400  0.670000  1.0  -0.2383
  C  C154  1  0.036000  0.485600  0.726000  1.0  0.0732
  C  C155  1  0.122500  0.469900  0.717900  1.0  -0.2235
  C  C156  1  0.183600  0.469000  0.653800  1.0  0.1177
  C  C157  1  0.678600  0.129600  0.456200  1.0  0.1271
  C  C158  1  0.615800  0.192400  0.460400  1.0  -0.2338
  C  C159  1  0.532600  0.206900  0.510300  1.0  0.1064
  C  C160  1  0.517300  0.156300  0.552700  1.0  -0.2322
  C  C161  1  0.584800  0.095210  0.546390  1.0  0.1369
  C  C162  1  0.420400  0.391300  0.505700  1.0  0.1375
  C  C163  1  0.484300  0.330000  0.502600  1.0  -0.2361
  C  C164  1  0.464000  0.274000  0.514400  1.0  0.0742
  C  C165  1  0.377500  0.282100  0.530100  1.0  -0.2222
  C  C166  1  0.316400  0.346200  0.531000  1.0  0.1204
  C  C167  1  0.764400  0.370400  0.043800  1.0  0.1259
  C  C168  1  0.768600  0.307600  0.039600  1.0  -0.2363
  C  C169  1  0.749800  0.293100  0.989700  1.0  0.1073
  C  C170  1  0.726300  0.343700  0.947300  1.0  -0.2304
  C  C171  1  0.726400  0.404790  0.953610  1.0  0.1333
  C  C172  1  0.817400  0.108700  0.994300  1.0  0.1354
  C  C173  1  0.816900  0.170000  0.997400  1.0  -0.235
  C  C174  1  0.752400  0.226000  0.985600  1.0  0.0746
  C  C175  1  0.689700  0.217900  0.969900  1.0  -0.2226
  C  C176  1  0.693600  0.153800  0.969000  1.0  0.121
  C  C177  1  0.134800  0.629600  0.543800  1.0  0.1267
  C  C178  1  0.076200  0.692400  0.539600  1.0  -0.236
  C  C179  1  0.042900  0.706900  0.489700  1.0  0.1077
  C  C180  1  0.070000  0.656300  0.447300  1.0  -0.2304
  C  C181  1  0.131190  0.595210  0.453610  1.0  0.1334
  C  C182  1  0.926100  0.891300  0.494300  1.0  0.1346
  C  C183  1  0.986900  0.830000  0.497400  1.0  -0.2351
  C  C184  1  0.978400  0.774000  0.485600  1.0  0.0743
  C  C185  1  0.907600  0.782100  0.469900  1.0  -0.2225
  C  C186  1  0.847400  0.846200  0.469000  1.0  0.1214
  C  C187  1  0.808200  0.870400  0.956200  1.0  0.126
  C  C188  1  0.808200  0.807600  0.960400  1.0  -0.2342
  C  C189  1  0.739500  0.793100  0.010300  1.0  0.1062
  C  C190  1  0.673600  0.843700  0.052700  1.0  -0.2322
  C  C191  1  0.680010  0.904790  0.046390  1.0  0.1362
  C  C192  1  0.811700  0.608700  0.005700  1.0  0.1386
  C  C193  1  0.814300  0.670000  0.002600  1.0  -0.2359
  C  C194  1  0.738000  0.726000  0.014400  1.0  0.0743
  C  C195  1  0.659600  0.717900  0.030100  1.0  -0.2226
  C  C196  1  0.662600  0.653800  0.031000  1.0  0.1201
  C  C197  1  0.691800  0.043800  0.129600  1.0  0.1298
  C  C198  1  0.691800  0.039600  0.192400  1.0  -0.236
  C  C199  1  0.760500  0.989700  0.206900  1.0  0.1066
  C  C200  1  0.826400  0.947300  0.156300  1.0  -0.2306
  C  C201  1  0.819990  0.953610  0.095210  1.0  0.1344
  C  C202  1  0.688300  0.994300  0.391300  1.0  0.1362
  C  C203  1  0.685700  0.997400  0.330000  1.0  -0.2362
  C  C204  1  0.762000  0.985600  0.274000  1.0  0.0754
  C  C205  1  0.840400  0.969900  0.282100  1.0  -0.2221
  C  C206  1  0.837400  0.969000  0.346200  1.0  0.1247
  C  C207  1  0.365200  0.456200  0.370400  1.0  0.128
  C  C208  1  0.423800  0.460400  0.307600  1.0  -0.2348
  C  C209  1  0.457100  0.510300  0.293100  1.0  0.1074
  C  C210  1  0.430000  0.552700  0.343700  1.0  -0.2318
  C  C211  1  0.368810  0.546390  0.404790  1.0  0.1319
  C  C212  1  0.573900  0.505700  0.108700  1.0  0.1352
  C  C213  1  0.513100  0.502600  0.170000  1.0  -0.2382
  C  C214  1  0.521600  0.514400  0.226000  1.0  0.0733
  C  C215  1  0.592400  0.530100  0.217900  1.0  -0.224
  C  C216  1  0.652600  0.531000  0.153800  1.0  0.1174
  C  C217  1  0.865200  0.370400  0.456200  1.0  0.1265
  C  C218  1  0.923800  0.307600  0.460400  1.0  -0.2358
  C  C219  1  0.957100  0.293100  0.510300  1.0  0.1067
  C  C220  1  0.930000  0.343700  0.552700  1.0  -0.2306
  C  C221  1  0.868810  0.404790  0.546390  1.0  0.1337
  C  C222  1  0.073900  0.108700  0.505700  1.0  0.1356
  C  C223  1  0.013100  0.170000  0.502600  1.0  -0.2366
  C  C224  1  0.021600  0.226000  0.514400  1.0  0.0741
  C  C225  1  0.092400  0.217900  0.530100  1.0  -0.2219
  C  C226  1  0.152600  0.153800  0.531000  1.0  0.1222
  C  C227  1  0.191800  0.129600  0.043800  1.0  0.1258
  C  C228  1  0.191800  0.192400  0.039600  1.0  -0.2337
  C  C229  1  0.260500  0.206900  0.989700  1.0  0.1076
  C  C230  1  0.326400  0.156300  0.947300  1.0  -0.2309
  C  C231  1  0.319990  0.095210  0.953610  1.0  0.1355
  C  C232  1  0.188300  0.391300  0.994300  1.0  0.1359
  C  C233  1  0.185700  0.330000  0.997400  1.0  -0.2384
  C  C234  1  0.262000  0.274000  0.985600  1.0  0.0743
  C  C235  1  0.340400  0.282100  0.969900  1.0  -0.2224
  C  C236  1  0.337400  0.346200  0.969000  1.0  0.1211
  C  C237  1  0.308200  0.956200  0.870400  1.0  0.1301
  C  C238  1  0.308200  0.960400  0.807600  1.0  -0.2363
  C  C239  1  0.239500  0.010300  0.793100  1.0  0.1074
  C  C240  1  0.173600  0.052700  0.843700  1.0  -0.2308
  C  C241  1  0.180010  0.046390  0.904790  1.0  0.136
  C  C242  1  0.311700  0.005700  0.608700  1.0  0.1371
  C  C243  1  0.314300  0.002600  0.670000  1.0  -0.2346
  C  C244  1  0.238000  0.014400  0.726000  1.0  0.0741
  C  C245  1  0.159600  0.030100  0.717900  1.0  -0.2231
  C  C246  1  0.162600  0.031000  0.653800  1.0  0.1236
  C  C247  1  0.634800  0.543800  0.629600  1.0  0.1272
  C  C248  1  0.576200  0.539600  0.692400  1.0  -0.2352
  C  C249  1  0.542900  0.489700  0.706900  1.0  0.1062
  C  C250  1  0.570000  0.447300  0.656300  1.0  -0.23
  C  C251  1  0.631190  0.453610  0.595210  1.0  0.1318
  C  C252  1  0.426100  0.494300  0.891300  1.0  0.1364
  C  C253  1  0.486900  0.497400  0.830000  1.0  -0.2359
  C  C254  1  0.478400  0.485600  0.774000  1.0  0.0742
  C  C255  1  0.407600  0.469900  0.782100  1.0  -0.2211
  C  C256  1  0.347400  0.469000  0.846200  1.0  0.1197
  C  C257  1  0.264400  0.043800  0.370400  1.0  0.1297
  C  C258  1  0.268600  0.039600  0.307600  1.0  -0.236
  C  C259  1  0.249800  0.989700  0.293100  1.0  0.1072
  C  C260  1  0.226300  0.947300  0.343700  1.0  -0.2293
  C  C261  1  0.226400  0.953610  0.404790  1.0  0.1366
  C  C262  1  0.317400  0.994300  0.108700  1.0  0.1367
  C  C263  1  0.316900  0.997400  0.170000  1.0  -0.2348
  C  C264  1  0.252400  0.985600  0.226000  1.0  0.074
  C  C265  1  0.189700  0.969900  0.217900  1.0  -0.2226
  C  C266  1  0.193600  0.969000  0.153800  1.0  0.1236
  C  C267  1  0.178600  0.456200  0.129600  1.0  0.127
  C  C268  1  0.115800  0.460400  0.192400  1.0  -0.2352
  C  C269  1  0.032600  0.510300  0.206900  1.0  0.1063
  C  C270  1  0.017300  0.552700  0.156300  1.0  -0.2312
  C  C271  1  0.084800  0.546390  0.095210  1.0  0.1324
  C  C272  1  0.920400  0.505700  0.391300  1.0  0.1365
  C  C273  1  0.984300  0.502600  0.330000  1.0  -0.2357
  C  C274  1  0.964000  0.514400  0.274000  1.0  0.0743
  C  C275  1  0.877500  0.530100  0.282100  1.0  -0.2218
  C  C276  1  0.816400  0.531000  0.346200  1.0  0.1196
  C  C277  1  0.321400  0.870400  0.543800  1.0  0.126
  C  C278  1  0.384200  0.807600  0.539600  1.0  -0.2336
  C  C279  1  0.467400  0.793100  0.489700  1.0  0.1071
  C  C280  1  0.482700  0.843700  0.447300  1.0  -0.2311
  C  C281  1  0.415200  0.904790  0.453610  1.0  0.1353
  C  C282  1  0.579600  0.608700  0.494300  1.0  0.1374
  C  C283  1  0.515700  0.670000  0.497400  1.0  -0.2381
  C  C284  1  0.536000  0.726000  0.485600  1.0  0.0747
  C  C285  1  0.622500  0.717900  0.469900  1.0  -0.2221
  C  C286  1  0.683600  0.653800  0.469000  1.0  0.1214
  C  C287  1  0.235600  0.629600  0.956200  1.0  0.1269
  C  C288  1  0.231400  0.692400  0.960400  1.0  -0.2363
  C  C289  1  0.250200  0.706900  0.010300  1.0  0.107
  C  C290  1  0.273700  0.656300  0.052700  1.0  -0.2304
  C  C291  1  0.273600  0.595210  0.046390  1.0  0.1343
  C  C292  1  0.182600  0.891300  0.005700  1.0  0.1342
  C  C293  1  0.183100  0.830000  0.002600  1.0  -0.2369
  C  C294  1  0.247600  0.774000  0.014400  1.0  0.0738
  C  C295  1  0.310300  0.782100  0.030100  1.0  -0.2224
  C  C296  1  0.306400  0.846200  0.031000  1.0  0.122
  N  N297  1  0.755960  0.999220  0.581260  1.0  -0.3294
  N  N298  1  0.744810  0.017860  0.899920  1.0  -0.3241
  N  N299  1  0.836440  0.500780  0.918740  1.0  -0.3294
  N  N300  1  0.162590  0.482140  0.600080  1.0  -0.3269
  N  N301  1  0.663560  0.081260  0.499220  1.0  -0.328
  N  N302  1  0.337410  0.399920  0.517860  1.0  -0.3257
  N  N303  1  0.744040  0.418740  0.000780  1.0  -0.328
  N  N304  1  0.755190  0.100080  0.982140  1.0  -0.3259
  N  N305  1  0.162780  0.581260  0.500780  1.0  -0.3285
  N  N306  1  0.855270  0.899920  0.482140  1.0  -0.3257
  N  N307  1  0.744820  0.918740  0.999220  1.0  -0.3276
  N  N308  1  0.737330  0.600080  0.017860  1.0  -0.3258
  N  N309  1  0.755180  0.000780  0.081260  1.0  -0.3292
  N  N310  1  0.762670  0.982140  0.399920  1.0  -0.3243
  N  N311  1  0.337220  0.499220  0.418740  1.0  -0.3295
  N  N312  1  0.644730  0.517860  0.100080  1.0  -0.3267
  N  N313  1  0.837220  0.418740  0.499220  1.0  -0.3279
  N  N314  1  0.144730  0.100080  0.517860  1.0  -0.3262
  N  N315  1  0.255180  0.081260  0.000780  1.0  -0.3285
  N  N316  1  0.262670  0.399920  0.982140  1.0  -0.326
  N  N317  1  0.244820  0.999220  0.918740  1.0  -0.3287
  N  N318  1  0.237330  0.017860  0.600080  1.0  -0.3242
  N  N319  1  0.662780  0.500780  0.581260  1.0  -0.3307
  N  N320  1  0.355270  0.482140  0.899920  1.0  -0.3266
  N  N321  1  0.244040  0.000780  0.418740  1.0  -0.3288
  N  N322  1  0.255190  0.982140  0.100080  1.0  -0.3243
  N  N323  1  0.163560  0.499220  0.081260  1.0  -0.3308
  N  N324  1  0.837410  0.517860  0.399920  1.0  -0.3264
  N  N325  1  0.336440  0.918740  0.500780  1.0  -0.3276
  N  N326  1  0.662590  0.600080  0.482140  1.0  -0.3261
  N  N327  1  0.255960  0.581260  0.999220  1.0  -0.3288
  N  N328  1  0.244810  0.899920  0.017860  1.0  -0.3262
