# generated using pymatgen
data_CuPH2CO3
_symmetry_space_group_name_H-M   'P 1'
_cell_length_a   14.83600000
_cell_length_b   6.68440000
_cell_length_c   4.36300000
_cell_angle_alpha   90.00000000
_cell_angle_beta   93.28000000
_cell_angle_gamma   90.00000000
_symmetry_Int_Tables_number   1
_chemical_formula_structural   CuPH2CO3
_chemical_formula_sum   'Cu4 P4 H8 C4 O12'
_cell_volume   431.96886475
_cell_formula_units_Z   4
loop_
 _symmetry_equiv_pos_site_id
 _symmetry_equiv_pos_as_xyz
  1  'x, y, z'
loop_
 _atom_site_type_symbol
 _atom_site_label
 _atom_site_symmetry_multiplicity
 _atom_site_fract_x
 _atom_site_fract_y
 _atom_site_fract_z
 _atom_site_occupancy
 _atom_site_charge
  Cu  Cu1  1  0.250000  0.250000  0.500000  1.0  0.9097
  Cu  Cu2  1  0.750000  0.250000  0.500000  1.0  0.9097
  Cu  Cu3  1  0.750000  0.750000  0.500000  1.0  0.9097
  Cu  Cu4  1  0.250000  0.750000  0.500000  1.0  0.9097
  P  P5  1  0.149300  0.000000  0.971700  1.0  1.5572
  P  P6  1  0.649300  0.500000  0.971700  1.0  1.5572
  P  P7  1  0.850700  0.000000  0.028300  1.0  1.5576
  P  P8  1  0.350700  0.500000  0.028300  1.0  1.5576
  H  H9  1  0.034300  0.122700  0.228000  1.0  0.1507
  H  H10  1  0.534300  0.622700  0.228000  1.0  0.1507
  H  H11  1  0.965700  0.122700  0.772000  1.0  0.1522
  H  H12  1  0.465700  0.622700  0.772000  1.0  0.1522
  H  H13  1  0.965700  0.877300  0.772000  1.0  0.1529
  H  H14  1  0.465700  0.377300  0.772000  1.0  0.1529
  H  H15  1  0.034300  0.877300  0.228000  1.0  0.1527
  H  H16  1  0.534300  0.377300  0.228000  1.0  0.1527
  C  C17  1  0.038700  0.000000  0.120500  1.0  -0.2485
  C  C18  1  0.538700  0.500000  0.120500  1.0  -0.2485
  C  C19  1  0.961300  0.000000  0.879500  1.0  -0.2481
  C  C20  1  0.461300  0.500000  0.879500  1.0  -0.2481
  O  O21  1  0.158800  0.189700  0.785200  1.0  -0.8198
  O  O22  1  0.658800  0.689700  0.785200  1.0  -0.8198
  O  O23  1  0.841200  0.189700  0.214800  1.0  -0.8197
  O  O24  1  0.341200  0.689700  0.214800  1.0  -0.8197
  O  O25  1  0.841200  0.810300  0.214800  1.0  -0.8206
  O  O26  1  0.341200  0.310300  0.214800  1.0  -0.8206
  O  O27  1  0.158800  0.810300  0.785200  1.0  -0.8208
  O  O28  1  0.658800  0.310300  0.785200  1.0  -0.8208
  O  O29  1  0.217400  0.000000  0.256700  1.0  -0.8836
  O  O30  1  0.717400  0.500000  0.256700  1.0  -0.8836
  O  O31  1  0.782600  0.000000  0.743300  1.0  -0.8818
  O  O32  1  0.282600  0.500000  0.743300  1.0  -0.8818
