# generated using pymatgen
data_CuH16(C5N)4
_symmetry_space_group_name_H-M   'P 1'
_cell_length_a   18.27250000
_cell_length_b   22.16800000
_cell_length_c   22.16800000
_cell_angle_alpha   80.22060000
_cell_angle_beta   65.66090000
_cell_angle_gamma   65.66100000
_symmetry_Int_Tables_number   1
_chemical_formula_structural   CuH16(C5N)4
_chemical_formula_sum   'Cu8 H128 C160 N32'
_cell_volume   7454.26163199
_cell_formula_units_Z   8
loop_
 _symmetry_equiv_pos_site_id
 _symmetry_equiv_pos_as_xyz
  1  'x, y, z'
loop_
 _atom_site_type_symbol
 _atom_site_label
 _atom_site_symmetry_multiplicity
 _atom_site_fract_x
 _atom_site_fract_y
 _atom_site_fract_z
 _atom_site_occupancy
 _atom_site_charge
  Cu  Cu1  1  0.258850  0.991150  0.491150  1.0  0.3288
  Cu  Cu2  1  0.241150  0.508850  0.008850  1.0  0.3292
  Cu  Cu3  1  0.750000  0.491150  0.508850  1.0  0.3291
  Cu  Cu4  1  0.250000  0.008850  0.991150  1.0  0.329
  Cu  Cu5  1  0.250000  0.508850  0.491150  1.0  0.329
  Cu  Cu6  1  0.750000  0.991150  0.008850  1.0  0.3291
  Cu  Cu7  1  0.741150  0.008850  0.508850  1.0  0.3292
  Cu  Cu8  1  0.758850  0.491150  0.991150  1.0  0.3288
  H  H9  1  0.223100  0.921700  0.620900  1.0  0.0723
  H  H10  1  0.217600  0.927500  0.725500  1.0  0.1067
  H  H11  1  0.277400  0.087900  0.668500  1.0  0.0928
  H  H12  1  0.281400  0.079100  0.565300  1.0  0.075
  H  H13  1  0.342400  0.045100  0.852100  1.0  0.065
  H  H14  1  0.346600  0.042300  0.747500  1.0  0.1066
  H  H15  1  0.147400  0.983900  0.826500  1.0  0.0957
  H  H16  1  0.145100  0.990100  0.929500  1.0  0.0718
  H  H17  1  0.265700  0.578300  0.879100  1.0  0.073
  H  H18  1  0.370600  0.572500  0.774500  1.0  0.1072
  H  H19  1  0.533800  0.412100  0.831500  1.0  0.0927
  H  H20  1  0.425800  0.420900  0.934700  1.0  0.0765
  H  H21  1  0.739600  0.454900  0.647900  1.0  0.0651
  H  H22  1  0.636400  0.457700  0.752500  1.0  0.1065
  H  H23  1  0.457800  0.516100  0.673500  1.0  0.0964
  H  H24  1  0.564700  0.509900  0.570500  1.0  0.0732
  H  H25  1  0.234300  0.120900  0.421700  1.0  0.0723
  H  H26  1  0.129400  0.225500  0.427500  1.0  0.1074
  H  H27  1  0.966200  0.168500  0.587900  1.0  0.0945
  H  H28  1  0.074200  0.065300  0.579100  1.0  0.0755
  H  H29  1  0.760400  0.352100  0.545100  1.0  0.0664
  H  H30  1  0.863600  0.247500  0.542300  1.0  0.1072
  H  H31  1  0.042200  0.326500  0.483900  1.0  0.0955
  H  H32  1  0.935300  0.429500  0.490100  1.0  0.0721
  H  H33  1  0.276900  0.379100  0.078300  1.0  0.0729
  H  H34  1  0.282400  0.274500  0.072500  1.0  0.1067
  H  H35  1  0.222600  0.331500  0.912100  1.0  0.0937
  H  H36  1  0.218600  0.434700  0.920900  1.0  0.0754
  H  H37  1  0.157600  0.147900  0.954900  1.0  0.0646
  H  H38  1  0.153400  0.252500  0.957700  1.0  0.1071
  H  H39  1  0.352600  0.173500  0.016100  1.0  0.0965
  H  H40  1  0.354900  0.070500  0.009900  1.0  0.0725
  H  H41  1  0.656000  0.620900  0.578300  1.0  0.0725
  H  H42  1  0.556900  0.725500  0.572500  1.0  0.1064
  H  H43  1  0.554100  0.668500  0.412100  1.0  0.0938
  H  H44  1  0.653300  0.565300  0.420900  1.0  0.0753
  H  H45  1  0.305500  0.852100  0.454900  1.0  0.0644
  H  H46  1  0.405900  0.747500  0.457700  1.0  0.1068
  H  H47  1  0.526100  0.826500  0.516100  1.0  0.0963
  H  H48  1  0.425400  0.929500  0.509900  1.0  0.0725
  H  H49  1  0.355200  0.879100  0.921700  1.0  0.0722
  H  H50  1  0.354900  0.774500  0.927500  1.0  0.1075
  H  H51  1  0.134700  0.831500  0.087900  1.0  0.0943
  H  H52  1  0.139500  0.934700  0.079100  1.0  0.0756
  H  H53  1  0.112500  0.647900  0.045100  1.0  0.0666
  H  H54  1  0.111100  0.752500  0.042300  1.0  0.1075
  H  H55  1  0.368700  0.673500  0.983900  1.0  0.0957
  H  H56  1  0.364800  0.570500  0.990100  1.0  0.0722
  H  H57  1  0.144800  0.078300  0.120900  1.0  0.0724
  H  H58  1  0.145100  0.072500  0.225500  1.0  0.1068
  H  H59  1  0.365300  0.912100  0.168500  1.0  0.0927
  H  H60  1  0.360500  0.920900  0.065300  1.0  0.075
  H  H61  1  0.387500  0.954900  0.352100  1.0  0.0649
  H  H62  1  0.388900  0.957700  0.247500  1.0  0.1064
  H  H63  1  0.131300  0.016100  0.326500  1.0  0.0958
  H  H64  1  0.135200  0.009900  0.429500  1.0  0.0718
  H  H65  1  0.844000  0.421700  0.379100  1.0  0.0726
  H  H66  1  0.943100  0.427500  0.274500  1.0  0.1069
  H  H67  1  0.945900  0.587900  0.331500  1.0  0.0927
  H  H68  1  0.846700  0.579100  0.434700  1.0  0.0762
  H  H69  1  0.194500  0.545100  0.147900  1.0  0.0651
  H  H70  1  0.094100  0.542300  0.252500  1.0  0.1065
  H  H71  1  0.973900  0.483900  0.173500  1.0  0.0963
  H  H72  1  0.074600  0.490100  0.070500  1.0  0.0733
  H  H73  1  0.344000  0.379100  0.421700  1.0  0.0735
  H  H74  1  0.443100  0.274500  0.427500  1.0  0.1064
  H  H75  1  0.445900  0.331500  0.587900  1.0  0.0938
  H  H76  1  0.346700  0.434700  0.579100  1.0  0.0756
  H  H77  1  0.694500  0.147900  0.545100  1.0  0.0649
  H  H78  1  0.594100  0.252500  0.542300  1.0  0.1065
  H  H79  1  0.473900  0.173500  0.483900  1.0  0.0963
  H  H80  1  0.574600  0.070500  0.490100  1.0  0.0715
  H  H81  1  0.644800  0.120900  0.078300  1.0  0.0732
  H  H82  1  0.645100  0.225500  0.072500  1.0  0.1073
  H  H83  1  0.865300  0.168500  0.912100  1.0  0.0943
  H  H84  1  0.860500  0.065300  0.920900  1.0  0.0756
  H  H85  1  0.887500  0.352100  0.954900  1.0  0.0639
  H  H86  1  0.888900  0.247500  0.957700  1.0  0.1072
  H  H87  1  0.631300  0.326500  0.016100  1.0  0.0976
  H  H88  1  0.635200  0.429500  0.009900  1.0  0.0725
  H  H89  1  0.855200  0.921700  0.879100  1.0  0.0725
  H  H90  1  0.854900  0.927500  0.774500  1.0  0.1068
  H  H91  1  0.634700  0.087900  0.831500  1.0  0.0932
  H  H92  1  0.639500  0.079100  0.934700  1.0  0.0748
  H  H93  1  0.612500  0.045100  0.647900  1.0  0.0651
  H  H94  1  0.611100  0.042300  0.752500  1.0  0.1067
  H  H95  1  0.868700  0.983900  0.673500  1.0  0.0956
  H  H96  1  0.864800  0.990100  0.570500  1.0  0.0721
  H  H97  1  0.156000  0.578300  0.620900  1.0  0.0725
  H  H98  1  0.056900  0.572500  0.725500  1.0  0.1068
  H  H99  1  0.054100  0.412100  0.668500  1.0  0.0928
  H  H100  1  0.153300  0.420900  0.565300  1.0  0.076
  H  H101  1  0.805500  0.454900  0.852100  1.0  0.0663
  H  H102  1  0.905900  0.457700  0.747500  1.0  0.1071
  H  H103  1  0.026100  0.516100  0.826500  1.0  0.096
  H  H104  1  0.925400  0.509900  0.929500  1.0  0.072
  H  H105  1  0.776900  0.078300  0.379100  1.0  0.0721
  H  H106  1  0.782400  0.072500  0.274500  1.0  0.1069
  H  H107  1  0.722600  0.912100  0.331500  1.0  0.0924
  H  H108  1  0.718600  0.920900  0.434700  1.0  0.0749
  H  H109  1  0.657600  0.954900  0.147900  1.0  0.065
  H  H110  1  0.653400  0.957700  0.252500  1.0  0.1069
  H  H111  1  0.852600  0.016100  0.173500  1.0  0.0954
  H  H112  1  0.854900  0.009900  0.070500  1.0  0.072
  H  H113  1  0.734300  0.421700  0.120900  1.0  0.0726
  H  H114  1  0.629400  0.427500  0.225500  1.0  0.107
  H  H115  1  0.466200  0.587900  0.168500  1.0  0.0936
  H  H116  1  0.574200  0.579100  0.065300  1.0  0.0762
  H  H117  1  0.260400  0.545100  0.352100  1.0  0.0663
  H  H118  1  0.363600  0.542300  0.247500  1.0  0.107
  H  H119  1  0.542200  0.483900  0.326500  1.0  0.096
  H  H120  1  0.435300  0.490100  0.429500  1.0  0.072
  H  H121  1  0.765700  0.879100  0.578300  1.0  0.0727
  H  H122  1  0.870600  0.774500  0.572500  1.0  0.1077
  H  H123  1  0.033800  0.831500  0.412100  1.0  0.0942
  H  H124  1  0.925800  0.934700  0.420900  1.0  0.0759
  H  H125  1  0.239600  0.647900  0.454900  1.0  0.0636
  H  H126  1  0.136400  0.752500  0.457700  1.0  0.1071
  H  H127  1  0.957800  0.673500  0.516100  1.0  0.0974
  H  H128  1  0.064700  0.570500  0.509900  1.0  0.0717
  H  H129  1  0.723100  0.620900  0.921700  1.0  0.073
  H  H130  1  0.717600  0.725500  0.927500  1.0  0.1062
  H  H131  1  0.777400  0.668500  0.087900  1.0  0.094
  H  H132  1  0.781400  0.565300  0.079100  1.0  0.0757
  H  H133  1  0.842400  0.852100  0.045100  1.0  0.0649
  H  H134  1  0.846600  0.747500  0.042300  1.0  0.1066
  H  H135  1  0.647400  0.826500  0.983900  1.0  0.0964
  H  H136  1  0.645100  0.929500  0.990100  1.0  0.0722
  C  C137  1  0.233790  0.955630  0.630790  1.0  0.1298
  C  C138  1  0.230930  0.958590  0.693550  1.0  -0.2037
  C  C139  1  0.248300  0.009030  0.708370  1.0  0.0567
  C  C140  1  0.266280  0.053570  0.659870  1.0  -0.1819
  C  C141  1  0.268290  0.048390  0.597830  1.0  0.1304
  C  C142  1  0.303010  0.032190  0.846790  1.0  0.1142
  C  C143  1  0.305630  0.030890  0.783850  1.0  -0.2109
  C  C144  1  0.246660  0.012400  0.775480  1.0  0.0675
  C  C145  1  0.187660  0.996640  0.830640  1.0  -0.2089
  C  C146  1  0.187250  0.999510  0.892390  1.0  0.1153
  C  C147  1  0.320210  0.544370  0.869210  1.0  0.1273
  C  C148  1  0.383070  0.541410  0.806450  1.0  -0.2043
  C  C149  1  0.465700  0.490970  0.791630  1.0  0.057
  C  C150  1  0.479720  0.446430  0.840130  1.0  -0.1803
  C  C151  1  0.414510  0.451610  0.902170  1.0  0.1277
  C  C152  1  0.681990  0.467810  0.653210  1.0  0.1103
  C  C153  1  0.620370  0.469110  0.716150  1.0  -0.2116
  C  C154  1  0.534540  0.487600  0.724520  1.0  0.0668
  C  C155  1  0.514940  0.503360  0.669360  1.0  -0.2104
  C  C156  1  0.579150  0.500490  0.607610  1.0  0.1171
  C  C157  1  0.179790  0.130790  0.455630  1.0  0.1288
  C  C158  1  0.116930  0.193550  0.458590  1.0  -0.2027
  C  C159  1  0.034300  0.208370  0.509030  1.0  0.0572
  C  C160  1  0.020280  0.159870  0.553570  1.0  -0.1813
  C  C161  1  0.085490  0.097830  0.548390  1.0  0.1326
  C  C162  1  0.818010  0.346790  0.532190  1.0  0.1104
  C  C163  1  0.879630  0.283850  0.530890  1.0  -0.2105
  C  C164  1  0.965460  0.275480  0.512400  1.0  0.0674
  C  C165  1  0.985060  0.330640  0.496640  1.0  -0.2094
  C  C166  1  0.920850  0.392390  0.499510  1.0  0.1153
  C  C167  1  0.266210  0.369210  0.044370  1.0  0.1253
  C  C168  1  0.269070  0.306450  0.041410  1.0  -0.2056
  C  C169  1  0.251700  0.291630  0.990970  1.0  0.0576
  C  C170  1  0.233720  0.340130  0.946430  1.0  -0.1801
  C  C171  1  0.231710  0.402170  0.951610  1.0  0.1318
  C  C172  1  0.196990  0.153210  0.967810  1.0  0.1128
  C  C173  1  0.194370  0.216150  0.969110  1.0  -0.2108
  C  C174  1  0.253340  0.224520  0.987600  1.0  0.0676
  C  C175  1  0.312340  0.169360  0.003360  1.0  -0.207
  C  C176  1  0.312750  0.107610  0.000490  1.0  0.1147
  C  C177  1  0.635420  0.630790  0.544370  1.0  0.1261
  C  C178  1  0.575520  0.693550  0.541410  1.0  -0.2055
  C  C179  1  0.543330  0.708370  0.490970  1.0  0.0574
  C  C180  1  0.573850  0.659870  0.446430  1.0  -0.1804
  C  C181  1  0.633880  0.597830  0.451610  1.0  0.1309
  C  C182  1  0.350200  0.846790  0.467810  1.0  0.1124
  C  C183  1  0.410520  0.783850  0.469110  1.0  -0.2108
  C  C184  1  0.477860  0.775480  0.487600  1.0  0.0676
  C  C185  1  0.481700  0.830640  0.503360  1.0  -0.2076
  C  C186  1  0.420360  0.892390  0.500490  1.0  0.1138
  C  C187  1  0.310580  0.869210  0.955630  1.0  0.1278
  C  C188  1  0.310480  0.806450  0.958590  1.0  -0.2029
  C  C189  1  0.242670  0.791630  0.009030  1.0  0.0574
  C  C190  1  0.180150  0.840130  0.053570  1.0  -0.1812
  C  C191  1  0.183320  0.902170  0.048390  1.0  0.1328
  C  C192  1  0.164800  0.653210  0.032190  1.0  0.111
  C  C193  1  0.163480  0.716150  0.030890  1.0  -0.2108
  C  C194  1  0.240940  0.724520  0.012400  1.0  0.0673
  C  C195  1  0.315700  0.669360  0.996640  1.0  -0.2089
  C  C196  1  0.313240  0.607610  0.999510  1.0  0.1163
  C  C197  1  0.189420  0.044370  0.130790  1.0  0.1296
  C  C198  1  0.189520  0.041410  0.193550  1.0  -0.2044
  C  C199  1  0.257330  0.990970  0.208370  1.0  0.0567
  C  C200  1  0.319850  0.946430  0.159870  1.0  -0.1809
  C  C201  1  0.316680  0.951610  0.097830  1.0  0.1295
  C  C202  1  0.335200  0.967810  0.346790  1.0  0.1146
  C  C203  1  0.336520  0.969110  0.283850  1.0  -0.2104
  C  C204  1  0.259060  0.987600  0.275480  1.0  0.0677
  C  C205  1  0.184300  0.003360  0.330640  1.0  -0.2088
  C  C206  1  0.186760  0.000490  0.392390  1.0  0.1153
  C  C207  1  0.864580  0.455630  0.369210  1.0  0.1276
  C  C208  1  0.924480  0.458590  0.306450  1.0  -0.2032
  C  C209  1  0.956670  0.509030  0.291630  1.0  0.057
  C  C210  1  0.926150  0.553570  0.340130  1.0  -0.1808
  C  C211  1  0.866120  0.548390  0.402170  1.0  0.1284
  C  C212  1  0.149800  0.532190  0.153210  1.0  0.1101
  C  C213  1  0.089480  0.530890  0.216150  1.0  -0.2119
  C  C214  1  0.022140  0.512400  0.224520  1.0  0.0668
  C  C215  1  0.018300  0.496640  0.169360  1.0  -0.2104
  C  C216  1  0.079640  0.499510  0.107610  1.0  0.1173
  C  C217  1  0.364580  0.369210  0.455630  1.0  0.1269
  C  C218  1  0.424480  0.306450  0.458590  1.0  -0.2037
  C  C219  1  0.456670  0.291630  0.509030  1.0  0.0572
  C  C220  1  0.426150  0.340130  0.553570  1.0  -0.1786
  C  C221  1  0.366120  0.402170  0.548390  1.0  0.1299
  C  C222  1  0.649800  0.153210  0.532190  1.0  0.1135
  C  C223  1  0.589480  0.216150  0.530890  1.0  -0.2109
  C  C224  1  0.522140  0.224520  0.512400  1.0  0.0674
  C  C225  1  0.518300  0.169360  0.496640  1.0  -0.2074
  C  C226  1  0.579640  0.107610  0.499510  1.0  0.1143
  C  C227  1  0.689420  0.130790  0.044370  1.0  0.13
  C  C228  1  0.689520  0.193550  0.041410  1.0  -0.205
  C  C229  1  0.757330  0.208370  0.990970  1.0  0.057
  C  C230  1  0.819850  0.159870  0.946430  1.0  -0.1798
  C  C231  1  0.816680  0.097830  0.951610  1.0  0.1316
  C  C232  1  0.835200  0.346790  0.967810  1.0  0.1111
  C  C233  1  0.836520  0.283850  0.969110  1.0  -0.2108
  C  C234  1  0.759060  0.275480  0.987600  1.0  0.0676
  C  C235  1  0.684300  0.330640  0.003360  1.0  -0.2115
  C  C236  1  0.686760  0.392390  0.000490  1.0  0.1146
  C  C237  1  0.810580  0.955630  0.869210  1.0  0.1303
  C  C238  1  0.810480  0.958590  0.806450  1.0  -0.2038
  C  C239  1  0.742670  0.009030  0.791630  1.0  0.0566
  C  C240  1  0.680150  0.053570  0.840130  1.0  -0.1811
  C  C241  1  0.683320  0.048390  0.902170  1.0  0.1318
  C  C242  1  0.664800  0.032190  0.653210  1.0  0.1138
  C  C243  1  0.663480  0.030890  0.716150  1.0  -0.2117
  C  C244  1  0.740940  0.012400  0.724520  1.0  0.0672
  C  C245  1  0.815700  0.996640  0.669360  1.0  -0.2085
  C  C246  1  0.813240  0.999510  0.607610  1.0  0.1154
  C  C247  1  0.135420  0.544370  0.630790  1.0  0.1259
  C  C248  1  0.075520  0.541410  0.693550  1.0  -0.2047
  C  C249  1  0.043330  0.490970  0.708370  1.0  0.0563
  C  C250  1  0.073850  0.446430  0.659870  1.0  -0.1787
  C  C251  1  0.133880  0.451610  0.597830  1.0  0.127
  C  C252  1  0.850200  0.467810  0.846790  1.0  0.1114
  C  C253  1  0.910520  0.469110  0.783850  1.0  -0.21
  C  C254  1  0.977860  0.487600  0.775480  1.0  0.067
  C  C255  1  0.981700  0.503360  0.830640  1.0  -0.21
  C  C256  1  0.920360  0.500490  0.892390  1.0  0.1157
  C  C257  1  0.766210  0.044370  0.369210  1.0  0.129
  C  C258  1  0.769070  0.041410  0.306450  1.0  -0.2042
  C  C259  1  0.751700  0.990970  0.291630  1.0  0.0567
  C  C260  1  0.733720  0.946430  0.340130  1.0  -0.1797
  C  C261  1  0.731710  0.951610  0.402170  1.0  0.1323
  C  C262  1  0.696990  0.967810  0.153210  1.0  0.114
  C  C263  1  0.694370  0.969110  0.216150  1.0  -0.2112
  C  C264  1  0.753340  0.987600  0.224520  1.0  0.0673
  C  C265  1  0.812340  0.003360  0.169360  1.0  -0.2086
  C  C266  1  0.812750  0.000490  0.107610  1.0  0.1152
  C  C267  1  0.679790  0.455630  0.130790  1.0  0.1267
  C  C268  1  0.616930  0.458590  0.193550  1.0  -0.2046
  C  C269  1  0.534300  0.509030  0.208370  1.0  0.0564
  C  C270  1  0.520280  0.553570  0.159870  1.0  -0.18
  C  C271  1  0.585490  0.548390  0.097830  1.0  0.1285
  C  C272  1  0.318010  0.532190  0.346790  1.0  0.1111
  C  C273  1  0.379630  0.530890  0.283850  1.0  -0.2108
  C  C274  1  0.465460  0.512400  0.275480  1.0  0.0669
  C  C275  1  0.485060  0.496640  0.330640  1.0  -0.2097
  C  C276  1  0.420850  0.499510  0.392390  1.0  0.1158
  C  C277  1  0.820210  0.869210  0.544370  1.0  0.1296
  C  C278  1  0.883070  0.806450  0.541410  1.0  -0.2049
  C  C279  1  0.965700  0.791630  0.490970  1.0  0.0572
  C  C280  1  0.979720  0.840130  0.446430  1.0  -0.1796
  C  C281  1  0.914510  0.902170  0.451610  1.0  0.132
  C  C282  1  0.181990  0.653210  0.467810  1.0  0.112
  C  C283  1  0.120370  0.716150  0.469110  1.0  -0.2109
  C  C284  1  0.034540  0.724520  0.487600  1.0  0.0676
  C  C285  1  0.014940  0.669360  0.503360  1.0  -0.211
  C  C286  1  0.079150  0.607610  0.500490  1.0  0.1148
  C  C287  1  0.733790  0.630790  0.955630  1.0  0.1274
  C  C288  1  0.730930  0.693550  0.958590  1.0  -0.2045
  C  C289  1  0.748300  0.708370  0.009030  1.0  0.057
  C  C290  1  0.766280  0.659870  0.053570  1.0  -0.1787
  C  C291  1  0.768290  0.597830  0.048390  1.0  0.1297
  C  C292  1  0.803010  0.846790  0.032190  1.0  0.1127
  C  C293  1  0.805630  0.783850  0.030890  1.0  -0.2113
  C  C294  1  0.746660  0.775480  0.012400  1.0  0.0674
  C  C295  1  0.687660  0.830640  0.996640  1.0  -0.208
  C  C296  1  0.687250  0.892390  0.999510  1.0  0.1138
  N  N297  1  0.251600  0.000110  0.583490  1.0  -0.3288
  N  N298  1  0.245710  0.015510  0.900470  1.0  -0.3313
  N  N299  1  0.335200  0.499890  0.916510  1.0  -0.3275
  N  N300  1  0.661690  0.484490  0.599530  1.0  -0.3334
  N  N301  1  0.164800  0.083490  0.500110  1.0  -0.3273
  N  N302  1  0.838310  0.400470  0.515510  1.0  -0.3316
  N  N303  1  0.248400  0.416510  0.999890  1.0  -0.3268
  N  N304  1  0.254290  0.099530  0.984490  1.0  -0.3316
  N  N305  1  0.664910  0.583490  0.499890  1.0  -0.327
  N  N306  1  0.353820  0.900470  0.484490  1.0  -0.3319
  N  N307  1  0.248290  0.916510  0.000110  1.0  -0.327
  N  N308  1  0.238780  0.599530  0.015510  1.0  -0.3313
  N  N309  1  0.251710  0.999890  0.083490  1.0  -0.3287
  N  N310  1  0.261220  0.984490  0.400470  1.0  -0.3313
  N  N311  1  0.835090  0.500110  0.416510  1.0  -0.3275
  N  N312  1  0.146180  0.515510  0.099530  1.0  -0.3328
  N  N313  1  0.335090  0.416510  0.500110  1.0  -0.3272
  N  N314  1  0.646180  0.099530  0.515510  1.0  -0.3311
  N  N315  1  0.751710  0.083490  0.999890  1.0  -0.3268
  N  N316  1  0.761220  0.400470  0.984490  1.0  -0.3314
  N  N317  1  0.748290  0.000110  0.916510  1.0  -0.3266
  N  N318  1  0.738780  0.015510  0.599530  1.0  -0.3318
  N  N319  1  0.164910  0.499890  0.583490  1.0  -0.3277
  N  N320  1  0.853820  0.484490  0.900470  1.0  -0.3331
  N  N321  1  0.748400  0.999890  0.416510  1.0  -0.3269
  N  N322  1  0.754290  0.984490  0.099530  1.0  -0.332
  N  N323  1  0.664800  0.500110  0.083490  1.0  -0.3278
  N  N324  1  0.338310  0.515510  0.400470  1.0  -0.333
  N  N325  1  0.835200  0.916510  0.499890  1.0  -0.3265
  N  N326  1  0.161690  0.599530  0.484490  1.0  -0.331
  N  N327  1  0.751600  0.583490  0.000110  1.0  -0.3273
  N  N328  1  0.745710  0.900470  0.015510  1.0  -0.3316
