# generated using pymatgen
data_CuH16(C5N)4
_symmetry_space_group_name_H-M   'P 1'
_cell_length_a   18.07820000
_cell_length_b   22.14850000
_cell_length_c   22.14850000
_cell_angle_alpha   80.41240000
_cell_angle_beta   65.91370000
_cell_angle_gamma   65.91370000
_symmetry_Int_Tables_number   1
_chemical_formula_structural   CuH16(C5N)4
_chemical_formula_sum   'Cu8 H128 C160 N32'
_cell_volume   7391.29409124
_cell_formula_units_Z   8
loop_
 _symmetry_equiv_pos_site_id
 _symmetry_equiv_pos_as_xyz
  1  'x, y, z'
loop_
 _atom_site_type_symbol
 _atom_site_label
 _atom_site_symmetry_multiplicity
 _atom_site_fract_x
 _atom_site_fract_y
 _atom_site_fract_z
 _atom_site_occupancy
 _atom_site_charge
  Cu  Cu1  1  0.739920  0.510080  0.010080  1.0  0.336
  Cu  Cu2  1  0.760080  0.989920  0.489920  1.0  0.3356
  Cu  Cu3  1  0.750000  0.010080  0.989920  1.0  0.3358
  Cu  Cu4  1  0.250000  0.489920  0.510080  1.0  0.3359
  Cu  Cu5  1  0.250000  0.989920  0.010080  1.0  0.3359
  Cu  Cu6  1  0.750000  0.510080  0.489920  1.0  0.3358
  Cu  Cu7  1  0.260080  0.489920  0.989920  1.0  0.3356
  Cu  Cu8  1  0.239920  0.010080  0.510080  1.0  0.336
  H  H9  1  0.569500  0.494600  0.072000  1.0  0.0623
  H  H10  1  0.469100  0.487500  0.174500  1.0  0.1011
  H  H11  1  0.595700  0.541500  0.254100  1.0  0.1043
  H  H12  1  0.697200  0.543500  0.148700  1.0  0.0671
  H  H13  1  0.350500  0.576700  0.436900  1.0  0.0605
  H  H14  1  0.450200  0.585800  0.335000  1.0  0.1043
  H  H15  1  0.439700  0.429600  0.276200  1.0  0.0986
  H  H16  1  0.342800  0.422200  0.379600  1.0  0.0693
  H  H17  1  0.636100  0.005400  0.428000  1.0  0.0627
  H  H18  1  0.631100  0.012500  0.325500  1.0  0.1
  H  H19  1  0.891300  0.958500  0.245900  1.0  0.1043
  H  H20  1  0.889400  0.956500  0.351300  1.0  0.0668
  H  H21  1  0.864100  0.923300  0.063100  1.0  0.059
  H  H22  1  0.871000  0.914200  0.165000  1.0  0.1047
  H  H23  1  0.645500  0.070400  0.223800  1.0  0.0985
  H  H24  1  0.644600  0.077800  0.120400  1.0  0.0693
  H  H25  1  0.863900  0.572000  0.994600  1.0  0.0628
  H  H26  1  0.868900  0.674500  0.987500  1.0  0.0994
  H  H27  1  0.608700  0.754100  0.041500  1.0  0.1052
  H  H28  1  0.610600  0.648700  0.043500  1.0  0.0679
  H  H29  1  0.635900  0.936900  0.076700  1.0  0.0603
  H  H30  1  0.629000  0.835000  0.085800  1.0  0.1058
  H  H31  1  0.854500  0.776200  0.929600  1.0  0.0992
  H  H32  1  0.855400  0.879600  0.922200  1.0  0.0692
  H  H33  1  0.930500  0.928000  0.505400  1.0  0.0626
  H  H34  1  0.030900  0.825500  0.512500  1.0  0.1006
  H  H35  1  0.904300  0.745900  0.458500  1.0  0.1041
  H  H36  1  0.802800  0.851300  0.456500  1.0  0.0662
  H  H37  1  0.149500  0.563100  0.423300  1.0  0.0602
  H  H38  1  0.049800  0.665000  0.414200  1.0  0.1049
  H  H39  1  0.060300  0.723800  0.570400  1.0  0.0985
  H  H40  1  0.157200  0.620400  0.577800  1.0  0.0689
  H  H41  1  0.858500  0.072000  0.005400  1.0  0.0627
  H  H42  1  0.856400  0.174500  0.012500  1.0  0.1006
  H  H43  1  0.650200  0.254100  0.958500  1.0  0.1045
  H  H44  1  0.654100  0.148700  0.956500  1.0  0.0662
  H  H45  1  0.712600  0.436900  0.923300  1.0  0.0603
  H  H46  1  0.714800  0.335000  0.914200  1.0  0.1049
  H  H47  1  0.784100  0.276200  0.070400  1.0  0.0982
  H  H48  1  0.777600  0.379600  0.077800  1.0  0.0688
  H  H49  1  0.435900  0.428000  0.494600  1.0  0.0627
  H  H50  1  0.543400  0.325500  0.487500  1.0  0.0992
  H  H51  1  0.362800  0.245900  0.541500  1.0  0.1047
  H  H52  1  0.259300  0.351300  0.543500  1.0  0.0679
  H  H53  1  0.572800  0.063100  0.576700  1.0  0.0604
  H  H54  1  0.464000  0.165000  0.585800  1.0  0.1059
  H  H55  1  0.630700  0.223800  0.429600  1.0  0.0994
  H  H56  1  0.735000  0.120400  0.422200  1.0  0.0683
  H  H57  1  0.064100  0.505400  0.572000  1.0  0.0622
  H  H58  1  0.956600  0.512500  0.674500  1.0  0.1012
  H  H59  1  0.137200  0.458500  0.754100  1.0  0.1044
  H  H60  1  0.240700  0.456500  0.648700  1.0  0.0672
  H  H61  1  0.927200  0.423300  0.936900  1.0  0.0605
  H  H62  1  0.036000  0.414200  0.835000  1.0  0.1046
  H  H63  1  0.869300  0.570400  0.776200  1.0  0.0985
  H  H64  1  0.765000  0.577800  0.879600  1.0  0.0694
  H  H65  1  0.641500  0.994600  0.928000  1.0  0.0627
  H  H66  1  0.643600  0.987500  0.825500  1.0  0.0999
  H  H67  1  0.849800  0.041500  0.745900  1.0  0.1045
  H  H68  1  0.845900  0.043500  0.851300  1.0  0.0667
  H  H69  1  0.787400  0.076700  0.563100  1.0  0.0591
  H  H70  1  0.785200  0.085800  0.665000  1.0  0.1045
  H  H71  1  0.715900  0.929600  0.723800  1.0  0.0985
  H  H72  1  0.722400  0.922200  0.620400  1.0  0.0684
  H  H73  1  0.141500  0.928000  0.994600  1.0  0.0628
  H  H74  1  0.143600  0.825500  0.987500  1.0  0.1003
  H  H75  1  0.349800  0.745900  0.041500  1.0  0.1039
  H  H76  1  0.345900  0.851300  0.043500  1.0  0.0664
  H  H77  1  0.287400  0.563100  0.076700  1.0  0.0607
  H  H78  1  0.285200  0.665000  0.085800  1.0  0.1054
  H  H79  1  0.215900  0.723800  0.929600  1.0  0.0976
  H  H80  1  0.222400  0.620400  0.922200  1.0  0.0697
  H  H81  1  0.564100  0.572000  0.505400  1.0  0.0621
  H  H82  1  0.456600  0.674500  0.512500  1.0  0.1011
  H  H83  1  0.637200  0.754100  0.458500  1.0  0.1043
  H  H84  1  0.740700  0.648700  0.456500  1.0  0.0661
  H  H85  1  0.427200  0.936900  0.423300  1.0  0.0602
  H  H86  1  0.536000  0.835000  0.414200  1.0  0.1055
  H  H87  1  0.369300  0.776200  0.570400  1.0  0.0991
  H  H88  1  0.265000  0.879600  0.577800  1.0  0.0696
  H  H89  1  0.935900  0.494600  0.428000  1.0  0.0615
  H  H90  1  0.043400  0.487500  0.325500  1.0  0.1007
  H  H91  1  0.862800  0.541500  0.245900  1.0  0.1048
  H  H92  1  0.759300  0.543500  0.351300  1.0  0.068
  H  H93  1  0.072800  0.576700  0.063100  1.0  0.0602
  H  H94  1  0.964000  0.585800  0.165000  1.0  0.1056
  H  H95  1  0.130700  0.429600  0.223800  1.0  0.099
  H  H96  1  0.235000  0.422200  0.120400  1.0  0.0688
  H  H97  1  0.358500  0.005400  0.072000  1.0  0.0626
  H  H98  1  0.356400  0.012500  0.174500  1.0  0.0996
  H  H99  1  0.150200  0.958500  0.254100  1.0  0.1051
  H  H100  1  0.154100  0.956500  0.148700  1.0  0.0668
  H  H101  1  0.212600  0.923300  0.436900  1.0  0.059
  H  H102  1  0.214800  0.914200  0.335000  1.0  0.1046
  H  H103  1  0.284100  0.070400  0.276200  1.0  0.0985
  H  H104  1  0.277600  0.077800  0.379600  1.0  0.0689
  H  H105  1  0.430500  0.505400  0.928000  1.0  0.0614
  H  H106  1  0.530900  0.512500  0.825500  1.0  0.1005
  H  H107  1  0.404300  0.458500  0.745900  1.0  0.1048
  H  H108  1  0.302800  0.456500  0.851300  1.0  0.0678
  H  H109  1  0.649500  0.423300  0.563100  1.0  0.0606
  H  H110  1  0.549800  0.414200  0.665000  1.0  0.105
  H  H111  1  0.560300  0.570400  0.723800  1.0  0.0987
  H  H112  1  0.657200  0.577800  0.620400  1.0  0.0686
  H  H113  1  0.363900  0.994600  0.572000  1.0  0.0626
  H  H114  1  0.368900  0.987500  0.674500  1.0  0.0998
  H  H115  1  0.108700  0.041500  0.754100  1.0  0.1048
  H  H116  1  0.110600  0.043500  0.648700  1.0  0.067
  H  H117  1  0.135900  0.076700  0.936900  1.0  0.0591
  H  H118  1  0.129000  0.085800  0.835000  1.0  0.1048
  H  H119  1  0.354500  0.929600  0.776200  1.0  0.0985
  H  H120  1  0.355400  0.922200  0.879600  1.0  0.0683
  H  H121  1  0.136100  0.428000  0.005400  1.0  0.0631
  H  H122  1  0.131100  0.325500  0.012500  1.0  0.1013
  H  H123  1  0.391300  0.245900  0.958500  1.0  0.1046
  H  H124  1  0.389400  0.351300  0.956500  1.0  0.0661
  H  H125  1  0.364100  0.063100  0.923300  1.0  0.0603
  H  H126  1  0.371000  0.165000  0.914200  1.0  0.1055
  H  H127  1  0.145500  0.223800  0.070400  1.0  0.0992
  H  H128  1  0.144600  0.120400  0.077800  1.0  0.0689
  H  H129  1  0.069500  0.072000  0.494600  1.0  0.0618
  H  H130  1  0.969100  0.174500  0.487500  1.0  0.1005
  H  H131  1  0.095700  0.254100  0.541500  1.0  0.1036
  H  H132  1  0.197200  0.148700  0.543500  1.0  0.0665
  H  H133  1  0.850500  0.436900  0.576700  1.0  0.0603
  H  H134  1  0.950200  0.335000  0.585800  1.0  0.1052
  H  H135  1  0.939700  0.276200  0.429600  1.0  0.0974
  H  H136  1  0.842800  0.379600  0.422200  1.0  0.0699
  C  C137  1  0.575890  0.502830  0.108990  1.0  0.1313
  C  C138  1  0.514670  0.499360  0.170500  1.0  -0.2259
  C  C139  1  0.520690  0.513380  0.225840  1.0  0.0754
  C  C140  1  0.590100  0.530900  0.217700  1.0  -0.212
  C  C141  1  0.650630  0.532160  0.154180  1.0  0.1165
  C  C142  1  0.368810  0.546770  0.404010  1.0  0.1415
  C  C143  1  0.428510  0.552520  0.342860  1.0  -0.2315
  C  C144  1  0.456510  0.509070  0.293110  1.0  0.1078
  C  C145  1  0.422470  0.459950  0.308310  1.0  -0.2135
  C  C146  1  0.363810  0.456050  0.370330  1.0  0.1333
  C  C147  1  0.687710  0.997170  0.391010  1.0  0.1308
  C  C148  1  0.684530  0.000640  0.329500  1.0  -0.2235
  C  C149  1  0.759910  0.986620  0.274160  1.0  0.0763
  C  C150  1  0.838700  0.969100  0.282300  1.0  -0.2103
  C  C151  1  0.836970  0.967840  0.345820  1.0  0.1216
  C  C152  1  0.819590  0.953230  0.095990  1.0  0.1448
  C  C153  1  0.823890  0.947480  0.157140  1.0  -0.2308
  C  C154  1  0.758690  0.990930  0.206890  1.0  0.1079
  C  C155  1  0.690730  0.040050  0.191690  1.0  -0.2125
  C  C156  1  0.690190  0.043950  0.129670  1.0  0.136
  C  C157  1  0.812290  0.608990  0.002830  1.0  0.1328
  C  C158  1  0.815470  0.670500  0.999360  1.0  -0.2228
  C  C159  1  0.740090  0.725840  0.013380  1.0  0.0757
  C  C160  1  0.661300  0.717700  0.030900  1.0  -0.212
  C  C161  1  0.663030  0.654180  0.032160  1.0  0.1177
  C  C162  1  0.680410  0.904010  0.046770  1.0  0.1453
  C  C163  1  0.676110  0.842860  0.052520  1.0  -0.2306
  C  C164  1  0.741310  0.793110  0.009070  1.0  0.1076
  C  C165  1  0.809270  0.808310  0.959950  1.0  -0.2108
  C  C166  1  0.809810  0.870330  0.956050  1.0  0.1332
  C  C167  1  0.924110  0.891010  0.497170  1.0  0.1299
  C  C168  1  0.985330  0.829500  0.500640  1.0  -0.2226
  C  C169  1  0.979310  0.774160  0.486620  1.0  0.0762
  C  C170  1  0.909900  0.782300  0.469100  1.0  -0.2118
  C  C171  1  0.849370  0.845820  0.467840  1.0  0.1196
  C  C172  1  0.131190  0.595990  0.453230  1.0  0.144
  C  C173  1  0.071490  0.657140  0.447480  1.0  -0.2303
  C  C174  1  0.043490  0.706890  0.490930  1.0  0.1083
  C  C175  1  0.077530  0.691690  0.540050  1.0  -0.2147
  C  C176  1  0.136190  0.629670  0.543950  1.0  0.1332
  C  C177  1  0.815120  0.108990  0.997170  1.0  0.1309
  C  C178  1  0.814830  0.170500  0.000640  1.0  -0.2223
  C  C179  1  0.753470  0.225840  0.986620  1.0  0.076
  C  C180  1  0.692200  0.217700  0.969100  1.0  -0.2114
  C  C181  1  0.695190  0.154180  0.967840  1.0  0.1199
  C  C182  1  0.727180  0.404010  0.953230  1.0  0.1434
  C  C183  1  0.728630  0.342860  0.947480  1.0  -0.2302
  C  C184  1  0.750380  0.293110  0.990930  1.0  0.1083
  C  C185  1  0.769220  0.308310  0.040050  1.0  -0.2148
  C  C186  1  0.765860  0.370330  0.043950  1.0  0.1324
  C  C187  1  0.421280  0.391010  0.502830  1.0  0.1318
  C  C188  1  0.485970  0.329500  0.499360  1.0  -0.2231
  C  C189  1  0.465930  0.274160  0.513380  1.0  0.076
  C  C190  1  0.379000  0.282300  0.530900  1.0  -0.212
  C  C191  1  0.317210  0.345820  0.532160  1.0  0.1172
  C  C192  1  0.584420  0.095990  0.546770  1.0  0.1467
  C  C193  1  0.518970  0.157140  0.552520  1.0  -0.2307
  C  C194  1  0.534420  0.206890  0.509070  1.0  0.1075
  C  C195  1  0.617580  0.191690  0.459950  1.0  -0.2103
  C  C196  1  0.680140  0.129670  0.456050  1.0  0.1342
  C  C197  1  0.078720  0.497170  0.608990  1.0  0.1315
  C  C198  1  0.014030  0.500640  0.670500  1.0  -0.2258
  C  C199  1  0.034070  0.486620  0.725840  1.0  0.0753
  C  C200  1  0.121000  0.469100  0.717700  1.0  -0.2114
  C  C201  1  0.182790  0.467840  0.654180  1.0  0.1166
  C  C202  1  0.915580  0.453230  0.904010  1.0  0.1416
  C  C203  1  0.981030  0.447480  0.842860  1.0  -0.2319
  C  C204  1  0.965580  0.490930  0.793110  1.0  0.1078
  C  C205  1  0.882420  0.540050  0.808310  1.0  -0.2132
  C  C206  1  0.819860  0.543950  0.870330  1.0  0.1338
  C  C207  1  0.684880  0.002830  0.891010  1.0  0.1309
  C  C208  1  0.685170  0.999360  0.829500  1.0  -0.2236
  C  C209  1  0.746530  0.013380  0.774160  1.0  0.0763
  C  C210  1  0.807800  0.030900  0.782300  1.0  -0.2109
  C  C211  1  0.804810  0.032160  0.845820  1.0  0.1213
  C  C212  1  0.772820  0.046770  0.595990  1.0  0.1449
  C  C213  1  0.771370  0.052520  0.657140  1.0  -0.2307
  C  C214  1  0.749620  0.009070  0.706890  1.0  0.1079
  C  C215  1  0.730780  0.959950  0.691690  1.0  -0.2122
  C  C216  1  0.734140  0.956050  0.629670  1.0  0.1357
  C  C217  1  0.184880  0.891010  0.002830  1.0  0.1293
  C  C218  1  0.185170  0.829500  0.999360  1.0  -0.2231
  C  C219  1  0.246530  0.774160  0.013380  1.0  0.0757
  C  C220  1  0.307800  0.782300  0.030900  1.0  -0.2116
  C  C221  1  0.304810  0.845820  0.032160  1.0  0.1195
  C  C222  1  0.272820  0.595990  0.046770  1.0  0.1432
  C  C223  1  0.271370  0.657140  0.052520  1.0  -0.2294
  C  C224  1  0.249620  0.706890  0.009070  1.0  0.1078
  C  C225  1  0.230780  0.691690  0.959950  1.0  -0.215
  C  C226  1  0.234140  0.629670  0.956050  1.0  0.1334
  C  C227  1  0.578720  0.608990  0.497170  1.0  0.1318
  C  C228  1  0.514030  0.670500  0.500640  1.0  -0.2264
  C  C229  1  0.534070  0.725840  0.486620  1.0  0.0759
  C  C230  1  0.621000  0.717700  0.469100  1.0  -0.2112
  C  C231  1  0.682790  0.654180  0.467840  1.0  0.1194
  C  C232  1  0.415580  0.904010  0.453230  1.0  0.1455
  C  C233  1  0.481030  0.842860  0.447480  1.0  -0.2306
  C  C234  1  0.465580  0.793110  0.490930  1.0  0.108
  C  C235  1  0.382420  0.808310  0.540050  1.0  -0.2117
  C  C236  1  0.319860  0.870330  0.543950  1.0  0.1338
  C  C237  1  0.921280  0.502830  0.391010  1.0  0.1318
  C  C238  1  0.985970  0.499360  0.329500  1.0  -0.2245
  C  C239  1  0.965930  0.513380  0.274160  1.0  0.0762
  C  C240  1  0.879000  0.530900  0.282300  1.0  -0.2112
  C  C241  1  0.817210  0.532160  0.345820  1.0  0.1169
  C  C242  1  0.084420  0.546770  0.095990  1.0  0.1411
  C  C243  1  0.018970  0.552520  0.157140  1.0  -0.2308
  C  C244  1  0.034420  0.509070  0.206890  1.0  0.1073
  C  C245  1  0.117580  0.459950  0.191690  1.0  -0.2137
  C  C246  1  0.180140  0.456050  0.129670  1.0  0.1321
  C  C247  1  0.315120  0.997170  0.108990  1.0  0.1315
  C  C248  1  0.314830  0.000640  0.170500  1.0  -0.2234
  C  C249  1  0.253470  0.986620  0.225840  1.0  0.0757
  C  C250  1  0.192200  0.969100  0.217700  1.0  -0.212
  C  C251  1  0.195190  0.967840  0.154180  1.0  0.1219
  C  C252  1  0.227180  0.953230  0.404010  1.0  0.1468
  C  C253  1  0.228630  0.947480  0.342860  1.0  -0.2294
  C  C254  1  0.250380  0.990930  0.293110  1.0  0.1079
  C  C255  1  0.269220  0.040050  0.308310  1.0  -0.212
  C  C256  1  0.265860  0.043950  0.370330  1.0  0.1356
  C  C257  1  0.424110  0.497170  0.891010  1.0  0.1318
  C  C258  1  0.485330  0.500640  0.829500  1.0  -0.2247
  C  C259  1  0.479310  0.486620  0.774160  1.0  0.0761
  C  C260  1  0.409900  0.469100  0.782300  1.0  -0.2101
  C  C261  1  0.349370  0.467840  0.845820  1.0  0.1172
  C  C262  1  0.631190  0.453230  0.595990  1.0  0.1408
  C  C263  1  0.571490  0.447480  0.657140  1.0  -0.2294
  C  C264  1  0.543490  0.490930  0.706890  1.0  0.1072
  C  C265  1  0.577530  0.540050  0.691690  1.0  -0.213
  C  C266  1  0.636190  0.543950  0.629670  1.0  0.1325
  C  C267  1  0.312290  0.002830  0.608990  1.0  0.1318
  C  C268  1  0.315470  0.999360  0.670500  1.0  -0.2232
  C  C269  1  0.240090  0.013380  0.725840  1.0  0.0757
  C  C270  1  0.161300  0.030900  0.717700  1.0  -0.2127
  C  C271  1  0.163030  0.032160  0.654180  1.0  0.1218
  C  C272  1  0.180410  0.046770  0.904010  1.0  0.1453
  C  C273  1  0.176110  0.052520  0.842860  1.0  -0.2308
  C  C274  1  0.241310  0.009070  0.793110  1.0  0.108
  C  C275  1  0.309270  0.959950  0.808310  1.0  -0.2131
  C  C276  1  0.309810  0.956050  0.870330  1.0  0.1357
  C  C277  1  0.187710  0.391010  0.997170  1.0  0.1306
  C  C278  1  0.184530  0.329500  0.000640  1.0  -0.2265
  C  C279  1  0.259910  0.274160  0.986620  1.0  0.0761
  C  C280  1  0.338700  0.282300  0.969100  1.0  -0.2113
  C  C281  1  0.336970  0.345820  0.967840  1.0  0.1188
  C  C282  1  0.319590  0.095990  0.953230  1.0  0.1468
  C  C283  1  0.323890  0.157140  0.947480  1.0  -0.2302
  C  C284  1  0.258690  0.206890  0.990930  1.0  0.1079
  C  C285  1  0.190730  0.191690  0.040050  1.0  -0.2119
  C  C286  1  0.190190  0.129670  0.043950  1.0  0.1343
  C  C287  1  0.075890  0.108990  0.502830  1.0  0.13
  C  C288  1  0.014670  0.170500  0.499360  1.0  -0.2231
  C  C289  1  0.020690  0.225840  0.513380  1.0  0.0754
  C  C290  1  0.090100  0.217700  0.530900  1.0  -0.2111
  C  C291  1  0.150630  0.154180  0.532160  1.0  0.1203
  C  C292  1  0.868810  0.404010  0.546770  1.0  0.1418
  C  C293  1  0.928510  0.342860  0.552520  1.0  -0.2296
  C  C294  1  0.956510  0.293110  0.509070  1.0  0.108
  C  C295  1  0.922470  0.308310  0.459950  1.0  -0.2148
  C  C296  1  0.863810  0.370330  0.456050  1.0  0.1328
  N  N297  1  0.644240  0.517640  0.100480  1.0  -0.3348
  N  N298  1  0.335400  0.499230  0.418370  1.0  -0.3342
  N  N299  1  0.762360  0.982360  0.399520  1.0  -0.3323
  N  N300  1  0.753000  0.000770  0.081630  1.0  -0.3361
  N  N301  1  0.737640  0.600480  0.017640  1.0  -0.3328
  N  N302  1  0.747000  0.918370  0.999230  1.0  -0.3337
  N  N303  1  0.855760  0.899520  0.482360  1.0  -0.3338
  N  N304  1  0.164600  0.581630  0.500770  1.0  -0.3339
  N  N305  1  0.755280  0.100480  0.982360  1.0  -0.3335
  N  N306  1  0.746230  0.418370  0.000770  1.0  -0.3339
  N  N307  1  0.338120  0.399520  0.517640  1.0  -0.3331
  N  N308  1  0.665370  0.081630  0.499230  1.0  -0.3338
  N  N309  1  0.161880  0.482360  0.600480  1.0  -0.3356
  N  N310  1  0.834630  0.500770  0.918370  1.0  -0.3341
  N  N311  1  0.744720  0.017640  0.899520  1.0  -0.3324
  N  N312  1  0.753770  0.999230  0.581630  1.0  -0.3362
  N  N313  1  0.244720  0.899520  0.017640  1.0  -0.3337
  N  N314  1  0.253770  0.581630  0.999230  1.0  -0.3342
  N  N315  1  0.661880  0.600480  0.482360  1.0  -0.3328
  N  N316  1  0.334630  0.918370  0.500770  1.0  -0.3337
  N  N317  1  0.838120  0.517640  0.399520  1.0  -0.3343
  N  N318  1  0.165370  0.499230  0.081630  1.0  -0.3345
  N  N319  1  0.255280  0.982360  0.100480  1.0  -0.3333
  N  N320  1  0.246230  0.000770  0.418370  1.0  -0.3343
  N  N321  1  0.355760  0.482360  0.899520  1.0  -0.3345
  N  N322  1  0.664600  0.500770  0.581630  1.0  -0.3344
  N  N323  1  0.237640  0.017640  0.600480  1.0  -0.3329
  N  N324  1  0.247000  0.999230  0.918370  1.0  -0.3341
  N  N325  1  0.262360  0.399520  0.982360  1.0  -0.3333
  N  N326  1  0.253000  0.081630  0.000770  1.0  -0.334
  N  N327  1  0.144240  0.100480  0.517640  1.0  -0.3331
  N  N328  1  0.835400  0.418370  0.499230  1.0  -0.3342
