# generated using pymatgen
data_LiH4C5NO
_symmetry_space_group_name_H-M   'P 1'
_cell_length_a   10.99090000
_cell_length_b   10.99090000
_cell_length_c   10.99100000
_cell_angle_alpha   90.00000000
_cell_angle_beta   90.00000000
_cell_angle_gamma   90.00000000
_symmetry_Int_Tables_number   1
_chemical_formula_structural   LiH4C5NO
_chemical_formula_sum   'Li8 H32 C40 N8 O8'
_cell_volume   1327.71151196
_cell_formula_units_Z   8
loop_
 _symmetry_equiv_pos_site_id
 _symmetry_equiv_pos_as_xyz
  1  'x, y, z'
loop_
 _atom_site_type_symbol
 _atom_site_label
 _atom_site_symmetry_multiplicity
 _atom_site_fract_x
 _atom_site_fract_y
 _atom_site_fract_z
 _atom_site_occupancy
 _atom_site_charge
  Li  Li1  1  0.918400  0.589200  0.836400  1.0  0.8548
  Li  Li2  1  0.081600  0.410800  0.836400  1.0  0.8537
  Li  Li3  1  0.589200  0.081600  0.163600  1.0  0.8534
  Li  Li4  1  0.410800  0.918400  0.163600  1.0  0.8537
  Li  Li5  1  0.081600  0.589200  0.663600  1.0  0.8543
  Li  Li6  1  0.918400  0.410800  0.663600  1.0  0.8538
  Li  Li7  1  0.410800  0.081600  0.336400  1.0  0.8546
  Li  Li8  1  0.589200  0.918400  0.336400  1.0  0.8537
  H  H9  1  0.206600  0.543200  0.040300  1.0  0.1393
  H  H10  1  0.132300  0.818700  0.826600  1.0  0.1328
  H  H11  1  0.320900  0.670400  0.149700  1.0  0.0492
  H  H12  1  0.249500  0.935500  0.945000  1.0  0.0458
  H  H13  1  0.793400  0.456800  0.040300  1.0  0.1392
  H  H14  1  0.867700  0.181300  0.826600  1.0  0.1327
  H  H15  1  0.679100  0.329600  0.149700  1.0  0.0492
  H  H16  1  0.750500  0.064500  0.945000  1.0  0.0446
  H  H17  1  0.543200  0.793400  0.959700  1.0  0.1428
  H  H18  1  0.818700  0.867700  0.173400  1.0  0.133
  H  H19  1  0.670400  0.679100  0.850300  1.0  0.0495
  H  H20  1  0.935500  0.750500  0.055000  1.0  0.0477
  H  H21  1  0.456800  0.206600  0.959700  1.0  0.1415
  H  H22  1  0.181300  0.132300  0.173400  1.0  0.1335
  H  H23  1  0.329600  0.320900  0.850300  1.0  0.0497
  H  H24  1  0.064500  0.249500  0.055000  1.0  0.0469
  H  H25  1  0.793400  0.543200  0.459700  1.0  0.1399
  H  H26  1  0.867700  0.818700  0.673400  1.0  0.1331
  H  H27  1  0.679100  0.670400  0.350300  1.0  0.0494
  H  H28  1  0.750500  0.935500  0.555000  1.0  0.046
  H  H29  1  0.206600  0.456800  0.459700  1.0  0.1395
  H  H30  1  0.132300  0.181300  0.673400  1.0  0.1334
  H  H31  1  0.320900  0.329600  0.350300  1.0  0.05
  H  H32  1  0.249500  0.064500  0.555000  1.0  0.0445
  H  H33  1  0.456800  0.793400  0.540300  1.0  0.1411
  H  H34  1  0.181300  0.867700  0.326600  1.0  0.1326
  H  H35  1  0.329600  0.679100  0.649700  1.0  0.0494
  H  H36  1  0.064500  0.750500  0.445000  1.0  0.0478
  H  H37  1  0.543200  0.206600  0.540300  1.0  0.1421
  H  H38  1  0.818700  0.132300  0.326600  1.0  0.1326
  H  H39  1  0.670400  0.320900  0.649700  1.0  0.0489
  H  H40  1  0.935500  0.249500  0.445000  1.0  0.0469
  C  C41  1  0.215500  0.623400  0.015000  1.0  -0.382
  C  C42  1  0.172900  0.783300  0.891800  1.0  -0.3985
  C  C43  1  0.282200  0.702500  0.081700  1.0  0.2486
  C  C44  1  0.242300  0.853800  0.965900  1.0  0.2666
  C  C45  1  0.162100  0.662000  0.911600  1.0  0.5515
  C  C46  1  0.784500  0.376600  0.015000  1.0  -0.3822
  C  C47  1  0.827100  0.216700  0.891800  1.0  -0.392
  C  C48  1  0.717800  0.297500  0.081700  1.0  0.2472
  C  C49  1  0.757700  0.146200  0.965900  1.0  0.2678
  C  C50  1  0.837900  0.338000  0.911600  1.0  0.5513
  C  C51  1  0.623400  0.784500  0.985000  1.0  -0.3834
  C  C52  1  0.783300  0.827100  0.108200  1.0  -0.391
  C  C53  1  0.702500  0.717800  0.918300  1.0  0.2478
  C  C54  1  0.853800  0.757700  0.034100  1.0  0.2681
  C  C55  1  0.662000  0.837900  0.088400  1.0  0.5538
  C  C56  1  0.376600  0.215500  0.985000  1.0  -0.3816
  C  C57  1  0.216700  0.172900  0.108200  1.0  -0.388
  C  C58  1  0.297500  0.282200  0.918300  1.0  0.2467
  C  C59  1  0.146200  0.242300  0.034100  1.0  0.2678
  C  C60  1  0.338000  0.162100  0.088400  1.0  0.5552
  C  C61  1  0.784500  0.623400  0.485000  1.0  -0.3822
  C  C62  1  0.827100  0.783300  0.608200  1.0  -0.3895
  C  C63  1  0.717800  0.702500  0.418300  1.0  0.2469
  C  C64  1  0.757700  0.853800  0.534100  1.0  0.2668
  C  C65  1  0.837900  0.662000  0.588400  1.0  0.5523
  C  C66  1  0.215500  0.376600  0.485000  1.0  -0.3824
  C  C67  1  0.172900  0.216700  0.608200  1.0  -0.3928
  C  C68  1  0.282200  0.297500  0.418300  1.0  0.247
  C  C69  1  0.242300  0.146200  0.534100  1.0  0.2686
  C  C70  1  0.162100  0.338000  0.588400  1.0  0.5524
  C  C71  1  0.376600  0.784500  0.515000  1.0  -0.3813
  C  C72  1  0.216700  0.827100  0.391800  1.0  -0.3936
  C  C73  1  0.297500  0.717800  0.581700  1.0  0.2488
  C  C74  1  0.146200  0.757700  0.465900  1.0  0.2675
  C  C75  1  0.338000  0.837900  0.411600  1.0  0.5548
  C  C76  1  0.623400  0.215500  0.515000  1.0  -0.3825
  C  C77  1  0.783300  0.172900  0.391800  1.0  -0.3949
  C  C78  1  0.702500  0.282200  0.581700  1.0  0.2487
  C  C79  1  0.853800  0.242300  0.465900  1.0  0.2682
  C  C80  1  0.662000  0.162100  0.411600  1.0  0.5528
  N  N81  1  0.298800  0.819200  0.061600  1.0  -0.5871
  N  N82  1  0.701200  0.180800  0.061600  1.0  -0.5789
  N  N83  1  0.819200  0.701200  0.938400  1.0  -0.5926
  N  N84  1  0.180800  0.298800  0.938400  1.0  -0.5836
  N  N85  1  0.701200  0.819200  0.438400  1.0  -0.5836
  N  N86  1  0.298800  0.180800  0.438400  1.0  -0.5922
  N  N87  1  0.180800  0.701200  0.561600  1.0  -0.5788
  N  N88  1  0.819200  0.298800  0.561600  1.0  -0.5878
  O  O89  1  0.096300  0.589400  0.841400  1.0  -0.9315
  O  O90  1  0.903700  0.410600  0.841400  1.0  -0.9309
  O  O91  1  0.589400  0.903700  0.158600  1.0  -0.9314
  O  O92  1  0.410600  0.096300  0.158600  1.0  -0.9317
  O  O93  1  0.903700  0.589400  0.658600  1.0  -0.9313
  O  O94  1  0.096300  0.410600  0.658600  1.0  -0.9319
  O  O95  1  0.410600  0.903700  0.341400  1.0  -0.9311
  O  O96  1  0.589400  0.096300  0.341400  1.0  -0.9315
