# generated using pymatgen
data_ZnH8C11(N3O)2
_symmetry_space_group_name_H-M   'P 1'
_cell_length_a   9.05410000
_cell_length_b   10.44430000
_cell_length_c   18.20060000
_cell_angle_alpha   90.00000000
_cell_angle_beta   90.00000000
_cell_angle_gamma   90.00000000
_symmetry_Int_Tables_number   1
_chemical_formula_structural   ZnH8C11(N3O)2
_chemical_formula_sum   'Zn4 H32 C44 N24 O8'
_cell_volume   1721.11674491
_cell_formula_units_Z   4
loop_
 _symmetry_equiv_pos_site_id
 _symmetry_equiv_pos_as_xyz
  1  'x, y, z'
loop_
 _atom_site_type_symbol
 _atom_site_label
 _atom_site_symmetry_multiplicity
 _atom_site_fract_x
 _atom_site_fract_y
 _atom_site_fract_z
 _atom_site_occupancy
 _atom_site_charge
  Zn  Zn1  1  0.132110  0.018840  0.599690  1.0  0.8313
  Zn  Zn2  1  0.632110  0.981160  0.400310  1.0  0.8313
  Zn  Zn3  1  0.132110  0.481160  0.099690  1.0  0.8315
  Zn  Zn4  1  0.632110  0.518840  0.900310  1.0  0.8311
  H  H5  1  0.327800  0.038400  0.470200  1.0  0.0699
  H  H6  1  0.727400  0.635500  0.607900  1.0  0.0373
  H  H7  1  0.326600  0.696800  0.733600  1.0  0.3489
  H  H8  1  0.239800  0.797400  0.694800  1.0  0.3295
  H  H9  1  0.966600  0.684500  0.710900  1.0  0.1242
  H  H10  1  0.852300  0.538500  0.786400  1.0  0.0718
  H  H11  1  0.603900  0.803600  0.871200  1.0  0.085
  H  H12  1  0.707300  0.957100  0.795900  1.0  0.1192
  H  H13  1  0.827800  0.961600  0.529800  1.0  0.0699
  H  H14  1  0.227400  0.364500  0.392100  1.0  0.0364
  H  H15  1  0.826600  0.303200  0.266400  1.0  0.3486
  H  H16  1  0.739800  0.202600  0.305200  1.0  0.33
  H  H17  1  0.466600  0.315500  0.289100  1.0  0.1244
  H  H18  1  0.352300  0.461500  0.213600  1.0  0.0715
  H  H19  1  0.103900  0.196400  0.128800  1.0  0.0852
  H  H20  1  0.207300  0.042900  0.204100  1.0  0.1192
  H  H21  1  0.327800  0.461600  0.970200  1.0  0.07
  H  H22  1  0.727400  0.864500  0.107900  1.0  0.0369
  H  H23  1  0.326600  0.803200  0.233600  1.0  0.3484
  H  H24  1  0.239800  0.702600  0.194800  1.0  0.33
  H  H25  1  0.966600  0.815500  0.210900  1.0  0.1243
  H  H26  1  0.852300  0.961500  0.286400  1.0  0.072
  H  H27  1  0.603900  0.696400  0.371200  1.0  0.0853
  H  H28  1  0.707300  0.542900  0.295900  1.0  0.1193
  H  H29  1  0.827800  0.538400  0.029800  1.0  0.0695
  H  H30  1  0.227400  0.135500  0.892100  1.0  0.0377
  H  H31  1  0.826600  0.196800  0.766400  1.0  0.348
  H  H32  1  0.739800  0.297400  0.805200  1.0  0.3292
  H  H33  1  0.466600  0.184500  0.789100  1.0  0.1245
  H  H34  1  0.352300  0.038500  0.713600  1.0  0.0722
  H  H35  1  0.103900  0.303600  0.628800  1.0  0.0851
  H  H36  1  0.207300  0.457100  0.704100  1.0  0.1194
  C  C37  1  0.373300  0.975900  0.498800  1.0  0.3205
  C  C38  1  0.646900  0.689400  0.601000  1.0  0.4125
  C  C39  1  0.421500  0.757100  0.646100  1.0  0.4918
  C  C40  1  0.414300  0.841300  0.584310  1.0  -0.1042
  C  C41  1  0.531000  0.838200  0.536350  1.0  0.4077
  C  C42  1  0.920400  0.934300  0.695600  1.0  0.6399
  C  C43  1  0.892800  0.710800  0.743100  1.0  -0.1418
  C  C44  1  0.849500  0.837400  0.745900  1.0  -0.0182
  C  C45  1  0.824200  0.624000  0.788900  1.0  0.1666
  C  C46  1  0.677700  0.779800  0.838500  1.0  0.1612
  C  C47  1  0.739600  0.872700  0.793700  1.0  -0.1277
  C  C48  1  0.873300  0.024100  0.501200  1.0  0.3213
  C  C49  1  0.146900  0.310600  0.399000  1.0  0.4144
  C  C50  1  0.921500  0.242900  0.353900  1.0  0.4913
  C  C51  1  0.914300  0.158700  0.415690  1.0  -0.104
  C  C52  1  0.031000  0.161800  0.463650  1.0  0.4095
  C  C53  1  0.420400  0.065700  0.304400  1.0  0.6401
  C  C54  1  0.392800  0.289200  0.256900  1.0  -0.1421
  C  C55  1  0.349500  0.162600  0.254100  1.0  -0.0172
  C  C56  1  0.324200  0.376000  0.211100  1.0  0.1673
  C  C57  1  0.177700  0.220200  0.161500  1.0  0.1617
  C  C58  1  0.239600  0.127300  0.206300  1.0  -0.1261
  C  C59  1  0.373300  0.524100  0.998800  1.0  0.3208
  C  C60  1  0.646900  0.810600  0.101000  1.0  0.4146
  C  C61  1  0.421500  0.742900  0.146100  1.0  0.4915
  C  C62  1  0.414300  0.658700  0.084310  1.0  -0.1035
  C  C63  1  0.531000  0.661800  0.036350  1.0  0.4085
  C  C64  1  0.920400  0.565700  0.195600  1.0  0.6401
  C  C65  1  0.892800  0.789200  0.243100  1.0  -0.142
  C  C66  1  0.849500  0.662600  0.245900  1.0  -0.0169
  C  C67  1  0.824200  0.876000  0.288900  1.0  0.1672
  C  C68  1  0.677700  0.720200  0.338500  1.0  0.1615
  C  C69  1  0.739600  0.627300  0.293700  1.0  -0.126
  C  C70  1  0.873300  0.475900  0.001200  1.0  0.3205
  C  C71  1  0.146900  0.189400  0.899000  1.0  0.4136
  C  C72  1  0.921500  0.257100  0.853900  1.0  0.491
  C  C73  1  0.914300  0.341300  0.915690  1.0  -0.1041
  C  C74  1  0.031000  0.338200  0.963650  1.0  0.4092
  C  C75  1  0.420400  0.434300  0.804400  1.0  0.6399
  C  C76  1  0.392800  0.210800  0.756900  1.0  -0.142
  C  C77  1  0.349500  0.337400  0.754100  1.0  -0.0185
  C  C78  1  0.324200  0.124000  0.711100  1.0  0.1667
  C  C79  1  0.177700  0.279800  0.661500  1.0  0.1618
  C  C80  1  0.239600  0.372700  0.706300  1.0  -0.1274
  N  N81  1  0.505000  0.926000  0.481010  1.0  -0.4862
  N  N82  1  0.653200  0.763400  0.542240  1.0  -0.5691
  N  N83  1  0.311700  0.930100  0.560100  1.0  -0.431
  N  N84  1  0.541100  0.681400  0.651650  1.0  -0.5794
  N  N85  1  0.316900  0.749500  0.697600  1.0  -0.6638
  N  N86  1  0.720200  0.657100  0.836340  1.0  -0.326
  N  N87  1  0.005000  0.074000  0.518990  1.0  -0.4867
  N  N88  1  0.153200  0.236600  0.457760  1.0  -0.565
  N  N89  1  0.811700  0.069900  0.439900  1.0  -0.4285
  N  N90  1  0.041100  0.318600  0.348350  1.0  -0.5812
  N  N91  1  0.816900  0.250500  0.302400  1.0  -0.664
  N  N92  1  0.220200  0.342900  0.163660  1.0  -0.3273
  N  N93  1  0.505000  0.574000  0.981010  1.0  -0.4863
  N  N94  1  0.653200  0.736600  0.042240  1.0  -0.5719
  N  N95  1  0.311700  0.569900  0.060100  1.0  -0.4311
  N  N96  1  0.541100  0.818600  0.151650  1.0  -0.5801
  N  N97  1  0.316900  0.750500  0.197600  1.0  -0.664
  N  N98  1  0.720200  0.842900  0.336340  1.0  -0.3266
  N  N99  1  0.005000  0.426000  0.018990  1.0  -0.4866
  N  N100  1  0.153200  0.263400  0.957760  1.0  -0.5653
  N  N101  1  0.811700  0.430100  0.939900  1.0  -0.4286
  N  N102  1  0.041100  0.181400  0.848350  1.0  -0.5807
  N  N103  1  0.816900  0.249500  0.802400  1.0  -0.6639
  N  N104  1  0.220200  0.157100  0.663660  1.0  -0.3271
  O  O105  1  0.037900  0.893700  0.662840  1.0  -0.6066
  O  O106  1  0.866700  0.040200  0.687350  1.0  -0.5676
  O  O107  1  0.537900  0.106300  0.337160  1.0  -0.607
  O  O108  1  0.366700  0.959800  0.312650  1.0  -0.5677
  O  O109  1  0.037900  0.606300  0.162840  1.0  -0.6067
  O  O110  1  0.866700  0.459800  0.187350  1.0  -0.5682
  O  O111  1  0.537900  0.393700  0.837160  1.0  -0.6067
  O  O112  1  0.366700  0.540200  0.812650  1.0  -0.5679
