# generated using pymatgen
data_MgH20(C13N5)2
_symmetry_space_group_name_H-M   'P 1'
_cell_length_a   10.32900000
_cell_length_b   16.01210000
_cell_length_c   16.01210000
_cell_angle_alpha   64.49140000
_cell_angle_beta   77.58300000
_cell_angle_gamma   102.41700000
_symmetry_Int_Tables_number   1
_chemical_formula_structural   MgH20(C13N5)2
_chemical_formula_sum   'Mg3 H60 C78 N30'
_cell_volume   2187.39108100
_cell_formula_units_Z   3
loop_
 _symmetry_equiv_pos_site_id
 _symmetry_equiv_pos_as_xyz
  1  'x, y, z'
loop_
 _atom_site_type_symbol
 _atom_site_label
 _atom_site_symmetry_multiplicity
 _atom_site_fract_x
 _atom_site_fract_y
 _atom_site_fract_z
 _atom_site_occupancy
 _atom_site_charge
  Mg  Mg1  1  0.000000  0.500000  0.000000  1.0  1.4135
  Mg  Mg2  1  0.000000  0.000000  0.500000  1.0  1.4135
  Mg  Mg3  1  0.500000  0.500000  0.500000  1.0  1.4135
  H  H4  1  0.118900  0.739400  0.861200  1.0  0.0793
  H  H5  1  0.033100  0.865500  0.810300  1.0  0.087
  H  H6  1  0.797600  0.836300  0.881300  1.0  0.1044
  H  H7  1  0.489300  0.178100  0.229000  1.0  0.1079
  H  H8  1  0.281500  0.053200  0.337200  1.0  0.0553
  H  H9  1  0.110900  0.237800  0.366400  1.0  0.0628
  H  H10  1  0.309800  0.367200  0.253400  1.0  0.0907
  H  H11  1  0.538200  0.600900  0.059300  1.0  0.0973
  H  H12  1  0.546500  0.688900  0.961000  1.0  0.1112
  H  H13  1  0.574400  0.707300  0.045100  1.0  0.1187
  H  H14  1  0.980100  0.861200  0.399400  1.0  0.0784
  H  H15  1  0.843400  0.810300  0.324200  1.0  0.0861
  H  H16  1  0.678900  0.881300  0.282400  1.0  0.1033
  H  H17  1  0.718300  0.229000  0.592900  1.0  0.1083
  H  H18  1  0.618700  0.337200  0.609600  1.0  0.0547
  H  H19  1  0.477300  0.366400  0.395800  1.0  0.0632
  H  H20  1  0.563200  0.253400  0.379400  1.0  0.0918
  H  H21  1  0.597500  0.059300  0.339800  1.0  0.0956
  H  H22  1  0.507500  0.961000  0.350100  1.0  0.1083
  H  H23  1  0.619500  0.045100  0.247600  1.0  0.1149
  H  H24  1  0.379500  0.399400  0.739400  1.0  0.0779
  H  H25  1  0.167600  0.324200  0.865500  1.0  0.0857
  H  H26  1  0.961300  0.282400  0.836300  1.0  0.1031
  H  H27  1  0.311200  0.592900  0.178100  1.0  0.1079
  H  H28  1  0.228300  0.609600  0.053200  1.0  0.054
  H  H29  1  0.873100  0.395800  0.237800  1.0  0.063
  H  H30  1  0.942600  0.379400  0.367200  1.0  0.0903
  H  H31  1  0.937300  0.339800  0.600900  1.0  0.0983
  H  H32  1  0.857600  0.350100  0.688900  1.0  0.1092
  H  H33  1  0.867100  0.247600  0.707300  1.0  0.1208
  H  H34  1  0.881100  0.260600  0.138800  1.0  0.0793
  H  H35  1  0.966900  0.134500  0.189700  1.0  0.0876
  H  H36  1  0.202400  0.163700  0.118700  1.0  0.1036
  H  H37  1  0.510700  0.821900  0.771000  1.0  0.1074
  H  H38  1  0.718500  0.946800  0.662800  1.0  0.0554
  H  H39  1  0.889100  0.762200  0.633600  1.0  0.063
  H  H40  1  0.690200  0.632800  0.746600  1.0  0.0903
  H  H41  1  0.461800  0.399100  0.940700  1.0  0.0984
  H  H42  1  0.453500  0.311100  0.039000  1.0  0.1078
  H  H43  1  0.425600  0.292700  0.954900  1.0  0.1184
  H  H44  1  0.019900  0.138800  0.600600  1.0  0.0786
  H  H45  1  0.156600  0.189700  0.675800  1.0  0.0849
  H  H46  1  0.321100  0.118700  0.717600  1.0  0.1034
  H  H47  1  0.281700  0.771000  0.407100  1.0  0.1079
  H  H48  1  0.381300  0.662800  0.390400  1.0  0.0549
  H  H49  1  0.522700  0.633600  0.604200  1.0  0.0633
  H  H50  1  0.436800  0.746600  0.620600  1.0  0.0904
  H  H51  1  0.402500  0.940700  0.660200  1.0  0.0961
  H  H52  1  0.492500  0.039000  0.649900  1.0  0.1085
  H  H53  1  0.380500  0.954900  0.752400  1.0  0.1147
  H  H54  1  0.620500  0.600600  0.260600  1.0  0.0775
  H  H55  1  0.832400  0.675800  0.134500  1.0  0.0849
  H  H56  1  0.038700  0.717600  0.163700  1.0  0.1035
  H  H57  1  0.688800  0.407100  0.821900  1.0  0.1081
  H  H58  1  0.771700  0.390400  0.946800  1.0  0.0538
  H  H59  1  0.126900  0.604200  0.762200  1.0  0.0631
  H  H60  1  0.057400  0.620600  0.632800  1.0  0.0901
  H  H61  1  0.062700  0.660200  0.399100  1.0  0.0981
  H  H62  1  0.142400  0.649900  0.311100  1.0  0.1098
  H  H63  1  0.132900  0.752400  0.292700  1.0  0.1197
  C  C64  1  0.022600  0.726000  0.888000  1.0  0.1704
  C  C65  1  0.972300  0.802000  0.858400  1.0  -0.1472
  C  C66  1  0.832000  0.784400  0.899600  1.0  -0.0864
  C  C67  1  0.741000  0.689200  0.968800  1.0  0.0803
  C  C68  1  0.797000  0.615200  0.995300  1.0  0.0959
  C  C69  1  0.714200  0.507700  0.066900  1.0  0.2022
  C  C70  1  0.562800  0.369000  0.164300  1.0  0.2792
  C  C71  1  0.427100  0.288100  0.231300  1.0  0.0187
  C  C72  1  0.413800  0.192200  0.256300  1.0  -0.2051
  C  C73  1  0.288300  0.117300  0.322100  1.0  0.1661
  C  C74  1  0.187900  0.225400  0.338400  1.0  0.1653
  C  C75  1  0.307800  0.303200  0.271900  1.0  -0.1362
  C  C76  1  0.586000  0.669900  0.012500  1.0  -0.4105
  C  C77  1  0.910600  0.888000  0.386000  1.0  0.1733
  C  C78  1  0.830700  0.858400  0.339600  1.0  -0.1479
  C  C79  1  0.731600  0.899600  0.316000  1.0  -0.0833
  C  C80  1  0.709800  0.968800  0.342000  1.0  0.0815
  C  C81  1  0.792300  0.995300  0.389500  1.0  0.0939
  C  C82  1  0.781100  0.066900  0.425400  1.0  0.2021
  C  C83  1  0.727100  0.164300  0.466700  1.0  0.2796
  C  C84  1  0.658400  0.231300  0.480600  1.0  0.0194
  C  C85  1  0.670100  0.256300  0.551500  1.0  -0.2023
  C  C86  1  0.610400  0.322100  0.560600  1.0  0.1657
  C  C87  1  0.526300  0.338400  0.436200  1.0  0.1652
  C  C88  1  0.579700  0.271900  0.424900  1.0  -0.1369
  C  C89  1  0.598500  0.012500  0.317600  1.0  -0.4114
  C  C90  1  0.296600  0.386000  0.726000  1.0  0.1713
  C  C91  1  0.170300  0.339600  0.802000  1.0  -0.1438
  C  C92  1  0.047600  0.316000  0.784400  1.0  -0.0833
  C  C93  1  0.051800  0.342000  0.689200  1.0  0.0787
  C  C94  1  0.181800  0.389500  0.615200  1.0  0.0949
  C  C95  1  0.206500  0.425400  0.507700  1.0  0.202
  C  C96  1  0.193800  0.466700  0.369000  1.0  0.2789
  C  C97  1  0.139000  0.480600  0.288100  1.0  0.0187
  C  C98  1  0.221600  0.551500  0.192200  1.0  -0.2067
  C  C99  1  0.171000  0.560600  0.117300  1.0  0.1686
  C  C100  1  0.962500  0.436200  0.225400  1.0  0.1674
  C  C101  1  0.004600  0.424900  0.303200  1.0  -0.1336
  C  C102  1  0.916100  0.317600  0.669900  1.0  -0.407
  C  C103  1  0.977400  0.274000  0.112000  1.0  0.1699
  C  C104  1  0.027700  0.198000  0.141600  1.0  -0.147
  C  C105  1  0.168000  0.215600  0.100400  1.0  -0.0866
  C  C106  1  0.259000  0.310800  0.031200  1.0  0.0804
  C  C107  1  0.203000  0.384800  0.004700  1.0  0.0951
  C  C108  1  0.285800  0.492300  0.933100  1.0  0.2021
  C  C109  1  0.437200  0.631000  0.835700  1.0  0.2792
  C  C110  1  0.572900  0.711900  0.768700  1.0  0.018
  C  C111  1  0.586200  0.807800  0.743700  1.0  -0.2029
  C  C112  1  0.711700  0.882700  0.677900  1.0  0.1647
  C  C113  1  0.812100  0.774600  0.661600  1.0  0.1661
  C  C114  1  0.692200  0.696800  0.728100  1.0  -0.1362
  C  C115  1  0.414000  0.330100  0.987500  1.0  -0.4114
  C  C116  1  0.089400  0.112000  0.614000  1.0  0.175
  C  C117  1  0.169300  0.141600  0.660400  1.0  -0.1493
  C  C118  1  0.268400  0.100400  0.684000  1.0  -0.0823
  C  C119  1  0.290200  0.031200  0.658000  1.0  0.0824
  C  C120  1  0.207700  0.004700  0.610500  1.0  0.0926
  C  C121  1  0.218900  0.933100  0.574600  1.0  0.2016
  C  C122  1  0.272900  0.835700  0.533300  1.0  0.2789
  C  C123  1  0.341600  0.768700  0.519400  1.0  0.0191
  C  C124  1  0.329900  0.743700  0.448500  1.0  -0.202
  C  C125  1  0.389600  0.677900  0.439400  1.0  0.1663
  C  C126  1  0.473700  0.661600  0.563800  1.0  0.1661
  C  C127  1  0.420300  0.728100  0.575100  1.0  -0.1374
  C  C128  1  0.401500  0.987500  0.682400  1.0  -0.4122
  C  C129  1  0.703400  0.614000  0.274000  1.0  0.1709
  C  C130  1  0.829700  0.660400  0.198000  1.0  -0.1444
  C  C131  1  0.952400  0.684000  0.215600  1.0  -0.0856
  C  C132  1  0.948200  0.658000  0.310800  1.0  0.0806
  C  C133  1  0.818200  0.610500  0.384800  1.0  0.095
  C  C134  1  0.793500  0.574600  0.492300  1.0  0.2025
  C  C135  1  0.806200  0.533300  0.631000  1.0  0.279
  C  C136  1  0.861000  0.519400  0.711900  1.0  0.0203
  C  C137  1  0.778400  0.448500  0.807800  1.0  -0.2041
  C  C138  1  0.829000  0.439400  0.882700  1.0  0.1675
  C  C139  1  0.037500  0.563800  0.774600  1.0  0.1682
  C  C140  1  0.995400  0.575100  0.696800  1.0  -0.1333
  C  C141  1  0.083900  0.682400  0.330100  1.0  -0.4101
  N  N142  1  0.937140  0.631320  0.955500  1.0  -0.3476
  N  N143  1  0.782220  0.441320  0.080260  1.0  -0.2185
  N  N144  1  0.682580  0.349880  0.142840  1.0  -0.3904
  N  N145  1  0.574970  0.465290  0.119380  1.0  -0.5107
  N  N146  1  0.175320  0.130820  0.365860  1.0  -0.3472
  N  N147  1  0.892640  0.955500  0.413180  1.0  -0.3473
  N  N148  1  0.862480  0.080260  0.478420  1.0  -0.2185
  N  N149  1  0.825420  0.142840  0.507280  1.0  -0.3895
  N  N150  1  0.694350  0.119380  0.415330  1.0  -0.5123
  N  N151  1  0.541180  0.365860  0.503320  1.0  -0.3472
  N  N152  1  0.305820  0.413180  0.631320  1.0  -0.3493
  N  N153  1  0.340900  0.478420  0.441320  1.0  -0.219
  N  N154  1  0.332700  0.507280  0.349880  1.0  -0.3915
  N  N155  1  0.109680  0.415330  0.465290  1.0  -0.5095
  N  N156  1  0.044500  0.503320  0.130820  1.0  -0.3479
  N  N157  1  0.062860  0.368680  0.044500  1.0  -0.3498
  N  N158  1  0.217780  0.558680  0.919740  1.0  -0.2171
  N  N159  1  0.317420  0.650120  0.857160  1.0  -0.3923
  N  N160  1  0.425030  0.534710  0.880620  1.0  -0.5082
  N  N161  1  0.824680  0.869180  0.634140  1.0  -0.3468
  N  N162  1  0.107360  0.044500  0.586820  1.0  -0.3489
  N  N163  1  0.137520  0.919740  0.521580  1.0  -0.2181
  N  N164  1  0.174580  0.857160  0.492720  1.0  -0.3897
  N  N165  1  0.305650  0.880620  0.584670  1.0  -0.508
  N  N166  1  0.458820  0.634140  0.496680  1.0  -0.3468
  N  N167  1  0.694180  0.586820  0.368680  1.0  -0.3511
  N  N168  1  0.659100  0.521580  0.558680  1.0  -0.2178
  N  N169  1  0.667300  0.492720  0.650120  1.0  -0.3905
  N  N170  1  0.890320  0.584670  0.534710  1.0  -0.5072
  N  N171  1  0.955500  0.496680  0.869180  1.0  -0.3483
