# generated using pymatgen
data_Tb2H6C15(NO2)6
_symmetry_space_group_name_H-M   'P 1'
_cell_length_a   13.14100000
_cell_length_b   13.27900000
_cell_length_c   32.18100000
_cell_angle_alpha   90.00000000
_cell_angle_beta   90.00000000
_cell_angle_gamma   90.00000000
_symmetry_Int_Tables_number   1
_chemical_formula_structural   Tb2H6C15(NO2)6
_chemical_formula_sum   'Tb16 H48 C120 N48 O96'
_cell_volume   5615.56322836
_cell_formula_units_Z   8
loop_
 _symmetry_equiv_pos_site_id
 _symmetry_equiv_pos_as_xyz
  1  'x, y, z'
loop_
 _atom_site_type_symbol
 _atom_site_label
 _atom_site_symmetry_multiplicity
 _atom_site_fract_x
 _atom_site_fract_y
 _atom_site_fract_z
 _atom_site_occupancy
 _atom_site_charge
  Tb  Tb1  1  0.966670  0.192670  0.466120  1.0  2.2564
  Tb  Tb2  1  0.048490  0.961890  0.734550  1.0  2.2217
  Tb  Tb3  1  0.033330  0.307330  0.966120  1.0  2.2564
  Tb  Tb4  1  0.951510  0.538110  0.234550  1.0  2.222
  Tb  Tb5  1  0.466670  0.807330  0.033880  1.0  2.2564
  Tb  Tb6  1  0.548490  0.038110  0.765450  1.0  2.2228
  Tb  Tb7  1  0.533330  0.692670  0.533880  1.0  2.2563
  Tb  Tb8  1  0.451510  0.461890  0.265450  1.0  2.2232
  Tb  Tb9  1  0.033330  0.807330  0.533880  1.0  2.2562
  Tb  Tb10  1  0.951510  0.038110  0.265450  1.0  2.2232
  Tb  Tb11  1  0.966670  0.692670  0.033880  1.0  2.2565
  Tb  Tb12  1  0.048490  0.461890  0.765450  1.0  2.2229
  Tb  Tb13  1  0.533330  0.192670  0.966120  1.0  2.2564
  Tb  Tb14  1  0.451510  0.961890  0.234550  1.0  2.2219
  Tb  Tb15  1  0.466670  0.307330  0.466120  1.0  2.2566
  Tb  Tb16  1  0.548490  0.538110  0.734550  1.0  2.2218
  H  H17  1  0.267900  0.333600  0.783700  1.0  0.2928
  H  H18  1  0.172700  0.565200  0.514400  1.0  0.2877
  H  H19  1  0.924100  0.204900  0.609100  1.0  0.2899
  H  H20  1  0.337700  0.556400  0.486000  1.0  0.0859
  H  H21  1  0.434300  0.283400  0.799200  1.0  0.0893
  H  H22  1  0.942700  0.188100  0.682400  1.0  0.0791
  H  H23  1  0.732100  0.166400  0.283700  1.0  0.2913
  H  H24  1  0.827300  0.934800  0.014400  1.0  0.2881
  H  H25  1  0.075900  0.295100  0.109100  1.0  0.2864
  H  H26  1  0.662300  0.943600  0.986000  1.0  0.0856
  H  H27  1  0.565700  0.216600  0.299200  1.0  0.0895
  H  H28  1  0.057300  0.311900  0.182400  1.0  0.0791
  H  H29  1  0.767900  0.666400  0.716300  1.0  0.2911
  H  H30  1  0.672700  0.434800  0.985600  1.0  0.2871
  H  H31  1  0.424100  0.795100  0.890900  1.0  0.2877
  H  H32  1  0.837700  0.443600  0.014000  1.0  0.0861
  H  H33  1  0.934300  0.716600  0.700800  1.0  0.089
  H  H34  1  0.442700  0.811900  0.817600  1.0  0.0795
  H  H35  1  0.232100  0.833600  0.216300  1.0  0.293
  H  H36  1  0.327300  0.065200  0.485600  1.0  0.2877
  H  H37  1  0.575900  0.704900  0.390900  1.0  0.2889
  H  H38  1  0.162300  0.056400  0.514000  1.0  0.0858
  H  H39  1  0.065700  0.783400  0.200800  1.0  0.0892
  H  H40  1  0.557300  0.688100  0.317600  1.0  0.0792
  H  H41  1  0.732100  0.666400  0.216300  1.0  0.2916
  H  H42  1  0.827300  0.434800  0.485600  1.0  0.2877
  H  H43  1  0.075900  0.795100  0.390900  1.0  0.2867
  H  H44  1  0.662300  0.443600  0.514000  1.0  0.0859
  H  H45  1  0.565700  0.716600  0.200800  1.0  0.0892
  H  H46  1  0.057300  0.811900  0.317600  1.0  0.0791
  H  H47  1  0.267900  0.833600  0.716300  1.0  0.2934
  H  H48  1  0.172700  0.065200  0.985600  1.0  0.2874
  H  H49  1  0.924100  0.704900  0.890900  1.0  0.2898
  H  H50  1  0.337700  0.056400  0.014000  1.0  0.0858
  H  H51  1  0.434300  0.783400  0.700800  1.0  0.0891
  H  H52  1  0.942700  0.688100  0.817600  1.0  0.0795
  H  H53  1  0.232100  0.333600  0.283700  1.0  0.2927
  H  H54  1  0.327300  0.565200  0.014400  1.0  0.2878
  H  H55  1  0.575900  0.204900  0.109100  1.0  0.2887
  H  H56  1  0.162300  0.556400  0.986000  1.0  0.0861
  H  H57  1  0.065700  0.283400  0.299200  1.0  0.0893
  H  H58  1  0.557300  0.188100  0.182400  1.0  0.0789
  H  H59  1  0.767900  0.166400  0.783700  1.0  0.2911
  H  H60  1  0.672700  0.934800  0.514400  1.0  0.2874
  H  H61  1  0.424100  0.295100  0.609100  1.0  0.2874
  H  H62  1  0.837700  0.943600  0.486000  1.0  0.0859
  H  H63  1  0.934300  0.216600  0.799200  1.0  0.0895
  H  H64  1  0.442700  0.311900  0.682400  1.0  0.0794
  C  C65  1  0.224100  0.251600  0.472000  1.0  0.7058
  C  C66  1  0.304900  0.017700  0.740200  1.0  0.6816
  C  C67  1  0.237800  0.197200  0.761200  1.0  -0.0471
  C  C68  1  0.306700  0.119700  0.758900  1.0  0.0031
  C  C69  1  0.052500  0.900000  0.635000  1.0  0.7123
  C  C70  1  0.131400  0.211500  0.748000  1.0  0.7576
  C  C71  1  0.049400  0.404900  0.521100  1.0  0.7074
  C  C72  1  0.977600  0.065800  0.602400  1.0  -0.0197
  C  C73  1  0.153100  0.419500  0.501600  1.0  -0.0481
  C  C74  1  0.975200  0.057600  0.556200  1.0  0.7222
  C  C75  1  0.220200  0.358700  0.483000  1.0  0.0328
  C  C76  1  0.291300  0.503600  0.487800  1.0  0.1742
  C  C77  1  0.384600  0.243400  0.787000  1.0  0.1866
  C  C78  1  0.005900  0.002600  0.633600  1.0  0.0182
  C  C79  1  0.957800  0.139400  0.662600  1.0  0.1458
  C  C80  1  0.775900  0.248400  0.972000  1.0  0.705
  C  C81  1  0.695100  0.482300  0.240200  1.0  0.6815
  C  C82  1  0.762200  0.302800  0.261200  1.0  -0.0457
  C  C83  1  0.693300  0.380300  0.258900  1.0  0.0029
  C  C84  1  0.947500  0.600000  0.135000  1.0  0.711
  C  C85  1  0.868600  0.288500  0.248000  1.0  0.757
  C  C86  1  0.950600  0.095100  0.021100  1.0  0.708
  C  C87  1  0.022400  0.434200  0.102400  1.0  -0.0196
  C  C88  1  0.846900  0.080500  0.001600  1.0  -0.0486
  C  C89  1  0.024800  0.442400  0.056200  1.0  0.7225
  C  C90  1  0.779800  0.141300  0.983000  1.0  0.034
  C  C91  1  0.708700  0.996400  0.987800  1.0  0.1737
  C  C92  1  0.615400  0.256600  0.287000  1.0  0.1862
  C  C93  1  0.994100  0.497400  0.133600  1.0  0.0173
  C  C94  1  0.042200  0.360600  0.162600  1.0  0.1467
  C  C95  1  0.724100  0.748400  0.028000  1.0  0.705
  C  C96  1  0.804900  0.982300  0.759800  1.0  0.6827
  C  C97  1  0.737800  0.802800  0.738800  1.0  -0.0474
  C  C98  1  0.806700  0.880300  0.741100  1.0  0.0024
  C  C99  1  0.552500  0.100000  0.865000  1.0  0.7121
  C  C100  1  0.631400  0.788500  0.752000  1.0  0.7566
  C  C101  1  0.549400  0.595100  0.978900  1.0  0.7092
  C  C102  1  0.477600  0.934200  0.897600  1.0  -0.0186
  C  C103  1  0.653100  0.580500  0.998400  1.0  -0.0484
  C  C104  1  0.475200  0.942400  0.943800  1.0  0.7223
  C  C105  1  0.720200  0.641300  0.017000  1.0  0.0337
  C  C106  1  0.791300  0.496400  0.012200  1.0  0.1726
  C  C107  1  0.884600  0.756600  0.713000  1.0  0.1864
  C  C108  1  0.505900  0.997400  0.866400  1.0  0.0166
  C  C109  1  0.457800  0.860600  0.837400  1.0  0.1461
  C  C110  1  0.275900  0.751600  0.528000  1.0  0.7059
  C  C111  1  0.195100  0.517700  0.259800  1.0  0.6824
  C  C112  1  0.262200  0.697200  0.238800  1.0  -0.0457
  C  C113  1  0.193300  0.619700  0.241100  1.0  0.0033
  C  C114  1  0.447500  0.400000  0.365000  1.0  0.7121
  C  C115  1  0.368600  0.711500  0.252000  1.0  0.7563
  C  C116  1  0.450600  0.904900  0.478900  1.0  0.7104
  C  C117  1  0.522400  0.565800  0.397600  1.0  -0.0178
  C  C118  1  0.346900  0.919500  0.498400  1.0  -0.0491
  C  C119  1  0.524800  0.557600  0.443800  1.0  0.7223
  C  C120  1  0.279800  0.858700  0.517000  1.0  0.0333
  C  C121  1  0.208700  0.003600  0.512200  1.0  0.1722
  C  C122  1  0.115400  0.743400  0.213000  1.0  0.1853
  C  C123  1  0.494100  0.502600  0.366400  1.0  0.0172
  C  C124  1  0.542200  0.639400  0.337400  1.0  0.1472
  C  C125  1  0.775900  0.748400  0.528000  1.0  0.7051
  C  C126  1  0.695100  0.982300  0.259800  1.0  0.6824
  C  C127  1  0.762200  0.802800  0.238800  1.0  -0.0456
  C  C128  1  0.693300  0.880300  0.241100  1.0  0.0025
  C  C129  1  0.947500  0.100000  0.365000  1.0  0.711
  C  C130  1  0.868600  0.788500  0.252000  1.0  0.7562
  C  C131  1  0.950600  0.595100  0.478900  1.0  0.7099
  C  C132  1  0.022400  0.934200  0.397600  1.0  -0.0182
  C  C133  1  0.846900  0.580500  0.498400  1.0  -0.049
  C  C134  1  0.024800  0.942400  0.443800  1.0  0.7226
  C  C135  1  0.779800  0.641300  0.517000  1.0  0.0336
  C  C136  1  0.708700  0.496400  0.512200  1.0  0.1724
  C  C137  1  0.615400  0.756600  0.213000  1.0  0.1857
  C  C138  1  0.994100  0.997400  0.366400  1.0  0.0166
  C  C139  1  0.042200  0.860600  0.337400  1.0  0.1467
  C  C140  1  0.224100  0.751600  0.028000  1.0  0.7058
  C  C141  1  0.304900  0.517700  0.759800  1.0  0.6827
  C  C142  1  0.237800  0.697200  0.738800  1.0  -0.0473
  C  C143  1  0.306700  0.619700  0.741100  1.0  0.0029
  C  C144  1  0.052500  0.400000  0.865000  1.0  0.7126
  C  C145  1  0.131400  0.711500  0.752000  1.0  0.7567
  C  C146  1  0.049400  0.904900  0.978900  1.0  0.7095
  C  C147  1  0.977600  0.565800  0.897600  1.0  -0.0184
  C  C148  1  0.153100  0.919500  0.998400  1.0  -0.0486
  C  C149  1  0.975200  0.557600  0.943800  1.0  0.7221
  C  C150  1  0.220200  0.858700  0.017000  1.0  0.0334
  C  C151  1  0.291300  0.003600  0.012200  1.0  0.1725
  C  C152  1  0.384600  0.743400  0.713000  1.0  0.1857
  C  C153  1  0.005900  0.502600  0.866400  1.0  0.0173
  C  C154  1  0.957800  0.639400  0.837400  1.0  0.1462
  C  C155  1  0.275900  0.251600  0.972000  1.0  0.7058
  C  C156  1  0.195100  0.017700  0.240200  1.0  0.6814
  C  C157  1  0.262200  0.197200  0.261200  1.0  -0.0456
  C  C158  1  0.193300  0.119700  0.258900  1.0  0.0035
  C  C159  1  0.447500  0.900000  0.135000  1.0  0.7117
  C  C160  1  0.368600  0.211500  0.248000  1.0  0.7571
  C  C161  1  0.450600  0.404900  0.021100  1.0  0.709
  C  C162  1  0.522400  0.065800  0.102400  1.0  -0.0191
  C  C163  1  0.346900  0.419500  0.001600  1.0  -0.0486
  C  C164  1  0.524800  0.057600  0.056200  1.0  0.7225
  C  C165  1  0.279800  0.358700  0.983000  1.0  0.0328
  C  C166  1  0.208700  0.503600  0.987800  1.0  0.1737
  C  C167  1  0.115400  0.243400  0.287000  1.0  0.1857
  C  C168  1  0.494100  0.002600  0.133600  1.0  0.0181
  C  C169  1  0.542200  0.139400  0.162600  1.0  0.1468
  C  C170  1  0.724100  0.248400  0.472000  1.0  0.7051
  C  C171  1  0.804900  0.482300  0.740200  1.0  0.6817
  C  C172  1  0.737800  0.302800  0.761200  1.0  -0.0475
  C  C173  1  0.806700  0.380300  0.758900  1.0  0.0027
  C  C174  1  0.552500  0.600000  0.635000  1.0  0.712
  C  C175  1  0.631400  0.288500  0.748000  1.0  0.7576
  C  C176  1  0.549400  0.095100  0.521100  1.0  0.7064
  C  C177  1  0.477600  0.434200  0.602400  1.0  -0.0201
  C  C178  1  0.653100  0.080500  0.501600  1.0  -0.0479
  C  C179  1  0.475200  0.442400  0.556200  1.0  0.7222
  C  C180  1  0.720200  0.141300  0.483000  1.0  0.0342
  C  C181  1  0.791300  0.996400  0.487800  1.0  0.174
  C  C182  1  0.884600  0.256600  0.787000  1.0  0.1875
  C  C183  1  0.505900  0.497400  0.633600  1.0  0.0173
  C  C184  1  0.457800  0.360600  0.662600  1.0  0.146
  N  N185  1  0.992800  0.049400  0.671100  1.0  -0.4227
  N  N186  1  0.291300  0.274300  0.778700  1.0  -0.258
  N  N187  1  0.309000  0.411200  0.474400  1.0  -0.4918
  N  N188  1  0.398700  0.148600  0.775700  1.0  -0.4783
  N  N189  1  0.199000  0.511400  0.504100  1.0  -0.2373
  N  N190  1  0.946700  0.151800  0.621300  1.0  -0.2583
  N  N191  1  0.007200  0.450600  0.171100  1.0  -0.4225
  N  N192  1  0.708700  0.225700  0.278700  1.0  -0.2577
  N  N193  1  0.691000  0.088800  0.974400  1.0  -0.4911
  N  N194  1  0.601300  0.351400  0.275700  1.0  -0.4778
  N  N195  1  0.801000  0.988600  0.004100  1.0  -0.2372
  N  N196  1  0.053300  0.348200  0.121300  1.0  -0.2609
  N  N197  1  0.492800  0.950600  0.828900  1.0  -0.4222
  N  N198  1  0.791300  0.725700  0.721300  1.0  -0.2591
  N  N199  1  0.809000  0.588800  0.025600  1.0  -0.4925
  N  N200  1  0.898700  0.851400  0.724300  1.0  -0.4783
  N  N201  1  0.699000  0.488600  0.995900  1.0  -0.2367
  N  N202  1  0.446700  0.848200  0.878700  1.0  -0.2611
  N  N203  1  0.507200  0.549400  0.328900  1.0  -0.4225
  N  N204  1  0.208700  0.774300  0.221300  1.0  -0.2591
  N  N205  1  0.191000  0.911200  0.525600  1.0  -0.4912
  N  N206  1  0.101300  0.648600  0.224300  1.0  -0.4788
  N  N207  1  0.301000  0.011400  0.495900  1.0  -0.2382
  N  N208  1  0.553300  0.651800  0.378700  1.0  -0.2577
  N  N209  1  0.007200  0.950600  0.328900  1.0  -0.4222
  N  N210  1  0.708700  0.725700  0.221300  1.0  -0.2588
  N  N211  1  0.691000  0.588800  0.525600  1.0  -0.4916
  N  N212  1  0.601300  0.851400  0.224300  1.0  -0.4777
  N  N213  1  0.801000  0.488600  0.495900  1.0  -0.2372
  N  N214  1  0.053300  0.848200  0.378700  1.0  -0.2609
  N  N215  1  0.992800  0.549400  0.828900  1.0  -0.4226
  N  N216  1  0.291300  0.774300  0.721300  1.0  -0.259
  N  N217  1  0.309000  0.911200  0.025600  1.0  -0.4921
  N  N218  1  0.398700  0.648600  0.724300  1.0  -0.4785
  N  N219  1  0.199000  0.011400  0.995900  1.0  -0.237
  N  N220  1  0.946700  0.651800  0.878700  1.0  -0.2581
  N  N221  1  0.507200  0.049400  0.171100  1.0  -0.4224
  N  N222  1  0.208700  0.274300  0.278700  1.0  -0.2578
  N  N223  1  0.191000  0.411200  0.974400  1.0  -0.4911
  N  N224  1  0.101300  0.148600  0.275700  1.0  -0.4787
  N  N225  1  0.301000  0.511400  0.004100  1.0  -0.2382
  N  N226  1  0.553300  0.151800  0.121300  1.0  -0.258
  N  N227  1  0.492800  0.450600  0.671100  1.0  -0.4228
  N  N228  1  0.791300  0.225700  0.778700  1.0  -0.2582
  N  N229  1  0.809000  0.088800  0.474400  1.0  -0.4916
  N  N230  1  0.898700  0.351400  0.775700  1.0  -0.4782
  N  N231  1  0.699000  0.988600  0.504100  1.0  -0.2369
  N  N232  1  0.446700  0.348200  0.621300  1.0  -0.261
  O  O233  1  0.976100  0.970600  0.541400  1.0  -0.7021
  O  O234  1  0.997100  0.331800  0.510200  1.0  -0.7132
  O  O235  1  0.974200  0.138200  0.536400  1.0  -0.7299
  O  O236  1  0.101300  0.301500  0.744400  1.0  -0.7285
  O  O237  1  0.224100  0.977700  0.725800  1.0  -0.5978
  O  O238  1  0.064000  0.849500  0.603000  1.0  -0.7634
  O  O239  1  0.081700  0.871900  0.670200  1.0  -0.6775
  O  O240  1  0.145500  0.199100  0.469200  1.0  -0.6899
  O  O241  1  0.312200  0.214900  0.465300  1.0  -0.6172
  O  O242  1  0.390400  0.974300  0.738700  1.0  -0.6732
  O  O243  1  0.074400  0.136700  0.742300  1.0  -0.7541
  O  O244  1  0.025700  0.466400  0.548100  1.0  -0.5398
  O  O245  1  0.023900  0.529400  0.041400  1.0  -0.7011
  O  O246  1  0.002900  0.168200  0.010200  1.0  -0.7145
  O  O247  1  0.025800  0.361800  0.036400  1.0  -0.7309
  O  O248  1  0.898700  0.198500  0.244400  1.0  -0.7296
  O  O249  1  0.775900  0.522300  0.225800  1.0  -0.5994
  O  O250  1  0.936000  0.650500  0.103000  1.0  -0.764
  O  O251  1  0.918300  0.628100  0.170200  1.0  -0.6786
  O  O252  1  0.854500  0.300900  0.969200  1.0  -0.6918
  O  O253  1  0.687800  0.285100  0.965300  1.0  -0.6167
  O  O254  1  0.609600  0.525700  0.238700  1.0  -0.6711
  O  O255  1  0.925600  0.363300  0.242300  1.0  -0.7554
  O  O256  1  0.974300  0.033600  0.048100  1.0  -0.5379
  O  O257  1  0.476100  0.029400  0.958600  1.0  -0.7014
  O  O258  1  0.497100  0.668200  0.989800  1.0  -0.7135
  O  O259  1  0.474200  0.861800  0.963600  1.0  -0.7307
  O  O260  1  0.601300  0.698500  0.755600  1.0  -0.728
  O  O261  1  0.724100  0.022300  0.774200  1.0  -0.5981
  O  O262  1  0.564000  0.150500  0.897000  1.0  -0.765
  O  O263  1  0.581700  0.128100  0.829800  1.0  -0.6774
  O  O264  1  0.645500  0.800900  0.030800  1.0  -0.6907
  O  O265  1  0.812200  0.785100  0.034700  1.0  -0.6168
  O  O266  1  0.890400  0.025700  0.761300  1.0  -0.6726
  O  O267  1  0.574400  0.863300  0.757700  1.0  -0.7545
  O  O268  1  0.525700  0.533600  0.951900  1.0  -0.5371
  O  O269  1  0.523900  0.470600  0.458600  1.0  -0.7016
  O  O270  1  0.502900  0.831800  0.489800  1.0  -0.7132
  O  O271  1  0.525800  0.638200  0.463600  1.0  -0.7301
  O  O272  1  0.398700  0.801500  0.255600  1.0  -0.7275
  O  O273  1  0.275900  0.477700  0.274200  1.0  -0.5989
  O  O274  1  0.436000  0.349500  0.397000  1.0  -0.7638
  O  O275  1  0.418300  0.371900  0.329800  1.0  -0.6762
  O  O276  1  0.354500  0.699100  0.530800  1.0  -0.6927
  O  O277  1  0.187800  0.714900  0.534700  1.0  -0.6165
  O  O278  1  0.109600  0.474300  0.261300  1.0  -0.6707
  O  O279  1  0.425600  0.636700  0.257700  1.0  -0.7548
  O  O280  1  0.474300  0.966400  0.451900  1.0  -0.5356
  O  O281  1  0.023900  0.029400  0.458600  1.0  -0.7009
  O  O282  1  0.002900  0.668200  0.489800  1.0  -0.7142
  O  O283  1  0.025800  0.861800  0.463600  1.0  -0.7308
  O  O284  1  0.898700  0.698500  0.255600  1.0  -0.7279
  O  O285  1  0.775900  0.022300  0.274200  1.0  -0.5988
  O  O286  1  0.936000  0.150500  0.397000  1.0  -0.7649
  O  O287  1  0.918300  0.128100  0.329800  1.0  -0.6779
  O  O288  1  0.854500  0.800900  0.530800  1.0  -0.6926
  O  O289  1  0.687800  0.785100  0.534700  1.0  -0.6171
  O  O290  1  0.609600  0.025700  0.261300  1.0  -0.6709
  O  O291  1  0.925600  0.863300  0.257700  1.0  -0.7553
  O  O292  1  0.974300  0.533600  0.451900  1.0  -0.5353
  O  O293  1  0.976100  0.470600  0.958600  1.0  -0.702
  O  O294  1  0.997100  0.831800  0.989800  1.0  -0.7127
  O  O295  1  0.974200  0.638200  0.963600  1.0  -0.7301
  O  O296  1  0.101300  0.801500  0.755600  1.0  -0.7275
  O  O297  1  0.224100  0.477700  0.774200  1.0  -0.5976
  O  O298  1  0.064000  0.349500  0.897000  1.0  -0.7642
  O  O299  1  0.081700  0.371900  0.829800  1.0  -0.6765
  O  O300  1  0.145500  0.699100  0.030800  1.0  -0.691
  O  O301  1  0.312200  0.714900  0.034700  1.0  -0.6165
  O  O302  1  0.390400  0.474300  0.761300  1.0  -0.6723
  O  O303  1  0.074400  0.636700  0.757700  1.0  -0.7543
  O  O304  1  0.025700  0.966400  0.951900  1.0  -0.5374
  O  O305  1  0.523900  0.970600  0.041400  1.0  -0.7018
  O  O306  1  0.502900  0.331800  0.010200  1.0  -0.7137
  O  O307  1  0.525800  0.138200  0.036400  1.0  -0.7299
  O  O308  1  0.398700  0.301500  0.244400  1.0  -0.7283
  O  O309  1  0.275900  0.977700  0.225800  1.0  -0.5992
  O  O310  1  0.436000  0.849500  0.103000  1.0  -0.7633
  O  O311  1  0.418300  0.871900  0.170200  1.0  -0.6771
  O  O312  1  0.354500  0.199100  0.969200  1.0  -0.6912
  O  O313  1  0.187800  0.214900  0.965300  1.0  -0.617
  O  O314  1  0.109600  0.974300  0.238700  1.0  -0.6717
  O  O315  1  0.425600  0.136700  0.242300  1.0  -0.7547
  O  O316  1  0.474300  0.466400  0.048100  1.0  -0.5383
  O  O317  1  0.476100  0.529400  0.541400  1.0  -0.7015
  O  O318  1  0.497100  0.168200  0.510200  1.0  -0.7139
  O  O319  1  0.474200  0.361800  0.536400  1.0  -0.7309
  O  O320  1  0.601300  0.198500  0.744400  1.0  -0.7298
  O  O321  1  0.724100  0.522300  0.725800  1.0  -0.5984
  O  O322  1  0.564000  0.650500  0.603000  1.0  -0.7635
  O  O323  1  0.581700  0.628100  0.670200  1.0  -0.6785
  O  O324  1  0.645500  0.300900  0.469200  1.0  -0.6904
  O  O325  1  0.812200  0.285100  0.465300  1.0  -0.6169
  O  O326  1  0.890400  0.525700  0.738700  1.0  -0.6729
  O  O327  1  0.574400  0.363300  0.742300  1.0  -0.7546
  O  O328  1  0.525700  0.033600  0.548100  1.0  -0.5392
