# generated using pymatgen
data_Eu2MoH10C20(N3O)4
_symmetry_space_group_name_H-M   'P 1'
_cell_length_a   10.81370000
_cell_length_b   19.04000000
_cell_length_c   19.24600000
_cell_angle_alpha   90.00000000
_cell_angle_beta   98.33800000
_cell_angle_gamma   90.00000000
_symmetry_Int_Tables_number   1
_chemical_formula_structural   Eu2MoH10C20(N3O)4
_chemical_formula_sum   'Eu8 Mo4 H40 C80 N48 O16'
_cell_volume   3920.72825472
_cell_formula_units_Z   4
loop_
 _symmetry_equiv_pos_site_id
 _symmetry_equiv_pos_as_xyz
  1  'x, y, z'
loop_
 _atom_site_type_symbol
 _atom_site_label
 _atom_site_symmetry_multiplicity
 _atom_site_fract_x
 _atom_site_fract_y
 _atom_site_fract_z
 _atom_site_occupancy
 _atom_site_charge
  Eu  Eu1  1  0.585070  0.374690  0.857020  1.0  2.1111
  Eu  Eu2  1  0.049510  0.371020  0.701090  1.0  1.6043
  Eu  Eu3  1  0.414930  0.874690  0.642980  1.0  2.1104
  Eu  Eu4  1  0.950490  0.871020  0.798910  1.0  1.6023
  Eu  Eu5  1  0.414930  0.625310  0.142980  1.0  2.1104
  Eu  Eu6  1  0.950490  0.628980  0.298910  1.0  1.602
  Eu  Eu7  1  0.585070  0.125310  0.357020  1.0  2.1111
  Eu  Eu8  1  0.049510  0.128980  0.201090  1.0  1.6042
  Mo  Mo9  1  0.461280  0.661680  0.854000  1.0  -0.054
  Mo  Mo10  1  0.538720  0.161680  0.646000  1.0  -0.0457
  Mo  Mo11  1  0.538720  0.338320  0.146000  1.0  -0.0481
  Mo  Mo12  1  0.461280  0.838320  0.354000  1.0  -0.0385
  H  H13  1  0.672600  0.503100  0.992200  1.0  0.0895
  H  H14  1  0.015000  0.525100  0.883900  1.0  0.0904
  H  H15  1  0.882000  0.617300  0.076600  1.0  0.1392
  H  H16  1  0.738800  0.596400  0.067300  1.0  0.1362
  H  H17  1  0.784400  0.657800  0.021500  1.0  0.1409
  H  H18  1  0.598700  0.210900  0.950800  1.0  0.1015
  H  H19  1  0.201500  0.188700  0.841000  1.0  0.1034
  H  H20  1  0.440000  0.077800  0.017200  1.0  0.1254
  H  H21  1  0.575400  0.109500  0.016700  1.0  0.1311
  H  H22  1  0.522800  0.052100  0.960600  1.0  0.1318
  H  H23  1  0.327400  0.003100  0.507800  1.0  0.0891
  H  H24  1  0.985000  0.025100  0.616100  1.0  0.0903
  H  H25  1  0.118000  0.117300  0.423400  1.0  0.1394
  H  H26  1  0.261200  0.096400  0.432700  1.0  0.136
  H  H27  1  0.215600  0.157800  0.478500  1.0  0.1406
  H  H28  1  0.401300  0.710900  0.549200  1.0  0.1024
  H  H29  1  0.798500  0.688700  0.659000  1.0  0.1034
  H  H30  1  0.560000  0.577800  0.482800  1.0  0.1253
  H  H31  1  0.424600  0.609500  0.483300  1.0  0.1303
  H  H32  1  0.477200  0.552100  0.539400  1.0  0.1312
  H  H33  1  0.327400  0.496900  0.007800  1.0  0.0894
  H  H34  1  0.985000  0.474900  0.116100  1.0  0.0904
  H  H35  1  0.118000  0.382700  0.923400  1.0  0.1395
  H  H36  1  0.261200  0.403600  0.932700  1.0  0.1357
  H  H37  1  0.215600  0.342200  0.978500  1.0  0.1402
  H  H38  1  0.401300  0.789100  0.049200  1.0  0.1026
  H  H39  1  0.798500  0.811300  0.159000  1.0  0.1038
  H  H40  1  0.560000  0.922200  0.982800  1.0  0.1253
  H  H41  1  0.424600  0.890500  0.983300  1.0  0.1303
  H  H42  1  0.477200  0.947900  0.039400  1.0  0.132
  H  H43  1  0.672600  0.996900  0.492200  1.0  0.0897
  H  H44  1  0.015000  0.974900  0.383900  1.0  0.0901
  H  H45  1  0.882000  0.882700  0.576600  1.0  0.1405
  H  H46  1  0.738800  0.903600  0.567300  1.0  0.1362
  H  H47  1  0.784400  0.842200  0.521500  1.0  0.1401
  H  H48  1  0.598700  0.289100  0.450800  1.0  0.1018
  H  H49  1  0.201500  0.311300  0.341000  1.0  0.1036
  H  H50  1  0.440000  0.422200  0.517200  1.0  0.1252
  H  H51  1  0.575400  0.390500  0.516700  1.0  0.1311
  H  H52  1  0.522800  0.447900  0.460600  1.0  0.1317
  C  C53  1  0.742200  0.507500  0.968400  1.0  0.0948
  C  C54  1  0.827300  0.560700  0.987900  1.0  0.2217
  C  C55  1  0.943500  0.521800  0.906300  1.0  0.1611
  C  C56  1  0.857800  0.469600  0.886200  1.0  0.1405
  C  C57  1  0.806300  0.612600  0.043200  1.0  -0.4289
  C  C58  1  0.871100  0.419500  0.827900  1.0  0.707
  C  C59  1  0.515700  0.207700  0.928400  1.0  0.0974
  C  C60  1  0.447100  0.148400  0.939000  1.0  0.2458
  C  C61  1  0.283400  0.192800  0.864900  1.0  0.1704
  C  C62  1  0.350800  0.253000  0.856400  1.0  0.1295
  C  C63  1  0.501000  0.092100  0.987600  1.0  -0.3775
  C  C64  1  0.297900  0.313600  0.813500  1.0  0.7096
  C  C65  1  0.481200  0.550800  0.868600  1.0  0.1724
  C  C66  1  0.537500  0.364200  0.037700  1.0  0.1799
  C  C67  1  0.559600  0.243400  0.722400  1.0  0.1664
  C  C68  1  0.645900  0.642700  0.828500  1.0  0.1463
  C  C69  1  0.270500  0.627600  0.836800  1.0  0.1959
  C  C70  1  0.431100  0.613900  0.750800  1.0  0.1411
  C  C71  1  0.351100  0.741700  0.894900  1.0  0.1626
  C  C72  1  0.593200  0.737400  0.906300  1.0  0.1644
  C  C73  1  0.257800  0.007500  0.531600  1.0  0.0939
  C  C74  1  0.172700  0.060700  0.512100  1.0  0.2203
  C  C75  1  0.056500  0.021800  0.593700  1.0  0.16
  C  C76  1  0.142200  0.969600  0.613800  1.0  0.143
  C  C77  1  0.193700  0.112600  0.456800  1.0  -0.4284
  C  C78  1  0.128900  0.919500  0.672100  1.0  0.7091
  C  C79  1  0.484300  0.707700  0.571600  1.0  0.0995
  C  C80  1  0.552900  0.648400  0.561000  1.0  0.2475
  C  C81  1  0.716600  0.692800  0.635100  1.0  0.169
  C  C82  1  0.649200  0.753000  0.643600  1.0  0.1307
  C  C83  1  0.499000  0.592100  0.512400  1.0  -0.3772
  C  C84  1  0.702100  0.813600  0.686500  1.0  0.707
  C  C85  1  0.518800  0.050800  0.631400  1.0  0.1748
  C  C86  1  0.462500  0.864200  0.462300  1.0  0.1789
  C  C87  1  0.440400  0.743400  0.777600  1.0  0.167
  C  C88  1  0.354100  0.142700  0.671500  1.0  0.1464
  C  C89  1  0.729500  0.127600  0.663200  1.0  0.1991
  C  C90  1  0.568900  0.113900  0.749200  1.0  0.142
  C  C91  1  0.648900  0.241700  0.605100  1.0  0.162
  C  C92  1  0.406800  0.237400  0.593700  1.0  0.1632
  C  C93  1  0.257800  0.492500  0.031600  1.0  0.0946
  C  C94  1  0.172700  0.439300  0.012100  1.0  0.2201
  C  C95  1  0.056500  0.478200  0.093700  1.0  0.162
  C  C96  1  0.142200  0.530400  0.113800  1.0  0.1431
  C  C97  1  0.193700  0.387400  0.956800  1.0  -0.4283
  C  C98  1  0.128900  0.580500  0.172100  1.0  0.7023
  C  C99  1  0.484300  0.792300  0.071600  1.0  0.1001
  C  C100  1  0.552900  0.851600  0.061000  1.0  0.2474
  C  C101  1  0.716600  0.807200  0.135100  1.0  0.1673
  C  C102  1  0.649200  0.747000  0.143600  1.0  0.1306
  C  C103  1  0.499000  0.907900  0.012400  1.0  -0.3776
  C  C104  1  0.702100  0.686400  0.186500  1.0  0.7078
  C  C105  1  0.518800  0.449200  0.131400  1.0  0.1728
  C  C106  1  0.462500  0.635800  0.962300  1.0  0.1788
  C  C107  1  0.440400  0.756600  0.277600  1.0  0.1675
  C  C108  1  0.354100  0.357300  0.171500  1.0  0.1462
  C  C109  1  0.729500  0.372400  0.163200  1.0  0.1898
  C  C110  1  0.568900  0.386100  0.249200  1.0  0.1412
  C  C111  1  0.648900  0.258300  0.105100  1.0  0.1628
  C  C112  1  0.406800  0.262600  0.093700  1.0  0.1639
  C  C113  1  0.742200  0.992500  0.468400  1.0  0.0942
  C  C114  1  0.827300  0.939300  0.487900  1.0  0.2217
  C  C115  1  0.943500  0.978200  0.406300  1.0  0.1613
  C  C116  1  0.857800  0.030400  0.386200  1.0  0.1419
  C  C117  1  0.806300  0.887400  0.543200  1.0  -0.4282
  C  C118  1  0.871100  0.080500  0.327900  1.0  0.7028
  C  C119  1  0.515700  0.292300  0.428400  1.0  0.0971
  C  C120  1  0.447100  0.351600  0.439000  1.0  0.2458
  C  C121  1  0.283400  0.307200  0.364900  1.0  0.1683
  C  C122  1  0.350800  0.247000  0.356400  1.0  0.129
  C  C123  1  0.501000  0.407900  0.487600  1.0  -0.3778
  C  C124  1  0.297900  0.186400  0.313500  1.0  0.7105
  C  C125  1  0.481200  0.949200  0.368600  1.0  0.1712
  C  C126  1  0.537500  0.135800  0.537700  1.0  0.1793
  C  C127  1  0.559600  0.256600  0.222400  1.0  0.1671
  C  C128  1  0.645900  0.857300  0.328500  1.0  0.146
  C  C129  1  0.270500  0.872400  0.336800  1.0  0.1887
  C  C130  1  0.431100  0.886100  0.250800  1.0  0.1423
  C  C131  1  0.351100  0.758300  0.394900  1.0  0.1627
  C  C132  1  0.593200  0.762600  0.406300  1.0  0.1645
  N  N133  1  0.755100  0.462300  0.917300  1.0  -0.468
  N  N134  1  0.928200  0.567600  0.956300  1.0  -0.4053
  N  N135  1  0.468800  0.260100  0.887800  1.0  -0.4228
  N  N136  1  0.331400  0.140400  0.906100  1.0  -0.4125
  N  N137  1  0.490400  0.491400  0.873400  1.0  -0.4572
  N  N138  1  0.545600  0.377000  0.980200  1.0  -0.4572
  N  N139  1  0.576500  0.286700  0.763700  1.0  -0.4408
  N  N140  1  0.742300  0.634200  0.812200  1.0  -0.4089
  N  N141  1  0.169800  0.607300  0.827300  1.0  -0.4671
  N  N142  1  0.415000  0.586100  0.697500  1.0  -0.4331
  N  N143  1  0.288800  0.783000  0.915700  1.0  -0.4163
  N  N144  1  0.663200  0.778000  0.931800  1.0  -0.4354
  N  N145  1  0.244900  0.962300  0.582700  1.0  -0.4666
  N  N146  1  0.071800  0.067600  0.543700  1.0  -0.4017
  N  N147  1  0.531200  0.760100  0.612200  1.0  -0.4237
  N  N148  1  0.668600  0.640400  0.593900  1.0  -0.4119
  N  N149  1  0.509600  0.991400  0.626600  1.0  -0.4581
  N  N150  1  0.454400  0.877000  0.519800  1.0  -0.4575
  N  N151  1  0.423500  0.786700  0.736300  1.0  -0.4401
  N  N152  1  0.257700  0.134200  0.687800  1.0  -0.4089
  N  N153  1  0.830200  0.107300  0.672700  1.0  -0.4691
  N  N154  1  0.585000  0.086100  0.802500  1.0  -0.4325
  N  N155  1  0.711200  0.283000  0.584300  1.0  -0.4168
  N  N156  1  0.336800  0.278000  0.568200  1.0  -0.4355
  N  N157  1  0.244900  0.537700  0.082700  1.0  -0.4693
  N  N158  1  0.071800  0.432400  0.043700  1.0  -0.3974
  N  N159  1  0.531200  0.739900  0.112200  1.0  -0.4238
  N  N160  1  0.668600  0.859600  0.093900  1.0  -0.4152
  N  N161  1  0.509600  0.508600  0.126600  1.0  -0.4613
  N  N162  1  0.454400  0.623000  0.019800  1.0  -0.457
  N  N163  1  0.423500  0.713300  0.236300  1.0  -0.439
  N  N164  1  0.257700  0.365800  0.187800  1.0  -0.4089
  N  N165  1  0.830200  0.392700  0.172700  1.0  -0.469
  N  N166  1  0.585000  0.413900  0.302500  1.0  -0.4327
  N  N167  1  0.711200  0.217000  0.084300  1.0  -0.4152
  N  N168  1  0.336800  0.222000  0.068200  1.0  -0.4354
  N  N169  1  0.755100  0.037700  0.417300  1.0  -0.4685
  N  N170  1  0.928200  0.932400  0.456300  1.0  -0.3992
  N  N171  1  0.468800  0.239900  0.387800  1.0  -0.4221
  N  N172  1  0.331400  0.359600  0.406100  1.0  -0.4135
  N  N173  1  0.490400  0.008600  0.373400  1.0  -0.4594
  N  N174  1  0.545600  0.123000  0.480200  1.0  -0.4564
  N  N175  1  0.576500  0.213300  0.263700  1.0  -0.4399
  N  N176  1  0.742300  0.865800  0.312200  1.0  -0.4094
  N  N177  1  0.169800  0.892700  0.327300  1.0  -0.467
  N  N178  1  0.415000  0.913900  0.197500  1.0  -0.432
  N  N179  1  0.288800  0.717000  0.415700  1.0  -0.4154
  N  N180  1  0.663200  0.722000  0.431800  1.0  -0.4354
  O  O181  1  0.972300  0.417300  0.804300  1.0  -0.731
  O  O182  1  0.777500  0.382900  0.806700  1.0  -0.6728
  O  O183  1  0.188200  0.308800  0.782500  1.0  -0.7343
  O  O184  1  0.365800  0.366700  0.813100  1.0  -0.6936
  O  O185  1  0.027700  0.917300  0.695700  1.0  -0.7309
  O  O186  1  0.222500  0.882900  0.693300  1.0  -0.6754
  O  O187  1  0.811800  0.808800  0.717500  1.0  -0.7325
  O  O188  1  0.634200  0.866700  0.686900  1.0  -0.6933
  O  O189  1  0.027700  0.582700  0.195700  1.0  -0.7303
  O  O190  1  0.222500  0.617100  0.193300  1.0  -0.6753
  O  O191  1  0.811800  0.691200  0.217500  1.0  -0.7325
  O  O192  1  0.634200  0.633300  0.186900  1.0  -0.6929
  O  O193  1  0.972300  0.082700  0.304300  1.0  -0.7311
  O  O194  1  0.777500  0.117100  0.306700  1.0  -0.6731
  O  O195  1  0.188200  0.191200  0.282500  1.0  -0.7344
  O  O196  1  0.365800  0.133300  0.313100  1.0  -0.6926
