# generated using pymatgen
data_FeH3(CO2)3
_symmetry_space_group_name_H-M   'P 1'
_cell_length_a   8.41300000
_cell_length_b   11.83060000
_cell_length_c   8.94680000
_cell_angle_alpha   90.00000000
_cell_angle_beta   90.00000000
_cell_angle_gamma   90.00000000
_symmetry_Int_Tables_number   1
_chemical_formula_structural   FeH3(CO2)3
_chemical_formula_sum   'Fe4 H12 C12 O24'
_cell_volume   890.48249963
_cell_formula_units_Z   4
loop_
 _symmetry_equiv_pos_site_id
 _symmetry_equiv_pos_as_xyz
  1  'x, y, z'
loop_
 _atom_site_type_symbol
 _atom_site_label
 _atom_site_symmetry_multiplicity
 _atom_site_fract_x
 _atom_site_fract_y
 _atom_site_fract_z
 _atom_site_occupancy
 _atom_site_charge
  Fe  Fe1  1  0.247500  0.250000  0.250000  1.0  0.8281
  Fe  Fe2  1  0.252500  0.750000  0.250000  1.0  0.828
  Fe  Fe3  1  0.752500  0.750000  0.750000  1.0  0.828
  Fe  Fe4  1  0.747500  0.250000  0.750000  1.0  0.8281
  H  H5  1  0.414300  0.274100  0.934600  1.0  0.0693
  H  H6  1  0.085700  0.725900  0.934600  1.0  0.0688
  H  H7  1  0.085700  0.774100  0.565400  1.0  0.0683
  H  H8  1  0.414300  0.225900  0.565400  1.0  0.069
  H  H9  1  0.585700  0.725900  0.065400  1.0  0.0701
  H  H10  1  0.914300  0.274100  0.065400  1.0  0.07
  H  H11  1  0.914300  0.225900  0.434600  1.0  0.0699
  H  H12  1  0.585700  0.774100  0.434600  1.0  0.0704
  H  H13  1  0.250000  0.500000  0.296900  1.0  0.065
  H  H14  1  0.250000  0.000000  0.203100  1.0  0.0664
  H  H15  1  0.750000  0.500000  0.703100  1.0  0.0664
  H  H16  1  0.750000  0.000000  0.796900  1.0  0.065
  C  C17  1  0.477100  0.220700  0.982900  1.0  0.7462
  C  C18  1  0.022900  0.779300  0.982900  1.0  0.7447
  C  C19  1  0.022900  0.720700  0.517100  1.0  0.7459
  C  C20  1  0.477100  0.279300  0.517100  1.0  0.7447
  C  C21  1  0.522900  0.779300  0.017100  1.0  0.7446
  C  C22  1  0.977100  0.220700  0.017100  1.0  0.7461
  C  C23  1  0.977100  0.279300  0.482900  1.0  0.7448
  C  C24  1  0.522900  0.720700  0.482900  1.0  0.7458
  C  C25  1  0.250000  0.500000  0.192900  1.0  0.7497
  C  C26  1  0.250000  0.000000  0.307100  1.0  0.7488
  C  C27  1  0.750000  0.500000  0.807100  1.0  0.7488
  C  C28  1  0.750000  0.000000  0.692900  1.0  0.7497
  O  O29  1  0.438780  0.192860  0.112070  1.0  -0.5429
  O  O30  1  0.593500  0.182120  0.913420  1.0  -0.5605
  O  O31  1  0.244120  0.406390  0.130900  1.0  -0.5338
  O  O32  1  0.061220  0.807140  0.112070  1.0  -0.543
  O  O33  1  0.906500  0.817880  0.913420  1.0  -0.5603
  O  O34  1  0.255880  0.593610  0.130900  1.0  -0.5327
  O  O35  1  0.061220  0.692860  0.387930  1.0  -0.5423
  O  O36  1  0.906500  0.682120  0.586580  1.0  -0.5602
  O  O37  1  0.255880  0.906390  0.369100  1.0  -0.5341
  O  O38  1  0.438780  0.307140  0.387930  1.0  -0.5432
  O  O39  1  0.593500  0.317880  0.586580  1.0  -0.5603
  O  O40  1  0.244120  0.093610  0.369100  1.0  -0.5334
  O  O41  1  0.561220  0.807140  0.887930  1.0  -0.5426
  O  O42  1  0.406500  0.817880  0.086580  1.0  -0.5598
  O  O43  1  0.755880  0.593610  0.869100  1.0  -0.5334
  O  O44  1  0.938780  0.192860  0.887930  1.0  -0.543
  O  O45  1  0.093500  0.182120  0.086580  1.0  -0.5597
  O  O46  1  0.744120  0.406390  0.869100  1.0  -0.534
  O  O47  1  0.938780  0.307140  0.612070  1.0  -0.5439
  O  O48  1  0.093500  0.317880  0.413420  1.0  -0.5596
  O  O49  1  0.744120  0.093610  0.630900  1.0  -0.5326
  O  O50  1  0.561220  0.692860  0.612070  1.0  -0.5421
  O  O51  1  0.406500  0.682120  0.413420  1.0  -0.5594
  O  O52  1  0.755880  0.906390  0.630900  1.0  -0.5338
