# generated using pymatgen
data_Ni3H50C46(N8O7)2
_symmetry_space_group_name_H-M   'P 1'
_cell_length_a   10.40000000
_cell_length_b   11.80300000
_cell_length_c   13.93700000
_cell_angle_alpha   71.84500000
_cell_angle_beta   71.97500000
_cell_angle_gamma   85.85500000
_symmetry_Int_Tables_number   1
_chemical_formula_structural   Ni3H50C46(N8O7)2
_chemical_formula_sum   'Ni3 H50 C46 N16 O14'
_cell_volume   1545.28150793
_cell_formula_units_Z   1
loop_
 _symmetry_equiv_pos_site_id
 _symmetry_equiv_pos_as_xyz
  1  'x, y, z'
loop_
 _atom_site_type_symbol
 _atom_site_label
 _atom_site_symmetry_multiplicity
 _atom_site_fract_x
 _atom_site_fract_y
 _atom_site_fract_z
 _atom_site_occupancy
 _atom_site_charge
  Ni  Ni1  1  0.424980  0.698080  0.255060  1.0  0.8455
  Ni  Ni2  1  0.575020  0.301920  0.744940  1.0  0.8448
  Ni  Ni3  1  0.000000  0.000000  0.500000  1.0  0.4561
  H  H4  1  0.510200  0.728300  0.021500  1.0  0.0936
  H  H5  1  0.272700  0.952000  0.143300  1.0  0.113
  H  H6  1  0.322400  0.030600  0.949900  1.0  0.1431
  H  H7  1  0.513200  0.967600  0.790900  1.0  0.1071
  H  H8  1  0.579400  0.844100  0.825400  1.0  0.0922
  H  H9  1  0.300000  0.986500  0.774500  1.0  0.1099
  H  H10  1  0.224300  0.887200  0.877600  1.0  0.1084
  H  H11  1  0.233900  0.007900  0.607600  1.0  0.0878
  H  H12  1  0.046500  0.748100  0.860300  1.0  0.1439
  H  H13  1  0.925500  0.785800  0.729700  1.0  0.0977
  H  H14  1  0.279100  0.678600  0.845300  1.0  0.1014
  H  H15  1  0.332300  0.694400  0.933800  1.0  0.1
  H  H16  1  0.615800  0.633100  0.897400  1.0  0.1391
  H  H17  1  0.711200  0.455800  0.851100  1.0  0.1184
  H  H18  1  0.371600  0.511800  0.780900  1.0  0.1123
  H  H19  1  0.447200  0.919100  0.633000  1.0  0.1112
  H  H20  1  0.425100  0.782300  0.657100  1.0  0.1079
  H  H21  1  0.681400  0.993300  0.611900  1.0  0.0971
  H  H22  1  0.650200  0.655600  0.628900  1.0  0.1257
  H  H23  1  0.888400  0.720400  0.549200  1.0  0.1097
  H  H24  1  0.981000  0.564900  0.405400  1.0  0.1022
  H  H25  1  0.539600  0.652000  0.489000  1.0  0.0765
  H  H26  1  0.735500  0.755600  0.372000  1.0  0.1291
  H  H27  1  0.737800  0.625900  0.364700  1.0  0.1415
  H  H28  1  0.407000  0.569000  0.427000  1.0  0.3711
  H  H29  1  0.489800  0.271700  0.978500  1.0  0.0967
  H  H30  1  0.727300  0.048000  0.856700  1.0  0.1127
  H  H31  1  0.677600  0.969400  0.050100  1.0  0.1422
  H  H32  1  0.486800  0.032400  0.209100  1.0  0.1045
  H  H33  1  0.420600  0.155900  0.174600  1.0  0.0931
  H  H34  1  0.700000  0.013500  0.225500  1.0  0.1122
  H  H35  1  0.775700  0.112800  0.122400  1.0  0.1077
  H  H36  1  0.766100  0.992100  0.392400  1.0  0.088
  H  H37  1  0.953500  0.251900  0.139700  1.0  0.1433
  H  H38  1  0.074500  0.214200  0.270300  1.0  0.0976
  H  H39  1  0.720900  0.321400  0.154700  1.0  0.1032
  H  H40  1  0.667700  0.305600  0.066200  1.0  0.099
  H  H41  1  0.384200  0.366900  0.102600  1.0  0.1392
  H  H42  1  0.288800  0.544200  0.148900  1.0  0.1184
  H  H43  1  0.628400  0.488200  0.219100  1.0  0.1131
  H  H44  1  0.552800  0.080900  0.367000  1.0  0.1107
  H  H45  1  0.574900  0.217700  0.342900  1.0  0.1076
  H  H46  1  0.318600  0.006700  0.388100  1.0  0.0957
  H  H47  1  0.349800  0.344400  0.371100  1.0  0.1248
  H  H48  1  0.111600  0.279600  0.450800  1.0  0.1096
  H  H49  1  0.019000  0.435100  0.594600  1.0  0.1048
  H  H50  1  0.460400  0.348000  0.511000  1.0  0.0778
  H  H51  1  0.264500  0.244400  0.628000  1.0  0.1292
  H  H52  1  0.262200  0.374100  0.635300  1.0  0.1459
  H  H53  1  0.593000  0.431000  0.573000  1.0  0.3715
  C  C54  1  0.456300  0.793500  0.028200  1.0  0.1239
  C  C55  1  0.326700  0.916200  0.094500  1.0  0.0341
  C  C56  1  0.353700  0.960300  0.987400  1.0  -0.1558
  C  C57  1  0.494200  0.885000  0.834000  1.0  -0.1029
  C  C58  1  0.401500  0.828300  0.793000  1.0  0.0364
  C  C59  1  0.272700  0.902800  0.802900  1.0  -0.087
  C  C60  1  0.172000  0.947200  0.654000  1.0  0.1527
  C  C61  1  0.070300  0.804700  0.793700  1.0  -0.1725
  C  C62  1  0.003900  0.826200  0.721000  1.0  0.0273
  C  C63  1  0.358600  0.698800  0.859600  1.0  -0.1162
  C  C64  1  0.578400  0.587900  0.868200  1.0  -0.1814
  C  C65  1  0.630300  0.489600  0.842600  1.0  0.0195
  C  C66  1  0.444700  0.519800  0.803600  1.0  0.1271
  C  C67  1  0.467600  0.841000  0.674000  1.0  -0.1344
  C  C68  1  0.704500  0.917400  0.606600  1.0  0.1309
  C  C69  1  0.685400  0.730900  0.616400  1.0  -0.1533
  C  C70  1  0.817300  0.767600  0.572100  1.0  0.0276
  C  C71  1  0.174500  0.578200  0.419800  1.0  0.6658
  C  C72  1  0.030200  0.536900  0.453300  1.0  -0.2012
  C  C73  1  0.473900  0.803000  0.394900  1.0  0.5948
  C  C74  1  0.546200  0.683800  0.413700  1.0  0.1283
  C  C75  1  0.693900  0.701900  0.349200  1.0  -0.3872
  C  C76  1  0.721000  0.751700  0.230100  1.0  0.6904
  C  C77  1  0.543700  0.206500  0.971800  1.0  0.1231
  C  C78  1  0.673300  0.083800  0.905500  1.0  0.0343
  C  C79  1  0.646300  0.039700  0.012600  1.0  -0.1558
  C  C80  1  0.505800  0.115000  0.166000  1.0  -0.1029
  C  C81  1  0.598500  0.171700  0.207000  1.0  0.036
  C  C82  1  0.727300  0.097200  0.197100  1.0  -0.0881
  C  C83  1  0.828000  0.052800  0.346000  1.0  0.1552
  C  C84  1  0.929700  0.195300  0.206300  1.0  -0.1715
  C  C85  1  0.996100  0.173800  0.279000  1.0  0.028
  C  C86  1  0.641400  0.301200  0.140400  1.0  -0.1133
  C  C87  1  0.421600  0.412100  0.131800  1.0  -0.1823
  C  C88  1  0.369700  0.510400  0.157400  1.0  0.0168
  C  C89  1  0.555300  0.480200  0.196400  1.0  0.1272
  C  C90  1  0.532400  0.159000  0.326000  1.0  -0.1359
  C  C91  1  0.295500  0.082600  0.393400  1.0  0.1305
  C  C92  1  0.314600  0.269100  0.383600  1.0  -0.153
  C  C93  1  0.182700  0.232400  0.427900  1.0  0.0257
  C  C94  1  0.825500  0.421800  0.580200  1.0  0.6673
  C  C95  1  0.969800  0.463100  0.546700  1.0  -0.1988
  C  C96  1  0.526100  0.197000  0.605100  1.0  0.595
  C  C97  1  0.453800  0.316200  0.586300  1.0  0.1283
  C  C98  1  0.306100  0.298100  0.650800  1.0  -0.3849
  C  C99  1  0.279000  0.248300  0.769900  1.0  0.6915
  N  N100  1  0.391800  0.810700  0.119100  1.0  -0.3243
  N  N101  1  0.436200  0.880400  0.945900  1.0  0.0414
  N  N102  1  0.179300  0.882400  0.750600  1.0  0.054
  N  N103  1  0.068700  0.916000  0.632400  1.0  -0.3289
  N  N104  1  0.546000  0.446700  0.802000  1.0  -0.3383
  N  N105  1  0.459600  0.608600  0.842600  1.0  0.0489
  N  N106  1  0.830300  0.886000  0.566100  1.0  -0.3076
  N  N107  1  0.614600  0.826800  0.638900  1.0  0.0517
  N  N108  1  0.608200  0.189300  0.880900  1.0  -0.3281
  N  N109  1  0.563800  0.119600  0.054100  1.0  0.0429
  N  N110  1  0.820700  0.117600  0.249400  1.0  0.0489
  N  N111  1  0.931300  0.084000  0.367600  1.0  -0.328
  N  N112  1  0.454000  0.553300  0.198000  1.0  -0.3387
  N  N113  1  0.540400  0.391400  0.157400  1.0  0.0511
  N  N114  1  0.169700  0.114000  0.433900  1.0  -0.3096
  N  N115  1  0.385400  0.173200  0.361100  1.0  0.0519
  O  O116  1  0.238300  0.544500  0.486100  1.0  -0.6079
  O  O117  1  0.222200  0.642800  0.325300  1.0  -0.5746
  O  O118  1  0.393600  0.820000  0.338500  1.0  -0.5671
  O  O119  1  0.500900  0.876200  0.433400  1.0  -0.5782
  O  O120  1  0.847900  0.765400  0.176100  1.0  -0.6293
  O  O121  1  0.631800  0.750600  0.187500  1.0  -0.5955
  O  O122  1  0.486800  0.598100  0.384600  1.0  -0.5351
  O  O123  1  0.761700  0.455500  0.513900  1.0  -0.6074
  O  O124  1  0.777800  0.357200  0.674700  1.0  -0.5747
  O  O125  1  0.606400  0.180000  0.661500  1.0  -0.5655
  O  O126  1  0.499100  0.123800  0.566600  1.0  -0.5782
  O  O127  1  0.152100  0.234600  0.823900  1.0  -0.6196
  O  O128  1  0.368200  0.249400  0.812500  1.0  -0.5943
  O  O129  1  0.513200  0.401900  0.615400  1.0  -0.5337
