# generated using pymatgen
data_NiH24C20(N4O)2
_symmetry_space_group_name_H-M   'P 1'
_cell_length_a   10.13700000
_cell_length_b   16.76800000
_cell_length_c   15.85200000
_cell_angle_alpha   90.00000000
_cell_angle_beta   94.16600000
_cell_angle_gamma   90.00000000
_symmetry_Int_Tables_number   1
_chemical_formula_structural   NiH24C20(N4O)2
_chemical_formula_sum   'Ni4 H96 C80 N32 O8'
_cell_volume   2687.35937381
_cell_formula_units_Z   4
loop_
 _symmetry_equiv_pos_site_id
 _symmetry_equiv_pos_as_xyz
  1  'x, y, z'
loop_
 _atom_site_type_symbol
 _atom_site_label
 _atom_site_symmetry_multiplicity
 _atom_site_fract_x
 _atom_site_fract_y
 _atom_site_fract_z
 _atom_site_occupancy
 _atom_site_charge
  Ni  Ni1  1  0.209990  0.227250  0.367630  1.0  0.7217
  Ni  Ni2  1  0.790010  0.727250  0.132370  1.0  0.7205
  Ni  Ni3  1  0.790010  0.772750  0.632370  1.0  0.7177
  Ni  Ni4  1  0.209990  0.272750  0.867630  1.0  0.7186
  H  H5  1  0.578800  0.014200  0.768400  1.0  0.133
  H  H6  1  0.562500  0.872900  0.731200  1.0  0.0996
  H  H7  1  0.872800  0.957000  0.629500  1.0  0.0884
  H  H8  1  0.885200  0.099100  0.702600  1.0  0.0851
  H  H9  1  0.764300  0.122700  0.753500  1.0  0.0848
  H  H10  1  0.760100  0.065700  0.534200  1.0  0.0945
  H  H11  1  0.724200  0.149600  0.496400  1.0  0.098
  H  H12  1  0.031800  0.062200  0.606500  1.0  0.1213
  H  H13  1  0.218800  0.111000  0.533800  1.0  0.0864
  H  H14  1  0.903200  0.212500  0.427100  1.0  0.0874
  H  H15  1  0.736500  0.267900  0.593700  1.0  0.1
  H  H16  1  0.699600  0.254800  0.686700  1.0  0.0947
  H  H17  1  0.978600  0.309700  0.574800  1.0  0.1125
  H  H18  1  0.170900  0.332600  0.672900  1.0  0.0871
  H  H19  1  0.904600  0.227300  0.799300  1.0  0.0932
  H  H20  1  0.560400  0.083300  0.602400  1.0  0.0888
  H  H21  1  0.552700  0.140800  0.679500  1.0  0.0939
  H  H22  1  0.453500  0.282900  0.650000  1.0  0.1057
  H  H23  1  0.304900  0.330900  0.533400  1.0  0.0925
  H  H24  1  0.471300  0.137400  0.455800  1.0  0.088
  H  H25  1  0.124000  0.517000  0.390000  1.0  0.1006
  H  H26  1  0.984400  0.485700  0.357200  1.0  0.1124
  H  H27  1  0.105800  0.446100  0.516000  1.0  0.0678
  H  H28  1  0.962700  0.420200  0.483100  1.0  0.0775
  H  H29  1  0.421200  0.514200  0.731600  1.0  0.1335
  H  H30  1  0.437500  0.372900  0.768800  1.0  0.0988
  H  H31  1  0.127200  0.457000  0.870500  1.0  0.0888
  H  H32  1  0.114800  0.599100  0.797400  1.0  0.0876
  H  H33  1  0.235700  0.622700  0.746500  1.0  0.0853
  H  H34  1  0.239900  0.565700  0.965800  1.0  0.0946
  H  H35  1  0.275800  0.649600  0.003600  1.0  0.0977
  H  H36  1  0.968200  0.562200  0.893500  1.0  0.121
  H  H37  1  0.781200  0.611000  0.966200  1.0  0.0876
  H  H38  1  0.096800  0.712500  0.072900  1.0  0.0874
  H  H39  1  0.263500  0.767900  0.906300  1.0  0.0976
  H  H40  1  0.300400  0.754800  0.813300  1.0  0.0944
  H  H41  1  0.021400  0.809700  0.925200  1.0  0.1122
  H  H42  1  0.829100  0.832600  0.827100  1.0  0.0877
  H  H43  1  0.095400  0.727300  0.700700  1.0  0.094
  H  H44  1  0.439600  0.583300  0.897600  1.0  0.0911
  H  H45  1  0.447300  0.640800  0.820500  1.0  0.0931
  H  H46  1  0.546500  0.782900  0.850000  1.0  0.1061
  H  H47  1  0.695100  0.830900  0.966600  1.0  0.0931
  H  H48  1  0.528700  0.637400  0.044200  1.0  0.0876
  H  H49  1  0.876000  0.017000  0.110000  1.0  0.1014
  H  H50  1  0.015600  0.985700  0.142800  1.0  0.1113
  H  H51  1  0.894200  0.946100  0.984000  1.0  0.0695
  H  H52  1  0.037300  0.920200  0.016900  1.0  0.0758
  H  H53  1  0.421200  0.985800  0.231600  1.0  0.1337
  H  H54  1  0.437500  0.127100  0.268800  1.0  0.0986
  H  H55  1  0.127200  0.043000  0.370500  1.0  0.0887
  H  H56  1  0.114800  0.900900  0.297400  1.0  0.0884
  H  H57  1  0.235700  0.877300  0.246500  1.0  0.0856
  H  H58  1  0.239900  0.934300  0.465800  1.0  0.0962
  H  H59  1  0.275800  0.850400  0.503600  1.0  0.0982
  H  H60  1  0.968200  0.937800  0.393500  1.0  0.1212
  H  H61  1  0.781200  0.889000  0.466200  1.0  0.0882
  H  H62  1  0.096800  0.787500  0.572900  1.0  0.0864
  H  H63  1  0.263500  0.732100  0.406300  1.0  0.1001
  H  H64  1  0.300400  0.745200  0.313300  1.0  0.0941
  H  H65  1  0.021400  0.690300  0.425200  1.0  0.1122
  H  H66  1  0.829100  0.667400  0.327100  1.0  0.0879
  H  H67  1  0.095400  0.772700  0.200700  1.0  0.0939
  H  H68  1  0.439600  0.916700  0.397600  1.0  0.0888
  H  H69  1  0.447300  0.859200  0.320500  1.0  0.0926
  H  H70  1  0.546500  0.717100  0.350000  1.0  0.1059
  H  H71  1  0.695100  0.669100  0.466600  1.0  0.0923
  H  H72  1  0.528700  0.862600  0.544200  1.0  0.0877
  H  H73  1  0.876000  0.483000  0.610000  1.0  0.1019
  H  H74  1  0.015600  0.514300  0.642800  1.0  0.1116
  H  H75  1  0.894200  0.553900  0.484000  1.0  0.0693
  H  H76  1  0.037300  0.579800  0.516900  1.0  0.0753
  H  H77  1  0.578800  0.485800  0.268400  1.0  0.133
  H  H78  1  0.562500  0.627100  0.231200  1.0  0.0994
  H  H79  1  0.872800  0.543000  0.129500  1.0  0.0887
  H  H80  1  0.885200  0.400900  0.202600  1.0  0.0849
  H  H81  1  0.764300  0.377300  0.253500  1.0  0.0854
  H  H82  1  0.760100  0.434300  0.034200  1.0  0.0987
  H  H83  1  0.724200  0.350400  0.996400  1.0  0.0977
  H  H84  1  0.031800  0.437800  0.106500  1.0  0.1212
  H  H85  1  0.218800  0.389000  0.033800  1.0  0.0861
  H  H86  1  0.903200  0.287500  0.927100  1.0  0.0857
  H  H87  1  0.736500  0.232100  0.093700  1.0  0.1006
  H  H88  1  0.699600  0.245200  0.186700  1.0  0.0958
  H  H89  1  0.978600  0.190300  0.074800  1.0  0.1119
  H  H90  1  0.170900  0.167400  0.172900  1.0  0.0873
  H  H91  1  0.904600  0.272700  0.299300  1.0  0.093
  H  H92  1  0.560400  0.416700  0.102400  1.0  0.0901
  H  H93  1  0.552700  0.359200  0.179500  1.0  0.0939
  H  H94  1  0.453500  0.217100  0.150000  1.0  0.1063
  H  H95  1  0.304900  0.169100  0.033400  1.0  0.0914
  H  H96  1  0.471300  0.362600  0.955800  1.0  0.0884
  H  H97  1  0.124000  0.983000  0.890000  1.0  0.1008
  H  H98  1  0.984400  0.014300  0.857200  1.0  0.1122
  H  H99  1  0.105800  0.053900  0.016000  1.0  0.0678
  H  H100  1  0.962700  0.079800  0.983100  1.0  0.0767
  C  C101  1  0.635700  0.985880  0.736040  1.0  -0.1877
  C  C102  1  0.627700  0.907700  0.715180  1.0  -0.0054
  C  C103  1  0.797400  0.953230  0.659320  1.0  0.1274
  C  C104  1  0.789400  0.098160  0.701560  1.0  -0.1064
  C  C105  1  0.732400  0.148740  0.625660  1.0  0.0166
  C  C106  1  0.778100  0.122250  0.540470  1.0  -0.1119
  C  C107  1  0.028600  0.098510  0.562100  1.0  -0.1776
  C  C108  1  0.131000  0.125300  0.520920  1.0  0.0167
  C  C109  1  0.959200  0.181340  0.462520  1.0  0.124
  C  C110  1  0.758800  0.237610  0.644860  1.0  -0.1551
  C  C111  1  0.987200  0.295460  0.631620  1.0  -0.1629
  C  C112  1  0.092900  0.307950  0.686270  1.0  0.0326
  C  C113  1  0.948000  0.250200  0.755630  1.0  0.1285
  C  C114  1  0.580200  0.136970  0.622240  1.0  -0.0767
  C  C115  1  0.439800  0.259600  0.596900  1.0  -0.1748
  C  C116  1  0.357100  0.285340  0.532380  1.0  0.0254
  C  C117  1  0.448000  0.179890  0.489420  1.0  0.1374
  C  C118  1  0.127500  0.400650  0.353220  1.0  0.7232
  C  C119  1  0.063900  0.472200  0.392040  1.0  -0.369
  C  C120  1  0.027700  0.462490  0.481230  1.0  -0.0922
  C  C121  1  0.364300  0.485880  0.763960  1.0  -0.1909
  C  C122  1  0.372300  0.407700  0.784820  1.0  -0.0119
  C  C123  1  0.202600  0.453230  0.840680  1.0  0.1277
  C  C124  1  0.210600  0.598160  0.798440  1.0  -0.1039
  C  C125  1  0.267600  0.648740  0.874340  1.0  0.0158
  C  C126  1  0.221900  0.622250  0.959530  1.0  -0.111
  C  C127  1  0.971400  0.598510  0.937900  1.0  -0.1803
  C  C128  1  0.869000  0.625300  0.979080  1.0  0.0164
  C  C129  1  0.040800  0.681340  0.037480  1.0  0.1238
  C  C130  1  0.241200  0.737610  0.855140  1.0  -0.1553
  C  C131  1  0.012800  0.795460  0.868380  1.0  -0.1629
  C  C132  1  0.907100  0.807950  0.813730  1.0  0.0322
  C  C133  1  0.052000  0.750200  0.744370  1.0  0.1275
  C  C134  1  0.419800  0.636970  0.877760  1.0  -0.0786
  C  C135  1  0.560200  0.759600  0.903100  1.0  -0.1744
  C  C136  1  0.642900  0.785340  0.967620  1.0  0.0275
  C  C137  1  0.552000  0.679890  0.010580  1.0  0.1377
  C  C138  1  0.872500  0.900650  0.146780  1.0  0.7265
  C  C139  1  0.936100  0.972200  0.107960  1.0  -0.3696
  C  C140  1  0.972300  0.962490  0.018770  1.0  -0.0929
  C  C141  1  0.364300  0.014120  0.263960  1.0  -0.1914
  C  C142  1  0.372300  0.092300  0.284820  1.0  -0.0047
  C  C143  1  0.202600  0.046770  0.340680  1.0  0.1278
  C  C144  1  0.210600  0.901840  0.298440  1.0  -0.1035
  C  C145  1  0.267600  0.851260  0.374340  1.0  0.016
  C  C146  1  0.221900  0.877750  0.459530  1.0  -0.1108
  C  C147  1  0.971400  0.901490  0.437900  1.0  -0.1807
  C  C148  1  0.869000  0.874700  0.479080  1.0  0.0165
  C  C149  1  0.040800  0.818660  0.537480  1.0  0.1243
  C  C150  1  0.241200  0.762390  0.355140  1.0  -0.1558
  C  C151  1  0.012800  0.704540  0.368380  1.0  -0.1619
  C  C152  1  0.907100  0.692050  0.313730  1.0  0.0324
  C  C153  1  0.052000  0.749800  0.244370  1.0  0.1272
  C  C154  1  0.419800  0.863030  0.377760  1.0  -0.0784
  C  C155  1  0.560200  0.740400  0.403100  1.0  -0.1754
  C  C156  1  0.642900  0.714660  0.467620  1.0  0.0261
  C  C157  1  0.552000  0.820110  0.510580  1.0  0.138
  C  C158  1  0.872500  0.599350  0.646780  1.0  0.7268
  C  C159  1  0.936100  0.527800  0.607960  1.0  -0.371
  C  C160  1  0.972300  0.537510  0.518770  1.0  -0.0908
  C  C161  1  0.635700  0.514120  0.236040  1.0  -0.1884
  C  C162  1  0.627700  0.592300  0.215180  1.0  -0.0053
  C  C163  1  0.797400  0.546770  0.159320  1.0  0.1283
  C  C164  1  0.789400  0.401840  0.201560  1.0  -0.1067
  C  C165  1  0.732400  0.351260  0.125660  1.0  0.0164
  C  C166  1  0.778100  0.377750  0.040470  1.0  -0.113
  C  C167  1  0.028600  0.401490  0.062100  1.0  -0.1784
  C  C168  1  0.131000  0.374700  0.020920  1.0  0.0165
  C  C169  1  0.959200  0.318660  0.962520  1.0  0.1246
  C  C170  1  0.758800  0.262390  0.144860  1.0  -0.1555
  C  C171  1  0.987200  0.204540  0.131620  1.0  -0.1627
  C  C172  1  0.092900  0.192050  0.186270  1.0  0.0326
  C  C173  1  0.948000  0.249800  0.255630  1.0  0.1286
  C  C174  1  0.580200  0.363030  0.122240  1.0  -0.0764
  C  C175  1  0.439800  0.240400  0.096900  1.0  -0.1753
  C  C176  1  0.357100  0.214660  0.032380  1.0  0.0238
  C  C177  1  0.448000  0.320110  0.989420  1.0  0.1373
  C  C178  1  0.127500  0.099350  0.853220  1.0  0.7227
  C  C179  1  0.063900  0.027800  0.892040  1.0  -0.3689
  C  C180  1  0.027700  0.037510  0.981230  1.0  -0.0902
  N  N181  1  0.745020  0.014880  0.699830  1.0  0.0145
  N  N182  1  0.729690  0.887050  0.666760  1.0  -0.396
  N  N183  1  0.917970  0.135670  0.525270  1.0  0.0183
  N  N184  1  0.088390  0.176720  0.457160  1.0  -0.3887
  N  N185  1  0.894970  0.257870  0.675870  1.0  0.0225
  N  N186  1  0.068800  0.279040  0.764450  1.0  -0.3806
  N  N187  1  0.499630  0.192490  0.569100  1.0  0.0178
  N  N188  1  0.361060  0.234690  0.465000  1.0  -0.408
  N  N189  1  0.254980  0.514880  0.800170  1.0  0.0154
  N  N190  1  0.270310  0.387050  0.833240  1.0  -0.3962
  N  N191  1  0.082030  0.635670  0.974730  1.0  0.0181
  N  N192  1  0.911610  0.676720  0.042840  1.0  -0.3898
  N  N193  1  0.105030  0.757870  0.824130  1.0  0.022
  N  N194  1  0.931200  0.779040  0.735550  1.0  -0.3823
  N  N195  1  0.500370  0.692490  0.930900  1.0  0.018
  N  N196  1  0.638940  0.734690  0.035000  1.0  -0.4105
  N  N197  1  0.254980  0.985120  0.300170  1.0  0.0156
  N  N198  1  0.270310  0.112950  0.333240  1.0  -0.3958
  N  N199  1  0.082030  0.864330  0.474730  1.0  0.0183
  N  N200  1  0.911610  0.823280  0.542840  1.0  -0.3891
  N  N201  1  0.105030  0.742130  0.324130  1.0  0.0213
  N  N202  1  0.931200  0.720960  0.235550  1.0  -0.3822
  N  N203  1  0.500370  0.807510  0.430900  1.0  0.0182
  N  N204  1  0.638940  0.765310  0.535000  1.0  -0.4087
  N  N205  1  0.745020  0.485120  0.199830  1.0  0.0142
  N  N206  1  0.729690  0.612950  0.166760  1.0  -0.3961
  N  N207  1  0.917970  0.364330  0.025270  1.0  0.0182
  N  N208  1  0.088390  0.323280  0.957160  1.0  -0.3885
  N  N209  1  0.894970  0.242130  0.175870  1.0  0.0207
  N  N210  1  0.068800  0.220960  0.264450  1.0  -0.3804
  N  N211  1  0.499630  0.307510  0.069100  1.0  0.0182
  N  N212  1  0.361060  0.265310  0.965000  1.0  -0.4096
  O  O213  1  0.139220  0.338160  0.397830  1.0  -0.6076
  O  O214  1  0.164640  0.408150  0.280100  1.0  -0.6145
  O  O215  1  0.860780  0.838160  0.102170  1.0  -0.6071
  O  O216  1  0.835360  0.908150  0.219900  1.0  -0.6151
  O  O217  1  0.860780  0.661840  0.602170  1.0  -0.6077
  O  O218  1  0.835360  0.591850  0.719900  1.0  -0.6151
  O  O219  1  0.139220  0.161840  0.897830  1.0  -0.6077
  O  O220  1  0.164640  0.091850  0.780100  1.0  -0.6149
