# generated using pymatgen
data_EuZnH5C13(NO4)2
_symmetry_space_group_name_H-M   'P 1'
_cell_length_a   9.58680000
_cell_length_b   10.12550000
_cell_length_c   20.20950000
_cell_angle_alpha   103.14600000
_cell_angle_beta   90.00000000
_cell_angle_gamma   90.00000000
_symmetry_Int_Tables_number   1
_chemical_formula_structural   EuZnH5C13(NO4)2
_chemical_formula_sum   'Eu4 Zn4 H20 C52 N8 O32'
_cell_volume   1910.34879319
_cell_formula_units_Z   4
loop_
 _symmetry_equiv_pos_site_id
 _symmetry_equiv_pos_as_xyz
  1  'x, y, z'
loop_
 _atom_site_type_symbol
 _atom_site_label
 _atom_site_symmetry_multiplicity
 _atom_site_fract_x
 _atom_site_fract_y
 _atom_site_fract_z
 _atom_site_occupancy
 _atom_site_charge
  Eu  Eu1  1  0.429410  0.768830  0.798430  1.0  2.1689
  Eu  Eu2  1  0.929410  0.731160  0.701570  1.0  2.1712
  Eu  Eu3  1  0.570590  0.231160  0.201570  1.0  2.1676
  Eu  Eu4  1  0.070590  0.268830  0.298430  1.0  2.1641
  Zn  Zn5  1  0.861290  0.302940  0.663670  1.0  1.0248
  Zn  Zn6  1  0.361290  0.197060  0.836330  1.0  1.0262
  Zn  Zn7  1  0.138710  0.697060  0.336330  1.0  1.0268
  Zn  Zn8  1  0.638710  0.802940  0.163670  1.0  1.0256
  H  H9  1  0.007800  0.943900  0.153300  1.0  0.0764
  H  H10  1  0.902500  0.821800  0.056300  1.0  0.1037
  H  H11  1  0.019600  0.779500  0.954500  1.0  0.107
  H  H12  1  0.351600  0.983400  0.046800  1.0  0.1102
  H  H13  1  0.625700  0.102200  0.720400  1.0  0.0884
  H  H14  1  0.507800  0.556100  0.346700  1.0  0.0769
  H  H15  1  0.402500  0.678200  0.443700  1.0  0.1042
  H  H16  1  0.519600  0.720500  0.545500  1.0  0.1069
  H  H17  1  0.851600  0.516600  0.453200  1.0  0.1103
  H  H18  1  0.125700  0.397800  0.779600  1.0  0.0888
  H  H19  1  0.992200  0.056100  0.846700  1.0  0.077
  H  H20  1  0.097500  0.178200  0.943700  1.0  0.1049
  H  H21  1  0.980400  0.220500  0.045500  1.0  0.1066
  H  H22  1  0.648400  0.016600  0.953200  1.0  0.1098
  H  H23  1  0.374300  0.897800  0.279600  1.0  0.0888
  H  H24  1  0.492200  0.443900  0.653300  1.0  0.0765
  H  H25  1  0.597500  0.321800  0.556300  1.0  0.1042
  H  H26  1  0.480400  0.279500  0.454500  1.0  0.1071
  H  H27  1  0.148400  0.483400  0.546800  1.0  0.1097
  H  H28  1  0.874300  0.602200  0.220400  1.0  0.0882
  C  C29  1  0.190700  0.974500  0.110400  1.0  -0.1762
  C  C30  1  0.056100  0.926700  0.112400  1.0  0.0063
  C  C31  1  0.992900  0.853800  0.054300  1.0  -0.1128
  C  C32  1  0.063000  0.828400  0.993600  1.0  -0.0365
  C  C33  1  0.197900  0.875120  0.990120  1.0  -0.1796
  C  C34  1  0.261700  0.949980  0.048880  1.0  0.0149
  C  C35  1  0.274700  0.845410  0.924110  1.0  0.6724
  C  C36  1  0.258800  0.053840  0.174440  1.0  0.7794
  C  C37  1  0.702300  0.535250  0.738950  1.0  0.7209
  C  C38  1  0.639000  0.411760  0.752560  1.0  -0.0132
  C  C39  1  0.536500  0.387300  0.796100  1.0  0.0134
  C  C40  1  0.449000  0.474090  0.848790  1.0  0.7061
  C  C41  1  0.613900  0.195000  0.737300  1.0  0.3509
  C  C42  1  0.690700  0.525500  0.389600  1.0  -0.175
  C  C43  1  0.556100  0.573300  0.387600  1.0  0.006
  C  C44  1  0.492900  0.646200  0.445700  1.0  -0.1137
  C  C45  1  0.563000  0.671600  0.506400  1.0  -0.0361
  C  C46  1  0.697900  0.624880  0.509880  1.0  -0.1798
  C  C47  1  0.761700  0.550020  0.451120  1.0  0.0154
  C  C48  1  0.774700  0.654590  0.575890  1.0  0.6724
  C  C49  1  0.758800  0.446160  0.325560  1.0  0.7797
  C  C50  1  0.202300  0.964750  0.761050  1.0  0.7203
  C  C51  1  0.139000  0.088240  0.747440  1.0  -0.013
  C  C52  1  0.036500  0.112700  0.703900  1.0  0.0155
  C  C53  1  0.949000  0.025910  0.651210  1.0  0.7062
  C  C54  1  0.113900  0.305000  0.762700  1.0  0.35
  C  C55  1  0.809300  0.025500  0.889600  1.0  -0.1771
  C  C56  1  0.943900  0.073300  0.887600  1.0  0.0047
  C  C57  1  0.007100  0.146200  0.945700  1.0  -0.1128
  C  C58  1  0.937000  0.171600  0.006400  1.0  -0.0352
  C  C59  1  0.802100  0.124880  0.009880  1.0  -0.1795
  C  C60  1  0.738300  0.050020  0.951120  1.0  0.0153
  C  C61  1  0.725300  0.154590  0.075890  1.0  0.6725
  C  C62  1  0.741200  0.946160  0.825560  1.0  0.7792
  C  C63  1  0.297700  0.464750  0.261050  1.0  0.7202
  C  C64  1  0.361000  0.588240  0.247440  1.0  -0.0126
  C  C65  1  0.463500  0.612700  0.203900  1.0  0.0145
  C  C66  1  0.551000  0.525910  0.151210  1.0  0.7056
  C  C67  1  0.386100  0.805000  0.262700  1.0  0.3501
  C  C68  1  0.309300  0.474500  0.610400  1.0  -0.1755
  C  C69  1  0.443900  0.426700  0.612400  1.0  0.0045
  C  C70  1  0.507100  0.353800  0.554300  1.0  -0.1134
  C  C71  1  0.437000  0.328400  0.493600  1.0  -0.0367
  C  C72  1  0.302100  0.375120  0.490120  1.0  -0.1809
  C  C73  1  0.238300  0.449980  0.548880  1.0  0.0149
  C  C74  1  0.225300  0.345410  0.424110  1.0  0.6729
  C  C75  1  0.241200  0.553840  0.674440  1.0  0.7786
  C  C76  1  0.797700  0.035250  0.238950  1.0  0.7199
  C  C77  1  0.861000  0.911760  0.252560  1.0  -0.0127
  C  C78  1  0.963500  0.887300  0.296100  1.0  0.0118
  C  C79  1  0.051000  0.974090  0.348790  1.0  0.7062
  C  C80  1  0.886100  0.695000  0.237300  1.0  0.3511
  N  N81  1  0.687000  0.289400  0.715800  1.0  -0.4352
  N  N82  1  0.521600  0.248480  0.785680  1.0  -0.4357
  N  N83  1  0.187000  0.210600  0.784200  1.0  -0.434
  N  N84  1  0.021600  0.251520  0.714320  1.0  -0.4359
  N  N85  1  0.313000  0.710600  0.284200  1.0  -0.435
  N  N86  1  0.478400  0.751520  0.214320  1.0  -0.4353
  N  N87  1  0.813000  0.789400  0.215800  1.0  -0.4342
  N  N88  1  0.978400  0.748480  0.285680  1.0  -0.4341
  O  O89  1  0.219600  0.772130  0.871930  1.0  -0.6791
  O  O90  1  0.397200  0.890670  0.920870  1.0  -0.6752
  O  O91  1  0.386300  0.079130  0.171730  1.0  -0.7383
  O  O92  1  0.185600  0.086870  0.227370  1.0  -0.7711
  O  O93  1  0.651900  0.649870  0.759170  1.0  -0.7397
  O  O94  1  0.814200  0.514850  0.703450  1.0  -0.7045
  O  O95  1  0.468000  0.601090  0.862290  1.0  -0.6782
  O  O96  1  0.362000  0.415300  0.878000  1.0  -0.5666
  O  O97  1  0.719600  0.727870  0.628070  1.0  -0.6785
  O  O98  1  0.897200  0.609330  0.579130  1.0  -0.6758
  O  O99  1  0.886300  0.420870  0.328270  1.0  -0.7382
  O  O100  1  0.685600  0.413130  0.272630  1.0  -0.7689
  O  O101  1  0.151900  0.850130  0.740830  1.0  -0.7413
  O  O102  1  0.314200  0.985150  0.796550  1.0  -0.706
  O  O103  1  0.968000  0.898910  0.637710  1.0  -0.6786
  O  O104  1  0.862000  0.084700  0.622000  1.0  -0.5653
  O  O105  1  0.780400  0.227870  0.128070  1.0  -0.6786
  O  O106  1  0.602800  0.109330  0.079130  1.0  -0.6775
  O  O107  1  0.613700  0.920870  0.828270  1.0  -0.7385
  O  O108  1  0.814400  0.913130  0.772630  1.0  -0.7697
  O  O109  1  0.348100  0.350130  0.240830  1.0  -0.7406
  O  O110  1  0.185800  0.485150  0.296550  1.0  -0.7079
  O  O111  1  0.532000  0.398910  0.137710  1.0  -0.6788
  O  O112  1  0.638000  0.584700  0.122000  1.0  -0.5659
  O  O113  1  0.280400  0.272130  0.371930  1.0  -0.6789
  O  O114  1  0.102800  0.390670  0.420870  1.0  -0.6769
  O  O115  1  0.113700  0.579130  0.671730  1.0  -0.7385
  O  O116  1  0.314400  0.586870  0.727370  1.0  -0.7724
  O  O117  1  0.848100  0.149870  0.259170  1.0  -0.7396
  O  O118  1  0.685800  0.014850  0.203450  1.0  -0.7062
  O  O119  1  0.032000  0.101090  0.362290  1.0  -0.6785
  O  O120  1  0.138000  0.915300  0.378000  1.0  -0.5675
