# generated using pymatgen
data_Zn2H4C10N3O4
_symmetry_space_group_name_H-M   'P 1'
_cell_length_a   10.91800000
_cell_length_b   11.23100000
_cell_length_c   14.57700000
_cell_angle_alpha   112.00600000
_cell_angle_beta   107.77100000
_cell_angle_gamma   90.50900000
_symmetry_Int_Tables_number   1
_chemical_formula_structural   Zn2H4C10N3O4
_chemical_formula_sum   'Zn8 H16 C40 N12 O16'
_cell_volume   1562.68137706
_cell_formula_units_Z   4
loop_
 _symmetry_equiv_pos_site_id
 _symmetry_equiv_pos_as_xyz
  1  'x, y, z'
loop_
 _atom_site_type_symbol
 _atom_site_label
 _atom_site_symmetry_multiplicity
 _atom_site_fract_x
 _atom_site_fract_y
 _atom_site_fract_z
 _atom_site_occupancy
 _atom_site_charge
  Zn  Zn1  1  0.936230  0.055280  0.097970  1.0  0.8744
  Zn  Zn2  1  0.508780  0.986730  0.788070  1.0  1.0878
  Zn  Zn3  1  0.660690  0.512550  0.502900  1.0  0.9114
  Zn  Zn4  1  0.660660  0.507110  0.005560  1.0  0.9015
  Zn  Zn5  1  0.063770  0.944720  0.902030  1.0  0.8752
  Zn  Zn6  1  0.491220  0.013270  0.211930  1.0  1.0847
  Zn  Zn7  1  0.339310  0.487450  0.497100  1.0  0.9121
  Zn  Zn8  1  0.339340  0.492890  0.994440  1.0  0.9025
  H  H9  1  0.092600  0.814600  0.183600  1.0  0.1153
  H  H10  1  0.272900  0.725800  0.150900  1.0  0.0733
  H  H11  1  0.063500  0.501600  0.860500  1.0  0.0721
  H  H12  1  0.875700  0.585500  0.885600  1.0  0.1152
  H  H13  1  0.984900  0.488000  0.652500  1.0  0.1174
  H  H14  1  0.152900  0.413000  0.588600  1.0  0.0671
  H  H15  1  0.237900  0.746000  0.575700  1.0  0.079
  H  H16  1  0.081300  0.835300  0.646600  1.0  0.1142
  H  H17  1  0.907400  0.185400  0.816400  1.0  0.1152
  H  H18  1  0.727100  0.274200  0.849100  1.0  0.0732
  H  H19  1  0.936500  0.498400  0.139500  1.0  0.0721
  H  H20  1  0.124300  0.414500  0.114400  1.0  0.116
  H  H21  1  0.015100  0.512000  0.347500  1.0  0.1174
  H  H22  1  0.847100  0.587000  0.411400  1.0  0.0671
  H  H23  1  0.762100  0.254000  0.424300  1.0  0.0791
  H  H24  1  0.918700  0.164700  0.353400  1.0  0.1138
  C  C25  1  0.531900  0.746700  0.074700  1.0  0.6975
  C  C26  1  0.660800  0.791500  0.075500  1.0  -0.0039
  C  C27  1  0.725100  0.911500  0.100500  1.0  -0.0579
  C  C28  1  0.693400  0.048800  0.124100  1.0  0.6699
  C  C29  1  0.849400  0.764800  0.058200  1.0  0.3465
  C  C30  1  0.963700  0.707400  0.038700  1.0  -0.032
  C  C31  1  0.083800  0.749000  0.116900  1.0  -0.1994
  C  C32  1  0.190600  0.694300  0.097200  1.0  0.1349
  C  C33  1  0.068200  0.563500  0.927600  1.0  0.1358
  C  C34  1  0.956100  0.614300  0.941700  1.0  -0.1765
  C  C35  1  0.783900  0.951700  0.872600  1.0  0.6626
  C  C36  1  0.795100  0.846800  0.778000  1.0  0.0052
  C  C37  1  0.708500  0.751400  0.693000  1.0  -0.0153
  C  C38  1  0.563600  0.717500  0.652700  1.0  0.7258
  C  C39  1  0.901100  0.719300  0.688600  1.0  0.3582
  C  C40  1  0.009600  0.668500  0.651700  1.0  -0.0117
  C  C41  1  0.035000  0.542700  0.637000  1.0  -0.2234
  C  C42  1  0.135900  0.499000  0.599000  1.0  0.1227
  C  C43  1  0.186500  0.693900  0.592500  1.0  0.1301
  C  C44  1  0.091500  0.746900  0.632300  1.0  -0.2196
  C  C45  1  0.468100  0.253300  0.925300  1.0  0.6966
  C  C46  1  0.339200  0.208500  0.924500  1.0  -0.0045
  C  C47  1  0.274900  0.088500  0.899500  1.0  -0.0572
  C  C48  1  0.306600  0.951200  0.875900  1.0  0.6721
  C  C49  1  0.150600  0.235200  0.941800  1.0  0.3457
  C  C50  1  0.036300  0.292600  0.961300  1.0  -0.0306
  C  C51  1  0.916200  0.251000  0.883100  1.0  -0.1969
  C  C52  1  0.809400  0.305700  0.902800  1.0  0.1339
  C  C53  1  0.931800  0.436500  0.072400  1.0  0.1349
  C  C54  1  0.043900  0.385700  0.058300  1.0  -0.1747
  C  C55  1  0.216100  0.048300  0.127400  1.0  0.6665
  C  C56  1  0.204900  0.153200  0.222000  1.0  0.0045
  C  C57  1  0.291500  0.248600  0.307000  1.0  -0.0137
  C  C58  1  0.436400  0.282500  0.347300  1.0  0.7255
  C  C59  1  0.098900  0.280700  0.311400  1.0  0.3595
  C  C60  1  0.990400  0.331500  0.348300  1.0  -0.0121
  C  C61  1  0.965000  0.457300  0.363000  1.0  -0.2229
  C  C62  1  0.864100  0.501000  0.401000  1.0  0.1233
  C  C63  1  0.813500  0.306100  0.407500  1.0  0.131
  C  C64  1  0.908500  0.253100  0.367700  1.0  -0.2186
  N  N65  1  0.738900  0.698800  0.047800  1.0  -0.4387
  N  N66  1  0.844200  0.892300  0.090100  1.0  -0.4241
  N  N67  1  0.183500  0.599600  0.006500  1.0  -0.3251
  N  N68  1  0.775800  0.670000  0.634300  1.0  -0.3818
  N  N69  1  0.918100  0.825600  0.775800  1.0  -0.4723
  N  N70  1  0.210100  0.572000  0.576200  1.0  -0.3531
  N  N71  1  0.261100  0.301200  0.952200  1.0  -0.4385
  N  N72  1  0.155800  0.107700  0.909900  1.0  -0.4244
  N  N73  1  0.816500  0.400400  0.993500  1.0  -0.3283
  N  N74  1  0.224200  0.330000  0.365700  1.0  -0.3822
  N  N75  1  0.081900  0.174400  0.224200  1.0  -0.4723
  N  N76  1  0.789900  0.428000  0.423800  1.0  -0.3559
  O  O77  1  0.464100  0.820500  0.117900  1.0  -0.6234
  O  O78  1  0.498800  0.622800  0.028000  1.0  -0.7204
  O  O79  1  0.588700  0.078500  0.137400  1.0  -0.6013
  O  O80  1  0.777100  0.130200  0.127200  1.0  -0.5872
  O  O81  1  0.893200  0.014500  0.942400  1.0  -0.6755
  O  O82  1  0.678500  0.972700  0.886400  1.0  -0.6058
  O  O83  1  0.491100  0.795200  0.683800  1.0  -0.6482
  O  O84  1  0.521700  0.602400  0.583500  1.0  -0.7252
  O  O85  1  0.535900  0.179500  0.882100  1.0  -0.6234
  O  O86  1  0.501200  0.377200  0.972000  1.0  -0.7189
  O  O87  1  0.411300  0.921500  0.862600  1.0  -0.6023
  O  O88  1  0.222900  0.869800  0.872800  1.0  -0.587
  O  O89  1  0.106800  0.985500  0.057600  1.0  -0.6767
  O  O90  1  0.321500  0.027300  0.113600  1.0  -0.6045
  O  O91  1  0.508900  0.204800  0.316200  1.0  -0.6473
  O  O92  1  0.478300  0.397600  0.416500  1.0  -0.7249
