# generated using pymatgen
data_GdZnH5C13(NO4)2
_symmetry_space_group_name_H-M   'P 1'
_cell_length_a   9.58310000
_cell_length_b   10.10450000
_cell_length_c   20.17350000
_cell_angle_alpha   103.26200000
_cell_angle_beta   90.00000000
_cell_angle_gamma   90.00000000
_symmetry_Int_Tables_number   1
_chemical_formula_structural   GdZnH5C13(NO4)2
_chemical_formula_sum   'Gd4 Zn4 H20 C52 N8 O32'
_cell_volume   1901.35302819
_cell_formula_units_Z   4
loop_
 _symmetry_equiv_pos_site_id
 _symmetry_equiv_pos_as_xyz
  1  'x, y, z'
loop_
 _atom_site_type_symbol
 _atom_site_label
 _atom_site_symmetry_multiplicity
 _atom_site_fract_x
 _atom_site_fract_y
 _atom_site_fract_z
 _atom_site_occupancy
 _atom_site_charge
  Gd  Gd1  1  0.429440  0.768770  0.798550  1.0  2.2246
  Gd  Gd2  1  0.929440  0.731230  0.701450  1.0  2.226
  Gd  Gd3  1  0.570560  0.231230  0.201450  1.0  2.2178
  Gd  Gd4  1  0.070560  0.268770  0.298550  1.0  2.2157
  Zn  Zn5  1  0.861500  0.303670  0.663790  1.0  1.029
  Zn  Zn6  1  0.361500  0.196330  0.836210  1.0  1.03
  Zn  Zn7  1  0.138500  0.696330  0.336210  1.0  1.0309
  Zn  Zn8  1  0.638500  0.803670  0.163790  1.0  1.0293
  H  H9  1  0.007700  0.944300  0.153500  1.0  0.0713
  H  H10  1  0.901600  0.823500  0.056500  1.0  0.1009
  H  H11  1  0.018700  0.779200  0.954300  1.0  0.107
  H  H12  1  0.351700  0.983600  0.046800  1.0  0.1096
  H  H13  1  0.627300  0.101800  0.720200  1.0  0.087
  H  H14  1  0.507700  0.555700  0.346500  1.0  0.0726
  H  H15  1  0.401600  0.676500  0.443500  1.0  0.1007
  H  H16  1  0.518700  0.720800  0.545700  1.0  0.1067
  H  H17  1  0.851700  0.516400  0.453200  1.0  0.1097
  H  H18  1  0.127300  0.398200  0.779800  1.0  0.0868
  H  H19  1  0.992300  0.055700  0.846500  1.0  0.0726
  H  H20  1  0.098400  0.176500  0.943500  1.0  0.1013
  H  H21  1  0.981300  0.220800  0.045700  1.0  0.1066
  H  H22  1  0.648300  0.016400  0.953200  1.0  0.1094
  H  H23  1  0.372700  0.898200  0.279800  1.0  0.0862
  H  H24  1  0.492300  0.444300  0.653500  1.0  0.0715
  H  H25  1  0.598400  0.323500  0.556500  1.0  0.1007
  H  H26  1  0.481300  0.279200  0.454300  1.0  0.1073
  H  H27  1  0.148300  0.483600  0.546800  1.0  0.1095
  H  H28  1  0.872700  0.601800  0.220200  1.0  0.0862
  C  C29  1  0.191500  0.975200  0.110600  1.0  -0.2185
  C  C30  1  0.055900  0.927100  0.112400  1.0  0.0026
  C  C31  1  0.992300  0.854900  0.054500  1.0  -0.1285
  C  C32  1  0.062200  0.828500  0.993400  1.0  -0.0058
  C  C33  1  0.197900  0.875700  0.990000  1.0  -0.153
  C  C34  1  0.261700  0.950300  0.048900  1.0  0.0192
  C  C35  1  0.274200  0.844400  0.923600  1.0  0.6811
  C  C36  1  0.259300  0.054300  0.174600  1.0  0.8
  C  C37  1  0.701800  0.536300  0.739200  1.0  0.7274
  C  C38  1  0.638700  0.411700  0.752800  1.0  -0.0061
  C  C39  1  0.536500  0.386500  0.795400  1.0  0.0221
  C  C40  1  0.448400  0.473900  0.848300  1.0  0.6926
  C  C41  1  0.614800  0.194700  0.737100  1.0  0.3214
  C  C42  1  0.691500  0.524800  0.389400  1.0  -0.2177
  C  C43  1  0.555900  0.572900  0.387600  1.0  0.0025
  C  C44  1  0.492300  0.645100  0.445500  1.0  -0.129
  C  C45  1  0.562200  0.671500  0.506600  1.0  -0.0083
  C  C46  1  0.697900  0.624300  0.510000  1.0  -0.1537
  C  C47  1  0.761700  0.549700  0.451100  1.0  0.0196
  C  C48  1  0.774200  0.655600  0.576400  1.0  0.6808
  C  C49  1  0.759300  0.445700  0.325400  1.0  0.8
  C  C50  1  0.201800  0.963700  0.760800  1.0  0.7276
  C  C51  1  0.138700  0.088300  0.747200  1.0  -0.0055
  C  C52  1  0.036500  0.113500  0.704600  1.0  0.0229
  C  C53  1  0.948400  0.026100  0.651700  1.0  0.6929
  C  C54  1  0.114800  0.305300  0.762900  1.0  0.3197
  C  C55  1  0.808500  0.024800  0.889400  1.0  -0.2197
  C  C56  1  0.944100  0.072900  0.887600  1.0  0.0007
  C  C57  1  0.007700  0.145100  0.945500  1.0  -0.1275
  C  C58  1  0.937800  0.171500  0.006600  1.0  -0.0064
  C  C59  1  0.802100  0.124300  0.010000  1.0  -0.1538
  C  C60  1  0.738300  0.049700  0.951100  1.0  0.0191
  C  C61  1  0.725800  0.155600  0.076400  1.0  0.6815
  C  C62  1  0.740700  0.945700  0.825400  1.0  0.7999
  C  C63  1  0.298200  0.463700  0.260800  1.0  0.7273
  C  C64  1  0.361300  0.588300  0.247200  1.0  -0.0051
  C  C65  1  0.463500  0.613500  0.204600  1.0  0.0232
  C  C66  1  0.551600  0.526100  0.151700  1.0  0.6934
  C  C67  1  0.385200  0.805300  0.262900  1.0  0.3198
  C  C68  1  0.308500  0.475200  0.610600  1.0  -0.2179
  C  C69  1  0.444100  0.427100  0.612400  1.0  0.0006
  C  C70  1  0.507700  0.354900  0.554500  1.0  -0.128
  C  C71  1  0.437800  0.328500  0.493400  1.0  -0.0053
  C  C72  1  0.302100  0.375700  0.490000  1.0  -0.1546
  C  C73  1  0.238300  0.450300  0.548900  1.0  0.0188
  C  C74  1  0.225800  0.344400  0.423600  1.0  0.682
  C  C75  1  0.240700  0.554300  0.674600  1.0  0.7996
  C  C76  1  0.798200  0.036300  0.239200  1.0  0.7266
  C  C77  1  0.861300  0.911700  0.252800  1.0  -0.0056
  C  C78  1  0.963500  0.886500  0.295400  1.0  0.0217
  C  C79  1  0.051600  0.973900  0.348300  1.0  0.6938
  C  C80  1  0.885200  0.694700  0.237100  1.0  0.3216
  N  N81  1  0.686900  0.289900  0.715800  1.0  -0.4467
  N  N82  1  0.521800  0.248100  0.785800  1.0  -0.4726
  N  N83  1  0.186900  0.210100  0.784200  1.0  -0.4464
  N  N84  1  0.021800  0.251900  0.714200  1.0  -0.4731
  N  N85  1  0.313100  0.710100  0.284200  1.0  -0.4474
  N  N86  1  0.478200  0.751900  0.214200  1.0  -0.4738
  N  N87  1  0.813100  0.789900  0.215800  1.0  -0.4462
  N  N88  1  0.978200  0.748100  0.285800  1.0  -0.4729
  O  O89  1  0.219500  0.771880  0.871480  1.0  -0.6804
  O  O90  1  0.397100  0.890460  0.920560  1.0  -0.6779
  O  O91  1  0.386900  0.079550  0.171450  1.0  -0.7326
  O  O92  1  0.186100  0.088010  0.227510  1.0  -0.773
  O  O93  1  0.649900  0.650200  0.759300  1.0  -0.7225
  O  O94  1  0.814000  0.516430  0.703930  1.0  -0.7219
  O  O95  1  0.466700  0.601260  0.862060  1.0  -0.6814
  O  O96  1  0.361800  0.414890  0.877990  1.0  -0.5659
  O  O97  1  0.719500  0.728120  0.628520  1.0  -0.6796
  O  O98  1  0.897100  0.609540  0.579440  1.0  -0.678
  O  O99  1  0.886900  0.420450  0.328550  1.0  -0.7329
  O  O100  1  0.686100  0.411990  0.272490  1.0  -0.7713
  O  O101  1  0.149900  0.849800  0.740700  1.0  -0.7235
  O  O102  1  0.314000  0.983570  0.796070  1.0  -0.7235
  O  O103  1  0.966700  0.898740  0.637940  1.0  -0.6806
  O  O104  1  0.861800  0.085110  0.622010  1.0  -0.5669
  O  O105  1  0.780500  0.228120  0.128520  1.0  -0.6802
  O  O106  1  0.602900  0.109540  0.079440  1.0  -0.6794
  O  O107  1  0.613100  0.920450  0.828550  1.0  -0.7335
  O  O108  1  0.813900  0.911990  0.772490  1.0  -0.772
  O  O109  1  0.350100  0.349800  0.240700  1.0  -0.7232
  O  O110  1  0.186000  0.483570  0.296070  1.0  -0.727
  O  O111  1  0.533300  0.398740  0.137940  1.0  -0.6813
  O  O112  1  0.638200  0.585110  0.122010  1.0  -0.5672
  O  O113  1  0.280500  0.271880  0.371480  1.0  -0.6807
  O  O114  1  0.102900  0.390460  0.420560  1.0  -0.6795
  O  O115  1  0.113100  0.579550  0.671450  1.0  -0.7333
  O  O116  1  0.313900  0.588010  0.727510  1.0  -0.7742
  O  O117  1  0.850100  0.150200  0.259300  1.0  -0.7229
  O  O118  1  0.686000  0.016430  0.203930  1.0  -0.725
  O  O119  1  0.033300  0.101260  0.362060  1.0  -0.6825
  O  O120  1  0.138200  0.914890  0.377990  1.0  -0.5661
