# generated using pymatgen
data_NdZnH5C13(NO4)2
_symmetry_space_group_name_H-M   'P 1'
_cell_length_a   9.59030000
_cell_length_b   10.18060000
_cell_length_c   20.28050000
_cell_angle_alpha   102.76500000
_cell_angle_beta   90.00000000
_cell_angle_gamma   90.00000000
_symmetry_Int_Tables_number   1
_chemical_formula_structural   NdZnH5C13(NO4)2
_chemical_formula_sum   'Nd4 Zn4 H20 C52 N8 O32'
_cell_volume   1931.14796559
_cell_formula_units_Z   4
loop_
 _symmetry_equiv_pos_site_id
 _symmetry_equiv_pos_as_xyz
  1  'x, y, z'
loop_
 _atom_site_type_symbol
 _atom_site_label
 _atom_site_symmetry_multiplicity
 _atom_site_fract_x
 _atom_site_fract_y
 _atom_site_fract_z
 _atom_site_occupancy
 _atom_site_charge
  Nd  Nd1  1  0.430380  0.768850  0.797990  1.0  2.3088
  Nd  Nd2  1  0.930380  0.731150  0.702010  1.0  2.3102
  Nd  Nd3  1  0.569620  0.231150  0.202010  1.0  2.3008
  Nd  Nd4  1  0.069620  0.268850  0.297990  1.0  2.2992
  Zn  Zn5  1  0.861460  0.300990  0.663420  1.0  1.0179
  Zn  Zn6  1  0.361460  0.199010  0.836580  1.0  1.0218
  Zn  Zn7  1  0.138540  0.699010  0.336580  1.0  1.0208
  Zn  Zn8  1  0.638540  0.800990  0.163420  1.0  1.0199
  H  H9  1  0.006200  0.940800  0.152600  1.0  0.0703
  H  H10  1  0.900200  0.820800  0.055900  1.0  0.1027
  H  H11  1  0.019700  0.778600  0.954500  1.0  0.1049
  H  H12  1  0.349700  0.982000  0.046800  1.0  0.1109
  H  H13  1  0.624200  0.104200  0.721000  1.0  0.0788
  H  H14  1  0.506200  0.559200  0.347400  1.0  0.0705
  H  H15  1  0.400200  0.679200  0.444100  1.0  0.1037
  H  H16  1  0.519700  0.721400  0.545500  1.0  0.1047
  H  H17  1  0.849700  0.518000  0.453200  1.0  0.1111
  H  H18  1  0.124200  0.395800  0.779000  1.0  0.0788
  H  H19  1  0.993800  0.059200  0.847400  1.0  0.0705
  H  H20  1  0.099800  0.179200  0.944100  1.0  0.1043
  H  H21  1  0.980300  0.221400  0.045500  1.0  0.1044
  H  H22  1  0.650300  0.018000  0.953200  1.0  0.1105
  H  H23  1  0.375800  0.895800  0.279000  1.0  0.0788
  H  H24  1  0.493800  0.440800  0.652600  1.0  0.0704
  H  H25  1  0.599800  0.320800  0.555900  1.0  0.1028
  H  H26  1  0.480300  0.278600  0.454500  1.0  0.105
  H  H27  1  0.150300  0.482000  0.546800  1.0  0.1103
  H  H28  1  0.875800  0.604200  0.221000  1.0  0.0786
  C  C29  1  0.188200  0.972900  0.110100  1.0  -0.2089
  C  C30  1  0.054400  0.924500  0.111800  1.0  0.0073
  C  C31  1  0.990800  0.852400  0.054000  1.0  -0.1315
  C  C32  1  0.062000  0.827500  0.993500  1.0  -0.0027
  C  C33  1  0.196000  0.875080  0.990780  1.0  -0.153
  C  C34  1  0.259800  0.948890  0.048890  1.0  0.0168
  C  C35  1  0.274500  0.845460  0.925260  1.0  0.6728
  C  C36  1  0.256500  0.050920  0.174120  1.0  0.7972
  C  C37  1  0.706500  0.532930  0.738930  1.0  0.7233
  C  C38  1  0.641200  0.411760  0.753160  1.0  -0.014
  C  C39  1  0.538900  0.386840  0.796240  1.0  0.0108
  C  C40  1  0.451900  0.473050  0.848550  1.0  0.6959
  C  C41  1  0.613700  0.196300  0.737800  1.0  0.3491
  C  C42  1  0.688200  0.527100  0.389900  1.0  -0.208
  C  C43  1  0.554400  0.575500  0.388200  1.0  0.0074
  C  C44  1  0.490800  0.647600  0.446000  1.0  -0.1315
  C  C45  1  0.562000  0.672500  0.506500  1.0  -0.0037
  C  C46  1  0.696000  0.624920  0.509220  1.0  -0.1542
  C  C47  1  0.759800  0.551110  0.451110  1.0  0.0176
  C  C48  1  0.774500  0.654540  0.574740  1.0  0.6722
  C  C49  1  0.756500  0.449080  0.325880  1.0  0.7976
  C  C50  1  0.206500  0.967070  0.761070  1.0  0.722
  C  C51  1  0.141200  0.088240  0.746840  1.0  -0.0139
  C  C52  1  0.038900  0.113160  0.703760  1.0  0.0148
  C  C53  1  0.951900  0.026950  0.651450  1.0  0.6956
  C  C54  1  0.113700  0.303700  0.762200  1.0  0.3478
  C  C55  1  0.811800  0.027100  0.889900  1.0  -0.2097
  C  C56  1  0.945600  0.075500  0.888200  1.0  0.006
  C  C57  1  0.009200  0.147600  0.946000  1.0  -0.129
  C  C58  1  0.938000  0.172500  0.006500  1.0  -0.0031
  C  C59  1  0.804000  0.124920  0.009220  1.0  -0.153
  C  C60  1  0.740200  0.051110  0.951110  1.0  0.0171
  C  C61  1  0.725500  0.154540  0.074740  1.0  0.6729
  C  C62  1  0.743500  0.949080  0.825880  1.0  0.7982
  C  C63  1  0.293500  0.467070  0.261070  1.0  0.7219
  C  C64  1  0.358800  0.588240  0.246840  1.0  -0.0136
  C  C65  1  0.461100  0.613160  0.203760  1.0  0.0154
  C  C66  1  0.548100  0.526950  0.151450  1.0  0.6947
  C  C67  1  0.386300  0.803700  0.262200  1.0  0.3479
  C  C68  1  0.311800  0.472900  0.610100  1.0  -0.2086
  C  C69  1  0.445600  0.424500  0.611800  1.0  0.0057
  C  C70  1  0.509200  0.352400  0.554000  1.0  -0.1303
  C  C71  1  0.438000  0.327500  0.493500  1.0  -0.0039
  C  C72  1  0.304000  0.375080  0.490780  1.0  -0.1538
  C  C73  1  0.240200  0.448890  0.548890  1.0  0.0165
  C  C74  1  0.225500  0.345460  0.425260  1.0  0.6733
  C  C75  1  0.243500  0.550920  0.674120  1.0  0.7973
  C  C76  1  0.793500  0.032930  0.238930  1.0  0.7227
  C  C77  1  0.858800  0.911760  0.253160  1.0  -0.0136
  C  C78  1  0.961100  0.886840  0.296240  1.0  0.0107
  C  C79  1  0.048100  0.973050  0.348550  1.0  0.6959
  C  C80  1  0.886300  0.696300  0.237800  1.0  0.3494
  N  N81  1  0.687800  0.289440  0.716240  1.0  -0.4502
  N  N82  1  0.523000  0.249540  0.786040  1.0  -0.4597
  N  N83  1  0.187800  0.210560  0.783760  1.0  -0.4492
  N  N84  1  0.023000  0.250460  0.713960  1.0  -0.4612
  N  N85  1  0.312200  0.710560  0.283760  1.0  -0.451
  N  N86  1  0.477000  0.750460  0.213960  1.0  -0.4615
  N  N87  1  0.812200  0.789440  0.216240  1.0  -0.4506
  N  N88  1  0.977000  0.749540  0.286040  1.0  -0.4583
  O  O89  1  0.218900  0.772280  0.873280  1.0  -0.7092
  O  O90  1  0.396300  0.892120  0.922020  1.0  -0.677
  O  O91  1  0.382700  0.078110  0.171110  1.0  -0.7452
  O  O92  1  0.181900  0.082490  0.226690  1.0  -0.7821
  O  O93  1  0.659600  0.648420  0.759420  1.0  -0.7423
  O  O94  1  0.817500  0.510530  0.702830  1.0  -0.7248
  O  O95  1  0.471600  0.599260  0.862960  1.0  -0.6904
  O  O96  1  0.363500  0.414360  0.877760  1.0  -0.5747
  O  O97  1  0.718900  0.727720  0.626720  1.0  -0.7077
  O  O98  1  0.896300  0.607880  0.577980  1.0  -0.6777
  O  O99  1  0.882700  0.421890  0.328890  1.0  -0.7452
  O  O100  1  0.681900  0.417510  0.273310  1.0  -0.7811
  O  O101  1  0.159600  0.851580  0.740580  1.0  -0.7427
  O  O102  1  0.317500  0.989470  0.797170  1.0  -0.7259
  O  O103  1  0.971600  0.900740  0.637040  1.0  -0.6923
  O  O104  1  0.863500  0.085640  0.622240  1.0  -0.5734
  O  O105  1  0.781100  0.227720  0.126720  1.0  -0.7079
  O  O106  1  0.603700  0.107880  0.077980  1.0  -0.6774
  O  O107  1  0.617300  0.921890  0.828890  1.0  -0.7462
  O  O108  1  0.818100  0.917510  0.773310  1.0  -0.7815
  O  O109  1  0.340400  0.351580  0.240580  1.0  -0.7412
  O  O110  1  0.182500  0.489470  0.297170  1.0  -0.7251
  O  O111  1  0.528400  0.400740  0.137040  1.0  -0.692
  O  O112  1  0.636500  0.585640  0.122240  1.0  -0.5739
  O  O113  1  0.281100  0.272280  0.373280  1.0  -0.7092
  O  O114  1  0.103700  0.392120  0.422020  1.0  -0.6768
  O  O115  1  0.117300  0.578110  0.671110  1.0  -0.7464
  O  O116  1  0.318100  0.582490  0.726690  1.0  -0.7826
  O  O117  1  0.840400  0.148420  0.259420  1.0  -0.7421
  O  O118  1  0.682500  0.010530  0.202830  1.0  -0.7237
  O  O119  1  0.028400  0.099260  0.362960  1.0  -0.6909
  O  O120  1  0.136500  0.914360  0.377760  1.0  -0.5745
