# generated using pymatgen
data_Er2H3(C5O4)3
_symmetry_space_group_name_H-M   'P 1'
_cell_length_a   9.67620000
_cell_length_b   10.99490000
_cell_length_c   11.49600000
_cell_angle_alpha   104.93100000
_cell_angle_beta   90.78500000
_cell_angle_gamma   114.24700000
_symmetry_Int_Tables_number   1
_chemical_formula_structural   Er2H3(C5O4)3
_chemical_formula_sum   'Er4 H6 C30 O24'
_cell_volume   1067.54198143
_cell_formula_units_Z   2
loop_
 _symmetry_equiv_pos_site_id
 _symmetry_equiv_pos_as_xyz
  1  'x, y, z'
loop_
 _atom_site_type_symbol
 _atom_site_label
 _atom_site_symmetry_multiplicity
 _atom_site_fract_x
 _atom_site_fract_y
 _atom_site_fract_z
 _atom_site_occupancy
 _atom_site_charge
  Er  Er1  1  0.017540  0.924420  0.829530  1.0  1.5562
  Er  Er2  1  0.993260  0.492490  0.753220  1.0  1.5519
  Er  Er3  1  0.982460  0.075580  0.170470  1.0  1.5582
  Er  Er4  1  0.006740  0.507510  0.246780  1.0  1.552
  H  H5  1  0.505300  0.183000  0.155400  1.0  0.1161
  H  H6  1  0.511900  0.717900  0.093000  1.0  0.1235
  H  H7  1  0.408900  0.293400  0.344700  1.0  0.1171
  H  H8  1  0.494700  0.817000  0.844600  1.0  0.1166
  H  H9  1  0.488100  0.282100  0.907000  1.0  0.1233
  H  H10  1  0.591100  0.706600  0.655300  1.0  0.115
  C  C11  1  0.228100  0.998000  0.101100  1.0  0.6835
  C  C12  1  0.364100  0.993800  0.045700  1.0  -0.0786
  C  C13  1  0.503100  0.108900  0.092900  1.0  -0.0274
  C  C14  1  0.360500  0.883500  0.950900  1.0  -0.055
  C  C15  1  0.759100  0.754100  0.991000  1.0  0.7131
  C  C16  1  0.627300  0.620100  0.995000  1.0  -0.0802
  C  C17  1  0.506300  0.630100  0.055000  1.0  -0.0491
  C  C18  1  0.217300  0.750800  0.892600  1.0  0.6995
  C  C19  1  0.707700  0.383700  0.398900  1.0  0.6751
  C  C20  1  0.654800  0.564000  0.551200  1.0  -0.0602
  C  C21  1  0.446000  0.377200  0.406400  1.0  -0.0257
  C  C22  1  0.599400  0.441000  0.454300  1.0  -0.0269
  C  C23  1  0.814000  0.630900  0.613700  1.0  0.7482
  C  C24  1  0.750100  0.469100  0.882700  1.0  0.6491
  C  C25  1  0.621800  0.486800  0.940300  1.0  -0.0348
  C  C26  1  0.771900  0.002000  0.898900  1.0  0.683
  C  C27  1  0.635900  0.006200  0.954300  1.0  -0.0771
  C  C28  1  0.496900  0.891100  0.907100  1.0  -0.0274
  C  C29  1  0.639500  0.116500  0.049100  1.0  -0.055
  C  C30  1  0.240900  0.245900  0.009000  1.0  0.7137
  C  C31  1  0.372700  0.379900  0.005000  1.0  -0.0828
  C  C32  1  0.493700  0.369900  0.945000  1.0  -0.0492
  C  C33  1  0.782700  0.249200  0.107400  1.0  0.6991
  C  C34  1  0.292300  0.616300  0.601100  1.0  0.6753
  C  C35  1  0.345200  0.436000  0.448800  1.0  -0.0594
  C  C36  1  0.554000  0.622800  0.593600  1.0  -0.0259
  C  C37  1  0.400600  0.559000  0.545700  1.0  -0.0267
  C  C38  1  0.186000  0.369100  0.386300  1.0  0.7502
  C  C39  1  0.249900  0.530900  0.117300  1.0  0.6443
  C  C40  1  0.378200  0.513200  0.059700  1.0  -0.0356
  O  O41  1  0.724800  0.376100  0.784400  1.0  -0.5701
  O  O42  1  0.887000  0.548200  0.931400  1.0  -0.5596
  O  O43  1  0.819500  0.467200  0.362700  1.0  -0.6578
  O  O44  1  0.217600  0.638600  0.897500  1.0  -0.5954
  O  O45  1  0.106300  0.751200  0.833000  1.0  -0.7013
  O  O46  1  0.868700  0.549500  0.628700  1.0  -0.6397
  O  O47  1  0.884900  0.761200  0.646800  1.0  -0.6303
  O  O48  1  0.813800  0.758600  0.894100  1.0  -0.5827
  O  O49  1  0.794900  0.852200  0.087200  1.0  -0.642
  O  O50  1  0.241100  0.057700  0.210600  1.0  -0.539
  O  O51  1  0.098000  0.946400  0.033500  1.0  -0.6717
  O  O52  1  0.678900  0.260300  0.388300  1.0  -0.4064
  O  O53  1  0.275200  0.623900  0.215600  1.0  -0.5699
  O  O54  1  0.113000  0.451800  0.068600  1.0  -0.5586
  O  O55  1  0.180500  0.532800  0.637300  1.0  -0.6584
  O  O56  1  0.782400  0.361400  0.102500  1.0  -0.594
  O  O57  1  0.893700  0.248800  0.167000  1.0  -0.7032
  O  O58  1  0.131300  0.450500  0.371300  1.0  -0.6402
  O  O59  1  0.115100  0.238800  0.353200  1.0  -0.6292
  O  O60  1  0.186200  0.241400  0.105900  1.0  -0.5824
  O  O61  1  0.205100  0.147800  0.912800  1.0  -0.6461
  O  O62  1  0.758900  0.942300  0.789400  1.0  -0.5293
  O  O63  1  0.902000  0.053600  0.966500  1.0  -0.6727
  O  O64  1  0.321100  0.739700  0.611700  1.0  -0.4069
