# generated using pymatgen
data_Cu5H28C40S2(N7O8)2
_symmetry_space_group_name_H-M   'P 1'
_cell_length_a   17.85700000
_cell_length_b   19.72000000
_cell_length_c   7.92300000
_cell_angle_alpha   90.00000000
_cell_angle_beta   106.57100000
_cell_angle_gamma   90.00000000
_symmetry_Int_Tables_number   1
_chemical_formula_structural   Cu5H28C40S2(N7O8)2
_chemical_formula_sum   'Cu10 H56 C80 S4 N28 O32'
_cell_volume   2674.12838087
_cell_formula_units_Z   2
loop_
 _symmetry_equiv_pos_site_id
 _symmetry_equiv_pos_as_xyz
  1  'x, y, z'
loop_
 _atom_site_type_symbol
 _atom_site_label
 _atom_site_symmetry_multiplicity
 _atom_site_fract_x
 _atom_site_fract_y
 _atom_site_fract_z
 _atom_site_occupancy
 _atom_site_charge
  Cu  Cu1  1  0.128050  0.407770  0.424540  1.0  0.9104
  Cu  Cu2  1  0.628050  0.907770  0.424540  1.0  0.9104
  Cu  Cu3  1  0.871950  0.407770  0.575460  1.0  0.9104
  Cu  Cu4  1  0.371950  0.907770  0.575460  1.0  0.9104
  Cu  Cu5  1  0.871950  0.592230  0.575460  1.0  0.9103
  Cu  Cu6  1  0.371950  0.092230  0.575460  1.0  0.9103
  Cu  Cu7  1  0.128050  0.592230  0.424540  1.0  0.9101
  Cu  Cu8  1  0.628050  0.092230  0.424540  1.0  0.9101
  Cu  Cu9  1  0.500000  0.000000  0.500000  1.0  0.9403
  Cu  Cu10  1  0.000000  0.500000  0.500000  1.0  0.9403
  H  H11  1  0.066200  0.252600  0.414500  1.0  0.1292
  H  H12  1  0.139700  0.165700  0.612700  1.0  0.1364
  H  H13  1  0.262900  0.335700  0.696400  1.0  0.1156
  H  H14  1  0.225100  0.118700  0.841700  1.0  0.1441
  H  H15  1  0.322500  0.069700  0.069600  1.0  0.1039
  H  H16  1  0.456200  0.232800  0.104000  1.0  0.1169
  H  H17  1  0.360800  0.285000  0.885900  1.0  0.1368
  H  H18  1  0.566200  0.752600  0.414500  1.0  0.1292
  H  H19  1  0.639700  0.665700  0.612700  1.0  0.1364
  H  H20  1  0.762900  0.835700  0.696400  1.0  0.1156
  H  H21  1  0.725100  0.618700  0.841700  1.0  0.1441
  H  H22  1  0.822500  0.569700  0.069600  1.0  0.1039
  H  H23  1  0.956200  0.732800  0.104000  1.0  0.1169
  H  H24  1  0.860800  0.785000  0.885900  1.0  0.1368
  H  H25  1  0.933800  0.252600  0.585500  1.0  0.1294
  H  H26  1  0.860300  0.165700  0.387300  1.0  0.1362
  H  H27  1  0.737100  0.335700  0.303600  1.0  0.1159
  H  H28  1  0.774900  0.118700  0.158300  1.0  0.145
  H  H29  1  0.677500  0.069700  0.930400  1.0  0.1039
  H  H30  1  0.543800  0.232800  0.896000  1.0  0.1174
  H  H31  1  0.639200  0.285000  0.114100  1.0  0.1369
  H  H32  1  0.433800  0.752600  0.585500  1.0  0.1294
  H  H33  1  0.360300  0.665700  0.387300  1.0  0.1362
  H  H34  1  0.237100  0.835700  0.303600  1.0  0.1159
  H  H35  1  0.274900  0.618700  0.158300  1.0  0.145
  H  H36  1  0.177500  0.569700  0.930400  1.0  0.1039
  H  H37  1  0.043800  0.732800  0.896000  1.0  0.1174
  H  H38  1  0.139200  0.785000  0.114100  1.0  0.1369
  H  H39  1  0.933800  0.747400  0.585500  1.0  0.1287
  H  H40  1  0.860300  0.834300  0.387300  1.0  0.1361
  H  H41  1  0.737100  0.664300  0.303600  1.0  0.1169
  H  H42  1  0.774900  0.881300  0.158300  1.0  0.1448
  H  H43  1  0.677500  0.930300  0.930400  1.0  0.1036
  H  H44  1  0.543800  0.767200  0.896000  1.0  0.1169
  H  H45  1  0.639200  0.715000  0.114100  1.0  0.1371
  H  H46  1  0.433800  0.247400  0.585500  1.0  0.1287
  H  H47  1  0.360300  0.334300  0.387300  1.0  0.1361
  H  H48  1  0.237100  0.164300  0.303600  1.0  0.1169
  H  H49  1  0.274900  0.381300  0.158300  1.0  0.1448
  H  H50  1  0.177500  0.430300  0.930400  1.0  0.1036
  H  H51  1  0.043800  0.267200  0.896000  1.0  0.1169
  H  H52  1  0.139200  0.215000  0.114100  1.0  0.1371
  H  H53  1  0.066200  0.747400  0.414500  1.0  0.1292
  H  H54  1  0.139700  0.834300  0.612700  1.0  0.1363
  H  H55  1  0.262900  0.664300  0.696400  1.0  0.1165
  H  H56  1  0.225100  0.881300  0.841700  1.0  0.1443
  H  H57  1  0.322500  0.930300  0.069600  1.0  0.1033
  H  H58  1  0.456200  0.767200  0.104000  1.0  0.1169
  H  H59  1  0.360800  0.715000  0.885900  1.0  0.1378
  H  H60  1  0.566200  0.247400  0.414500  1.0  0.1292
  H  H61  1  0.639700  0.334300  0.612700  1.0  0.1363
  H  H62  1  0.762900  0.164300  0.696400  1.0  0.1165
  H  H63  1  0.725100  0.381300  0.841700  1.0  0.1443
  H  H64  1  0.822500  0.430300  0.069600  1.0  0.1033
  H  H65  1  0.956200  0.267200  0.104000  1.0  0.1169
  H  H66  1  0.860800  0.215000  0.885900  1.0  0.1378
  C  C67  1  0.114800  0.258400  0.496400  1.0  -0.0407
  C  C68  1  0.155200  0.210400  0.606300  1.0  -0.1277
  C  C69  1  0.223100  0.304400  0.652400  1.0  0.1577
  C  C70  1  0.283500  0.207700  0.843700  1.0  0.1279
  C  C71  1  0.270900  0.142200  0.895500  1.0  -0.1786
  C  C72  1  0.330000  0.113100  0.031600  1.0  -0.0153
  C  C73  1  0.397900  0.145700  0.110400  1.0  -0.0612
  C  C74  1  0.409400  0.210300  0.053000  1.0  -0.0256
  C  C75  1  0.352700  0.241400  0.922100  1.0  -0.1509
  C  C76  1  0.460100  0.112800  0.252500  1.0  0.6933
  C  C77  1  0.614800  0.758400  0.496400  1.0  -0.0407
  C  C78  1  0.655200  0.710400  0.606300  1.0  -0.1277
  C  C79  1  0.723100  0.804400  0.652400  1.0  0.1577
  C  C80  1  0.783500  0.707700  0.843700  1.0  0.1279
  C  C81  1  0.770900  0.642200  0.895500  1.0  -0.1786
  C  C82  1  0.830000  0.613100  0.031600  1.0  -0.0153
  C  C83  1  0.897900  0.645700  0.110400  1.0  -0.0612
  C  C84  1  0.909400  0.710300  0.053000  1.0  -0.0256
  C  C85  1  0.852700  0.741400  0.922100  1.0  -0.1509
  C  C86  1  0.960100  0.612800  0.252500  1.0  0.6933
  C  C87  1  0.885200  0.258400  0.503600  1.0  -0.0404
  C  C88  1  0.844800  0.210400  0.393700  1.0  -0.1284
  C  C89  1  0.776900  0.304400  0.347600  1.0  0.1592
  C  C90  1  0.716500  0.207700  0.156300  1.0  0.1276
  C  C91  1  0.729100  0.142200  0.104500  1.0  -0.1782
  C  C92  1  0.670000  0.113100  0.968400  1.0  -0.0148
  C  C93  1  0.602100  0.145700  0.889600  1.0  -0.0609
  C  C94  1  0.590600  0.210300  0.947000  1.0  -0.0239
  C  C95  1  0.647300  0.241400  0.077900  1.0  -0.1506
  C  C96  1  0.539900  0.112800  0.747500  1.0  0.6935
  C  C97  1  0.385200  0.758400  0.503600  1.0  -0.0404
  C  C98  1  0.344800  0.710400  0.393700  1.0  -0.1284
  C  C99  1  0.276900  0.804400  0.347600  1.0  0.1592
  C  C100  1  0.216500  0.707700  0.156300  1.0  0.1276
  C  C101  1  0.229100  0.642200  0.104500  1.0  -0.1782
  C  C102  1  0.170000  0.613100  0.968400  1.0  -0.0148
  C  C103  1  0.102100  0.645700  0.889600  1.0  -0.0609
  C  C104  1  0.090600  0.710300  0.947000  1.0  -0.0239
  C  C105  1  0.147300  0.741400  0.077900  1.0  -0.1506
  C  C106  1  0.039900  0.612800  0.747500  1.0  0.6935
  C  C107  1  0.885200  0.741600  0.503600  1.0  -0.04
  C  C108  1  0.844800  0.789600  0.393700  1.0  -0.1285
  C  C109  1  0.776900  0.695600  0.347600  1.0  0.1607
  C  C110  1  0.716500  0.792300  0.156300  1.0  0.1275
  C  C111  1  0.729100  0.857800  0.104500  1.0  -0.1806
  C  C112  1  0.670000  0.886900  0.968400  1.0  -0.0152
  C  C113  1  0.602100  0.854300  0.889600  1.0  -0.0608
  C  C114  1  0.590600  0.789700  0.947000  1.0  -0.0235
  C  C115  1  0.647300  0.758600  0.077900  1.0  -0.1486
  C  C116  1  0.539900  0.887200  0.747500  1.0  0.6936
  C  C117  1  0.385200  0.241600  0.503600  1.0  -0.04
  C  C118  1  0.344800  0.289600  0.393700  1.0  -0.1285
  C  C119  1  0.276900  0.195600  0.347600  1.0  0.1607
  C  C120  1  0.216500  0.292300  0.156300  1.0  0.1275
  C  C121  1  0.229100  0.357800  0.104500  1.0  -0.1806
  C  C122  1  0.170000  0.386900  0.968400  1.0  -0.0152
  C  C123  1  0.102100  0.354300  0.889600  1.0  -0.0608
  C  C124  1  0.090600  0.289700  0.947000  1.0  -0.0235
  C  C125  1  0.147300  0.258600  0.077900  1.0  -0.1486
  C  C126  1  0.039900  0.387200  0.747500  1.0  0.6936
  C  C127  1  0.114800  0.741600  0.496400  1.0  -0.0404
  C  C128  1  0.155200  0.789600  0.606300  1.0  -0.1281
  C  C129  1  0.223100  0.695600  0.652400  1.0  0.1585
  C  C130  1  0.283500  0.792300  0.843700  1.0  0.1279
  C  C131  1  0.270900  0.857800  0.895500  1.0  -0.1809
  C  C132  1  0.330000  0.886900  0.031600  1.0  -0.0147
  C  C133  1  0.397900  0.854300  0.110400  1.0  -0.0611
  C  C134  1  0.409400  0.789700  0.053000  1.0  -0.0256
  C  C135  1  0.352700  0.758600  0.922100  1.0  -0.1479
  C  C136  1  0.460100  0.887200  0.252500  1.0  0.6934
  C  C137  1  0.614800  0.241600  0.496400  1.0  -0.0404
  C  C138  1  0.655200  0.289600  0.606300  1.0  -0.1281
  C  C139  1  0.723100  0.195600  0.652400  1.0  0.1585
  C  C140  1  0.783500  0.292300  0.843700  1.0  0.1279
  C  C141  1  0.770900  0.357800  0.895500  1.0  -0.1809
  C  C142  1  0.830000  0.386900  0.031600  1.0  -0.0147
  C  C143  1  0.897900  0.354300  0.110400  1.0  -0.0611
  C  C144  1  0.909400  0.289700  0.053000  1.0  -0.0256
  C  C145  1  0.852700  0.258600  0.922100  1.0  -0.1479
  C  C146  1  0.960100  0.387200  0.252500  1.0  0.6934
  S  S147  1  0.272350  0.500000  0.501200  1.0  1.6149
  S  S148  1  0.772350  0.000000  0.501200  1.0  1.6149
  S  S149  1  0.727650  0.500000  0.498800  1.0  1.616
  S  S150  1  0.227650  0.000000  0.498800  1.0  1.616
  N  N151  1  0.157900  0.317420  0.526400  1.0  -0.3512
  N  N152  1  0.223900  0.239600  0.708200  1.0  0.0615
  N  N153  1  0.657900  0.817420  0.526400  1.0  -0.3512
  N  N154  1  0.723900  0.739600  0.708200  1.0  0.0615
  N  N155  1  0.842100  0.317420  0.473600  1.0  -0.351
  N  N156  1  0.776100  0.239600  0.291800  1.0  0.061
  N  N157  1  0.342100  0.817420  0.473600  1.0  -0.351
  N  N158  1  0.276100  0.739600  0.291800  1.0  0.061
  N  N159  1  0.842100  0.682580  0.473600  1.0  -0.3487
  N  N160  1  0.776100  0.760400  0.291800  1.0  0.0605
  N  N161  1  0.342100  0.182580  0.473600  1.0  -0.3487
  N  N162  1  0.276100  0.260400  0.291800  1.0  0.0605
  N  N163  1  0.157900  0.682580  0.526400  1.0  -0.3499
  N  N164  1  0.223900  0.760400  0.708200  1.0  0.0607
  N  N165  1  0.657900  0.182580  0.526400  1.0  -0.3499
  N  N166  1  0.723900  0.260400  0.708200  1.0  0.0607
  N  N167  1  0.412300  0.000000  0.686100  1.0  -0.479
  N  N168  1  0.446000  0.000000  0.854400  1.0  0.2519
  N  N169  1  0.912300  0.500000  0.686100  1.0  -0.479
  N  N170  1  0.946000  0.500000  0.854400  1.0  0.2519
  N  N171  1  0.587700  0.000000  0.313900  1.0  -0.4789
  N  N172  1  0.554000  0.000000  0.145600  1.0  0.255
  N  N173  1  0.087700  0.500000  0.313900  1.0  -0.4789
  N  N174  1  0.054000  0.500000  0.145600  1.0  0.255
  N  N175  1  0.020000  0.500000  0.986800  1.0  -0.4363
  N  N176  1  0.520000  0.000000  0.986800  1.0  -0.4363
  N  N177  1  0.980000  0.500000  0.013200  1.0  -0.4325
  N  N178  1  0.480000  0.000000  0.013200  1.0  -0.4325
  O  O179  1  0.530040  0.130270  0.276500  1.0  -0.5813
  O  O180  1  0.437250  0.067430  0.341600  1.0  -0.6508
  O  O181  1  0.232180  0.439150  0.536000  1.0  -0.7333
  O  O182  1  0.030040  0.630270  0.276500  1.0  -0.5813
  O  O183  1  0.937250  0.567430  0.341600  1.0  -0.6508
  O  O184  1  0.732180  0.939150  0.536000  1.0  -0.7333
  O  O185  1  0.469960  0.130270  0.723500  1.0  -0.5817
  O  O186  1  0.562750  0.067430  0.658400  1.0  -0.6519
  O  O187  1  0.767820  0.439150  0.464000  1.0  -0.7321
  O  O188  1  0.969960  0.630270  0.723500  1.0  -0.5817
  O  O189  1  0.062750  0.567430  0.658400  1.0  -0.6519
  O  O190  1  0.267820  0.939150  0.464000  1.0  -0.7321
  O  O191  1  0.469960  0.869730  0.723500  1.0  -0.5814
  O  O192  1  0.562750  0.932570  0.658400  1.0  -0.6518
  O  O193  1  0.767820  0.560850  0.464000  1.0  -0.7317
  O  O194  1  0.969960  0.369730  0.723500  1.0  -0.5814
  O  O195  1  0.062750  0.432570  0.658400  1.0  -0.6518
  O  O196  1  0.267820  0.060850  0.464000  1.0  -0.7317
  O  O197  1  0.530040  0.869730  0.276500  1.0  -0.5811
  O  O198  1  0.437250  0.932570  0.341600  1.0  -0.6511
  O  O199  1  0.232180  0.560850  0.536000  1.0  -0.7334
  O  O200  1  0.030040  0.369730  0.276500  1.0  -0.5811
  O  O201  1  0.937250  0.432570  0.341600  1.0  -0.6511
  O  O202  1  0.732180  0.060850  0.536000  1.0  -0.7334
  O  O203  1  0.271500  0.500000  0.313100  1.0  -0.6745
  O  O204  1  0.350600  0.500000  0.618200  1.0  -0.5938
  O  O205  1  0.771500  0.000000  0.313100  1.0  -0.6745
  O  O206  1  0.850600  0.000000  0.618200  1.0  -0.5938
  O  O207  1  0.728500  0.500000  0.686900  1.0  -0.6773
  O  O208  1  0.649400  0.500000  0.381800  1.0  -0.5918
  O  O209  1  0.228500  0.000000  0.686900  1.0  -0.6773
  O  O210  1  0.149400  0.000000  0.381800  1.0  -0.5918
