# generated using pymatgen
data_Zn2P2H13C11(N2O3)2
_symmetry_space_group_name_H-M   'P 1'
_cell_length_a   10.32770000
_cell_length_b   17.67050000
_cell_length_c   10.60090000
_cell_angle_alpha   90.00000000
_cell_angle_beta   91.70000000
_cell_angle_gamma   90.00000000
_symmetry_Int_Tables_number   1
_chemical_formula_structural   Zn2P2H13C11(N2O3)2
_chemical_formula_sum   'Zn8 P8 H52 C44 N16 O24'
_cell_volume   1933.76634580
_cell_formula_units_Z   4
loop_
 _symmetry_equiv_pos_site_id
 _symmetry_equiv_pos_as_xyz
  1  'x, y, z'
loop_
 _atom_site_type_symbol
 _atom_site_label
 _atom_site_symmetry_multiplicity
 _atom_site_fract_x
 _atom_site_fract_y
 _atom_site_fract_z
 _atom_site_occupancy
 _atom_site_charge
  Zn  Zn1  1  0.233740  0.168770  0.494560  1.0  1.0084
  Zn  Zn2  1  0.011160  0.174780  0.808130  1.0  0.9932
  Zn  Zn3  1  0.766260  0.668770  0.005440  1.0  1.0084
  Zn  Zn4  1  0.988840  0.674780  0.691870  1.0  0.9937
  Zn  Zn5  1  0.766260  0.831230  0.505440  1.0  1.0076
  Zn  Zn6  1  0.988840  0.825220  0.191870  1.0  0.9935
  Zn  Zn7  1  0.233740  0.331230  0.994560  1.0  1.0076
  Zn  Zn8  1  0.011160  0.325220  0.308130  1.0  0.9934
  P  P9  1  0.298780  0.228380  0.762530  1.0  1.5036
  P  P10  1  0.941710  0.209020  0.528790  1.0  1.624
  P  P11  1  0.701220  0.728380  0.737470  1.0  1.4885
  P  P12  1  0.058290  0.709020  0.971210  1.0  1.6376
  P  P13  1  0.701220  0.771620  0.237470  1.0  1.4871
  P  P14  1  0.058290  0.790980  0.471210  1.0  1.6392
  P  P15  1  0.298780  0.271620  0.262530  1.0  1.5023
  P  P16  1  0.941710  0.290980  0.028790  1.0  1.6247
  H  H17  1  0.402200  0.193100  0.804800  1.0  -0.1587
  H  H18  1  0.846500  0.180100  0.496600  1.0  0.0882
  H  H19  1  0.482300  0.103800  0.623400  1.0  0.0873
  H  H20  1  0.186000  0.985000  0.501200  1.0  0.0857
  H  H21  1  0.328700  0.898900  0.622500  1.0  0.1256
  H  H22  1  0.630700  0.994000  0.713700  1.0  0.0961
  H  H23  1  0.565100  0.914400  0.725600  1.0  0.084
  H  H24  1  0.350700  0.034900  0.846600  1.0  0.0789
  H  H25  1  0.285000  0.120600  0.117600  1.0  0.084
  H  H26  1  0.225100  0.098500  0.985200  1.0  0.1024
  H  H27  1  0.192500  0.925500  0.055800  1.0  0.0857
  H  H28  1  0.067000  0.104700  0.236100  1.0  0.1177
  H  H29  1  0.936900  0.995000  0.292500  1.0  0.0816
  H  H30  1  0.597800  0.693100  0.695200  1.0  -0.1588
  H  H31  1  0.153500  0.680100  0.003400  1.0  0.0883
  H  H32  1  0.517700  0.603800  0.876600  1.0  0.0879
  H  H33  1  0.814000  0.485000  0.998800  1.0  0.086
  H  H34  1  0.671300  0.398900  0.877500  1.0  0.1251
  H  H35  1  0.369300  0.494000  0.786300  1.0  0.0957
  H  H36  1  0.434900  0.414400  0.774400  1.0  0.0855
  H  H37  1  0.649300  0.534900  0.653400  1.0  0.0788
  H  H38  1  0.715000  0.620600  0.382400  1.0  0.0842
  H  H39  1  0.774900  0.598500  0.514800  1.0  0.1019
  H  H40  1  0.807500  0.425500  0.444200  1.0  0.0859
  H  H41  1  0.933000  0.604700  0.263900  1.0  0.1179
  H  H42  1  0.063100  0.495000  0.207500  1.0  0.082
  H  H43  1  0.597800  0.806900  0.195200  1.0  -0.1588
  H  H44  1  0.153500  0.819900  0.503400  1.0  0.0887
  H  H45  1  0.517700  0.896200  0.376600  1.0  0.0879
  H  H46  1  0.814000  0.015000  0.498800  1.0  0.0856
  H  H47  1  0.671300  0.101100  0.377500  1.0  0.124
  H  H48  1  0.369300  0.006000  0.286300  1.0  0.0963
  H  H49  1  0.434900  0.085600  0.274400  1.0  0.0829
  H  H50  1  0.649300  0.965100  0.153400  1.0  0.079
  H  H51  1  0.715000  0.879400  0.882400  1.0  0.0843
  H  H52  1  0.774900  0.901500  0.014800  1.0  0.1022
  H  H53  1  0.807500  0.074500  0.944200  1.0  0.086
  H  H54  1  0.933000  0.895300  0.763900  1.0  0.1179
  H  H55  1  0.063100  0.005000  0.707500  1.0  0.0817
  H  H56  1  0.402200  0.306900  0.304800  1.0  -0.1593
  H  H57  1  0.846500  0.319900  0.996600  1.0  0.0891
  H  H58  1  0.482300  0.396200  0.123400  1.0  0.0878
  H  H59  1  0.186000  0.515000  0.001200  1.0  0.0858
  H  H60  1  0.328700  0.601100  0.122500  1.0  0.1247
  H  H61  1  0.630700  0.506000  0.213700  1.0  0.0955
  H  H62  1  0.565100  0.585600  0.225600  1.0  0.0825
  H  H63  1  0.350700  0.465100  0.346600  1.0  0.0787
  H  H64  1  0.285000  0.379400  0.617600  1.0  0.0844
  H  H65  1  0.225100  0.401500  0.485200  1.0  0.1017
  H  H66  1  0.192500  0.574500  0.555800  1.0  0.0859
  H  H67  1  0.067000  0.395300  0.736100  1.0  0.1179
  H  H68  1  0.936900  0.505000  0.792500  1.0  0.0818
  C  C69  1  0.426200  0.063500  0.607600  1.0  0.1329
  C  C70  1  0.264100  0.998200  0.541200  1.0  -0.0017
  C  C71  1  0.342600  0.950100  0.607900  1.0  -0.1904
  C  C72  1  0.551500  0.968300  0.735800  1.0  -0.1307
  C  C73  1  0.523700  0.984700  0.873100  1.0  0.0515
  C  C74  1  0.411200  0.020700  0.908900  1.0  -0.1276
  C  C75  1  0.385300  0.036400  0.032900  1.0  0.0537
  C  C76  1  0.263200  0.078200  0.062800  1.0  -0.094
  C  C77  1  0.144800  0.956300  0.108300  1.0  0.1553
  C  C78  1  0.076900  0.055500  0.206900  1.0  -0.1831
  C  C79  1  0.005300  0.994400  0.237400  1.0  0.0485
  C  C80  1  0.573800  0.563500  0.892400  1.0  0.1326
  C  C81  1  0.735900  0.498200  0.958800  1.0  0.0006
  C  C82  1  0.657400  0.450100  0.892100  1.0  -0.1907
  C  C83  1  0.448500  0.468300  0.764200  1.0  -0.1296
  C  C84  1  0.476300  0.484700  0.626900  1.0  0.0519
  C  C85  1  0.588800  0.520700  0.591100  1.0  -0.1268
  C  C86  1  0.614700  0.536400  0.467100  1.0  0.0541
  C  C87  1  0.736800  0.578200  0.437200  1.0  -0.0938
  C  C88  1  0.855200  0.456300  0.391700  1.0  0.1562
  C  C89  1  0.923100  0.555500  0.293100  1.0  -0.184
  C  C90  1  0.994700  0.494400  0.262600  1.0  0.0495
  C  C91  1  0.573800  0.936500  0.392400  1.0  0.1345
  C  C92  1  0.735900  0.001800  0.458800  1.0  0.0003
  C  C93  1  0.657400  0.049900  0.392100  1.0  -0.1902
  C  C94  1  0.448500  0.031700  0.264200  1.0  -0.1334
  C  C95  1  0.476300  0.015300  0.126900  1.0  0.052
  C  C96  1  0.588800  0.979300  0.091100  1.0  -0.1335
  C  C97  1  0.614700  0.963600  0.967100  1.0  0.0539
  C  C98  1  0.736800  0.921800  0.937200  1.0  -0.0945
  C  C99  1  0.855200  0.043700  0.891700  1.0  0.1554
  C  C100  1  0.923100  0.944500  0.793100  1.0  -0.1841
  C  C101  1  0.994700  0.005600  0.762600  1.0  0.05
  C  C102  1  0.426200  0.436500  0.107600  1.0  0.1341
  C  C103  1  0.264100  0.501800  0.041200  1.0  -0.0008
  C  C104  1  0.342600  0.549900  0.107900  1.0  -0.1895
  C  C105  1  0.551500  0.531700  0.235800  1.0  -0.1343
  C  C106  1  0.523700  0.515300  0.373100  1.0  0.0516
  C  C107  1  0.411200  0.479300  0.408900  1.0  -0.1342
  C  C108  1  0.385300  0.463600  0.532900  1.0  0.0535
  C  C109  1  0.263200  0.421800  0.562800  1.0  -0.0957
  C  C110  1  0.144800  0.543700  0.608300  1.0  0.1557
  C  C111  1  0.076900  0.444500  0.706900  1.0  -0.183
  C  C112  1  0.005300  0.505600  0.737400  1.0  0.0486
  N  N113  1  0.316900  0.068500  0.541700  1.0  -0.3747
  N  N114  1  0.446600  0.992600  0.649400  1.0  0.0264
  N  N115  1  0.166200  0.030400  0.124700  1.0  0.0402
  N  N116  1  0.047800  0.932300  0.176000  1.0  -0.387
  N  N117  1  0.683100  0.568500  0.958300  1.0  -0.3753
  N  N118  1  0.553400  0.492600  0.850600  1.0  0.0265
  N  N119  1  0.833800  0.530400  0.375300  1.0  0.0405
  N  N120  1  0.952200  0.432300  0.324000  1.0  -0.3859
  N  N121  1  0.683100  0.931500  0.458300  1.0  -0.3744
  N  N122  1  0.553400  0.007400  0.350600  1.0  0.0264
  N  N123  1  0.833800  0.969600  0.875300  1.0  0.0406
  N  N124  1  0.952200  0.067700  0.824000  1.0  -0.3881
  N  N125  1  0.316900  0.431500  0.041700  1.0  -0.3751
  N  N126  1  0.446600  0.507400  0.149400  1.0  0.0263
  N  N127  1  0.166200  0.469600  0.624700  1.0  0.0401
  N  N128  1  0.047800  0.567700  0.676000  1.0  -0.3884
  O  O129  1  0.196700  0.171780  0.797700  1.0  -0.8507
  O  O130  1  0.309100  0.238850  0.620500  1.0  -0.8438
  O  O131  1  0.286000  0.304390  0.827000  1.0  -0.8628
  O  O132  1  0.050800  0.154300  0.500100  1.0  -0.8469
  O  O133  1  0.945500  0.281100  0.457900  1.0  -0.8806
  O  O134  1  0.928000  0.226200  0.667400  1.0  -0.8186
  O  O135  1  0.803300  0.671780  0.702300  1.0  -0.8516
  O  O136  1  0.690900  0.738850  0.879500  1.0  -0.8438
  O  O137  1  0.714000  0.804390  0.673000  1.0  -0.8639
  O  O138  1  0.949200  0.654300  0.999900  1.0  -0.8468
  O  O139  1  0.054500  0.781100  0.042100  1.0  -0.8791
  O  O140  1  0.072000  0.726200  0.832600  1.0  -0.8196
  O  O141  1  0.803300  0.828220  0.202300  1.0  -0.8513
  O  O142  1  0.690900  0.761150  0.379500  1.0  -0.8445
  O  O143  1  0.714000  0.695610  0.173000  1.0  -0.8623
  O  O144  1  0.949200  0.845700  0.499900  1.0  -0.8465
  O  O145  1  0.054500  0.718900  0.542100  1.0  -0.8786
  O  O146  1  0.072000  0.773800  0.332600  1.0  -0.8208
  O  O147  1  0.196700  0.328220  0.297700  1.0  -0.8508
  O  O148  1  0.309100  0.261150  0.120500  1.0  -0.8444
  O  O149  1  0.286000  0.195610  0.327000  1.0  -0.8613
  O  O150  1  0.050800  0.345700  0.000100  1.0  -0.8468
  O  O151  1  0.945500  0.218900  0.957900  1.0  -0.8789
  O  O152  1  0.928000  0.273800  0.167400  1.0  -0.8199
