# generated using pymatgen
data_CeH18C30(NO3)3
_symmetry_space_group_name_H-M   'P 1'
_cell_length_a   11.44000000
_cell_length_b   12.28800000
_cell_length_c   36.85400000
_cell_angle_alpha   90.00000000
_cell_angle_beta   90.00000000
_cell_angle_gamma   117.64200000
_symmetry_Int_Tables_number   1
_chemical_formula_structural   CeH18C30(NO3)3
_chemical_formula_sum   'Ce4 H72 C120 N12 O36'
_cell_volume   4589.43029471
_cell_formula_units_Z   4
loop_
 _symmetry_equiv_pos_site_id
 _symmetry_equiv_pos_as_xyz
  1  'x, y, z'
loop_
 _atom_site_type_symbol
 _atom_site_label
 _atom_site_symmetry_multiplicity
 _atom_site_fract_x
 _atom_site_fract_y
 _atom_site_fract_z
 _atom_site_occupancy
 _atom_site_charge
  Ce  Ce1  1  0.130230  0.629990  0.536490  1.0  2.2355
  Ce  Ce2  1  0.369770  0.370010  0.036490  1.0  2.234
  Ce  Ce3  1  0.869770  0.370010  0.463510  1.0  2.2346
  Ce  Ce4  1  0.630230  0.629990  0.963510  1.0  2.2357
  H  H5  1  0.451700  0.450600  0.171700  1.0  0.1131
  H  H6  1  0.526800  0.182600  0.135300  1.0  0.1019
  H  H7  1  0.575300  0.147800  0.193700  1.0  0.1274
  H  H8  1  0.501200  0.416400  0.229900  1.0  0.1245
  H  H9  1  0.541200  0.292500  0.271000  1.0  0.3009
  H  H10  1  0.811200  0.067700  0.405000  1.0  0.2911
  H  H11  1  0.454700  0.297400  0.370400  1.0  0.3101
  H  H12  1  0.254000  0.273400  0.392400  1.0  0.1179
  H  H13  1  0.686000  0.045900  0.300300  1.0  0.1157
  H  H14  1  0.642600  0.113700  0.404900  1.0  0.1252
  H  H15  1  0.020300  0.923800  0.477900  1.0  0.0985
  H  H16  1  0.589500  0.312300  0.324800  1.0  0.102
  H  H17  1  0.952000  0.048300  0.447200  1.0  0.1213
  H  H18  1  0.788800  0.640800  0.415800  1.0  0.1013
  H  H19  1  0.720300  0.764200  0.384400  1.0  0.1284
  H  H20  1  0.478300  0.577300  0.474800  1.0  0.0929
  H  H21  1  0.583000  0.480300  0.445900  1.0  0.119
  H  H22  1  0.146800  0.362900  0.425400  1.0  0.0779
  H  H23  1  0.048300  0.549400  0.671700  1.0  0.1124
  H  H24  1  0.973200  0.817400  0.635300  1.0  0.1021
  H  H25  1  0.924700  0.852200  0.693700  1.0  0.1271
  H  H26  1  0.998800  0.583600  0.729900  1.0  0.1241
  H  H27  1  0.958800  0.707500  0.771000  1.0  0.3018
  H  H28  1  0.688800  0.932300  0.905000  1.0  0.2908
  H  H29  1  0.045300  0.702600  0.870400  1.0  0.3098
  H  H30  1  0.246000  0.726600  0.892400  1.0  0.1185
  H  H31  1  0.814000  0.954100  0.800300  1.0  0.1155
  H  H32  1  0.857400  0.886300  0.904900  1.0  0.1247
  H  H33  1  0.479700  0.076200  0.977900  1.0  0.0988
  H  H34  1  0.910500  0.687700  0.824800  1.0  0.1019
  H  H35  1  0.548000  0.951700  0.947200  1.0  0.122
  H  H36  1  0.711200  0.359200  0.915800  1.0  0.1007
  H  H37  1  0.779700  0.235800  0.884400  1.0  0.1273
  H  H38  1  0.021700  0.422700  0.974800  1.0  0.093
  H  H39  1  0.917000  0.519700  0.945900  1.0  0.1185
  H  H40  1  0.353200  0.637100  0.925400  1.0  0.0774
  H  H41  1  0.548300  0.549400  0.828300  1.0  0.1122
  H  H42  1  0.473200  0.817400  0.864700  1.0  0.1017
  H  H43  1  0.424700  0.852200  0.806300  1.0  0.1269
  H  H44  1  0.498800  0.583600  0.770100  1.0  0.1232
  H  H45  1  0.458800  0.707500  0.729000  1.0  0.3009
  H  H46  1  0.188800  0.932300  0.595000  1.0  0.2906
  H  H47  1  0.545300  0.702600  0.629600  1.0  0.3095
  H  H48  1  0.746000  0.726600  0.607600  1.0  0.1186
  H  H49  1  0.314000  0.954100  0.699700  1.0  0.1149
  H  H50  1  0.357400  0.886300  0.595100  1.0  0.1252
  H  H51  1  0.979700  0.076200  0.522100  1.0  0.0989
  H  H52  1  0.410500  0.687700  0.675200  1.0  0.1023
  H  H53  1  0.048000  0.951700  0.552800  1.0  0.1219
  H  H54  1  0.211200  0.359200  0.584200  1.0  0.1007
  H  H55  1  0.279700  0.235800  0.615600  1.0  0.1281
  H  H56  1  0.521700  0.422700  0.525200  1.0  0.093
  H  H57  1  0.417000  0.519700  0.554100  1.0  0.1182
  H  H58  1  0.853200  0.637100  0.574600  1.0  0.0782
  H  H59  1  0.951700  0.450600  0.328300  1.0  0.1127
  H  H60  1  0.026800  0.182600  0.364700  1.0  0.1021
  H  H61  1  0.075300  0.147800  0.306300  1.0  0.1274
  H  H62  1  0.001200  0.416400  0.270100  1.0  0.1249
  H  H63  1  0.041200  0.292500  0.229000  1.0  0.3011
  H  H64  1  0.311200  0.067700  0.095000  1.0  0.2913
  H  H65  1  0.954700  0.297400  0.129600  1.0  0.3099
  H  H66  1  0.754000  0.273400  0.107600  1.0  0.1181
  H  H67  1  0.186000  0.045900  0.199700  1.0  0.1162
  H  H68  1  0.142600  0.113700  0.095100  1.0  0.1242
  H  H69  1  0.520300  0.923800  0.022100  1.0  0.0991
  H  H70  1  0.089500  0.312300  0.175200  1.0  0.1021
  H  H71  1  0.452000  0.048300  0.052800  1.0  0.122
  H  H72  1  0.288800  0.640800  0.084200  1.0  0.1011
  H  H73  1  0.220300  0.764200  0.115600  1.0  0.1283
  H  H74  1  0.978300  0.577300  0.025200  1.0  0.093
  H  H75  1  0.083000  0.480300  0.054100  1.0  0.1187
  H  H76  1  0.646800  0.362900  0.074600  1.0  0.0786
  C  C77  1  0.447200  0.338900  0.109670  1.0  0.6447
  C  C78  1  0.482300  0.318200  0.147170  1.0  -0.1615
  C  C79  1  0.476000  0.389300  0.175990  1.0  -0.0252
  C  C80  1  0.520700  0.229500  0.154320  1.0  -0.0187
  C  C81  1  0.550300  0.208700  0.189360  1.0  -0.1928
  C  C82  1  0.505900  0.368900  0.210830  1.0  -0.2051
  C  C83  1  0.542600  0.278500  0.217620  1.0  0.2492
  C  C84  1  0.595600  0.302000  0.398050  1.0  0.5785
  C  C85  1  0.432000  0.376900  0.413900  1.0  0.2628
  C  C86  1  0.300900  0.336500  0.408700  1.0  -0.2313
  C  C87  1  0.680500  0.073400  0.353880  1.0  -0.0892
  C  C88  1  0.670200  0.093100  0.317470  1.0  -0.0063
  C  C89  1  0.301800  0.485000  0.452010  1.0  -0.1533
  C  C90  1  0.234100  0.546400  0.472170  1.0  0.7565
  C  C91  1  0.910200  0.768600  0.450240  1.0  -0.171
  C  C92  1  0.951700  0.683400  0.469400  1.0  0.7772
  C  C93  1  0.622500  0.233200  0.369010  1.0  -0.1246
  C  C94  1  0.647700  0.135400  0.380600  1.0  -0.0649
  C  C95  1  0.959200  0.891100  0.459190  1.0  -0.0226
  C  C96  1  0.612500  0.252300  0.332090  1.0  -0.068
  C  C97  1  0.828300  0.918700  0.412740  1.0  0.2599
  C  C98  1  0.918500  0.966100  0.440710  1.0  -0.2303
  C  C99  1  0.636300  0.183300  0.306130  1.0  -0.1266
  C  C100  1  0.821900  0.723000  0.422300  1.0  0.0046
  C  C101  1  0.780300  0.796900  0.403300  1.0  -0.2163
  C  C102  1  0.431400  0.516100  0.458000  1.0  0.0089
  C  C103  1  0.714900  0.973900  0.364250  1.0  0.5399
  C  C104  1  0.496400  0.460300  0.440000  1.0  -0.2098
  C  C105  1  0.629600  0.198600  0.266050  1.0  0.5588
  C  C106  1  0.237000  0.391800  0.428600  1.0  0.0281
  C  C107  1  0.052800  0.661100  0.609670  1.0  0.6438
  C  C108  1  0.017700  0.681800  0.647170  1.0  -0.1632
  C  C109  1  0.024000  0.610700  0.675990  1.0  -0.0307
  C  C110  1  0.979300  0.770500  0.654320  1.0  -0.0187
  C  C111  1  0.949700  0.791300  0.689360  1.0  -0.1955
  C  C112  1  0.994100  0.631100  0.710830  1.0  -0.2078
  C  C113  1  0.957400  0.721500  0.717620  1.0  0.2504
  C  C114  1  0.904400  0.698000  0.898050  1.0  0.5769
  C  C115  1  0.068000  0.623100  0.913900  1.0  0.2629
  C  C116  1  0.199100  0.663500  0.908700  1.0  -0.2317
  C  C117  1  0.819500  0.926600  0.853880  1.0  -0.0923
  C  C118  1  0.829800  0.906900  0.817470  1.0  -0.0053
  C  C119  1  0.198200  0.515000  0.952010  1.0  -0.1533
  C  C120  1  0.265900  0.453600  0.972170  1.0  0.7546
  C  C121  1  0.589800  0.231400  0.950240  1.0  -0.1703
  C  C122  1  0.548300  0.316600  0.969400  1.0  0.7814
  C  C123  1  0.877500  0.766800  0.869010  1.0  -0.125
  C  C124  1  0.852300  0.864600  0.880600  1.0  -0.0697
  C  C125  1  0.540800  0.108900  0.959190  1.0  -0.023
  C  C126  1  0.887500  0.747700  0.832090  1.0  -0.0682
  C  C127  1  0.671700  0.081300  0.912740  1.0  0.2598
  C  C128  1  0.581500  0.033900  0.940710  1.0  -0.2289
  C  C129  1  0.863700  0.816700  0.806130  1.0  -0.1264
  C  C130  1  0.678100  0.277000  0.922300  1.0  0.0042
  C  C131  1  0.719700  0.203100  0.903300  1.0  -0.2149
  C  C132  1  0.068600  0.483900  0.958000  1.0  0.0078
  C  C133  1  0.785100  0.026100  0.864250  1.0  0.5389
  C  C134  1  0.003600  0.539700  0.940000  1.0  -0.2082
  C  C135  1  0.870400  0.801400  0.766050  1.0  0.5583
  C  C136  1  0.263000  0.608200  0.928600  1.0  0.0277
  C  C137  1  0.552800  0.661100  0.890330  1.0  0.6443
  C  C138  1  0.517700  0.681800  0.852830  1.0  -0.1626
  C  C139  1  0.524000  0.610700  0.824010  1.0  -0.0342
  C  C140  1  0.479300  0.770500  0.845680  1.0  -0.0192
  C  C141  1  0.449700  0.791300  0.810640  1.0  -0.1947
  C  C142  1  0.494100  0.631100  0.789170  1.0  -0.2062
  C  C143  1  0.457400  0.721500  0.782380  1.0  0.2503
  C  C144  1  0.404400  0.698000  0.601950  1.0  0.5784
  C  C145  1  0.568000  0.623100  0.586100  1.0  0.2631
  C  C146  1  0.699100  0.663500  0.591300  1.0  -0.2324
  C  C147  1  0.319500  0.926600  0.646120  1.0  -0.0923
  C  C148  1  0.329800  0.906900  0.682530  1.0  -0.0057
  C  C149  1  0.698200  0.515000  0.547990  1.0  -0.1527
  C  C150  1  0.765900  0.453600  0.527830  1.0  0.7536
  C  C151  1  0.089800  0.231400  0.549760  1.0  -0.1701
  C  C152  1  0.048300  0.316600  0.530600  1.0  0.7807
  C  C153  1  0.377500  0.766800  0.630990  1.0  -0.1243
  C  C154  1  0.352300  0.864600  0.619400  1.0  -0.075
  C  C155  1  0.040800  0.108900  0.540810  1.0  -0.0247
  C  C156  1  0.387500  0.747700  0.667910  1.0  -0.0683
  C  C157  1  0.171700  0.081300  0.587260  1.0  0.2598
  C  C158  1  0.081500  0.033900  0.559290  1.0  -0.2277
  C  C159  1  0.363700  0.816700  0.693870  1.0  -0.1273
  C  C160  1  0.178100  0.277000  0.577700  1.0  0.0042
  C  C161  1  0.219700  0.203100  0.596700  1.0  -0.2162
  C  C162  1  0.568600  0.483900  0.542000  1.0  0.0071
  C  C163  1  0.285100  0.026100  0.635750  1.0  0.5376
  C  C164  1  0.503600  0.539700  0.560000  1.0  -0.2085
  C  C165  1  0.370400  0.801400  0.733950  1.0  0.5589
  C  C166  1  0.763000  0.608200  0.571400  1.0  0.0283
  C  C167  1  0.947200  0.338900  0.390330  1.0  0.6443
  C  C168  1  0.982300  0.318200  0.352830  1.0  -0.1616
  C  C169  1  0.976000  0.389300  0.324010  1.0  -0.0277
  C  C170  1  0.020700  0.229500  0.345680  1.0  -0.0185
  C  C171  1  0.050300  0.208700  0.310640  1.0  -0.1928
  C  C172  1  0.005900  0.368900  0.289170  1.0  -0.2052
  C  C173  1  0.042600  0.278500  0.282380  1.0  0.2493
  C  C174  1  0.095600  0.302000  0.101950  1.0  0.5788
  C  C175  1  0.932000  0.376900  0.086100  1.0  0.263
  C  C176  1  0.800900  0.336500  0.091300  1.0  -0.2321
  C  C177  1  0.180500  0.073400  0.146120  1.0  -0.0893
  C  C178  1  0.170200  0.093100  0.182530  1.0  -0.0072
  C  C179  1  0.801800  0.485000  0.047990  1.0  -0.1531
  C  C180  1  0.734100  0.546400  0.027830  1.0  0.7562
  C  C181  1  0.410200  0.768600  0.049760  1.0  -0.1714
  C  C182  1  0.451700  0.683400  0.030600  1.0  0.7763
  C  C183  1  0.122500  0.233200  0.130990  1.0  -0.1243
  C  C184  1  0.147700  0.135400  0.119400  1.0  -0.066
  C  C185  1  0.459200  0.891100  0.040810  1.0  -0.0244
  C  C186  1  0.112500  0.252300  0.167910  1.0  -0.0681
  C  C187  1  0.328300  0.918700  0.087260  1.0  0.2599
  C  C188  1  0.418500  0.966100  0.059290  1.0  -0.2292
  C  C189  1  0.136300  0.183300  0.193870  1.0  -0.1262
  C  C190  1  0.321900  0.723000  0.077700  1.0  0.0044
  C  C191  1  0.280300  0.796900  0.096700  1.0  -0.2172
  C  C192  1  0.931400  0.516100  0.042000  1.0  0.0085
  C  C193  1  0.214900  0.973900  0.135750  1.0  0.5397
  C  C194  1  0.996400  0.460300  0.060000  1.0  -0.2098
  C  C195  1  0.129600  0.198600  0.233950  1.0  0.5605
  C  C196  1  0.737000  0.391800  0.071400  1.0  0.0285
  N  N197  1  0.568500  0.260000  0.254570  1.0  -0.4134
  N  N198  1  0.787500  0.997200  0.395090  1.0  -0.403
  N  N199  1  0.491000  0.321600  0.391310  1.0  -0.4136
  N  N200  1  0.931500  0.740000  0.754570  1.0  -0.4131
  N  N201  1  0.712500  0.002800  0.895090  1.0  -0.402
  N  N202  1  0.009000  0.678400  0.891310  1.0  -0.4132
  N  N203  1  0.431500  0.740000  0.745430  1.0  -0.4114
  N  N204  1  0.212500  0.002800  0.604910  1.0  -0.4019
  N  N205  1  0.509000  0.678400  0.608690  1.0  -0.4134
  N  N206  1  0.068500  0.260000  0.245430  1.0  -0.4121
  N  N207  1  0.287500  0.997200  0.104910  1.0  -0.4028
  N  N208  1  0.991000  0.321600  0.108690  1.0  -0.4145
  O  O209  1  0.038700  0.726200  0.493670  1.0  -0.749
  O  O210  1  0.658300  0.331700  0.426670  1.0  -0.6058
  O  O211  1  0.435600  0.432700  0.102430  1.0  -0.6362
  O  O212  1  0.424800  0.255400  0.085760  1.0  -0.7166
  O  O213  1  0.894600  0.574100  0.458710  1.0  -0.7155
  O  O214  1  0.111100  0.507900  0.468370  1.0  -0.8032
  O  O215  1  0.686700  0.162100  0.245400  1.0  -0.4996
  O  O216  1  0.300500  0.632500  0.493220  1.0  -0.6928
  O  O217  1  0.678400  0.881800  0.346100  1.0  -0.4915
  O  O218  1  0.461300  0.273800  0.993670  1.0  -0.7482
  O  O219  1  0.841700  0.668300  0.926670  1.0  -0.6049
  O  O220  1  0.064400  0.567300  0.602430  1.0  -0.6366
  O  O221  1  0.075200  0.744600  0.585760  1.0  -0.7166
  O  O222  1  0.605400  0.425900  0.958710  1.0  -0.7173
  O  O223  1  0.388900  0.492100  0.968370  1.0  -0.8023
  O  O224  1  0.813300  0.837900  0.745400  1.0  -0.499
  O  O225  1  0.199500  0.367500  0.993220  1.0  -0.6933
  O  O226  1  0.821600  0.118200  0.846100  1.0  -0.4928
  O  O227  1  0.961300  0.273800  0.506330  1.0  -0.7502
  O  O228  1  0.341700  0.668300  0.573330  1.0  -0.6057
  O  O229  1  0.564400  0.567300  0.897570  1.0  -0.6366
  O  O230  1  0.575200  0.744600  0.914240  1.0  -0.7185
  O  O231  1  0.105400  0.425900  0.541290  1.0  -0.717
  O  O232  1  0.888900  0.492100  0.531630  1.0  -0.8019
  O  O233  1  0.313300  0.837900  0.754600  1.0  -0.4992
  O  O234  1  0.699500  0.367500  0.506780  1.0  -0.6938
  O  O235  1  0.321600  0.118200  0.653900  1.0  -0.491
  O  O236  1  0.538700  0.726200  0.006330  1.0  -0.7482
  O  O237  1  0.158300  0.331700  0.073330  1.0  -0.6065
  O  O238  1  0.935600  0.432700  0.397570  1.0  -0.6364
  O  O239  1  0.924800  0.255400  0.414240  1.0  -0.7184
  O  O240  1  0.394600  0.574100  0.041290  1.0  -0.7162
  O  O241  1  0.611100  0.507900  0.031630  1.0  -0.8033
  O  O242  1  0.186700  0.162100  0.254600  1.0  -0.4997
  O  O243  1  0.800500  0.632500  0.006780  1.0  -0.6932
  O  O244  1  0.178400  0.881800  0.153900  1.0  -0.4946
