# generated using pymatgen
data_AgH8(CN)6
_symmetry_space_group_name_H-M   'P 1'
_cell_length_a   7.81610000
_cell_length_b   21.28300000
_cell_length_c   8.34190000
_cell_angle_alpha   90.00000000
_cell_angle_beta   90.00000000
_cell_angle_gamma   90.00000000
_symmetry_Int_Tables_number   1
_chemical_formula_structural   AgH8(CN)6
_chemical_formula_sum   'Ag4 H32 C24 N24'
_cell_volume   1387.67553465
_cell_formula_units_Z   4
loop_
 _symmetry_equiv_pos_site_id
 _symmetry_equiv_pos_as_xyz
  1  'x, y, z'
loop_
 _atom_site_type_symbol
 _atom_site_label
 _atom_site_symmetry_multiplicity
 _atom_site_fract_x
 _atom_site_fract_y
 _atom_site_fract_z
 _atom_site_occupancy
 _atom_site_charge
  Ag  Ag1  1  0.000000  0.000000  0.250000  1.0  0.2637
  Ag  Ag2  1  0.500000  0.500000  0.250000  1.0  0.2637
  Ag  Ag3  1  0.000000  0.000000  0.750000  1.0  0.2637
  Ag  Ag4  1  0.500000  0.500000  0.750000  1.0  0.2637
  H  H5  1  0.388000  0.228000  0.376000  1.0  0.0328
  H  H6  1  0.208000  0.139800  0.262200  1.0  0.0534
  H  H7  1  0.888000  0.728000  0.376000  1.0  0.0328
  H  H8  1  0.708000  0.639800  0.262200  1.0  0.0534
  H  H9  1  0.612000  0.772000  0.376000  1.0  0.0337
  H  H10  1  0.792000  0.860200  0.262200  1.0  0.0563
  H  H11  1  0.112000  0.272000  0.376000  1.0  0.0337
  H  H12  1  0.292000  0.360200  0.262200  1.0  0.0563
  H  H13  1  0.612000  0.228000  0.124000  1.0  0.0333
  H  H14  1  0.792000  0.139800  0.237800  1.0  0.053
  H  H15  1  0.112000  0.728000  0.124000  1.0  0.0333
  H  H16  1  0.292000  0.639800  0.237800  1.0  0.053
  H  H17  1  0.388000  0.772000  0.124000  1.0  0.0327
  H  H18  1  0.208000  0.860200  0.237800  1.0  0.0541
  H  H19  1  0.888000  0.272000  0.124000  1.0  0.0327
  H  H20  1  0.708000  0.360200  0.237800  1.0  0.0541
  H  H21  1  0.612000  0.772000  0.624000  1.0  0.0335
  H  H22  1  0.792000  0.860200  0.737800  1.0  0.0548
  H  H23  1  0.112000  0.272000  0.624000  1.0  0.0335
  H  H24  1  0.292000  0.360200  0.737800  1.0  0.0548
  H  H25  1  0.388000  0.228000  0.624000  1.0  0.0326
  H  H26  1  0.208000  0.139800  0.737800  1.0  0.0544
  H  H27  1  0.888000  0.728000  0.624000  1.0  0.0326
  H  H28  1  0.708000  0.639800  0.737800  1.0  0.0544
  H  H29  1  0.388000  0.772000  0.876000  1.0  0.0332
  H  H30  1  0.208000  0.860200  0.762200  1.0  0.0555
  H  H31  1  0.888000  0.272000  0.876000  1.0  0.0332
  H  H32  1  0.708000  0.360200  0.762200  1.0  0.0555
  H  H33  1  0.612000  0.228000  0.876000  1.0  0.0332
  H  H34  1  0.792000  0.139800  0.762200  1.0  0.0562
  H  H35  1  0.112000  0.728000  0.876000  1.0  0.0332
  H  H36  1  0.292000  0.639800  0.762200  1.0  0.0562
  C  C37  1  0.191400  0.127600  0.369400  1.0  0.0489
  C  C38  1  0.691400  0.627600  0.369400  1.0  0.0489
  C  C39  1  0.808600  0.872400  0.369400  1.0  0.0497
  C  C40  1  0.308600  0.372400  0.369400  1.0  0.0497
  C  C41  1  0.808600  0.127600  0.130600  1.0  0.0477
  C  C42  1  0.308600  0.627600  0.130600  1.0  0.0477
  C  C43  1  0.191400  0.872400  0.130600  1.0  0.0463
  C  C44  1  0.691400  0.372400  0.130600  1.0  0.0463
  C  C45  1  0.808600  0.872400  0.630600  1.0  0.0464
  C  C46  1  0.308600  0.372400  0.630600  1.0  0.0464
  C  C47  1  0.191400  0.127600  0.630600  1.0  0.0475
  C  C48  1  0.691400  0.627600  0.630600  1.0  0.0475
  C  C49  1  0.191400  0.872400  0.869400  1.0  0.0494
  C  C50  1  0.691400  0.372400  0.869400  1.0  0.0494
  C  C51  1  0.808600  0.127600  0.869400  1.0  0.0495
  C  C52  1  0.308600  0.627600  0.869400  1.0  0.0495
  C  C53  1  0.318600  0.224600  0.500000  1.0  0.1299
  C  C54  1  0.818600  0.724600  0.500000  1.0  0.1299
  C  C55  1  0.681400  0.775400  0.500000  1.0  0.132
  C  C56  1  0.181400  0.275400  0.500000  1.0  0.132
  C  C57  1  0.681400  0.224600  0.000000  1.0  0.132
  C  C58  1  0.181400  0.724600  0.000000  1.0  0.132
  C  C59  1  0.318600  0.775400  0.000000  1.0  0.13
  C  C60  1  0.818600  0.275400  0.000000  1.0  0.13
  N  N61  1  0.119100  0.075600  0.418000  1.0  -0.2537
  N  N62  1  0.619100  0.575600  0.418000  1.0  -0.2537
  N  N63  1  0.880900  0.924400  0.418000  1.0  -0.2554
  N  N64  1  0.380900  0.424400  0.418000  1.0  -0.2554
  N  N65  1  0.880900  0.075600  0.082000  1.0  -0.2534
  N  N66  1  0.380900  0.575600  0.082000  1.0  -0.2534
  N  N67  1  0.119100  0.924400  0.082000  1.0  -0.2543
  N  N68  1  0.619100  0.424400  0.082000  1.0  -0.2543
  N  N69  1  0.880900  0.924400  0.582000  1.0  -0.2556
  N  N70  1  0.380900  0.424400  0.582000  1.0  -0.2556
  N  N71  1  0.119100  0.075600  0.582000  1.0  -0.2538
  N  N72  1  0.619100  0.575600  0.582000  1.0  -0.2538
  N  N73  1  0.119100  0.924400  0.918000  1.0  -0.2544
  N  N74  1  0.619100  0.424400  0.918000  1.0  -0.2544
  N  N75  1  0.880900  0.075600  0.918000  1.0  -0.253
  N  N76  1  0.380900  0.575600  0.918000  1.0  -0.253
  N  N77  1  0.238000  0.160800  0.500000  1.0  -0.0263
  N  N78  1  0.738000  0.660800  0.500000  1.0  -0.0263
  N  N79  1  0.762000  0.839200  0.500000  1.0  -0.0262
  N  N80  1  0.262000  0.339200  0.500000  1.0  -0.0262
  N  N81  1  0.762000  0.160800  0.000000  1.0  -0.0265
  N  N82  1  0.262000  0.660800  0.000000  1.0  -0.0265
  N  N83  1  0.238000  0.839200  0.000000  1.0  -0.0265
  N  N84  1  0.738000  0.339200  0.000000  1.0  -0.0265
