# generated using pymatgen
data_CdH20(C6N)4
_symmetry_space_group_name_H-M   'P 1'
_cell_length_a   9.22800000
_cell_length_b   34.07900000
_cell_length_c   23.29900000
_cell_angle_alpha   90.00000000
_cell_angle_beta   90.00000000
_cell_angle_gamma   90.00000000
_symmetry_Int_Tables_number   1
_chemical_formula_structural   CdH20(C6N)4
_chemical_formula_sum   'Cd8 H160 C192 N32'
_cell_volume   7327.09309859
_cell_formula_units_Z   8
loop_
 _symmetry_equiv_pos_site_id
 _symmetry_equiv_pos_as_xyz
  1  'x, y, z'
loop_
 _atom_site_type_symbol
 _atom_site_label
 _atom_site_symmetry_multiplicity
 _atom_site_fract_x
 _atom_site_fract_y
 _atom_site_fract_z
 _atom_site_occupancy
 _atom_site_charge
  Cd  Cd1  1  0.250000  0.750000  0.500000  1.0  0.6709
  Cd  Cd2  1  0.750000  0.250000  0.500000  1.0  0.6709
  Cd  Cd3  1  0.750000  0.750000  0.000000  1.0  0.6709
  Cd  Cd4  1  0.250000  0.250000  0.000000  1.0  0.6709
  Cd  Cd5  1  0.000000  0.000000  0.500000  1.0  0.792
  Cd  Cd6  1  0.500000  0.500000  0.500000  1.0  0.792
  Cd  Cd7  1  0.000000  0.000000  0.000000  1.0  0.792
  Cd  Cd8  1  0.500000  0.500000  0.000000  1.0  0.792
  H  H9  1  0.943900  0.766200  0.437700  1.0  0.0549
  H  H10  1  0.838400  0.795700  0.359700  1.0  0.0852
  H  H11  1  0.219700  0.841800  0.321000  1.0  0.0799
  H  H12  1  0.315200  0.813200  0.402200  1.0  0.06
  H  H13  1  0.859600  0.826400  0.269700  1.0  0.0811
  H  H14  1  0.849200  0.891300  0.254400  1.0  0.0829
  H  H15  1  0.774900  0.893400  0.363900  1.0  0.089
  H  H16  1  0.796800  0.932100  0.441900  1.0  0.0594
  H  H17  1  0.160000  0.970700  0.390700  1.0  0.044
  H  H18  1  0.148100  0.934600  0.309400  1.0  0.1003
  H  H19  1  0.443900  0.266200  0.437700  1.0  0.0549
  H  H20  1  0.338400  0.295700  0.359700  1.0  0.0852
  H  H21  1  0.719700  0.341800  0.321000  1.0  0.0799
  H  H22  1  0.815200  0.313200  0.402200  1.0  0.06
  H  H23  1  0.359600  0.326400  0.269700  1.0  0.0811
  H  H24  1  0.349200  0.391300  0.254400  1.0  0.0829
  H  H25  1  0.274900  0.393400  0.363900  1.0  0.089
  H  H26  1  0.296800  0.432100  0.441900  1.0  0.0594
  H  H27  1  0.660000  0.470700  0.390700  1.0  0.044
  H  H28  1  0.648100  0.434600  0.309400  1.0  0.1003
  H  H29  1  0.056100  0.233800  0.437700  1.0  0.055
  H  H30  1  0.161600  0.204300  0.359700  1.0  0.0857
  H  H31  1  0.780300  0.158200  0.321000  1.0  0.0797
  H  H32  1  0.684800  0.186800  0.402200  1.0  0.0593
  H  H33  1  0.140400  0.173600  0.269700  1.0  0.0819
  H  H34  1  0.150800  0.108700  0.254400  1.0  0.0816
  H  H35  1  0.225100  0.106600  0.363900  1.0  0.0881
  H  H36  1  0.203200  0.067900  0.441900  1.0  0.0594
  H  H37  1  0.840000  0.029300  0.390700  1.0  0.0446
  H  H38  1  0.851900  0.065400  0.309400  1.0  0.0994
  H  H39  1  0.556100  0.733800  0.437700  1.0  0.055
  H  H40  1  0.661600  0.704300  0.359700  1.0  0.0857
  H  H41  1  0.280300  0.658200  0.321000  1.0  0.0797
  H  H42  1  0.184800  0.686800  0.402200  1.0  0.0593
  H  H43  1  0.640400  0.673600  0.269700  1.0  0.0819
  H  H44  1  0.650800  0.608700  0.254400  1.0  0.0816
  H  H45  1  0.725100  0.606600  0.363900  1.0  0.0881
  H  H46  1  0.703200  0.567900  0.441900  1.0  0.0594
  H  H47  1  0.340000  0.529300  0.390700  1.0  0.0446
  H  H48  1  0.351900  0.565400  0.309400  1.0  0.0994
  H  H49  1  0.056100  0.766200  0.062300  1.0  0.0548
  H  H50  1  0.161600  0.795700  0.140300  1.0  0.0852
  H  H51  1  0.780300  0.841800  0.179000  1.0  0.0803
  H  H52  1  0.684800  0.813200  0.097800  1.0  0.0594
  H  H53  1  0.140400  0.826400  0.230300  1.0  0.0815
  H  H54  1  0.150800  0.891300  0.245600  1.0  0.0815
  H  H55  1  0.225100  0.893400  0.136100  1.0  0.0877
  H  H56  1  0.203200  0.932100  0.058100  1.0  0.0595
  H  H57  1  0.840000  0.970700  0.109300  1.0  0.0453
  H  H58  1  0.851900  0.934600  0.190600  1.0  0.0994
  H  H59  1  0.556100  0.266200  0.062300  1.0  0.0548
  H  H60  1  0.661600  0.295700  0.140300  1.0  0.0852
  H  H61  1  0.280300  0.341800  0.179000  1.0  0.0803
  H  H62  1  0.184800  0.313200  0.097800  1.0  0.0594
  H  H63  1  0.640400  0.326400  0.230300  1.0  0.0815
  H  H64  1  0.650800  0.391300  0.245600  1.0  0.0815
  H  H65  1  0.725100  0.393400  0.136100  1.0  0.0877
  H  H66  1  0.703200  0.432100  0.058100  1.0  0.0595
  H  H67  1  0.340000  0.470700  0.109300  1.0  0.0453
  H  H68  1  0.351900  0.434600  0.190600  1.0  0.0994
  H  H69  1  0.943900  0.233800  0.062300  1.0  0.0551
  H  H70  1  0.838400  0.204300  0.140300  1.0  0.0854
  H  H71  1  0.219700  0.158200  0.179000  1.0  0.0799
  H  H72  1  0.315200  0.186800  0.097800  1.0  0.0592
  H  H73  1  0.859600  0.173600  0.230300  1.0  0.0808
  H  H74  1  0.849200  0.108700  0.245600  1.0  0.0823
  H  H75  1  0.774900  0.106600  0.136100  1.0  0.089
  H  H76  1  0.796800  0.067900  0.058100  1.0  0.059
  H  H77  1  0.160000  0.029300  0.109300  1.0  0.0436
  H  H78  1  0.148100  0.065400  0.190600  1.0  0.0997
  H  H79  1  0.443900  0.733800  0.062300  1.0  0.0551
  H  H80  1  0.338400  0.704300  0.140300  1.0  0.0854
  H  H81  1  0.719700  0.658200  0.179000  1.0  0.0799
  H  H82  1  0.815200  0.686800  0.097800  1.0  0.0592
  H  H83  1  0.359600  0.673600  0.230300  1.0  0.0808
  H  H84  1  0.349200  0.608700  0.245600  1.0  0.0823
  H  H85  1  0.274900  0.606600  0.136100  1.0  0.089
  H  H86  1  0.296800  0.567900  0.058100  1.0  0.059
  H  H87  1  0.660000  0.529300  0.109300  1.0  0.0436
  H  H88  1  0.648100  0.565400  0.190600  1.0  0.0997
  H  H89  1  0.056100  0.233800  0.562300  1.0  0.055
  H  H90  1  0.161600  0.204300  0.640300  1.0  0.0852
  H  H91  1  0.780300  0.158200  0.679000  1.0  0.0797
  H  H92  1  0.684800  0.186800  0.597800  1.0  0.0594
  H  H93  1  0.140400  0.173600  0.730300  1.0  0.0819
  H  H94  1  0.150800  0.108700  0.745600  1.0  0.0813
  H  H95  1  0.225100  0.106600  0.636100  1.0  0.0879
  H  H96  1  0.203200  0.067900  0.558100  1.0  0.0587
  H  H97  1  0.840000  0.029300  0.609300  1.0  0.0448
  H  H98  1  0.851900  0.065400  0.690600  1.0  0.0995
  H  H99  1  0.556100  0.733800  0.562300  1.0  0.055
  H  H100  1  0.661600  0.704300  0.640300  1.0  0.0852
  H  H101  1  0.280300  0.658200  0.679000  1.0  0.0797
  H  H102  1  0.184800  0.686800  0.597800  1.0  0.0594
  H  H103  1  0.640400  0.673600  0.730300  1.0  0.0819
  H  H104  1  0.650800  0.608700  0.745600  1.0  0.0813
  H  H105  1  0.725100  0.606600  0.636100  1.0  0.0879
  H  H106  1  0.703200  0.567900  0.558100  1.0  0.0587
  H  H107  1  0.340000  0.529300  0.609300  1.0  0.0448
  H  H108  1  0.351900  0.565400  0.690600  1.0  0.0995
  H  H109  1  0.943900  0.766200  0.562300  1.0  0.0544
  H  H110  1  0.838400  0.795700  0.640300  1.0  0.0849
  H  H111  1  0.219700  0.841800  0.679000  1.0  0.0802
  H  H112  1  0.315200  0.813200  0.597800  1.0  0.0599
  H  H113  1  0.859600  0.826400  0.730300  1.0  0.081
  H  H114  1  0.849200  0.891300  0.745600  1.0  0.0829
  H  H115  1  0.774900  0.893400  0.636100  1.0  0.0886
  H  H116  1  0.796800  0.932100  0.558100  1.0  0.0586
  H  H117  1  0.160000  0.970700  0.609300  1.0  0.0442
  H  H118  1  0.148100  0.934600  0.690600  1.0  0.1
  H  H119  1  0.443900  0.266200  0.562300  1.0  0.0544
  H  H120  1  0.338400  0.295700  0.640300  1.0  0.0849
  H  H121  1  0.719700  0.341800  0.679000  1.0  0.0802
  H  H122  1  0.815200  0.313200  0.597800  1.0  0.0599
  H  H123  1  0.359600  0.326400  0.730300  1.0  0.081
  H  H124  1  0.349200  0.391300  0.745600  1.0  0.0829
  H  H125  1  0.274900  0.393400  0.636100  1.0  0.0886
  H  H126  1  0.296800  0.432100  0.558100  1.0  0.0586
  H  H127  1  0.660000  0.470700  0.609300  1.0  0.0442
  H  H128  1  0.648100  0.434600  0.690600  1.0  0.1
  H  H129  1  0.943900  0.233800  0.937700  1.0  0.0549
  H  H130  1  0.838400  0.204300  0.859700  1.0  0.0856
  H  H131  1  0.219700  0.158200  0.821000  1.0  0.0797
  H  H132  1  0.315200  0.186800  0.902200  1.0  0.0598
  H  H133  1  0.859600  0.173600  0.769700  1.0  0.0806
  H  H134  1  0.849200  0.108700  0.754400  1.0  0.0823
  H  H135  1  0.774900  0.106600  0.863900  1.0  0.0891
  H  H136  1  0.796800  0.067900  0.941900  1.0  0.0584
  H  H137  1  0.160000  0.029300  0.890700  1.0  0.0438
  H  H138  1  0.148100  0.065400  0.809400  1.0  0.0995
  H  H139  1  0.443900  0.733800  0.937700  1.0  0.0549
  H  H140  1  0.338400  0.704300  0.859700  1.0  0.0856
  H  H141  1  0.719700  0.658200  0.821000  1.0  0.0797
  H  H142  1  0.815200  0.686800  0.902200  1.0  0.0598
  H  H143  1  0.359600  0.673600  0.769700  1.0  0.0806
  H  H144  1  0.349200  0.608700  0.754400  1.0  0.0823
  H  H145  1  0.274900  0.606600  0.863900  1.0  0.0891
  H  H146  1  0.296800  0.567900  0.941900  1.0  0.0584
  H  H147  1  0.660000  0.529300  0.890700  1.0  0.0438
  H  H148  1  0.648100  0.565400  0.809400  1.0  0.0995
  H  H149  1  0.056100  0.766200  0.937700  1.0  0.055
  H  H150  1  0.161600  0.795700  0.859700  1.0  0.0858
  H  H151  1  0.780300  0.841800  0.821000  1.0  0.0802
  H  H152  1  0.684800  0.813200  0.902200  1.0  0.0589
  H  H153  1  0.140400  0.826400  0.769700  1.0  0.0819
  H  H154  1  0.150800  0.891300  0.754400  1.0  0.0819
  H  H155  1  0.225100  0.893400  0.863900  1.0  0.0883
  H  H156  1  0.203200  0.932100  0.941900  1.0  0.059
  H  H157  1  0.840000  0.970700  0.890700  1.0  0.0447
  H  H158  1  0.851900  0.934600  0.809400  1.0  0.0996
  H  H159  1  0.556100  0.266200  0.937700  1.0  0.055
  H  H160  1  0.661600  0.295700  0.859700  1.0  0.0858
  H  H161  1  0.280300  0.341800  0.821000  1.0  0.0802
  H  H162  1  0.184800  0.313200  0.902200  1.0  0.0589
  H  H163  1  0.640400  0.326400  0.769700  1.0  0.0819
  H  H164  1  0.650800  0.391300  0.754400  1.0  0.0819
  H  H165  1  0.725100  0.393400  0.863900  1.0  0.0883
  H  H166  1  0.703200  0.432100  0.941900  1.0  0.059
  H  H167  1  0.340000  0.470700  0.890700  1.0  0.0447
  H  H168  1  0.351900  0.434600  0.809400  1.0  0.0996
  C  C169  1  0.000800  0.781700  0.413900  1.0  0.1352
  C  C170  1  0.936900  0.799200  0.366600  1.0  -0.2158
  C  C171  1  0.018300  0.821420  0.329760  1.0  0.1144
  C  C172  1  0.160500  0.826400  0.344200  1.0  -0.2127
  C  C173  1  0.218400  0.808900  0.393000  1.0  0.113
  C  C174  1  0.954000  0.838470  0.277350  1.0  -0.1163
  C  C175  1  0.941800  0.884650  0.272540  1.0  -0.1179
  C  C176  1  0.958700  0.909250  0.326530  1.0  0.08
  C  C177  1  0.856400  0.909200  0.367900  1.0  -0.2534
  C  C178  1  0.871200  0.932000  0.415000  1.0  0.1407
  C  C179  1  0.079900  0.954600  0.385700  1.0  0.168
  C  C180  1  0.073700  0.933000  0.336200  1.0  -0.2437
  C  C181  1  0.500800  0.281700  0.413900  1.0  0.1352
  C  C182  1  0.436900  0.299200  0.366600  1.0  -0.2158
  C  C183  1  0.518300  0.321420  0.329760  1.0  0.1144
  C  C184  1  0.660500  0.326400  0.344200  1.0  -0.2127
  C  C185  1  0.718400  0.308900  0.393000  1.0  0.113
  C  C186  1  0.454000  0.338470  0.277350  1.0  -0.1163
  C  C187  1  0.441800  0.384650  0.272540  1.0  -0.1179
  C  C188  1  0.458700  0.409250  0.326530  1.0  0.08
  C  C189  1  0.356400  0.409200  0.367900  1.0  -0.2534
  C  C190  1  0.371200  0.432000  0.415000  1.0  0.1407
  C  C191  1  0.579900  0.454600  0.385700  1.0  0.168
  C  C192  1  0.573700  0.433000  0.336200  1.0  -0.2437
  C  C193  1  0.999200  0.218300  0.413900  1.0  0.135
  C  C194  1  0.063100  0.200800  0.366600  1.0  -0.2142
  C  C195  1  0.981700  0.178580  0.329760  1.0  0.1149
  C  C196  1  0.839500  0.173600  0.344200  1.0  -0.2152
  C  C197  1  0.781600  0.191100  0.393000  1.0  0.1116
  C  C198  1  0.046000  0.161530  0.277350  1.0  -0.1157
  C  C199  1  0.058200  0.115350  0.272540  1.0  -0.1159
  C  C200  1  0.041300  0.090750  0.326530  1.0  0.0777
  C  C201  1  0.143600  0.090800  0.367900  1.0  -0.2533
  C  C202  1  0.128800  0.068000  0.415000  1.0  0.1412
  C  C203  1  0.920100  0.045400  0.385700  1.0  0.1685
  C  C204  1  0.926300  0.067000  0.336200  1.0  -0.2432
  C  C205  1  0.499200  0.718300  0.413900  1.0  0.135
  C  C206  1  0.563100  0.700800  0.366600  1.0  -0.2142
  C  C207  1  0.481700  0.678580  0.329760  1.0  0.1149
  C  C208  1  0.339500  0.673600  0.344200  1.0  -0.2152
  C  C209  1  0.281600  0.691100  0.393000  1.0  0.1116
  C  C210  1  0.546000  0.661530  0.277350  1.0  -0.1157
  C  C211  1  0.558200  0.615350  0.272540  1.0  -0.1159
  C  C212  1  0.541300  0.590750  0.326530  1.0  0.0777
  C  C213  1  0.643600  0.590800  0.367900  1.0  -0.2533
  C  C214  1  0.628800  0.568000  0.415000  1.0  0.1412
  C  C215  1  0.420100  0.545400  0.385700  1.0  0.1685
  C  C216  1  0.426300  0.567000  0.336200  1.0  -0.2432
  C  C217  1  0.999200  0.781700  0.086100  1.0  0.135
  C  C218  1  0.063100  0.799200  0.133400  1.0  -0.2132
  C  C219  1  0.981700  0.821420  0.170240  1.0  0.114
  C  C220  1  0.839500  0.826400  0.155800  1.0  -0.2152
  C  C221  1  0.781600  0.808900  0.107000  1.0  0.1112
  C  C222  1  0.046000  0.838470  0.222650  1.0  -0.1152
  C  C223  1  0.058200  0.884650  0.227460  1.0  -0.1138
  C  C224  1  0.041300  0.909250  0.173470  1.0  0.0801
  C  C225  1  0.143600  0.909200  0.132100  1.0  -0.254
  C  C226  1  0.128800  0.932000  0.085000  1.0  0.142
  C  C227  1  0.920100  0.954600  0.114300  1.0  0.1678
  C  C228  1  0.926300  0.933000  0.163800  1.0  -0.2432
  C  C229  1  0.499200  0.281700  0.086100  1.0  0.135
  C  C230  1  0.563100  0.299200  0.133400  1.0  -0.2132
  C  C231  1  0.481700  0.321420  0.170240  1.0  0.114
  C  C232  1  0.339500  0.326400  0.155800  1.0  -0.2152
  C  C233  1  0.281600  0.308900  0.107000  1.0  0.1112
  C  C234  1  0.546000  0.338470  0.222650  1.0  -0.1152
  C  C235  1  0.558200  0.384650  0.227460  1.0  -0.1138
  C  C236  1  0.541300  0.409250  0.173470  1.0  0.0801
  C  C237  1  0.643600  0.409200  0.132100  1.0  -0.254
  C  C238  1  0.628800  0.432000  0.085000  1.0  0.142
  C  C239  1  0.420100  0.454600  0.114300  1.0  0.1678
  C  C240  1  0.426300  0.433000  0.163800  1.0  -0.2432
  C  C241  1  0.000800  0.218300  0.086100  1.0  0.1355
  C  C242  1  0.936900  0.200800  0.133400  1.0  -0.2177
  C  C243  1  0.018300  0.178580  0.170240  1.0  0.115
  C  C244  1  0.160500  0.173600  0.155800  1.0  -0.2138
  C  C245  1  0.218400  0.191100  0.107000  1.0  0.1127
  C  C246  1  0.954000  0.161530  0.222650  1.0  -0.1158
  C  C247  1  0.941800  0.115350  0.227460  1.0  -0.1151
  C  C248  1  0.958700  0.090750  0.173470  1.0  0.0793
  C  C249  1  0.856400  0.090800  0.132100  1.0  -0.2528
  C  C250  1  0.871200  0.068000  0.085000  1.0  0.141
  C  C251  1  0.079900  0.045400  0.114300  1.0  0.1686
  C  C252  1  0.073700  0.067000  0.163800  1.0  -0.2427
  C  C253  1  0.500800  0.718300  0.086100  1.0  0.1355
  C  C254  1  0.436900  0.700800  0.133400  1.0  -0.2177
  C  C255  1  0.518300  0.678580  0.170240  1.0  0.115
  C  C256  1  0.660500  0.673600  0.155800  1.0  -0.2138
  C  C257  1  0.718400  0.691100  0.107000  1.0  0.1127
  C  C258  1  0.454000  0.661530  0.222650  1.0  -0.1158
  C  C259  1  0.441800  0.615350  0.227460  1.0  -0.1151
  C  C260  1  0.458700  0.590750  0.173470  1.0  0.0793
  C  C261  1  0.356400  0.590800  0.132100  1.0  -0.2528
  C  C262  1  0.371200  0.568000  0.085000  1.0  0.141
  C  C263  1  0.579900  0.545400  0.114300  1.0  0.1686
  C  C264  1  0.573700  0.567000  0.163800  1.0  -0.2427
  C  C265  1  0.999200  0.218300  0.586100  1.0  0.1353
  C  C266  1  0.063100  0.200800  0.633400  1.0  -0.2134
  C  C267  1  0.981700  0.178580  0.670240  1.0  0.115
  C  C268  1  0.839500  0.173600  0.655800  1.0  -0.2159
  C  C269  1  0.781600  0.191100  0.607000  1.0  0.1114
  C  C270  1  0.046000  0.161530  0.722650  1.0  -0.1146
  C  C271  1  0.058200  0.115350  0.727460  1.0  -0.1142
  C  C272  1  0.041300  0.090750  0.673470  1.0  0.0788
  C  C273  1  0.143600  0.090800  0.632100  1.0  -0.2537
  C  C274  1  0.128800  0.068000  0.585000  1.0  0.1416
  C  C275  1  0.920100  0.045400  0.614300  1.0  0.1679
  C  C276  1  0.926300  0.067000  0.663800  1.0  -0.243
  C  C277  1  0.499200  0.718300  0.586100  1.0  0.1353
  C  C278  1  0.563100  0.700800  0.633400  1.0  -0.2134
  C  C279  1  0.481700  0.678580  0.670240  1.0  0.115
  C  C280  1  0.339500  0.673600  0.655800  1.0  -0.2159
  C  C281  1  0.281600  0.691100  0.607000  1.0  0.1114
  C  C282  1  0.546000  0.661530  0.722650  1.0  -0.1146
  C  C283  1  0.558200  0.615350  0.727460  1.0  -0.1142
  C  C284  1  0.541300  0.590750  0.673470  1.0  0.0788
  C  C285  1  0.643600  0.590800  0.632100  1.0  -0.2537
  C  C286  1  0.628800  0.568000  0.585000  1.0  0.1416
  C  C287  1  0.420100  0.545400  0.614300  1.0  0.1679
  C  C288  1  0.426300  0.567000  0.663800  1.0  -0.243
  C  C289  1  0.000800  0.781700  0.586100  1.0  0.1352
  C  C290  1  0.936900  0.799200  0.633400  1.0  -0.2159
  C  C291  1  0.018300  0.821420  0.670240  1.0  0.1142
  C  C292  1  0.160500  0.826400  0.655800  1.0  -0.2134
  C  C293  1  0.218400  0.808900  0.607000  1.0  0.1126
  C  C294  1  0.954000  0.838470  0.722650  1.0  -0.116
  C  C295  1  0.941800  0.884650  0.727460  1.0  -0.1154
  C  C296  1  0.958700  0.909250  0.673470  1.0  0.0807
  C  C297  1  0.856400  0.909200  0.632100  1.0  -0.2532
  C  C298  1  0.871200  0.932000  0.585000  1.0  0.1409
  C  C299  1  0.079900  0.954600  0.614300  1.0  0.1686
  C  C300  1  0.073700  0.933000  0.663800  1.0  -0.2439
  C  C301  1  0.500800  0.281700  0.586100  1.0  0.1352
  C  C302  1  0.436900  0.299200  0.633400  1.0  -0.2159
  C  C303  1  0.518300  0.321420  0.670240  1.0  0.1142
  C  C304  1  0.660500  0.326400  0.655800  1.0  -0.2134
  C  C305  1  0.718400  0.308900  0.607000  1.0  0.1126
  C  C306  1  0.454000  0.338470  0.722650  1.0  -0.116
  C  C307  1  0.441800  0.384650  0.727460  1.0  -0.1154
  C  C308  1  0.458700  0.409250  0.673470  1.0  0.0807
  C  C309  1  0.356400  0.409200  0.632100  1.0  -0.2532
  C  C310  1  0.371200  0.432000  0.585000  1.0  0.1409
  C  C311  1  0.579900  0.454600  0.614300  1.0  0.1686
  C  C312  1  0.573700  0.433000  0.663800  1.0  -0.2439
  C  C313  1  0.000800  0.218300  0.913900  1.0  0.1348
  C  C314  1  0.936900  0.200800  0.866600  1.0  -0.2181
  C  C315  1  0.018300  0.178580  0.829760  1.0  0.1151
  C  C316  1  0.160500  0.173600  0.844200  1.0  -0.2131
  C  C317  1  0.218400  0.191100  0.893000  1.0  0.1133
  C  C318  1  0.954000  0.161530  0.777350  1.0  -0.1168
  C  C319  1  0.941800  0.115350  0.772540  1.0  -0.117
  C  C320  1  0.958700  0.090750  0.826530  1.0  0.0785
  C  C321  1  0.856400  0.090800  0.867900  1.0  -0.2529
  C  C322  1  0.871200  0.068000  0.915000  1.0  0.1407
  C  C323  1  0.079900  0.045400  0.885700  1.0  0.1689
  C  C324  1  0.073700  0.067000  0.836200  1.0  -0.2428
  C  C325  1  0.500800  0.718300  0.913900  1.0  0.1348
  C  C326  1  0.436900  0.700800  0.866600  1.0  -0.2181
  C  C327  1  0.518300  0.678580  0.829760  1.0  0.1151
  C  C328  1  0.660500  0.673600  0.844200  1.0  -0.2131
  C  C329  1  0.718400  0.691100  0.893000  1.0  0.1133
  C  C330  1  0.454000  0.661530  0.777350  1.0  -0.1168
  C  C331  1  0.441800  0.615350  0.772540  1.0  -0.117
  C  C332  1  0.458700  0.590750  0.826530  1.0  0.0785
  C  C333  1  0.356400  0.590800  0.867900  1.0  -0.2529
  C  C334  1  0.371200  0.568000  0.915000  1.0  0.1407
  C  C335  1  0.579900  0.545400  0.885700  1.0  0.1689
  C  C336  1  0.573700  0.567000  0.836200  1.0  -0.2428
  C  C337  1  0.999200  0.781700  0.913900  1.0  0.1353
  C  C338  1  0.063100  0.799200  0.866600  1.0  -0.2135
  C  C339  1  0.981700  0.821420  0.829760  1.0  0.1141
  C  C340  1  0.839500  0.826400  0.844200  1.0  -0.2146
  C  C341  1  0.781600  0.808900  0.893000  1.0  0.1112
  C  C342  1  0.046000  0.838470  0.777350  1.0  -0.1157
  C  C343  1  0.058200  0.884650  0.772540  1.0  -0.1161
  C  C344  1  0.041300  0.909250  0.826530  1.0  0.079
  C  C345  1  0.143600  0.909200  0.867900  1.0  -0.2536
  C  C346  1  0.128800  0.932000  0.915000  1.0  0.1418
  C  C347  1  0.920100  0.954600  0.885700  1.0  0.1677
  C  C348  1  0.926300  0.933000  0.836200  1.0  -0.2433
  C  C349  1  0.499200  0.281700  0.913900  1.0  0.1353
  C  C350  1  0.563100  0.299200  0.866600  1.0  -0.2135
  C  C351  1  0.481700  0.321420  0.829760  1.0  0.1141
  C  C352  1  0.339500  0.326400  0.844200  1.0  -0.2146
  C  C353  1  0.281600  0.308900  0.893000  1.0  0.1112
  C  C354  1  0.546000  0.338470  0.777350  1.0  -0.1157
  C  C355  1  0.558200  0.384650  0.772540  1.0  -0.1161
  C  C356  1  0.541300  0.409250  0.826530  1.0  0.079
  C  C357  1  0.643600  0.409200  0.867900  1.0  -0.2536
  C  C358  1  0.628800  0.432000  0.915000  1.0  0.1418
  C  C359  1  0.420100  0.454600  0.885700  1.0  0.1677
  C  C360  1  0.426300  0.433000  0.836200  1.0  -0.2433
  N  N361  1  0.139000  0.786250  0.426570  1.0  -0.3554
  N  N362  1  0.986700  0.954370  0.424850  1.0  -0.3356
  N  N363  1  0.639000  0.286250  0.426570  1.0  -0.3554
  N  N364  1  0.486700  0.454370  0.424850  1.0  -0.3356
  N  N365  1  0.861000  0.213750  0.426570  1.0  -0.357
  N  N366  1  0.013300  0.045630  0.424850  1.0  -0.3353
  N  N367  1  0.361000  0.713750  0.426570  1.0  -0.357
  N  N368  1  0.513300  0.545630  0.424850  1.0  -0.3353
  N  N369  1  0.861000  0.786250  0.073430  1.0  -0.3589
  N  N370  1  0.013300  0.954370  0.075150  1.0  -0.3363
  N  N371  1  0.361000  0.286250  0.073430  1.0  -0.3589
  N  N372  1  0.513300  0.454370  0.075150  1.0  -0.3363
  N  N373  1  0.139000  0.213750  0.073430  1.0  -0.3578
  N  N374  1  0.986700  0.045630  0.075150  1.0  -0.3377
  N  N375  1  0.639000  0.713750  0.073430  1.0  -0.3578
  N  N376  1  0.486700  0.545630  0.075150  1.0  -0.3377
  N  N377  1  0.861000  0.213750  0.573430  1.0  -0.3574
  N  N378  1  0.013300  0.045630  0.575150  1.0  -0.3374
  N  N379  1  0.361000  0.713750  0.573430  1.0  -0.3574
  N  N380  1  0.513300  0.545630  0.575150  1.0  -0.3374
  N  N381  1  0.139000  0.786250  0.573430  1.0  -0.3592
  N  N382  1  0.986700  0.954370  0.575150  1.0  -0.3367
  N  N383  1  0.639000  0.286250  0.573430  1.0  -0.3592
  N  N384  1  0.486700  0.454370  0.575150  1.0  -0.3367
  N  N385  1  0.139000  0.213750  0.926570  1.0  -0.3556
  N  N386  1  0.986700  0.045630  0.924850  1.0  -0.335
  N  N387  1  0.639000  0.713750  0.926570  1.0  -0.3556
  N  N388  1  0.486700  0.545630  0.924850  1.0  -0.335
  N  N389  1  0.861000  0.786250  0.926570  1.0  -0.3567
  N  N390  1  0.013300  0.954370  0.924850  1.0  -0.3359
  N  N391  1  0.361000  0.286250  0.926570  1.0  -0.3567
  N  N392  1  0.513300  0.454370  0.924850  1.0  -0.3359
