# generated using pymatgen
data_CuH11C11(NO2)2
_symmetry_space_group_name_H-M   'P 1'
_cell_length_a   8.64100000
_cell_length_b   13.15300000
_cell_length_c   15.30180000
_cell_angle_alpha   115.45400000
_cell_angle_beta   94.96470000
_cell_angle_gamma   90.00000000
_symmetry_Int_Tables_number   1
_chemical_formula_structural   CuH11C11(NO2)2
_chemical_formula_sum   'Cu4 H44 C44 N8 O16'
_cell_volume   1563.08182934
_cell_formula_units_Z   4
loop_
 _symmetry_equiv_pos_site_id
 _symmetry_equiv_pos_as_xyz
  1  'x, y, z'
loop_
 _atom_site_type_symbol
 _atom_site_label
 _atom_site_symmetry_multiplicity
 _atom_site_fract_x
 _atom_site_fract_y
 _atom_site_fract_z
 _atom_site_occupancy
 _atom_site_charge
  Cu  Cu1  1  0.038100  0.914870  0.420960  1.0  0.8017
  Cu  Cu2  1  0.461900  0.493910  0.579040  1.0  0.8028
  Cu  Cu3  1  0.961900  0.085130  0.579040  1.0  0.8027
  Cu  Cu4  1  0.538100  0.506090  0.420960  1.0  0.8029
  H  H5  1  0.176300  0.864100  0.227000  1.0  0.0875
  H  H6  1  0.317700  0.735800  0.115000  1.0  0.1203
  H  H7  1  0.273700  0.534900  0.245200  1.0  0.12
  H  H8  1  0.130700  0.668200  0.353800  1.0  0.0813
  H  H9  1  0.403900  0.461800  0.096800  1.0  0.0802
  H  H10  1  0.493700  0.924700  0.383200  1.0  0.1254
  H  H11  1  0.568200  0.940500  0.299800  1.0  0.1179
  H  H12  1  0.394700  0.085700  0.371600  1.0  0.0714
  H  H13  1  0.488900  0.122300  0.473400  1.0  0.0752
  H  H14  1  0.707000  0.166500  0.407400  1.0  0.127
  H  H15  1  0.598000  0.143900  0.313400  1.0  0.1168
  H  H16  1  0.323700  0.637100  0.773000  1.0  0.0843
  H  H17  1  0.182300  0.620800  0.885000  1.0  0.1211
  H  H18  1  0.226300  0.289700  0.754800  1.0  0.121
  H  H19  1  0.369300  0.314400  0.646200  1.0  0.0799
  H  H20  1  0.096100  0.365000  0.903200  1.0  0.0814
  H  H21  1  0.006300  0.541500  0.616800  1.0  0.1234
  H  H22  1  0.931800  0.640700  0.700200  1.0  0.1183
  H  H23  1  0.105300  0.714100  0.628400  1.0  0.0709
  H  H24  1  0.011100  0.648900  0.526600  1.0  0.074
  H  H25  1  0.793000  0.759100  0.592600  1.0  0.1266
  H  H26  1  0.902000  0.830500  0.686600  1.0  0.1169
  H  H27  1  0.823700  0.135900  0.773000  1.0  0.0874
  H  H28  1  0.682300  0.264200  0.885000  1.0  0.1206
  H  H29  1  0.726300  0.465100  0.754800  1.0  0.1204
  H  H30  1  0.869300  0.331800  0.646200  1.0  0.0815
  H  H31  1  0.596100  0.538200  0.903200  1.0  0.0792
  H  H32  1  0.506300  0.075300  0.616800  1.0  0.1251
  H  H33  1  0.431800  0.059500  0.700200  1.0  0.1181
  H  H34  1  0.605300  0.914300  0.628400  1.0  0.0716
  H  H35  1  0.511100  0.877700  0.526600  1.0  0.0746
  H  H36  1  0.293000  0.833500  0.592600  1.0  0.1268
  H  H37  1  0.402000  0.856100  0.686600  1.0  0.1171
  H  H38  1  0.676300  0.362900  0.227000  1.0  0.0844
  H  H39  1  0.817700  0.379200  0.115000  1.0  0.1209
  H  H40  1  0.773700  0.710300  0.245200  1.0  0.1208
  H  H41  1  0.630700  0.685600  0.353800  1.0  0.0796
  H  H42  1  0.903900  0.635000  0.096800  1.0  0.0816
  H  H43  1  0.993700  0.458500  0.383200  1.0  0.1244
  H  H44  1  0.068200  0.359300  0.299800  1.0  0.1176
  H  H45  1  0.894700  0.285900  0.371600  1.0  0.0702
  H  H46  1  0.988900  0.351100  0.473400  1.0  0.0747
  H  H47  1  0.207000  0.240900  0.407400  1.0  0.1265
  H  H48  1  0.098000  0.169500  0.313400  1.0  0.1162
  C  C49  1  0.196200  0.796700  0.231000  1.0  0.169
  C  C50  1  0.280500  0.720000  0.163400  1.0  -0.1747
  C  C51  1  0.310500  0.619470  0.166740  1.0  0.0569
  C  C52  1  0.254500  0.601680  0.239760  1.0  -0.1807
  C  C53  1  0.169800  0.682400  0.305200  1.0  0.1758
  C  C54  1  0.396700  0.531700  0.095400  1.0  0.1707
  C  C55  1  0.724500  0.974900  0.418800  1.0  0.696
  C  C56  1  0.563500  0.972700  0.369600  1.0  -0.3278
  C  C57  1  0.497900  0.091400  0.404200  1.0  -0.0213
  C  C58  1  0.600800  0.170500  0.383200  1.0  -0.3348
  C  C59  1  0.057200  0.134100  0.427000  1.0  0.7027
  C  C60  1  0.303800  0.565700  0.769000  1.0  0.1718
  C  C61  1  0.219500  0.556600  0.836600  1.0  -0.1751
  C  C62  1  0.189500  0.452730  0.833260  1.0  0.0561
  C  C63  1  0.245500  0.361920  0.760240  1.0  -0.1797
  C  C64  1  0.330200  0.377200  0.694800  1.0  0.1784
  C  C65  1  0.103300  0.436300  0.904600  1.0  0.1723
  C  C66  1  0.775500  0.556100  0.581200  1.0  0.6953
  C  C67  1  0.936500  0.603100  0.630400  1.0  -0.3254
  C  C68  1  0.002100  0.687200  0.595800  1.0  -0.0221
  C  C69  1  0.899200  0.787300  0.616800  1.0  -0.3354
  C  C70  1  0.442800  0.707100  0.573000  1.0  0.7021
  C  C71  1  0.803800  0.203300  0.769000  1.0  0.1697
  C  C72  1  0.719500  0.280000  0.836600  1.0  -0.1736
  C  C73  1  0.689500  0.380530  0.833260  1.0  0.0572
  C  C74  1  0.745500  0.398320  0.760240  1.0  -0.1811
  C  C75  1  0.830200  0.317600  0.694800  1.0  0.1759
  C  C76  1  0.603300  0.468300  0.904600  1.0  0.1691
  C  C77  1  0.275500  0.025100  0.581200  1.0  0.6967
  C  C78  1  0.436500  0.027300  0.630400  1.0  -0.3279
  C  C79  1  0.502100  0.908600  0.595800  1.0  -0.0243
  C  C80  1  0.399200  0.829500  0.616800  1.0  -0.3347
  C  C81  1  0.942800  0.865900  0.573000  1.0  0.7034
  C  C82  1  0.696200  0.434300  0.231000  1.0  0.1707
  C  C83  1  0.780500  0.443400  0.163400  1.0  -0.1743
  C  C84  1  0.810500  0.547270  0.166740  1.0  0.0567
  C  C85  1  0.754500  0.638080  0.239760  1.0  -0.1797
  C  C86  1  0.669800  0.622800  0.305200  1.0  0.1781
  C  C87  1  0.896700  0.563700  0.095400  1.0  0.1712
  C  C88  1  0.224500  0.443900  0.418800  1.0  0.6957
  C  C89  1  0.063500  0.396900  0.369600  1.0  -0.327
  C  C90  1  0.997900  0.312800  0.404200  1.0  -0.0213
  C  C91  1  0.100800  0.212700  0.383200  1.0  -0.3351
  C  C92  1  0.557200  0.292900  0.427000  1.0  0.7028
  N  N93  1  0.141100  0.780220  0.302040  1.0  -0.3294
  N  N94  1  0.462400  0.549000  0.030800  1.0  -0.2614
  N  N95  1  0.358900  0.478180  0.697960  1.0  -0.33
  N  N96  1  0.037600  0.518200  0.969200  1.0  -0.2621
  N  N97  1  0.858900  0.219780  0.697960  1.0  -0.3294
  N  N98  1  0.537600  0.451000  0.969200  1.0  -0.262
  N  N99  1  0.641100  0.521820  0.302040  1.0  -0.3295
  N  N100  1  0.962400  0.481800  0.030800  1.0  -0.2627
  O  O101  1  0.818800  0.905490  0.368180  1.0  -0.5689
  O  O102  1  0.074100  0.031100  0.375400  1.0  -0.5755
  O  O103  1  0.756000  0.046410  0.504220  1.0  -0.5612
  O  O104  1  0.013100  0.175170  0.509340  1.0  -0.5585
  O  O105  1  0.681200  0.537310  0.631820  1.0  -0.5698
  O  O106  1  0.425900  0.655700  0.624600  1.0  -0.5759
  O  O107  1  0.744000  0.542190  0.495780  1.0  -0.5615
  O  O108  1  0.486900  0.665830  0.490660  1.0  -0.5603
  O  O109  1  0.181200  0.094510  0.631820  1.0  -0.5685
  O  O110  1  0.925900  0.968900  0.624600  1.0  -0.5749
  O  O111  1  0.244000  0.953590  0.495780  1.0  -0.5615
  O  O112  1  0.986900  0.824830  0.490660  1.0  -0.5594
  O  O113  1  0.318800  0.462690  0.368180  1.0  -0.5695
  O  O114  1  0.574100  0.344300  0.375400  1.0  -0.5757
  O  O115  1  0.256000  0.457810  0.504220  1.0  -0.5614
  O  O116  1  0.513100  0.334170  0.509340  1.0  -0.5591
