# generated using pymatgen
data_CuH11C11(NO2)2
_symmetry_space_group_name_H-M   'P 1'
_cell_length_a   8.64620000
_cell_length_b   13.15980000
_cell_length_c   15.32180000
_cell_angle_alpha   115.43300000
_cell_angle_beta   94.90690000
_cell_angle_gamma   90.00000000
_symmetry_Int_Tables_number   1
_chemical_formula_structural   CuH11C11(NO2)2
_chemical_formula_sum   'Cu4 H44 C44 N8 O16'
_cell_volume   1567.31982289
_cell_formula_units_Z   4
loop_
 _symmetry_equiv_pos_site_id
 _symmetry_equiv_pos_as_xyz
  1  'x, y, z'
loop_
 _atom_site_type_symbol
 _atom_site_label
 _atom_site_symmetry_multiplicity
 _atom_site_fract_x
 _atom_site_fract_y
 _atom_site_fract_z
 _atom_site_occupancy
 _atom_site_charge
  Cu  Cu1  1  0.961890  0.493900  0.578980  1.0  0.7965
  Cu  Cu2  1  0.538110  0.914920  0.421020  1.0  0.7954
  Cu  Cu3  1  0.038110  0.506100  0.421020  1.0  0.7961
  Cu  Cu4  1  0.461890  0.085080  0.578980  1.0  0.797
  H  H5  1  0.823400  0.636400  0.772000  1.0  0.0825
  H  H6  1  0.682900  0.622000  0.884800  1.0  0.1288
  H  H7  1  0.728500  0.290500  0.754400  1.0  0.1242
  H  H8  1  0.868200  0.314500  0.645400  1.0  0.0796
  H  H9  1  0.596100  0.363300  0.902600  1.0  0.0893
  H  H10  1  0.706900  0.241000  0.409000  1.0  0.1314
  H  H11  1  0.599200  0.170700  0.314400  1.0  0.121
  H  H12  1  0.488400  0.353000  0.474800  1.0  0.0764
  H  H13  1  0.394200  0.288300  0.373000  1.0  0.0704
  H  H14  1  0.495000  0.459300  0.384800  1.0  0.1238
  H  H15  1  0.568300  0.359600  0.301400  1.0  0.1175
  H  H16  1  0.676600  0.864400  0.228000  1.0  0.0853
  H  H17  1  0.817100  0.737200  0.115200  1.0  0.1288
  H  H18  1  0.771500  0.536100  0.245600  1.0  0.1234
  H  H19  1  0.631800  0.669100  0.354600  1.0  0.0814
  H  H20  1  0.903900  0.460700  0.097400  1.0  0.0886
  H  H21  1  0.793100  0.832000  0.591000  1.0  0.1318
  H  H22  1  0.900800  0.856300  0.685600  1.0  0.122
  H  H23  1  0.011600  0.878200  0.525200  1.0  0.0765
  H  H24  1  0.105800  0.915300  0.627000  1.0  0.0724
  H  H25  1  0.005000  0.074500  0.615200  1.0  0.1256
  H  H26  1  0.931700  0.058200  0.698600  1.0  0.1182
  H  H27  1  0.176600  0.363600  0.228000  1.0  0.0825
  H  H28  1  0.317100  0.378000  0.115200  1.0  0.1287
  H  H29  1  0.271500  0.709500  0.245600  1.0  0.1241
  H  H30  1  0.131800  0.685500  0.354600  1.0  0.0798
  H  H31  1  0.403900  0.636700  0.097400  1.0  0.0897
  H  H32  1  0.293100  0.759000  0.591000  1.0  0.1319
  H  H33  1  0.400800  0.829300  0.685600  1.0  0.1223
  H  H34  1  0.511600  0.647000  0.525200  1.0  0.0756
  H  H35  1  0.605800  0.711700  0.627000  1.0  0.0718
  H  H36  1  0.505000  0.540700  0.615200  1.0  0.1219
  H  H37  1  0.431700  0.640400  0.698600  1.0  0.1182
  H  H38  1  0.323400  0.135600  0.772000  1.0  0.0856
  H  H39  1  0.182900  0.262800  0.884800  1.0  0.1294
  H  H40  1  0.228500  0.463900  0.754400  1.0  0.124
  H  H41  1  0.368200  0.330900  0.645400  1.0  0.0812
  H  H42  1  0.096100  0.539300  0.902600  1.0  0.0877
  H  H43  1  0.206900  0.168000  0.409000  1.0  0.1319
  H  H44  1  0.099200  0.143700  0.314400  1.0  0.1213
  H  H45  1  0.988400  0.121800  0.474800  1.0  0.0771
  H  H46  1  0.894200  0.084700  0.373000  1.0  0.0717
  H  H47  1  0.995000  0.925500  0.384800  1.0  0.1256
  H  H48  1  0.068300  0.941800  0.301400  1.0  0.1178
  C  C49  1  0.803600  0.565200  0.768600  1.0  0.1705
  C  C50  1  0.719300  0.557700  0.836600  1.0  -0.1843
  C  C51  1  0.689000  0.453600  0.832800  1.0  0.0526
  C  C52  1  0.746600  0.362500  0.759400  1.0  -0.1795
  C  C53  1  0.830100  0.377400  0.694400  1.0  0.182
  C  C54  1  0.603000  0.434700  0.904400  1.0  0.1659
  C  C55  1  0.557800  0.132600  0.425800  1.0  0.7056
  C  C56  1  0.600900  0.212900  0.384200  1.0  -0.3362
  C  C57  1  0.497500  0.314600  0.405400  1.0  -0.0191
  C  C58  1  0.564200  0.397400  0.371200  1.0  -0.3333
  C  C59  1  0.726000  0.444600  0.419400  1.0  0.6954
  C  C60  1  0.696400  0.796600  0.231400  1.0  0.1684
  C  C61  1  0.780700  0.721100  0.163400  1.0  -0.1812
  C  C62  1  0.811000  0.620800  0.167200  1.0  0.0537
  C  C63  1  0.753400  0.603100  0.240600  1.0  -0.1801
  C  C64  1  0.669900  0.683000  0.305600  1.0  0.1801
  C  C65  1  0.897000  0.530300  0.095600  1.0  0.1653
  C  C66  1  0.942200  0.706800  0.574200  1.0  0.7054
  C  C67  1  0.899100  0.828700  0.615800  1.0  -0.3364
  C  C68  1  0.002500  0.909200  0.594600  1.0  -0.0223
  C  C69  1  0.935800  0.026200  0.628800  1.0  -0.3344
  C  C70  1  0.774000  0.025200  0.580600  1.0  0.6946
  C  C71  1  0.196400  0.434800  0.231400  1.0  0.1702
  C  C72  1  0.280700  0.442300  0.163400  1.0  -0.1855
  C  C73  1  0.311000  0.546400  0.167200  1.0  0.0528
  C  C74  1  0.253400  0.637500  0.240600  1.0  -0.1794
  C  C75  1  0.169900  0.622600  0.305600  1.0  0.1825
  C  C76  1  0.397000  0.565300  0.095600  1.0  0.1658
  C  C77  1  0.442200  0.867400  0.574200  1.0  0.7066
  C  C78  1  0.399100  0.787100  0.615800  1.0  -0.3372
  C  C79  1  0.502500  0.685400  0.594600  1.0  -0.0203
  C  C80  1  0.435800  0.602600  0.628800  1.0  -0.3317
  C  C81  1  0.274000  0.555400  0.580600  1.0  0.695
  C  C82  1  0.303600  0.203400  0.768600  1.0  0.1716
  C  C83  1  0.219300  0.278900  0.836600  1.0  -0.1828
  C  C84  1  0.189000  0.379200  0.832800  1.0  0.0537
  C  C85  1  0.246600  0.396900  0.759400  1.0  -0.1806
  C  C86  1  0.330100  0.317000  0.694400  1.0  0.1801
  C  C87  1  0.103000  0.469700  0.904400  1.0  0.163
  C  C88  1  0.057800  0.293200  0.425800  1.0  0.7053
  C  C89  1  0.100900  0.171300  0.384200  1.0  -0.3363
  C  C90  1  0.997500  0.090800  0.405400  1.0  -0.0197
  C  C91  1  0.064200  0.973800  0.371200  1.0  -0.3339
  C  C92  1  0.226000  0.974800  0.419400  1.0  0.6961
  N  N93  1  0.859100  0.477800  0.698000  1.0  -0.3323
  N  N94  1  0.537900  0.517500  0.969600  1.0  -0.2592
  N  N95  1  0.640900  0.779800  0.302000  1.0  -0.3316
  N  N96  1  0.962100  0.547900  0.030400  1.0  -0.2596
  N  N97  1  0.140900  0.522200  0.302000  1.0  -0.3314
  N  N98  1  0.462100  0.482500  0.030400  1.0  -0.259
  N  N99  1  0.359100  0.220200  0.698000  1.0  -0.3312
  N  N100  1  0.037900  0.452100  0.969600  1.0  -0.2601
  O  O101  1  0.515100  0.175200  0.510400  1.0  -0.5696
  O  O102  1  0.755300  0.458180  0.504360  1.0  -0.5593
  O  O103  1  0.573600  0.030400  0.375000  1.0  -0.5732
  O  O104  1  0.819500  0.462570  0.368340  1.0  -0.5679
  O  O105  1  0.984900  0.664800  0.489600  1.0  -0.5701
  O  O106  1  0.744700  0.953820  0.495640  1.0  -0.5607
  O  O107  1  0.926400  0.655400  0.625000  1.0  -0.5743
  O  O108  1  0.680500  0.094230  0.631660  1.0  -0.5674
  O  O109  1  0.484900  0.824800  0.489600  1.0  -0.5705
  O  O110  1  0.244700  0.541820  0.495640  1.0  -0.5607
  O  O111  1  0.426400  0.969600  0.625000  1.0  -0.5738
  O  O112  1  0.180500  0.537430  0.631660  1.0  -0.5682
  O  O113  1  0.015100  0.335200  0.510400  1.0  -0.5698
  O  O114  1  0.255300  0.046180  0.504360  1.0  -0.56
  O  O115  1  0.073600  0.344600  0.375000  1.0  -0.5741
  O  O116  1  0.319500  0.905770  0.368340  1.0  -0.5675
