# generated using pymatgen
data_ZnH7C11SN2O7
_symmetry_space_group_name_H-M   'P 1'
_cell_length_a   8.13310000
_cell_length_b   14.65560000
_cell_length_c   16.82570000
_cell_angle_alpha   90.00000000
_cell_angle_beta   90.00000000
_cell_angle_gamma   90.00000000
_symmetry_Int_Tables_number   1
_chemical_formula_structural   ZnH7C11SN2O7
_chemical_formula_sum   'Zn4 H28 C44 S4 N8 O28'
_cell_volume   2005.54705738
_cell_formula_units_Z   4
loop_
 _symmetry_equiv_pos_site_id
 _symmetry_equiv_pos_as_xyz
  1  'x, y, z'
loop_
 _atom_site_type_symbol
 _atom_site_label
 _atom_site_symmetry_multiplicity
 _atom_site_fract_x
 _atom_site_fract_y
 _atom_site_fract_z
 _atom_site_occupancy
 _atom_site_charge
  Zn  Zn1  1  0.439680  0.527470  0.045260  1.0  1.0424
  Zn  Zn2  1  0.060320  0.472530  0.545260  1.0  1.0428
  Zn  Zn3  1  0.560320  0.027470  0.454740  1.0  1.0428
  Zn  Zn4  1  0.939680  0.972530  0.954740  1.0  1.0423
  H  H5  1  0.980000  0.422200  0.880600  1.0  0.304
  H  H6  1  0.682300  0.501100  0.775000  1.0  0.1229
  H  H7  1  0.896500  0.722000  0.679800  1.0  0.1402
  H  H8  1  0.673400  0.739700  0.891600  1.0  0.128
  H  H9  1  0.266900  0.433300  0.897600  1.0  0.1153
  H  H10  1  0.052600  0.531500  0.087400  1.0  0.1235
  H  H11  1  0.838200  0.483700  0.000200  1.0  0.132
  H  H12  1  0.520000  0.577800  0.380600  1.0  0.3041
  H  H13  1  0.817700  0.498900  0.275000  1.0  0.1228
  H  H14  1  0.603500  0.278000  0.179800  1.0  0.1403
  H  H15  1  0.826600  0.260300  0.391600  1.0  0.1282
  H  H16  1  0.233100  0.566700  0.397600  1.0  0.1156
  H  H17  1  0.447400  0.468500  0.587400  1.0  0.1234
  H  H18  1  0.661800  0.516300  0.500200  1.0  0.1314
  H  H19  1  0.020000  0.922200  0.619400  1.0  0.3061
  H  H20  1  0.317700  0.001100  0.725000  1.0  0.1231
  H  H21  1  0.103500  0.222000  0.820200  1.0  0.1408
  H  H22  1  0.326600  0.239700  0.608400  1.0  0.1277
  H  H23  1  0.733100  0.933300  0.602400  1.0  0.1151
  H  H24  1  0.947400  0.031500  0.412600  1.0  0.1229
  H  H25  1  0.161800  0.983700  0.499800  1.0  0.1314
  H  H26  1  0.480000  0.077800  0.119400  1.0  0.3052
  H  H27  1  0.182300  0.998900  0.225000  1.0  0.1232
  H  H28  1  0.396500  0.778000  0.320200  1.0  0.1411
  H  H29  1  0.173400  0.760300  0.108400  1.0  0.1277
  H  H30  1  0.766900  0.066700  0.102400  1.0  0.115
  H  H31  1  0.552600  0.968500  0.912600  1.0  0.1233
  H  H32  1  0.338200  0.016300  0.999800  1.0  0.1322
  C  C33  1  0.666800  0.612800  0.844950  1.0  -0.131
  C  C34  1  0.710900  0.562400  0.778180  1.0  0.0181
  C  C35  1  0.796300  0.602320  0.716800  1.0  -0.1291
  C  C36  1  0.836900  0.694820  0.720620  1.0  0.0411
  C  C37  1  0.787600  0.745720  0.785750  1.0  -0.2088
  C  C38  1  0.704400  0.705100  0.847750  1.0  0.0433
  C  C39  1  0.584900  0.567670  0.914250  1.0  0.6932
  C  C40  1  0.848200  0.544040  0.646930  1.0  0.6917
  C  C41  1  0.186800  0.451840  0.933570  1.0  0.1652
  C  C42  1  0.068700  0.505600  0.037560  1.0  0.0742
  C  C43  1  0.950600  0.479700  0.990600  1.0  -0.0534
  C  C44  1  0.833200  0.387200  0.344950  1.0  -0.1317
  C  C45  1  0.789100  0.437600  0.278180  1.0  0.018
  C  C46  1  0.703700  0.397680  0.216800  1.0  -0.1291
  C  C47  1  0.663100  0.305180  0.220620  1.0  0.0404
  C  C48  1  0.712400  0.254280  0.285750  1.0  -0.2088
  C  C49  1  0.795600  0.294900  0.347750  1.0  0.0431
  C  C50  1  0.915100  0.432330  0.414250  1.0  0.6933
  C  C51  1  0.651800  0.455960  0.146930  1.0  0.6915
  C  C52  1  0.313200  0.548160  0.433570  1.0  0.1645
  C  C53  1  0.431300  0.494400  0.537560  1.0  0.074
  C  C54  1  0.549400  0.520300  0.490600  1.0  -0.0516
  C  C55  1  0.333200  0.112800  0.655050  1.0  -0.131
  C  C56  1  0.289100  0.062400  0.721820  1.0  0.0185
  C  C57  1  0.203700  0.102320  0.783200  1.0  -0.1299
  C  C58  1  0.163100  0.194820  0.779380  1.0  0.0395
  C  C59  1  0.212400  0.245720  0.714250  1.0  -0.2089
  C  C60  1  0.295600  0.205100  0.652250  1.0  0.0429
  C  C61  1  0.415100  0.067670  0.585750  1.0  0.6925
  C  C62  1  0.151800  0.044040  0.853070  1.0  0.6918
  C  C63  1  0.813200  0.951840  0.566430  1.0  0.1647
  C  C64  1  0.931300  0.005600  0.462440  1.0  0.074
  C  C65  1  0.049400  0.979700  0.509400  1.0  -0.0515
  C  C66  1  0.166800  0.887200  0.155050  1.0  -0.1317
  C  C67  1  0.210900  0.937600  0.221820  1.0  0.0179
  C  C68  1  0.296300  0.897680  0.283200  1.0  -0.13
  C  C69  1  0.336900  0.805180  0.279380  1.0  0.0407
  C  C70  1  0.287600  0.754280  0.214250  1.0  -0.2092
  C  C71  1  0.204400  0.794900  0.152250  1.0  0.043
  C  C72  1  0.084900  0.932330  0.085750  1.0  0.6929
  C  C73  1  0.348200  0.955960  0.353070  1.0  0.6917
  C  C74  1  0.686800  0.048160  0.066430  1.0  0.1651
  C  C75  1  0.568700  0.994400  0.962440  1.0  0.0757
  C  C76  1  0.450600  0.020300  0.009400  1.0  -0.0539
  S  S77  1  0.831090  0.864050  0.789700  1.0  1.3878
  S  S78  1  0.668910  0.135950  0.289700  1.0  1.3876
  S  S79  1  0.168910  0.364050  0.710300  1.0  1.3878
  S  S80  1  0.331090  0.635950  0.210300  1.0  1.3876
  N  N81  1  0.217700  0.490040  0.004620  1.0  -0.3207
  N  N82  1  0.027800  0.444300  0.922000  1.0  -0.2529
  N  N83  1  0.282300  0.509960  0.504620  1.0  -0.3214
  N  N84  1  0.472200  0.555700  0.422000  1.0  -0.2526
  N  N85  1  0.782300  0.990040  0.495380  1.0  -0.3208
  N  N86  1  0.972200  0.944300  0.578000  1.0  -0.2499
  N  N87  1  0.717700  0.009960  0.995380  1.0  -0.3213
  N  N88  1  0.527800  0.055700  0.078000  1.0  -0.2503
  O  O89  1  0.531300  0.617650  0.969360  1.0  -0.5597
  O  O90  1  0.572700  0.483200  0.916530  1.0  -0.5546
  O  O91  1  0.975000  0.572260  0.609370  1.0  -0.58
  O  O92  1  0.773000  0.473870  0.631380  1.0  -0.4995
  O  O93  1  0.863800  0.878660  0.874150  1.0  -0.7459
  O  O94  1  0.686100  0.910590  0.763170  1.0  -0.5648
  O  O95  1  0.974800  0.879370  0.740900  1.0  -0.6235
  O  O96  1  0.968700  0.382350  0.469360  1.0  -0.5585
  O  O97  1  0.927300  0.516800  0.416530  1.0  -0.5547
  O  O98  1  0.525000  0.427740  0.109370  1.0  -0.579
  O  O99  1  0.727000  0.526130  0.131380  1.0  -0.4987
  O  O100  1  0.636200  0.121340  0.374150  1.0  -0.7464
  O  O101  1  0.813900  0.089410  0.263170  1.0  -0.5671
  O  O102  1  0.525200  0.120630  0.240900  1.0  -0.6234
  O  O103  1  0.468700  0.117650  0.530640  1.0  -0.5597
  O  O104  1  0.427300  0.983200  0.583470  1.0  -0.5536
  O  O105  1  0.025000  0.072260  0.890630  1.0  -0.5799
  O  O106  1  0.227000  0.973870  0.868620  1.0  -0.5005
  O  O107  1  0.136200  0.378660  0.625850  1.0  -0.7452
  O  O108  1  0.313900  0.410590  0.736830  1.0  -0.5667
  O  O109  1  0.025200  0.379370  0.759100  1.0  -0.6235
  O  O110  1  0.031300  0.882350  0.030640  1.0  -0.5604
  O  O111  1  0.072700  0.016800  0.083470  1.0  -0.5552
  O  O112  1  0.475000  0.927740  0.390630  1.0  -0.5782
  O  O113  1  0.273000  0.026130  0.368620  1.0  -0.4985
  O  O114  1  0.363800  0.621340  0.125850  1.0  -0.7442
  O  O115  1  0.186100  0.589410  0.236830  1.0  -0.5656
  O  O116  1  0.474800  0.620630  0.259100  1.0  -0.6239
