# generated using pymatgen
data_AgH8(C2N)4
_symmetry_space_group_name_H-M   'P 1'
_cell_length_a   15.07800000
_cell_length_b   15.07800000
_cell_length_c   5.70000000
_cell_angle_alpha   90.00000000
_cell_angle_beta   90.00000000
_cell_angle_gamma   90.00000000
_symmetry_Int_Tables_number   1
_chemical_formula_structural   AgH8(C2N)4
_chemical_formula_sum   'Ag4 H32 C32 N16'
_cell_volume   1295.87267880
_cell_formula_units_Z   4
loop_
 _symmetry_equiv_pos_site_id
 _symmetry_equiv_pos_as_xyz
  1  'x, y, z'
loop_
 _atom_site_type_symbol
 _atom_site_label
 _atom_site_symmetry_multiplicity
 _atom_site_fract_x
 _atom_site_fract_y
 _atom_site_fract_z
 _atom_site_occupancy
 _atom_site_charge
  Ag  Ag1  1  0.000000  0.250000  0.875000  1.0  0.3838
  Ag  Ag2  1  0.500000  0.750000  0.375000  1.0  0.3838
  Ag  Ag3  1  0.000000  0.750000  0.125000  1.0  0.3838
  Ag  Ag4  1  0.500000  0.250000  0.625000  1.0  0.3838
  H  H5  1  0.702200  0.302400  0.416500  1.0  0.1481
  H  H6  1  0.202200  0.802400  0.916500  1.0  0.1481
  H  H7  1  0.797800  0.697600  0.916500  1.0  0.1483
  H  H8  1  0.297800  0.197600  0.416500  1.0  0.1483
  H  H9  1  0.947600  0.452200  0.666500  1.0  0.1465
  H  H10  1  0.447600  0.952200  0.166500  1.0  0.1465
  H  H11  1  0.552400  0.547800  0.166500  1.0  0.1436
  H  H12  1  0.052400  0.047800  0.666500  1.0  0.1436
  H  H13  1  0.797800  0.302400  0.083500  1.0  0.1469
  H  H14  1  0.297800  0.802400  0.583500  1.0  0.1469
  H  H15  1  0.702200  0.697600  0.583500  1.0  0.1483
  H  H16  1  0.202200  0.197600  0.083500  1.0  0.1483
  H  H17  1  0.552400  0.452200  0.833500  1.0  0.1436
  H  H18  1  0.052400  0.952200  0.333500  1.0  0.1436
  H  H19  1  0.947600  0.547800  0.333500  1.0  0.1455
  H  H20  1  0.447600  0.047800  0.833500  1.0  0.1455
  H  H21  1  0.297800  0.697600  0.583500  1.0  0.1479
  H  H22  1  0.797800  0.197600  0.083500  1.0  0.1479
  H  H23  1  0.202200  0.302400  0.083500  1.0  0.148
  H  H24  1  0.702200  0.802400  0.583500  1.0  0.148
  H  H25  1  0.052400  0.547800  0.333500  1.0  0.1434
  H  H26  1  0.552400  0.047800  0.833500  1.0  0.1434
  H  H27  1  0.447600  0.452200  0.833500  1.0  0.1462
  H  H28  1  0.947600  0.952200  0.333500  1.0  0.1462
  H  H29  1  0.202200  0.697600  0.916500  1.0  0.1488
  H  H30  1  0.702200  0.197600  0.416500  1.0  0.1488
  H  H31  1  0.297800  0.302400  0.416500  1.0  0.147
  H  H32  1  0.797800  0.802400  0.916500  1.0  0.147
  H  H33  1  0.447600  0.547800  0.166500  1.0  0.1458
  H  H34  1  0.947600  0.047800  0.666500  1.0  0.1458
  H  H35  1  0.052400  0.452200  0.666500  1.0  0.1439
  H  H36  1  0.552400  0.952200  0.166500  1.0  0.1439
  C  C37  1  0.823000  0.250000  0.500000  1.0  0.3324
  C  C38  1  0.737000  0.250000  0.378000  1.0  -0.284
  C  C39  1  0.677000  0.750000  0.000000  1.0  0.3306
  C  C40  1  0.763000  0.750000  0.878000  1.0  -0.2818
  C  C41  1  0.000000  0.573000  0.750000  1.0  0.3263
  C  C42  1  0.000000  0.487000  0.628000  1.0  -0.2841
  C  C43  1  0.500000  0.073000  0.250000  1.0  0.3263
  C  C44  1  0.500000  0.987000  0.128000  1.0  -0.2841
  C  C45  1  0.500000  0.427000  0.250000  1.0  0.3288
  C  C46  1  0.500000  0.513000  0.128000  1.0  -0.2817
  C  C47  1  0.000000  0.927000  0.750000  1.0  0.3288
  C  C48  1  0.000000  0.013000  0.628000  1.0  -0.2817
  C  C49  1  0.677000  0.250000  0.000000  1.0  0.3301
  C  C50  1  0.763000  0.250000  0.122000  1.0  -0.2848
  C  C51  1  0.823000  0.750000  0.500000  1.0  0.3317
  C  C52  1  0.737000  0.750000  0.622000  1.0  -0.2857
  C  C53  1  0.323000  0.250000  0.000000  1.0  0.3317
  C  C54  1  0.237000  0.250000  0.122000  1.0  -0.2855
  C  C55  1  0.500000  0.573000  0.750000  1.0  0.3262
  C  C56  1  0.500000  0.487000  0.872000  1.0  -0.2865
  C  C57  1  0.000000  0.073000  0.250000  1.0  0.3262
  C  C58  1  0.000000  0.987000  0.372000  1.0  -0.2865
  C  C59  1  0.000000  0.427000  0.250000  1.0  0.3281
  C  C60  1  0.000000  0.513000  0.372000  1.0  -0.284
  C  C61  1  0.500000  0.927000  0.750000  1.0  0.3281
  C  C62  1  0.500000  0.013000  0.872000  1.0  -0.284
  C  C63  1  0.177000  0.750000  0.500000  1.0  0.3301
  C  C64  1  0.263000  0.750000  0.622000  1.0  -0.2845
  C  C65  1  0.323000  0.750000  0.000000  1.0  0.3324
  C  C66  1  0.237000  0.750000  0.878000  1.0  -0.2842
  C  C67  1  0.177000  0.250000  0.500000  1.0  0.3306
  C  C68  1  0.263000  0.250000  0.378000  1.0  -0.2821
  N  N69  1  0.883000  0.250000  0.628000  1.0  -0.4324
  N  N70  1  0.617000  0.750000  0.128000  1.0  -0.4327
  N  N71  1  0.000000  0.633000  0.878000  1.0  -0.4364
  N  N72  1  0.500000  0.133000  0.378000  1.0  -0.4364
  N  N73  1  0.500000  0.367000  0.378000  1.0  -0.4336
  N  N74  1  0.000000  0.867000  0.878000  1.0  -0.4336
  N  N75  1  0.617000  0.250000  0.872000  1.0  -0.4326
  N  N76  1  0.883000  0.750000  0.372000  1.0  -0.4325
  N  N77  1  0.383000  0.250000  0.872000  1.0  -0.4325
  N  N78  1  0.500000  0.633000  0.622000  1.0  -0.4362
  N  N79  1  0.000000  0.133000  0.122000  1.0  -0.4362
  N  N80  1  0.000000  0.367000  0.122000  1.0  -0.4344
  N  N81  1  0.500000  0.867000  0.622000  1.0  -0.4344
  N  N82  1  0.117000  0.750000  0.372000  1.0  -0.4326
  N  N83  1  0.383000  0.750000  0.128000  1.0  -0.4324
  N  N84  1  0.117000  0.250000  0.628000  1.0  -0.4327
