# generated using pymatgen
data_InH8(C2O)8
_symmetry_space_group_name_H-M   'P 1'
_cell_length_a   12.03200000
_cell_length_b   15.08700000
_cell_length_c   15.08700000
_cell_angle_alpha   120.00000000
_cell_angle_beta   90.00000000
_cell_angle_gamma   90.00000000
_symmetry_Int_Tables_number   1
_chemical_formula_structural   InH8(C2O)8
_chemical_formula_sum   'In3 H24 C48 O24'
_cell_volume   2371.77908833
_cell_formula_units_Z   3
loop_
 _symmetry_equiv_pos_site_id
 _symmetry_equiv_pos_as_xyz
  1  'x, y, z'
loop_
 _atom_site_type_symbol
 _atom_site_label
 _atom_site_symmetry_multiplicity
 _atom_site_fract_x
 _atom_site_fract_y
 _atom_site_fract_z
 _atom_site_occupancy
 _atom_site_charge
  In  In1  1  0.000000  0.500000  0.500000  1.0  1.466
  In  In2  1  0.666667  0.000000  0.500000  1.0  1.4661
  In  In3  1  0.333333  0.500000  0.000000  1.0  1.4657
  H  H4  1  0.756230  0.660970  0.783890  1.0  0.1329
  H  H5  1  0.745830  0.325260  0.609190  1.0  0.1214
  H  H6  1  0.422900  0.122920  0.339030  1.0  0.1309
  H  H7  1  0.412500  0.283930  0.674740  1.0  0.1221
  H  H8  1  0.089560  0.216110  0.877080  1.0  0.13
  H  H9  1  0.079160  0.390810  0.716080  1.0  0.1215
  H  H10  1  0.756230  0.339030  0.216110  1.0  0.1308
  H  H11  1  0.745830  0.674740  0.390810  1.0  0.124
  H  H12  1  0.422900  0.877080  0.660970  1.0  0.131
  H  H13  1  0.412500  0.716070  0.325260  1.0  0.1219
  H  H14  1  0.089560  0.783890  0.122920  1.0  0.1296
  H  H15  1  0.079160  0.609190  0.283920  1.0  0.1209
  H  H16  1  0.911280  0.876830  0.215290  1.0  0.1309
  H  H17  1  0.921440  0.715460  0.390620  1.0  0.1217
  H  H18  1  0.244600  0.784720  0.661550  1.0  0.1302
  H  H19  1  0.254770  0.609380  0.324840  1.0  0.12
  H  H20  1  0.577100  0.339030  0.122920  1.0  0.1307
  H  H21  1  0.587500  0.674740  0.283930  1.0  0.1241
  H  H22  1  0.911280  0.123170  0.784710  1.0  0.1307
  H  H23  1  0.921440  0.284540  0.609380  1.0  0.1217
  H  H24  1  0.244600  0.215280  0.338450  1.0  0.1307
  H  H25  1  0.254770  0.390620  0.675160  1.0  0.1208
  H  H26  1  0.577930  0.661550  0.876830  1.0  0.1337
  H  H27  1  0.588100  0.324840  0.715460  1.0  0.121
  C  C28  1  0.848300  0.490500  0.619200  1.0  0.5845
  C  C29  1  0.753700  0.495500  0.689200  1.0  -0.0383
  C  C30  1  0.713600  0.586200  0.765500  1.0  -0.0751
  C  C31  1  0.709100  0.400400  0.671600  1.0  -0.0829
  C  C32  1  0.514970  0.128700  0.509500  1.0  0.5837
  C  C33  1  0.420370  0.193700  0.504500  1.0  -0.0378
  C  C34  1  0.380270  0.179300  0.413800  1.0  -0.0727
  C  C35  1  0.375770  0.271200  0.599600  1.0  -0.0808
  C  C36  1  0.181630  0.380800  0.871300  1.0  0.5846
  C  C37  1  0.087030  0.310800  0.806300  1.0  -0.0367
  C  C38  1  0.046930  0.234500  0.820700  1.0  -0.0686
  C  C39  1  0.042430  0.328400  0.728800  1.0  -0.0827
  C  C40  1  0.848300  0.509500  0.380800  1.0  0.5838
  C  C41  1  0.753700  0.504500  0.310800  1.0  -0.0384
  C  C42  1  0.713600  0.413800  0.234500  1.0  -0.0741
  C  C43  1  0.709100  0.599600  0.328400  1.0  -0.0843
  C  C44  1  0.514970  0.871300  0.490500  1.0  0.5845
  C  C45  1  0.420370  0.806300  0.495500  1.0  -0.0384
  C  C46  1  0.380270  0.820700  0.586200  1.0  -0.071
  C  C47  1  0.375770  0.728800  0.400400  1.0  -0.0811
  C  C48  1  0.181630  0.619200  0.128700  1.0  0.5859
  C  C49  1  0.087030  0.689200  0.193700  1.0  -0.0369
  C  C50  1  0.046930  0.765500  0.179300  1.0  -0.07
  C  C51  1  0.042430  0.671600  0.271200  1.0  -0.0829
  C  C52  1  0.818370  0.871300  0.380800  1.0  0.5837
  C  C53  1  0.912970  0.806300  0.310800  1.0  -0.0388
  C  C54  1  0.953070  0.820700  0.234500  1.0  -0.0695
  C  C55  1  0.957570  0.728800  0.328400  1.0  -0.0827
  C  C56  1  0.151700  0.619200  0.490500  1.0  0.5843
  C  C57  1  0.246300  0.689200  0.495500  1.0  -0.0375
  C  C58  1  0.286400  0.765500  0.586200  1.0  -0.0668
  C  C59  1  0.290900  0.671600  0.400400  1.0  -0.085
  C  C60  1  0.485030  0.509500  0.128700  1.0  0.583
  C  C61  1  0.579630  0.504500  0.193700  1.0  -0.0379
  C  C62  1  0.619730  0.413800  0.179300  1.0  -0.0725
  C  C63  1  0.624230  0.599600  0.271200  1.0  -0.0832
  C  C64  1  0.818370  0.128700  0.619200  1.0  0.5838
  C  C65  1  0.912970  0.193700  0.689200  1.0  -0.0387
  C  C66  1  0.953070  0.179300  0.765500  1.0  -0.068
  C  C67  1  0.957570  0.271200  0.671600  1.0  -0.0829
  C  C68  1  0.151700  0.380800  0.509500  1.0  0.5851
  C  C69  1  0.246300  0.310800  0.504500  1.0  -0.0378
  C  C70  1  0.286400  0.234500  0.413800  1.0  -0.0672
  C  C71  1  0.290900  0.328400  0.599600  1.0  -0.0851
  C  C72  1  0.485030  0.490500  0.871300  1.0  0.5841
  C  C73  1  0.579630  0.495500  0.806300  1.0  -0.0391
  C  C74  1  0.619730  0.586200  0.820700  1.0  -0.0734
  C  C75  1  0.624230  0.400400  0.728800  1.0  -0.085
  O  O76  1  0.897100  0.578400  0.645200  1.0  -0.515
  O  O77  1  0.874200  0.413500  0.541600  1.0  -0.4964
  O  O78  1  0.563770  0.066800  0.421600  1.0  -0.5176
  O  O79  1  0.540870  0.128100  0.586500  1.0  -0.4942
  O  O80  1  0.230430  0.354800  0.933200  1.0  -0.518
  O  O81  1  0.207530  0.458400  0.871900  1.0  -0.4956
  O  O82  1  0.897100  0.421600  0.354800  1.0  -0.5131
  O  O83  1  0.874200  0.586500  0.458400  1.0  -0.4963
  O  O84  1  0.563770  0.933200  0.578400  1.0  -0.5167
  O  O85  1  0.540870  0.871900  0.413500  1.0  -0.4921
  O  O86  1  0.230430  0.645200  0.066800  1.0  -0.5191
  O  O87  1  0.207530  0.541600  0.128100  1.0  -0.4975
  O  O88  1  0.769570  0.933200  0.354800  1.0  -0.5177
  O  O89  1  0.792470  0.871900  0.458400  1.0  -0.4937
  O  O90  1  0.102900  0.645200  0.578400  1.0  -0.5167
  O  O91  1  0.125800  0.541600  0.413500  1.0  -0.4962
  O  O92  1  0.436230  0.421600  0.066800  1.0  -0.5144
  O  O93  1  0.459130  0.586500  0.128100  1.0  -0.495
  O  O94  1  0.769570  0.066800  0.645200  1.0  -0.518
  O  O95  1  0.792470  0.128100  0.541600  1.0  -0.4906
  O  O96  1  0.102900  0.354800  0.421600  1.0  -0.518
  O  O97  1  0.125800  0.458400  0.586500  1.0  -0.4955
  O  O98  1  0.436230  0.578400  0.933200  1.0  -0.5147
  O  O99  1  0.459130  0.413500  0.871900  1.0  -0.4961
