# generated using pymatgen
data_ZnH8C12(NO2)2
_symmetry_space_group_name_H-M   'P 1'
_cell_length_a   6.26200000
_cell_length_b   15.51200000
_cell_length_c   15.51200000
_cell_angle_alpha   120.00000000
_cell_angle_beta   90.00000000
_cell_angle_gamma   90.00000000
_symmetry_Int_Tables_number   1
_chemical_formula_structural   ZnH8C12(NO2)2
_chemical_formula_sum   'Zn3 H24 C36 N6 O12'
_cell_volume   1304.90617753
_cell_formula_units_Z   3
loop_
 _symmetry_equiv_pos_site_id
 _symmetry_equiv_pos_as_xyz
  1  'x, y, z'
loop_
 _atom_site_type_symbol
 _atom_site_label
 _atom_site_symmetry_multiplicity
 _atom_site_fract_x
 _atom_site_fract_y
 _atom_site_fract_z
 _atom_site_occupancy
 _atom_site_charge
  Zn  Zn1  1  0.850400  0.500000  0.500000  1.0  0.8489
  Zn  Zn2  1  0.183730  0.000000  0.500000  1.0  0.8489
  Zn  Zn3  1  0.517070  0.500000  0.000000  1.0  0.8488
  H  H4  1  0.215400  0.723600  0.601900  1.0  0.1272
  H  H5  1  0.426100  0.597100  0.589000  1.0  0.0777
  H  H6  1  0.878000  0.665800  0.461900  1.0  0.0711
  H  H7  1  0.684000  0.797800  0.476700  1.0  0.1107
  H  H8  1  0.548730  0.878300  0.276400  1.0  0.1278
  H  H9  1  0.759430  0.991900  0.402900  1.0  0.0787
  H  H10  1  0.211330  0.796100  0.334200  1.0  0.0708
  H  H11  1  0.017330  0.678900  0.202200  1.0  0.1115
  H  H12  1  0.882070  0.398100  0.121700  1.0  0.1274
  H  H13  1  0.092770  0.411000  0.008100  1.0  0.0788
  H  H14  1  0.544670  0.538100  0.203900  1.0  0.0715
  H  H15  1  0.350670  0.523300  0.321100  1.0  0.112
  H  H16  1  0.215400  0.276400  0.398100  1.0  0.127
  H  H17  1  0.426100  0.402900  0.411000  1.0  0.0773
  H  H18  1  0.878000  0.334200  0.538100  1.0  0.0715
  H  H19  1  0.684000  0.202200  0.523300  1.0  0.1114
  H  H20  1  0.548730  0.121700  0.723600  1.0  0.128
  H  H21  1  0.759430  0.008100  0.597100  1.0  0.0788
  H  H22  1  0.211330  0.203900  0.665800  1.0  0.0706
  H  H23  1  0.017330  0.321100  0.797800  1.0  0.1117
  H  H24  1  0.882070  0.601900  0.878300  1.0  0.1276
  H  H25  1  0.092770  0.589000  0.991900  1.0  0.078
  H  H26  1  0.544670  0.461900  0.796100  1.0  0.0714
  H  H27  1  0.350670  0.476700  0.678900  1.0  0.1109
  C  C28  1  0.287200  0.856100  0.542300  1.0  0.6271
  C  C29  1  0.426100  0.773700  0.537900  1.0  -0.0211
  C  C30  1  0.350200  0.713000  0.573100  1.0  -0.1446
  C  C31  1  0.477200  0.637100  0.564700  1.0  0.1693
  C  C32  1  0.743200  0.678000  0.490800  1.0  0.1632
  C  C33  1  0.626600  0.756600  0.498400  1.0  -0.1216
  C  C34  1  0.620530  0.686200  0.143900  1.0  0.6302
  C  C35  1  0.759430  0.764200  0.226300  1.0  -0.0212
  C  C36  1  0.683530  0.860100  0.287000  1.0  -0.1426
  C  C37  1  0.810530  0.927600  0.362900  1.0  0.1703
  C  C38  1  0.076530  0.812800  0.322000  1.0  0.1628
  C  C39  1  0.959930  0.741800  0.243400  1.0  -0.1224
  C  C40  1  0.953870  0.457700  0.313800  1.0  0.6314
  C  C41  1  0.092770  0.462100  0.235800  1.0  -0.0209
  C  C42  1  0.016870  0.426900  0.139900  1.0  -0.1413
  C  C43  1  0.143870  0.435300  0.072400  1.0  0.1714
  C  C44  1  0.409870  0.509200  0.187200  1.0  0.1622
  C  C45  1  0.293270  0.501600  0.258200  1.0  -0.1207
  C  C46  1  0.287200  0.143900  0.457700  1.0  0.6279
  C  C47  1  0.426100  0.226300  0.462100  1.0  -0.0208
  C  C48  1  0.350200  0.287000  0.426900  1.0  -0.143
  C  C49  1  0.477200  0.362900  0.435300  1.0  0.1724
  C  C50  1  0.743200  0.322000  0.509200  1.0  0.1626
  C  C51  1  0.626600  0.243400  0.501600  1.0  -0.1228
  C  C52  1  0.620530  0.313800  0.856100  1.0  0.6293
  C  C53  1  0.759430  0.235800  0.773700  1.0  -0.0217
  C  C54  1  0.683530  0.139900  0.713000  1.0  -0.142
  C  C55  1  0.810530  0.072400  0.637100  1.0  0.1709
  C  C56  1  0.076530  0.187200  0.678000  1.0  0.1631
  C  C57  1  0.959930  0.258200  0.756600  1.0  -0.1221
  C  C58  1  0.953870  0.542300  0.686200  1.0  0.6291
  C  C59  1  0.092770  0.537900  0.764200  1.0  -0.0193
  C  C60  1  0.016870  0.573100  0.860100  1.0  -0.1465
  C  C61  1  0.143870  0.564700  0.927600  1.0  0.175
  C  C62  1  0.409870  0.490800  0.812800  1.0  0.1639
  C  C63  1  0.293270  0.498400  0.741800  1.0  -0.1232
  N  N64  1  0.670400  0.618310  0.523410  1.0  -0.3319
  N  N65  1  0.003730  0.905100  0.381690  1.0  -0.3332
  N  N66  1  0.337070  0.476590  0.094900  1.0  -0.3351
  N  N67  1  0.670400  0.381690  0.476590  1.0  -0.333
  N  N68  1  0.003730  0.094900  0.618310  1.0  -0.3339
  N  N69  1  0.337070  0.523410  0.905100  1.0  -0.333
  O  O70  1  0.383400  0.914580  0.519390  1.0  -0.598
  O  O71  1  0.097100  0.858500  0.559600  1.0  -0.557
  O  O72  1  0.716730  0.604810  0.085420  1.0  -0.598
  O  O73  1  0.430430  0.701100  0.141500  1.0  -0.5584
  O  O74  1  0.050070  0.480610  0.395190  1.0  -0.5978
  O  O75  1  0.763770  0.440400  0.298900  1.0  -0.5607
  O  O76  1  0.383400  0.085420  0.480610  1.0  -0.5971
  O  O77  1  0.097100  0.141500  0.440400  1.0  -0.558
  O  O78  1  0.716730  0.395190  0.914580  1.0  -0.5973
  O  O79  1  0.430430  0.298900  0.858500  1.0  -0.5576
  O  O80  1  0.050070  0.519390  0.604810  1.0  -0.5992
  O  O81  1  0.763770  0.559600  0.701100  1.0  -0.5609
