# generated using pymatgen
data_ZnH8C12(NO2)2
_symmetry_space_group_name_H-M   'P 1'
_cell_length_a   6.25800000
_cell_length_b   15.52600000
_cell_length_c   15.52600000
_cell_angle_alpha   120.00000000
_cell_angle_beta   90.00000000
_cell_angle_gamma   90.00000000
_symmetry_Int_Tables_number   1
_chemical_formula_structural   ZnH8C12(NO2)2
_chemical_formula_sum   'Zn3 H24 C36 N6 O12'
_cell_volume   1306.42762194
_cell_formula_units_Z   3
loop_
 _symmetry_equiv_pos_site_id
 _symmetry_equiv_pos_as_xyz
  1  'x, y, z'
loop_
 _atom_site_type_symbol
 _atom_site_label
 _atom_site_symmetry_multiplicity
 _atom_site_fract_x
 _atom_site_fract_y
 _atom_site_fract_z
 _atom_site_occupancy
 _atom_site_charge
  Zn  Zn1  1  0.951550  0.166730  0.333333  1.0  0.8606
  Zn  Zn2  1  0.618220  0.166610  0.833270  1.0  0.8612
  Zn  Zn3  1  0.284880  0.666667  0.833390  1.0  0.8605
  H  H4  1  0.223500  0.869180  0.993520  1.0  0.0877
  H  H5  1  0.952680  0.549100  0.604960  1.0  0.1311
  H  H6  1  0.434500  0.004810  0.139160  1.0  0.1187
  H  H7  1  0.442780  0.328210  0.526920  1.0  0.1225
  H  H8  1  0.952580  0.785040  0.061530  1.0  0.1334
  H  H9  1  0.221090  0.463380  0.669580  1.0  0.0881
  H  H10  1  0.720650  0.657960  0.917750  1.0  0.1066
  H  H11  1  0.721290  0.673110  0.749140  1.0  0.099
  H  H12  1  0.890170  0.124330  0.130820  1.0  0.0909
  H  H13  1  0.619350  0.055860  0.450900  1.0  0.131
  H  H14  1  0.110420  0.135720  0.993790  1.0  0.1206
  H  H15  1  0.109450  0.198700  0.671790  1.0  0.1237
  H  H16  1  0.619250  0.276490  0.214960  1.0  0.1341
  H  H17  1  0.887760  0.206200  0.536620  1.0  0.0883
  H  H18  1  0.387320  0.259790  0.342040  1.0  0.1038
  H  H19  1  0.387960  0.076030  0.326890  1.0  0.0986
  H  H20  1  0.556830  0.006480  0.875670  1.0  0.0868
  H  H21  1  0.286010  0.395040  0.944140  1.0  0.1312
  H  H22  1  0.767830  0.860840  0.865650  1.0  0.1189
  H  H23  1  0.776110  0.473080  0.801300  1.0  0.1225
  H  H24  1  0.285910  0.938470  0.723510  1.0  0.1334
  H  H25  1  0.554420  0.330420  0.793800  1.0  0.0877
  H  H26  1  0.053980  0.082250  0.740210  1.0  0.1042
  H  H27  1  0.054620  0.250860  0.923970  1.0  0.0973
  C  C28  1  0.850100  0.981200  0.188900  1.0  0.6034
  C  C29  1  0.848700  0.351700  0.477700  1.0  0.6328
  C  C30  1  0.707900  0.902500  0.107200  1.0  -0.0094
  C  C31  1  0.390500  0.852700  0.010900  1.0  0.1426
  C  C32  1  0.709300  0.430900  0.558400  1.0  -0.0132
  C  C33  1  0.788000  0.527800  0.619700  1.0  -0.1565
  C  C34  1  0.507600  0.927900  0.091400  1.0  -0.1259
  C  C35  1  0.507800  0.406600  0.575900  1.0  -0.1449
  C  C36  1  0.787400  0.805700  0.046600  1.0  -0.1563
  C  C37  1  0.389600  0.480200  0.654200  1.0  0.1325
  C  C38  1  0.659500  0.736700  0.968700  1.0  0.1221
  C  C39  1  0.660800  0.594600  0.696700  1.0  0.1337
  C  C40  1  0.516770  0.207700  0.018800  1.0  0.6274
  C  C41  1  0.515370  0.126000  0.648300  1.0  0.6347
  C  C42  1  0.374570  0.204700  0.097500  1.0  -0.0154
  C  C43  1  0.057170  0.158200  0.147300  1.0  0.1407
  C  C44  1  0.375970  0.127500  0.569100  1.0  -0.0159
  C  C45  1  0.454670  0.091900  0.472200  1.0  -0.159
  C  C46  1  0.174270  0.163500  0.072100  1.0  -0.1267
  C  C47  1  0.174470  0.169300  0.593400  1.0  -0.141
  C  C48  1  0.454070  0.240900  0.194300  1.0  -0.1599
  C  C49  1  0.056270  0.174000  0.519800  1.0  0.1324
  C  C50  1  0.326170  0.232000  0.263300  1.0  0.1232
  C  C51  1  0.327470  0.102100  0.405400  1.0  0.1335
  C  C52  1  0.183430  0.811100  0.792300  1.0  0.6026
  C  C53  1  0.182030  0.522300  0.874000  1.0  0.6301
  C  C54  1  0.041230  0.892800  0.795300  1.0  -0.0112
  C  C55  1  0.723830  0.989100  0.841800  1.0  0.1454
  C  C56  1  0.042630  0.441600  0.872500  1.0  -0.0157
  C  C57  1  0.121330  0.380300  0.908100  1.0  -0.1532
  C  C58  1  0.840930  0.908600  0.836500  1.0  -0.1182
  C  C59  1  0.841130  0.424100  0.830700  1.0  -0.1459
  C  C60  1  0.120730  0.953400  0.759100  1.0  -0.1574
  C  C61  1  0.722930  0.345800  0.826000  1.0  0.1326
  C  C62  1  0.992830  0.031300  0.768000  1.0  0.1396
  C  C63  1  0.994130  0.303300  0.897900  1.0  0.1376
  N  N64  1  0.464600  0.761800  0.952800  1.0  -0.2971
  N  N65  1  0.465000  0.572200  0.714100  1.0  -0.3021
  N  N66  1  0.131270  0.191000  0.238200  1.0  -0.2987
  N  N67  1  0.131670  0.141900  0.427800  1.0  -0.3043
  N  N68  1  0.797930  0.047200  0.809000  1.0  -0.297
  N  N69  1  0.798330  0.285900  0.858100  1.0  -0.3015
  O  O70  1  0.751900  0.271200  0.419200  1.0  -0.5909
  O  O71  1  0.751500  0.061500  0.247800  1.0  -0.5983
  O  O72  1  0.040000  0.368100  0.475900  1.0  -0.5665
  O  O73  1  0.040200  0.965600  0.190600  1.0  -0.5631
  O  O74  1  0.418570  0.148000  0.728800  1.0  -0.5922
  O  O75  1  0.418170  0.186300  0.938500  1.0  -0.5979
  O  O76  1  0.706670  0.107800  0.631900  1.0  -0.5681
  O  O77  1  0.706870  0.225000  0.034400  1.0  -0.5622
  O  O78  1  0.085230  0.580800  0.852000  1.0  -0.5933
  O  O79  1  0.084830  0.752200  0.813700  1.0  -0.5993
  O  O80  1  0.373330  0.524100  0.892200  1.0  -0.5665
  O  O81  1  0.373530  0.809400  0.775000  1.0  -0.5641
