# generated using pymatgen
data_CoH42(C7N2)6
_symmetry_space_group_name_H-M   'P 1'
_cell_length_a   9.33400000
_cell_length_b   25.45800000
_cell_length_c   19.82200000
_cell_angle_alpha   90.00000000
_cell_angle_beta   99.86000000
_cell_angle_gamma   90.00000000
_symmetry_Int_Tables_number   1
_chemical_formula_structural   CoH42(C7N2)6
_chemical_formula_sum   'Co4 H168 C168 N48'
_cell_volume   4640.62834114
_cell_formula_units_Z   4
loop_
 _symmetry_equiv_pos_site_id
 _symmetry_equiv_pos_as_xyz
  1  'x, y, z'
loop_
 _atom_site_type_symbol
 _atom_site_label
 _atom_site_symmetry_multiplicity
 _atom_site_fract_x
 _atom_site_fract_y
 _atom_site_fract_z
 _atom_site_occupancy
 _atom_site_charge
  Co  Co1  1  0.000000  0.000000  0.000000  1.0  0.7372
  Co  Co2  1  0.500000  0.500000  0.000000  1.0  0.7372
  Co  Co3  1  0.000000  0.000000  0.500000  1.0  0.7372
  Co  Co4  1  0.500000  0.500000  0.500000  1.0  0.7372
  H  H5  1  0.151000  0.106000  0.083600  1.0  0.0713
  H  H6  1  0.343500  0.016200  0.966100  1.0  0.0784
  H  H7  1  0.509900  0.088200  0.006300  1.0  0.1104
  H  H8  1  0.499800  0.169000  0.085700  1.0  0.0878
  H  H9  1  0.376700  0.168900  0.130500  1.0  0.0922
  H  H10  1  0.322500  0.175700  0.948400  1.0  0.0793
  H  H11  1  0.292300  0.256800  0.118100  1.0  0.0902
  H  H12  1  0.916300  0.981600  0.148800  1.0  0.082
  H  H13  1  0.858200  0.114100  0.048500  1.0  0.0693
  H  H14  1  0.785600  0.128000  0.158800  1.0  0.1122
  H  H15  1  0.856400  0.065200  0.278400  1.0  0.0994
  H  H16  1  0.850400  0.005100  0.261100  1.0  0.0785
  H  H17  1  0.623500  0.117400  0.250800  1.0  0.098
  H  H18  1  0.622000  0.960000  0.247000  1.0  0.0891
  H  H19  1  0.965500  0.881900  0.067200  1.0  0.0771
  H  H20  1  0.316200  0.967700  0.095300  1.0  0.0735
  H  H21  1  0.388300  0.879300  0.135700  1.0  0.118
  H  H22  1  0.065900  0.793600  0.121700  1.0  0.0845
  H  H23  1  0.228900  0.793700  0.158500  1.0  0.0855
  H  H24  1  0.027800  0.792000  0.988600  1.0  0.0822
  H  H25  1  0.400800  0.748700  0.105000  1.0  0.0946
  H  H26  1  0.651000  0.606000  0.083600  1.0  0.0713
  H  H27  1  0.843500  0.516200  0.966100  1.0  0.0784
  H  H28  1  0.009900  0.588200  0.006300  1.0  0.1104
  H  H29  1  0.999800  0.669000  0.085700  1.0  0.0878
  H  H30  1  0.876700  0.668900  0.130500  1.0  0.0922
  H  H31  1  0.822500  0.675700  0.948400  1.0  0.0793
  H  H32  1  0.792300  0.756800  0.118100  1.0  0.0902
  H  H33  1  0.416300  0.481600  0.148800  1.0  0.082
  H  H34  1  0.358200  0.614100  0.048500  1.0  0.0693
  H  H35  1  0.285600  0.628000  0.158800  1.0  0.1122
  H  H36  1  0.356400  0.565200  0.278400  1.0  0.0994
  H  H37  1  0.350400  0.505100  0.261100  1.0  0.0785
  H  H38  1  0.123500  0.617400  0.250800  1.0  0.098
  H  H39  1  0.122000  0.460000  0.247000  1.0  0.0891
  H  H40  1  0.465500  0.381900  0.067200  1.0  0.0771
  H  H41  1  0.816200  0.467700  0.095300  1.0  0.0735
  H  H42  1  0.888300  0.379300  0.135700  1.0  0.118
  H  H43  1  0.565900  0.293600  0.121700  1.0  0.0845
  H  H44  1  0.728900  0.293700  0.158500  1.0  0.0855
  H  H45  1  0.527800  0.292000  0.988600  1.0  0.0821
  H  H46  1  0.900800  0.248700  0.105000  1.0  0.0946
  H  H47  1  0.849000  0.106000  0.416400  1.0  0.0711
  H  H48  1  0.656500  0.016200  0.533900  1.0  0.0791
  H  H49  1  0.490100  0.088200  0.493700  1.0  0.111
  H  H50  1  0.500200  0.169000  0.414300  1.0  0.0907
  H  H51  1  0.623300  0.168900  0.369500  1.0  0.0929
  H  H52  1  0.677500  0.175700  0.551600  1.0  0.0794
  H  H53  1  0.707700  0.256800  0.381900  1.0  0.0907
  H  H54  1  0.083700  0.981600  0.351200  1.0  0.0818
  H  H55  1  0.141800  0.114100  0.451500  1.0  0.0697
  H  H56  1  0.214400  0.128000  0.341200  1.0  0.1127
  H  H57  1  0.143600  0.065200  0.221600  1.0  0.0999
  H  H58  1  0.149600  0.005100  0.238900  1.0  0.0775
  H  H59  1  0.376500  0.117400  0.249200  1.0  0.098
  H  H60  1  0.378000  0.960000  0.253000  1.0  0.089
  H  H61  1  0.034500  0.881900  0.432800  1.0  0.0761
  H  H62  1  0.683800  0.967700  0.404700  1.0  0.0737
  H  H63  1  0.611700  0.879300  0.364300  1.0  0.1183
  H  H64  1  0.934100  0.793600  0.378300  1.0  0.0846
  H  H65  1  0.771100  0.793700  0.341500  1.0  0.0838
  H  H66  1  0.972200  0.792000  0.511400  1.0  0.0824
  H  H67  1  0.599200  0.748700  0.395000  1.0  0.0941
  H  H68  1  0.349000  0.606000  0.416400  1.0  0.0711
  H  H69  1  0.156500  0.516200  0.533900  1.0  0.0791
  H  H70  1  0.990100  0.588200  0.493700  1.0  0.111
  H  H71  1  0.000200  0.669000  0.414300  1.0  0.0907
  H  H72  1  0.123300  0.668900  0.369500  1.0  0.0929
  H  H73  1  0.177500  0.675700  0.551600  1.0  0.0794
  H  H74  1  0.207700  0.756800  0.381900  1.0  0.0907
  H  H75  1  0.583700  0.481600  0.351200  1.0  0.0818
  H  H76  1  0.641800  0.614100  0.451500  1.0  0.0697
  H  H77  1  0.714400  0.628000  0.341200  1.0  0.1127
  H  H78  1  0.643600  0.565200  0.221600  1.0  0.0999
  H  H79  1  0.649600  0.505100  0.238900  1.0  0.0775
  H  H80  1  0.876500  0.617400  0.249200  1.0  0.098
  H  H81  1  0.878000  0.460000  0.253000  1.0  0.089
  H  H82  1  0.534500  0.381900  0.432800  1.0  0.0761
  H  H83  1  0.183800  0.467700  0.404700  1.0  0.0737
  H  H84  1  0.111700  0.379300  0.364300  1.0  0.1183
  H  H85  1  0.434100  0.293600  0.378300  1.0  0.0846
  H  H86  1  0.271100  0.293700  0.341500  1.0  0.0838
  H  H87  1  0.472200  0.292000  0.511400  1.0  0.0822
  H  H88  1  0.099200  0.248700  0.395000  1.0  0.0941
  H  H89  1  0.849000  0.894000  0.916400  1.0  0.0706
  H  H90  1  0.656500  0.983800  0.033900  1.0  0.0791
  H  H91  1  0.490100  0.911800  0.993700  1.0  0.111
  H  H92  1  0.500200  0.831000  0.914300  1.0  0.0905
  H  H93  1  0.623300  0.831100  0.869500  1.0  0.0925
  H  H94  1  0.677500  0.824300  0.051600  1.0  0.0792
  H  H95  1  0.707700  0.743200  0.881900  1.0  0.0904
  H  H96  1  0.083700  0.018400  0.851200  1.0  0.0825
  H  H97  1  0.141800  0.885900  0.951500  1.0  0.0691
  H  H98  1  0.214400  0.872000  0.841200  1.0  0.1125
  H  H99  1  0.143600  0.934800  0.721600  1.0  0.0993
  H  H100  1  0.149600  0.994900  0.738900  1.0  0.0773
  H  H101  1  0.376500  0.882600  0.749200  1.0  0.0971
  H  H102  1  0.378000  0.040000  0.753000  1.0  0.089
  H  H103  1  0.034500  0.118100  0.932800  1.0  0.0748
  H  H104  1  0.683800  0.032300  0.904700  1.0  0.0737
  H  H105  1  0.611700  0.120700  0.864300  1.0  0.1175
  H  H106  1  0.934100  0.206400  0.878300  1.0  0.0847
  H  H107  1  0.771100  0.206300  0.841500  1.0  0.0839
  H  H108  1  0.972200  0.208000  0.011400  1.0  0.0826
  H  H109  1  0.599200  0.251300  0.895000  1.0  0.0942
  H  H110  1  0.349000  0.394000  0.916400  1.0  0.0706
  H  H111  1  0.156500  0.483800  0.033900  1.0  0.0791
  H  H112  1  0.990100  0.411800  0.993700  1.0  0.111
  H  H113  1  0.000200  0.331000  0.914300  1.0  0.0905
  H  H114  1  0.123300  0.331100  0.869500  1.0  0.0925
  H  H115  1  0.177500  0.324300  0.051600  1.0  0.0792
  H  H116  1  0.207700  0.243200  0.881900  1.0  0.0904
  H  H117  1  0.583700  0.518400  0.851200  1.0  0.0825
  H  H118  1  0.641800  0.385900  0.951500  1.0  0.0691
  H  H119  1  0.714400  0.372000  0.841200  1.0  0.1125
  H  H120  1  0.643600  0.434800  0.721600  1.0  0.0993
  H  H121  1  0.649600  0.494900  0.738900  1.0  0.0773
  H  H122  1  0.876500  0.382600  0.749200  1.0  0.0971
  H  H123  1  0.878000  0.540000  0.753000  1.0  0.089
  H  H124  1  0.534500  0.618100  0.932800  1.0  0.0748
  H  H125  1  0.183800  0.532300  0.904700  1.0  0.0737
  H  H126  1  0.111700  0.620700  0.864300  1.0  0.1175
  H  H127  1  0.434100  0.706400  0.878300  1.0  0.0847
  H  H128  1  0.271100  0.706300  0.841500  1.0  0.0839
  H  H129  1  0.472200  0.708000  0.011400  1.0  0.0826
  H  H130  1  0.099200  0.751300  0.895000  1.0  0.0942
  H  H131  1  0.151000  0.894000  0.583600  1.0  0.0712
  H  H132  1  0.343500  0.983800  0.466100  1.0  0.0788
  H  H133  1  0.509900  0.911800  0.506300  1.0  0.1104
  H  H134  1  0.499800  0.831000  0.585700  1.0  0.0876
  H  H135  1  0.376700  0.831100  0.630500  1.0  0.0926
  H  H136  1  0.322500  0.824300  0.448400  1.0  0.0794
  H  H137  1  0.292300  0.743200  0.618100  1.0  0.0901
  H  H138  1  0.916300  0.018400  0.648800  1.0  0.082
  H  H139  1  0.858200  0.885900  0.548500  1.0  0.0683
  H  H140  1  0.785600  0.872000  0.658800  1.0  0.1117
  H  H141  1  0.856400  0.934800  0.778400  1.0  0.0998
  H  H142  1  0.850400  0.994900  0.761100  1.0  0.0774
  H  H143  1  0.623500  0.882600  0.750800  1.0  0.0976
  H  H144  1  0.622000  0.040000  0.747000  1.0  0.0891
  H  H145  1  0.965500  0.118100  0.567200  1.0  0.0761
  H  H146  1  0.316200  0.032300  0.595300  1.0  0.074
  H  H147  1  0.388300  0.120700  0.635700  1.0  0.119
  H  H148  1  0.065900  0.206400  0.621700  1.0  0.0843
  H  H149  1  0.228900  0.206300  0.658500  1.0  0.0854
  H  H150  1  0.027800  0.208000  0.488600  1.0  0.0821
  H  H151  1  0.400800  0.251300  0.605000  1.0  0.0944
  H  H152  1  0.651000  0.394000  0.583600  1.0  0.0712
  H  H153  1  0.843500  0.483800  0.466100  1.0  0.0788
  H  H154  1  0.009900  0.411800  0.506300  1.0  0.1104
  H  H155  1  0.999800  0.331000  0.585700  1.0  0.0876
  H  H156  1  0.876700  0.331100  0.630500  1.0  0.0926
  H  H157  1  0.822500  0.324300  0.448400  1.0  0.0794
  H  H158  1  0.792300  0.243200  0.618100  1.0  0.0901
  H  H159  1  0.416300  0.518400  0.648800  1.0  0.082
  H  H160  1  0.358200  0.385900  0.548500  1.0  0.0683
  H  H161  1  0.285600  0.372000  0.658800  1.0  0.1117
  H  H162  1  0.356400  0.434800  0.778400  1.0  0.0998
  H  H163  1  0.350400  0.494900  0.761100  1.0  0.0774
  H  H164  1  0.123500  0.382600  0.750800  1.0  0.0976
  H  H165  1  0.122000  0.540000  0.747000  1.0  0.0891
  H  H166  1  0.465500  0.618100  0.567200  1.0  0.0761
  H  H167  1  0.816200  0.532300  0.595300  1.0  0.074
  H  H168  1  0.888300  0.620700  0.635700  1.0  0.119
  H  H169  1  0.565900  0.706400  0.621700  1.0  0.0843
  H  H170  1  0.728900  0.706300  0.658500  1.0  0.0854
  H  H171  1  0.527800  0.708000  0.488600  1.0  0.0822
  H  H172  1  0.900800  0.751300  0.605000  1.0  0.0944
  C  C173  1  0.218900  0.092270  0.059180  1.0  0.1105
  C  C174  1  0.324700  0.043270  0.994820  1.0  -0.0222
  C  C175  1  0.417700  0.083000  0.016980  1.0  -0.1842
  C  C176  1  0.395800  0.165440  0.084130  1.0  -0.0767
  C  C177  1  0.317700  0.209010  0.040130  1.0  0.035
  C  C178  1  0.293100  0.205500  0.969410  1.0  -0.1516
  C  C179  1  0.275200  0.253800  0.070590  1.0  -0.1222
  C  C180  1  0.893100  0.016340  0.137110  1.0  0.1105
  C  C181  1  0.861400  0.088990  0.082700  1.0  0.0021
  C  C182  1  0.820400  0.096810  0.143300  1.0  -0.1706
  C  C183  1  0.809400  0.039000  0.246540  1.0  -0.1061
  C  C184  1  0.647500  0.038610  0.248460  1.0  0.0596
  C  C185  1  0.573400  0.085760  0.249900  1.0  -0.1032
  C  C186  1  0.573000  0.991610  0.248700  1.0  -0.108
  C  C187  1  0.061700  0.892620  0.079070  1.0  0.1231
  C  C188  1  0.253800  0.939190  0.094480  1.0  0.018
  C  C189  1  0.294900  0.890380  0.117210  1.0  -0.1752
  C  C190  1  0.163900  0.803640  0.116920  1.0  -0.1089
  C  C191  1  0.207600  0.774810  0.055860  1.0  0.0195
  C  C192  1  0.117500  0.775220  0.993450  1.0  -0.1041
  C  C193  1  0.339800  0.749430  0.062710  1.0  -0.1086
  C  C194  1  0.718900  0.592270  0.059180  1.0  0.1105
  C  C195  1  0.824700  0.543270  0.994820  1.0  -0.0222
  C  C196  1  0.917700  0.583000  0.016980  1.0  -0.1842
  C  C197  1  0.895800  0.665440  0.084130  1.0  -0.0767
  C  C198  1  0.817700  0.709010  0.040130  1.0  0.035
  C  C199  1  0.793100  0.705500  0.969410  1.0  -0.1516
  C  C200  1  0.775200  0.753800  0.070590  1.0  -0.1222
  C  C201  1  0.393100  0.516340  0.137110  1.0  0.1105
  C  C202  1  0.361400  0.588990  0.082700  1.0  0.0021
  C  C203  1  0.320400  0.596810  0.143300  1.0  -0.1706
  C  C204  1  0.309400  0.539000  0.246540  1.0  -0.1061
  C  C205  1  0.147500  0.538610  0.248460  1.0  0.0596
  C  C206  1  0.073400  0.585760  0.249900  1.0  -0.1032
  C  C207  1  0.073000  0.491610  0.248700  1.0  -0.108
  C  C208  1  0.561700  0.392620  0.079070  1.0  0.1231
  C  C209  1  0.753800  0.439190  0.094480  1.0  0.018
  C  C210  1  0.794900  0.390380  0.117210  1.0  -0.1752
  C  C211  1  0.663900  0.303640  0.116920  1.0  -0.1089
  C  C212  1  0.707600  0.274810  0.055860  1.0  0.0195
  C  C213  1  0.617500  0.275220  0.993450  1.0  -0.1041
  C  C214  1  0.839800  0.249430  0.062710  1.0  -0.1086
  C  C215  1  0.781100  0.092270  0.440820  1.0  0.1101
  C  C216  1  0.675300  0.043270  0.505180  1.0  -0.0227
  C  C217  1  0.582300  0.083000  0.483020  1.0  -0.1827
  C  C218  1  0.604200  0.165440  0.415870  1.0  -0.0772
  C  C219  1  0.682300  0.209010  0.459870  1.0  0.0342
  C  C220  1  0.706900  0.205500  0.530590  1.0  -0.1535
  C  C221  1  0.724800  0.253800  0.429410  1.0  -0.1209
  C  C222  1  0.106900  0.016340  0.362890  1.0  0.1104
  C  C223  1  0.138600  0.088990  0.417300  1.0  0.0014
  C  C224  1  0.179600  0.096810  0.356700  1.0  -0.1701
  C  C225  1  0.190600  0.039000  0.253460  1.0  -0.1048
  C  C226  1  0.352500  0.038610  0.251540  1.0  0.0597
  C  C227  1  0.426600  0.085760  0.250100  1.0  -0.0991
  C  C228  1  0.427000  0.991610  0.251300  1.0  -0.1097
  C  C229  1  0.938300  0.892620  0.420930  1.0  0.1222
  C  C230  1  0.746200  0.939190  0.405520  1.0  0.0166
  C  C231  1  0.705100  0.890380  0.382790  1.0  -0.1769
  C  C232  1  0.836100  0.803640  0.383080  1.0  -0.1112
  C  C233  1  0.792400  0.774810  0.444140  1.0  0.0167
  C  C234  1  0.882500  0.775220  0.506550  1.0  -0.1058
  C  C235  1  0.660200  0.749430  0.437290  1.0  -0.1085
  C  C236  1  0.281100  0.592270  0.440820  1.0  0.1101
  C  C237  1  0.175300  0.543270  0.505180  1.0  -0.0227
  C  C238  1  0.082300  0.583000  0.483020  1.0  -0.1827
  C  C239  1  0.104200  0.665440  0.415870  1.0  -0.0772
  C  C240  1  0.182300  0.709010  0.459870  1.0  0.0342
  C  C241  1  0.206900  0.705500  0.530590  1.0  -0.1535
  C  C242  1  0.224800  0.753800  0.429410  1.0  -0.1209
  C  C243  1  0.606900  0.516340  0.362890  1.0  0.1104
  C  C244  1  0.638600  0.588990  0.417300  1.0  0.0014
  C  C245  1  0.679600  0.596810  0.356700  1.0  -0.1701
  C  C246  1  0.690600  0.539000  0.253460  1.0  -0.1048
  C  C247  1  0.852500  0.538610  0.251540  1.0  0.0597
  C  C248  1  0.926600  0.585760  0.250100  1.0  -0.0991
  C  C249  1  0.927000  0.491610  0.251300  1.0  -0.1097
  C  C250  1  0.438300  0.392620  0.420930  1.0  0.1222
  C  C251  1  0.246200  0.439190  0.405520  1.0  0.0166
  C  C252  1  0.205100  0.390380  0.382790  1.0  -0.1769
  C  C253  1  0.336100  0.303640  0.383080  1.0  -0.1112
  C  C254  1  0.292400  0.274810  0.444140  1.0  0.0167
  C  C255  1  0.382500  0.275220  0.506550  1.0  -0.1058
  C  C256  1  0.160200  0.249430  0.437290  1.0  -0.1085
  C  C257  1  0.781100  0.907730  0.940820  1.0  0.1107
  C  C258  1  0.675300  0.956730  0.005180  1.0  -0.0221
  C  C259  1  0.582300  0.917000  0.983020  1.0  -0.1825
  C  C260  1  0.604200  0.834560  0.915870  1.0  -0.0761
  C  C261  1  0.682300  0.790990  0.959870  1.0  0.0341
  C  C262  1  0.706900  0.794500  0.030590  1.0  -0.1534
  C  C263  1  0.724800  0.746200  0.929410  1.0  -0.1194
  C  C264  1  0.106900  0.983660  0.862890  1.0  0.1109
  C  C265  1  0.138600  0.911010  0.917300  1.0  0.0018
  C  C266  1  0.179600  0.903190  0.856700  1.0  -0.1712
  C  C267  1  0.190600  0.961000  0.753460  1.0  -0.1047
  C  C268  1  0.352500  0.961390  0.751540  1.0  0.0602
  C  C269  1  0.426600  0.914240  0.750100  1.0  -0.1027
  C  C270  1  0.427000  0.008390  0.751300  1.0  -0.1084
  C  C271  1  0.938300  0.107380  0.920930  1.0  0.1221
  C  C272  1  0.746200  0.060810  0.905520  1.0  0.0164
  C  C273  1  0.705100  0.109620  0.882790  1.0  -0.1769
  C  C274  1  0.836100  0.196360  0.883080  1.0  -0.1124
  C  C275  1  0.792400  0.225190  0.944140  1.0  0.0167
  C  C276  1  0.882500  0.224780  0.006550  1.0  -0.1067
  C  C277  1  0.660200  0.250570  0.937290  1.0  -0.098
  C  C278  1  0.281100  0.407730  0.940820  1.0  0.1107
  C  C279  1  0.175300  0.456730  0.005180  1.0  -0.0221
  C  C280  1  0.082300  0.417000  0.983020  1.0  -0.1825
  C  C281  1  0.104200  0.334560  0.915870  1.0  -0.0761
  C  C282  1  0.182300  0.290990  0.959870  1.0  0.0341
  C  C283  1  0.206900  0.294500  0.030590  1.0  -0.1534
  C  C284  1  0.224800  0.246200  0.929410  1.0  -0.1194
  C  C285  1  0.606900  0.483660  0.862890  1.0  0.1109
  C  C286  1  0.638600  0.411010  0.917300  1.0  0.0018
  C  C287  1  0.679600  0.403190  0.856700  1.0  -0.1712
  C  C288  1  0.690600  0.461000  0.753460  1.0  -0.1047
  C  C289  1  0.852500  0.461390  0.751540  1.0  0.0602
  C  C290  1  0.926600  0.414240  0.750100  1.0  -0.1027
  C  C291  1  0.927000  0.508390  0.751300  1.0  -0.1084
  C  C292  1  0.438300  0.607380  0.920930  1.0  0.1221
  C  C293  1  0.246200  0.560810  0.905520  1.0  0.0164
  C  C294  1  0.205100  0.609620  0.882790  1.0  -0.1769
  C  C295  1  0.336100  0.696360  0.883080  1.0  -0.1124
  C  C296  1  0.292400  0.725190  0.944140  1.0  0.0167
  C  C297  1  0.382500  0.724780  0.006550  1.0  -0.1067
  C  C298  1  0.160200  0.750570  0.937290  1.0  -0.098
  C  C299  1  0.218900  0.907730  0.559180  1.0  0.1109
  C  C300  1  0.324700  0.956730  0.494820  1.0  -0.0221
  C  C301  1  0.417700  0.917000  0.516980  1.0  -0.1836
  C  C302  1  0.395800  0.834560  0.584130  1.0  -0.0769
  C  C303  1  0.317700  0.790990  0.540130  1.0  0.035
  C  C304  1  0.293100  0.794500  0.469410  1.0  -0.1529
  C  C305  1  0.275200  0.746200  0.570590  1.0  -0.1219
  C  C306  1  0.893100  0.983660  0.637110  1.0  0.111
  C  C307  1  0.861400  0.911010  0.582700  1.0  0.0015
  C  C308  1  0.820400  0.903190  0.643300  1.0  -0.171
  C  C309  1  0.809400  0.961000  0.746540  1.0  -0.106
  C  C310  1  0.647500  0.961390  0.748460  1.0  0.0602
  C  C311  1  0.573400  0.914240  0.749900  1.0  -0.0997
  C  C312  1  0.573000  0.008390  0.748700  1.0  -0.1081
  C  C313  1  0.061700  0.107380  0.579070  1.0  0.1239
  C  C314  1  0.253800  0.060810  0.594480  1.0  0.0176
  C  C315  1  0.294900  0.109620  0.617210  1.0  -0.1755
  C  C316  1  0.163900  0.196360  0.616920  1.0  -0.1088
  C  C317  1  0.207600  0.225190  0.555860  1.0  0.0192
  C  C318  1  0.117500  0.224780  0.493450  1.0  -0.1042
  C  C319  1  0.339800  0.250570  0.562710  1.0  -0.0979
  C  C320  1  0.718900  0.407730  0.559180  1.0  0.1109
  C  C321  1  0.824700  0.456730  0.494820  1.0  -0.0221
  C  C322  1  0.917700  0.417000  0.516980  1.0  -0.1836
  C  C323  1  0.895800  0.334560  0.584130  1.0  -0.0769
  C  C324  1  0.817700  0.290990  0.540130  1.0  0.035
  C  C325  1  0.793100  0.294500  0.469410  1.0  -0.1529
  C  C326  1  0.775200  0.246200  0.570590  1.0  -0.1219
  C  C327  1  0.393100  0.483660  0.637110  1.0  0.111
  C  C328  1  0.361400  0.411010  0.582700  1.0  0.0015
  C  C329  1  0.320400  0.403190  0.643300  1.0  -0.171
  C  C330  1  0.309400  0.461000  0.746540  1.0  -0.106
  C  C331  1  0.147500  0.461390  0.748460  1.0  0.0602
  C  C332  1  0.073400  0.414240  0.749900  1.0  -0.0997
  C  C333  1  0.073000  0.508390  0.748700  1.0  -0.1081
  C  C334  1  0.561700  0.607380  0.579070  1.0  0.1239
  C  C335  1  0.753800  0.560810  0.594480  1.0  0.0176
  C  C336  1  0.794900  0.609620  0.617210  1.0  -0.1755
  C  C337  1  0.663900  0.696360  0.616920  1.0  -0.1088
  C  C338  1  0.707600  0.725190  0.555860  1.0  0.0192
  C  C339  1  0.617500  0.724780  0.493450  1.0  -0.1042
  C  C340  1  0.839800  0.750570  0.562710  1.0  -0.0979
  N  N341  1  0.198200  0.048970  0.021240  1.0  -0.4299
  N  N342  1  0.349700  0.113780  0.057920  1.0  0.0331
  N  N343  1  0.909000  0.038130  0.078810  1.0  -0.396
  N  N344  1  0.839000  0.050660  0.177800  1.0  0.0252
  N  N345  1  0.107000  0.940670  0.070090  1.0  -0.4112
  N  N346  1  0.170600  0.860800  0.107400  1.0  0.02
  N  N347  1  0.698200  0.548970  0.021240  1.0  -0.4299
  N  N348  1  0.849700  0.613780  0.057920  1.0  0.0331
  N  N349  1  0.409000  0.538130  0.078810  1.0  -0.396
  N  N350  1  0.339000  0.550660  0.177800  1.0  0.0252
  N  N351  1  0.607000  0.440670  0.070090  1.0  -0.4112
  N  N352  1  0.670600  0.360800  0.107400  1.0  0.02
  N  N353  1  0.801800  0.048970  0.478760  1.0  -0.4292
  N  N354  1  0.650300  0.113780  0.442080  1.0  0.0324
  N  N355  1  0.091000  0.038130  0.421190  1.0  -0.3958
  N  N356  1  0.161000  0.050660  0.322200  1.0  0.0252
  N  N357  1  0.893000  0.940670  0.429910  1.0  -0.4113
  N  N358  1  0.829400  0.860800  0.392600  1.0  0.0165
  N  N359  1  0.301800  0.548970  0.478760  1.0  -0.4292
  N  N360  1  0.150300  0.613780  0.442080  1.0  0.0324
  N  N361  1  0.591000  0.538130  0.421190  1.0  -0.3958
  N  N362  1  0.661000  0.550660  0.322200  1.0  0.0252
  N  N363  1  0.393000  0.440670  0.429910  1.0  -0.4113
  N  N364  1  0.329400  0.360800  0.392600  1.0  0.0165
  N  N365  1  0.801800  0.951030  0.978760  1.0  -0.4292
  N  N366  1  0.650300  0.886220  0.942080  1.0  0.0327
  N  N367  1  0.091000  0.961870  0.921190  1.0  -0.396
  N  N368  1  0.161000  0.949340  0.822200  1.0  0.0252
  N  N369  1  0.893000  0.059330  0.929910  1.0  -0.4104
  N  N370  1  0.829400  0.139200  0.892600  1.0  0.0164
  N  N371  1  0.301800  0.451030  0.978760  1.0  -0.4292
  N  N372  1  0.150300  0.386220  0.942080  1.0  0.0327
  N  N373  1  0.591000  0.461870  0.921190  1.0  -0.396
  N  N374  1  0.661000  0.449340  0.822200  1.0  0.0252
  N  N375  1  0.393000  0.559330  0.929910  1.0  -0.4104
  N  N376  1  0.329400  0.639200  0.892600  1.0  0.0164
  N  N377  1  0.198200  0.951030  0.521240  1.0  -0.4296
  N  N378  1  0.349700  0.886220  0.557920  1.0  0.0331
  N  N379  1  0.909000  0.961870  0.578810  1.0  -0.3959
  N  N380  1  0.839000  0.949340  0.677800  1.0  0.0252
  N  N381  1  0.107000  0.059330  0.570090  1.0  -0.4112
  N  N382  1  0.170600  0.139200  0.607400  1.0  0.0195
  N  N383  1  0.698200  0.451030  0.521240  1.0  -0.4296
  N  N384  1  0.849700  0.386220  0.557920  1.0  0.0331
  N  N385  1  0.409000  0.461870  0.578810  1.0  -0.3959
  N  N386  1  0.339000  0.449340  0.677800  1.0  0.0252
  N  N387  1  0.607000  0.559330  0.570090  1.0  -0.4112
  N  N388  1  0.670600  0.639200  0.607400  1.0  0.0195
