# generated using pymatgen
data_Zn3P4(HO3)4
_symmetry_space_group_name_H-M   'P 1'
_cell_length_a   10.25890000
_cell_length_b   29.58510000
_cell_length_c   13.75780000
_cell_angle_alpha   90.00000000
_cell_angle_beta   103.30300000
_cell_angle_gamma   90.00000000
_symmetry_Int_Tables_number   1
_chemical_formula_structural   Zn3P4(HO3)4
_chemical_formula_sum   'Zn24 P32 H32 O96'
_cell_volume   4063.59227261
_cell_formula_units_Z   8
loop_
 _symmetry_equiv_pos_site_id
 _symmetry_equiv_pos_as_xyz
  1  'x, y, z'
loop_
 _atom_site_type_symbol
 _atom_site_label
 _atom_site_symmetry_multiplicity
 _atom_site_fract_x
 _atom_site_fract_y
 _atom_site_fract_z
 _atom_site_occupancy
 _atom_site_charge
  Zn  Zn1  1  0.796220  0.268380  0.268460  1.0  1.1212
  Zn  Zn2  1  0.686840  0.094470  0.093290  1.0  1.157
  Zn  Zn3  1  0.820150  0.081980  0.394480  1.0  1.1556
  Zn  Zn4  1  0.728000  0.162140  0.615760  1.0  1.1555
  Zn  Zn5  1  0.843740  0.164730  0.914340  1.0  1.1507
  Zn  Zn6  1  0.251910  0.014750  0.241180  1.0  1.1452
  Zn  Zn7  1  0.703780  0.768380  0.231540  1.0  1.1211
  Zn  Zn8  1  0.813160  0.594470  0.406710  1.0  1.156
  Zn  Zn9  1  0.679850  0.581980  0.105520  1.0  1.156
  Zn  Zn10  1  0.772000  0.662140  0.884240  1.0  1.1548
  Zn  Zn11  1  0.656260  0.664730  0.585660  1.0  1.1516
  Zn  Zn12  1  0.248090  0.514750  0.258820  1.0  1.1446
  Zn  Zn13  1  0.203780  0.731620  0.731540  1.0  1.1209
  Zn  Zn14  1  0.313160  0.905530  0.906710  1.0  1.1561
  Zn  Zn15  1  0.179850  0.918020  0.605520  1.0  1.156
  Zn  Zn16  1  0.272000  0.837860  0.384240  1.0  1.1548
  Zn  Zn17  1  0.156260  0.835270  0.085660  1.0  1.152
  Zn  Zn18  1  0.748090  0.985250  0.758820  1.0  1.1445
  Zn  Zn19  1  0.296220  0.231620  0.768460  1.0  1.121
  Zn  Zn20  1  0.186840  0.405530  0.593290  1.0  1.1572
  Zn  Zn21  1  0.320150  0.418020  0.894480  1.0  1.1555
  Zn  Zn22  1  0.228000  0.337860  0.115760  1.0  1.1556
  Zn  Zn23  1  0.343740  0.335270  0.414340  1.0  1.151
  Zn  Zn24  1  0.751910  0.485250  0.741180  1.0  1.1451
  P  P25  1  0.826870  0.188730  0.125210  1.0  1.5668
  P  P26  1  0.719060  0.185170  0.395260  1.0  1.5274
  P  P27  1  0.959690  0.049080  0.224770  1.0  1.5089
  P  P28  1  0.543240  0.049490  0.248850  1.0  1.561
  P  P29  1  0.509190  0.306510  0.258900  1.0  1.5157
  P  P30  1  0.084540  0.292990  0.269580  1.0  1.5992
  P  P31  1  0.820550  0.060200  0.614880  1.0  1.5356
  P  P32  1  0.681690  0.070330  0.879990  1.0  1.5543
  P  P33  1  0.673130  0.688730  0.374790  1.0  1.5684
  P  P34  1  0.780940  0.685170  0.104740  1.0  1.5275
  P  P35  1  0.540310  0.549080  0.275230  1.0  1.5091
  P  P36  1  0.956760  0.549490  0.251150  1.0  1.5606
  P  P37  1  0.990810  0.806510  0.241100  1.0  1.5161
  P  P38  1  0.415460  0.792990  0.230420  1.0  1.6016
  P  P39  1  0.679450  0.560200  0.885120  1.0  1.5342
  P  P40  1  0.818310  0.570330  0.620010  1.0  1.5528
  P  P41  1  0.173130  0.811270  0.874790  1.0  1.5691
  P  P42  1  0.280940  0.814830  0.604740  1.0  1.5277
  P  P43  1  0.040310  0.950920  0.775230  1.0  1.5006
  P  P44  1  0.456760  0.950510  0.751150  1.0  1.5574
  P  P45  1  0.490810  0.693490  0.741100  1.0  1.5115
  P  P46  1  0.915460  0.707010  0.730420  1.0  1.6001
  P  P47  1  0.179450  0.939800  0.385120  1.0  1.534
  P  P48  1  0.318310  0.929670  0.120010  1.0  1.5519
  P  P49  1  0.326870  0.311270  0.625210  1.0  1.5681
  P  P50  1  0.219060  0.314830  0.895260  1.0  1.5279
  P  P51  1  0.459690  0.450920  0.724770  1.0  1.5005
  P  P52  1  0.043240  0.450510  0.748850  1.0  1.558
  P  P53  1  0.009190  0.193490  0.758900  1.0  1.5112
  P  P54  1  0.584540  0.207010  0.769580  1.0  1.5981
  P  P55  1  0.320550  0.439800  0.114880  1.0  1.5348
  P  P56  1  0.181690  0.429670  0.379990  1.0  1.5541
  H  H57  1  0.897700  0.172900  0.210900  1.0  -0.0818
  H  H58  1  0.620800  0.176700  0.316900  1.0  -0.0831
  H  H59  1  0.937900  0.005800  0.238200  1.0  -0.0789
  H  H60  1  0.546600  0.009600  0.206400  1.0  -0.0764
  H  H61  1  0.493200  0.263300  0.277600  1.0  -0.0825
  H  H62  1  0.070900  0.252200  0.229400  1.0  -0.0586
  H  H63  1  0.916200  0.070800  0.693500  1.0  -0.0857
  H  H64  1  0.602900  0.082100  0.793700  1.0  -0.0726
  H  H65  1  0.602300  0.672900  0.289100  1.0  -0.0786
  H  H66  1  0.879200  0.676700  0.183100  1.0  -0.0841
  H  H67  1  0.562100  0.505800  0.261800  1.0  -0.0782
  H  H68  1  0.953400  0.509600  0.293600  1.0  -0.0736
  H  H69  1  0.006800  0.763300  0.222400  1.0  -0.0821
  H  H70  1  0.429100  0.752200  0.270600  1.0  -0.0592
  H  H71  1  0.583800  0.570800  0.806500  1.0  -0.0857
  H  H72  1  0.897100  0.582100  0.706300  1.0  -0.0776
  H  H73  1  0.102300  0.827100  0.789100  1.0  -0.0784
  H  H74  1  0.379200  0.823300  0.683100  1.0  -0.0838
  H  H75  1  0.062100  0.994200  0.761800  1.0  -0.0767
  H  H76  1  0.453400  0.990400  0.793600  1.0  -0.0723
  H  H77  1  0.506800  0.736700  0.722400  1.0  -0.0811
  H  H78  1  0.929100  0.747800  0.770600  1.0  -0.0583
  H  H79  1  0.083800  0.929200  0.306500  1.0  -0.0866
  H  H80  1  0.397100  0.917900  0.206300  1.0  -0.0766
  H  H81  1  0.397700  0.327100  0.710900  1.0  -0.0814
  H  H82  1  0.120800  0.323300  0.816900  1.0  -0.0829
  H  H83  1  0.437900  0.494200  0.738200  1.0  -0.0782
  H  H84  1  0.046600  0.490400  0.706400  1.0  -0.0749
  H  H85  1  0.993200  0.236700  0.777600  1.0  -0.0819
  H  H86  1  0.570900  0.247800  0.729400  1.0  -0.0572
  H  H87  1  0.416200  0.429200  0.193500  1.0  -0.0865
  H  H88  1  0.102900  0.417900  0.293700  1.0  -0.0712
  O  O89  1  0.791000  0.237460  0.143000  1.0  -0.7469
  O  O90  1  0.700800  0.160150  0.096200  1.0  -0.7731
  O  O91  1  0.914000  0.185480  0.049900  1.0  -0.7444
  O  O92  1  0.782100  0.229660  0.377000  1.0  -0.809
  O  O93  1  0.658600  0.189420  0.485300  1.0  -0.7573
  O  O94  1  0.819100  0.146950  0.404800  1.0  -0.8202
  O  O95  1  0.852900  0.064500  0.137700  1.0  -0.9002
  O  O96  1  0.094800  0.052470  0.199600  1.0  -0.7151
  O  O97  1  0.958200  0.072760  0.321300  1.0  -0.7695
  O  O98  1  0.554600  0.084880  0.171400  1.0  -0.7596
  O  O99  1  0.409600  0.052900  0.277100  1.0  -0.7141
  O  O100  1  0.657300  0.050570  0.339200  1.0  -0.8278
  O  O101  1  0.408200  0.318140  0.165000  1.0  -0.8453
  O  O102  1  0.651200  0.312160  0.243100  1.0  -0.7179
  O  O103  1  0.494800  0.332840  0.349800  1.0  -0.7473
  O  O104  1  0.090700  0.325670  0.186500  1.0  -0.7658
  O  O105  1  0.211700  0.292270  0.350500  1.0  -0.8281
  O  O106  1  0.960800  0.301600  0.309000  1.0  -0.7384
  O  O107  1  0.716700  0.097030  0.602200  1.0  -0.7757
  O  O108  1  0.884700  0.056600  0.526700  1.0  -0.7625
  O  O109  1  0.764400  0.014960  0.636400  1.0  -0.773
  O  O110  1  0.799500  0.102250  0.899500  1.0  -0.8397
  O  O111  1  0.726600  0.022320  0.869200  1.0  -0.7793
  O  O112  1  0.599100  0.073870  0.958670  1.0  -0.7187
  O  O113  1  0.709000  0.737460  0.357000  1.0  -0.7443
  O  O114  1  0.799200  0.660150  0.403800  1.0  -0.7746
  O  O115  1  0.586000  0.685480  0.450100  1.0  -0.7442
  O  O116  1  0.717900  0.729660  0.123000  1.0  -0.8099
  O  O117  1  0.841400  0.689420  0.014700  1.0  -0.7561
  O  O118  1  0.680900  0.646950  0.095200  1.0  -0.8192
  O  O119  1  0.647100  0.564500  0.362300  1.0  -0.9001
  O  O120  1  0.405200  0.552470  0.300400  1.0  -0.7173
  O  O121  1  0.541800  0.572760  0.178700  1.0  -0.769
  O  O122  1  0.945400  0.584880  0.328600  1.0  -0.7582
  O  O123  1  0.090400  0.552900  0.222900  1.0  -0.712
  O  O124  1  0.842700  0.550570  0.160800  1.0  -0.8274
  O  O125  1  0.091800  0.818140  0.335000  1.0  -0.8453
  O  O126  1  0.848800  0.812160  0.256900  1.0  -0.7192
  O  O127  1  0.005200  0.832840  0.150200  1.0  -0.7477
  O  O128  1  0.409300  0.825670  0.313500  1.0  -0.7646
  O  O129  1  0.288300  0.792270  0.149500  1.0  -0.8269
  O  O130  1  0.539200  0.801600  0.191000  1.0  -0.7377
  O  O131  1  0.783300  0.597030  0.897800  1.0  -0.7771
  O  O132  1  0.615300  0.556600  0.973300  1.0  -0.7611
  O  O133  1  0.735600  0.514960  0.863600  1.0  -0.772
  O  O134  1  0.700500  0.602250  0.600500  1.0  -0.8391
  O  O135  1  0.773400  0.522320  0.630800  1.0  -0.7802
  O  O136  1  0.900900  0.573870  0.541330  1.0  -0.7194
  O  O137  1  0.209000  0.762540  0.857000  1.0  -0.7463
  O  O138  1  0.299200  0.839850  0.903800  1.0  -0.775
  O  O139  1  0.086000  0.814520  0.950100  1.0  -0.7438
  O  O140  1  0.217900  0.770340  0.623000  1.0  -0.8099
  O  O141  1  0.341400  0.810580  0.514700  1.0  -0.7569
  O  O142  1  0.180900  0.853050  0.595200  1.0  -0.8191
  O  O143  1  0.147100  0.935500  0.862300  1.0  -0.9013
  O  O144  1  0.905200  0.947530  0.800400  1.0  -0.7185
  O  O145  1  0.041800  0.927240  0.678700  1.0  -0.7687
  O  O146  1  0.445400  0.915120  0.828600  1.0  -0.7582
  O  O147  1  0.590400  0.947100  0.722900  1.0  -0.7133
  O  O148  1  0.342700  0.949430  0.660800  1.0  -0.8266
  O  O149  1  0.591800  0.681860  0.835000  1.0  -0.8458
  O  O150  1  0.348800  0.687840  0.756900  1.0  -0.7194
  O  O151  1  0.505200  0.667160  0.650200  1.0  -0.7492
  O  O152  1  0.909300  0.674330  0.813500  1.0  -0.7645
  O  O153  1  0.788300  0.707730  0.649500  1.0  -0.8286
  O  O154  1  0.039200  0.698400  0.691000  1.0  -0.7396
  O  O155  1  0.283300  0.902970  0.397800  1.0  -0.777
  O  O156  1  0.115300  0.943400  0.473300  1.0  -0.7616
  O  O157  1  0.235600  0.985040  0.363600  1.0  -0.7711
  O  O158  1  0.200500  0.897750  0.100500  1.0  -0.8384
  O  O159  1  0.273400  0.977680  0.130800  1.0  -0.7796
  O  O160  1  0.400900  0.926130  0.041330  1.0  -0.7188
  O  O161  1  0.291000  0.262540  0.643000  1.0  -0.7486
  O  O162  1  0.200800  0.339850  0.596200  1.0  -0.7735
  O  O163  1  0.414000  0.314520  0.549900  1.0  -0.7443
  O  O164  1  0.282100  0.270340  0.877000  1.0  -0.8086
  O  O165  1  0.158600  0.310580  0.985300  1.0  -0.7572
  O  O166  1  0.319100  0.353050  0.904800  1.0  -0.8199
  O  O167  1  0.352900  0.435500  0.637700  1.0  -0.9001
  O  O168  1  0.594800  0.447530  0.699600  1.0  -0.7156
  O  O169  1  0.458200  0.427240  0.821300  1.0  -0.7695
  O  O170  1  0.054600  0.415120  0.671400  1.0  -0.7603
  O  O171  1  0.909600  0.447100  0.777100  1.0  -0.7151
  O  O172  1  0.157300  0.449430  0.839200  1.0  -0.8273
  O  O173  1  0.908200  0.181860  0.665000  1.0  -0.8451
  O  O174  1  0.151200  0.187840  0.743100  1.0  -0.7187
  O  O175  1  0.994800  0.167160  0.849800  1.0  -0.7479
  O  O176  1  0.590700  0.174330  0.686500  1.0  -0.7659
  O  O177  1  0.711700  0.207730  0.850500  1.0  -0.8296
  O  O178  1  0.460800  0.198400  0.809000  1.0  -0.7406
  O  O179  1  0.216700  0.402970  0.102200  1.0  -0.7752
  O  O180  1  0.384700  0.443400  0.026700  1.0  -0.762
  O  O181  1  0.264400  0.485040  0.136400  1.0  -0.7721
  O  O182  1  0.299500  0.397750  0.399500  1.0  -0.8393
  O  O183  1  0.226600  0.477680  0.369200  1.0  -0.7788
  O  O184  1  0.099100  0.426130  0.458670  1.0  -0.7184
