# generated using pymatgen
data_GdCu3H24C36I3(NO2)3
_symmetry_space_group_name_H-M   'P 1'
_cell_length_a   46.00900000
_cell_length_b   9.73330000
_cell_length_c   20.71590000
_cell_angle_alpha   90.00000000
_cell_angle_beta   105.77000000
_cell_angle_gamma   90.00000000
_symmetry_Int_Tables_number   1
_chemical_formula_structural   GdCu3H24C36I3(NO2)3
_chemical_formula_sum   'Gd8 Cu24 H192 C288 I24 N24 O48'
_cell_volume   8927.80026683
_cell_formula_units_Z   8
loop_
 _symmetry_equiv_pos_site_id
 _symmetry_equiv_pos_as_xyz
  1  'x, y, z'
loop_
 _atom_site_type_symbol
 _atom_site_label
 _atom_site_symmetry_multiplicity
 _atom_site_fract_x
 _atom_site_fract_y
 _atom_site_fract_z
 _atom_site_occupancy
 _atom_site_charge
  Gd  Gd1  1  0.496610  0.751630  0.483420  1.0  2.2054
  Gd  Gd2  1  0.996610  0.251630  0.483420  1.0  2.2054
  Gd  Gd3  1  0.503390  0.751630  0.016580  1.0  2.2108
  Gd  Gd4  1  0.003390  0.251630  0.016580  1.0  2.2108
  Gd  Gd5  1  0.503390  0.248370  0.516580  1.0  2.211
  Gd  Gd6  1  0.003390  0.748370  0.516580  1.0  2.211
  Gd  Gd7  1  0.496610  0.248370  0.983420  1.0  2.2053
  Gd  Gd8  1  0.996610  0.748370  0.983420  1.0  2.2053
  Cu  Cu9  1  0.216300  0.406740  0.362700  1.0  0.1585
  Cu  Cu10  1  0.266340  0.331170  0.467050  1.0  0.1673
  Cu  Cu11  1  0.253000  0.576670  0.331480  1.0  0.2052
  Cu  Cu12  1  0.716300  0.906740  0.362700  1.0  0.1585
  Cu  Cu13  1  0.766340  0.831170  0.467050  1.0  0.1673
  Cu  Cu14  1  0.753000  0.076670  0.331480  1.0  0.2052
  Cu  Cu15  1  0.783700  0.406740  0.137300  1.0  0.1587
  Cu  Cu16  1  0.733660  0.331170  0.032950  1.0  0.1682
  Cu  Cu17  1  0.747000  0.576670  0.168520  1.0  0.2069
  Cu  Cu18  1  0.283700  0.906740  0.137300  1.0  0.1587
  Cu  Cu19  1  0.233660  0.831170  0.032950  1.0  0.1682
  Cu  Cu20  1  0.247000  0.076670  0.168520  1.0  0.2069
  Cu  Cu21  1  0.783700  0.593260  0.637300  1.0  0.1584
  Cu  Cu22  1  0.733660  0.668830  0.532950  1.0  0.1686
  Cu  Cu23  1  0.747000  0.423330  0.668520  1.0  0.208
  Cu  Cu24  1  0.283700  0.093260  0.637300  1.0  0.1584
  Cu  Cu25  1  0.233660  0.168830  0.532950  1.0  0.1686
  Cu  Cu26  1  0.247000  0.923330  0.668520  1.0  0.208
  Cu  Cu27  1  0.216300  0.593260  0.862700  1.0  0.1586
  Cu  Cu28  1  0.266340  0.668830  0.967050  1.0  0.1677
  Cu  Cu29  1  0.253000  0.423330  0.831480  1.0  0.206
  Cu  Cu30  1  0.716300  0.093260  0.862700  1.0  0.1586
  Cu  Cu31  1  0.766340  0.168830  0.967050  1.0  0.1677
  Cu  Cu32  1  0.753000  0.923330  0.831480  1.0  0.206
  H  H33  1  0.333333  0.329400  0.529100  1.0  0.0699
  H  H34  1  0.373000  0.478900  0.562200  1.0  0.1238
  H  H35  1  0.313900  0.788600  0.531500  1.0  0.1296
  H  H36  1  0.276200  0.631200  0.499300  1.0  0.0716
  H  H37  1  0.404200  0.630900  0.540300  1.0  0.1123
  H  H38  1  0.438800  0.996400  0.613400  1.0  0.1191
  H  H39  1  0.391800  0.058900  0.625400  1.0  0.1017
  H  H40  1  0.351900  0.907900  0.596900  1.0  0.1111
  H  H41  1  0.320800  0.572300  0.364600  1.0  0.0821
  H  H42  1  0.359600  0.724300  0.389700  1.0  0.1125
  H  H43  1  0.300600  0.031100  0.352800  1.0  0.1239
  H  H44  1  0.262800  0.873300  0.330300  1.0  0.067
  H  H45  1  0.395200  0.869100  0.404400  1.0  0.1063
  H  H46  1  0.422400  0.254200  0.451600  1.0  0.1226
  H  H47  1  0.373000  0.323200  0.427000  1.0  0.1032
  H  H48  1  0.334200  0.168300  0.391800  1.0  0.131
  H  H49  1  0.650600  0.098500  0.799300  1.0  0.0793
  H  H50  1  0.611700  0.244700  0.755200  1.0  0.1221
  H  H51  1  0.671400  0.551600  0.784800  1.0  0.1219
  H  H52  1  0.708600  0.397200  0.830000  1.0  0.0827
  H  H53  1  0.584900  0.382600  0.673400  1.0  0.1077
  H  H54  1  0.548900  0.756900  0.666400  1.0  0.109
  H  H55  1  0.590100  0.827900  0.750300  1.0  0.0979
  H  H56  1  0.630200  0.681400  0.792000  1.0  0.1127
  H  H57  1  0.833300  0.829400  0.529100  1.0  0.0695
  H  H58  1  0.873000  0.978900  0.562200  1.0  0.1236
  H  H59  1  0.813900  0.288600  0.531500  1.0  0.1296
  H  H60  1  0.776200  0.131200  0.499300  1.0  0.0716
  H  H61  1  0.904200  0.130900  0.540300  1.0  0.1123
  H  H62  1  0.938800  0.496400  0.613400  1.0  0.1191
  H  H63  1  0.891800  0.558900  0.625400  1.0  0.1017
  H  H64  1  0.851900  0.407900  0.596900  1.0  0.1111
  H  H65  1  0.820800  0.072300  0.364600  1.0  0.0821
  H  H66  1  0.859600  0.224300  0.389700  1.0  0.1125
  H  H67  1  0.800600  0.531100  0.352800  1.0  0.1239
  H  H68  1  0.762800  0.373300  0.330300  1.0  0.067
  H  H69  1  0.895200  0.369100  0.404400  1.0  0.1063
  H  H70  1  0.922400  0.754200  0.451600  1.0  0.1226
  H  H71  1  0.873000  0.823200  0.427000  1.0  0.1032
  H  H72  1  0.834200  0.668300  0.391800  1.0  0.131
  H  H73  1  0.150600  0.598500  0.799300  1.0  0.0793
  H  H74  1  0.111700  0.744700  0.755200  1.0  0.1221
  H  H75  1  0.171400  0.051600  0.784800  1.0  0.1219
  H  H76  1  0.208600  0.897200  0.830000  1.0  0.0827
  H  H77  1  0.084900  0.882600  0.673400  1.0  0.1077
  H  H78  1  0.048900  0.256900  0.666400  1.0  0.109
  H  H79  1  0.090100  0.327900  0.750300  1.0  0.0979
  H  H80  1  0.130200  0.181400  0.792000  1.0  0.1127
  H  H81  1  0.666667  0.329400  0.970900  1.0  0.0702
  H  H82  1  0.627000  0.478900  0.937800  1.0  0.1239
  H  H83  1  0.686100  0.788600  0.968500  1.0  0.1299
  H  H84  1  0.723800  0.631200  0.000700  1.0  0.0711
  H  H85  1  0.595800  0.630900  0.959700  1.0  0.1122
  H  H86  1  0.561200  0.996400  0.886600  1.0  0.1198
  H  H87  1  0.608200  0.058900  0.874600  1.0  0.1013
  H  H88  1  0.648100  0.907900  0.903100  1.0  0.1118
  H  H89  1  0.679200  0.572300  0.135400  1.0  0.0825
  H  H90  1  0.640400  0.724300  0.110300  1.0  0.1127
  H  H91  1  0.699400  0.031100  0.147200  1.0  0.124
  H  H92  1  0.737200  0.873300  0.169700  1.0  0.0668
  H  H93  1  0.604800  0.869100  0.095600  1.0  0.1068
  H  H94  1  0.577600  0.254200  0.048400  1.0  0.123
  H  H95  1  0.627000  0.323200  0.073000  1.0  0.1032
  H  H96  1  0.665800  0.168300  0.108200  1.0  0.1312
  H  H97  1  0.349400  0.098500  0.700700  1.0  0.0793
  H  H98  1  0.388300  0.244700  0.744800  1.0  0.1205
  H  H99  1  0.328600  0.551600  0.715200  1.0  0.1218
  H  H100  1  0.291400  0.397200  0.670000  1.0  0.0827
  H  H101  1  0.415100  0.382600  0.826600  1.0  0.1071
  H  H102  1  0.451100  0.756900  0.833600  1.0  0.1094
  H  H103  1  0.409900  0.827900  0.749700  1.0  0.0981
  H  H104  1  0.369800  0.681400  0.708000  1.0  0.1127
  H  H105  1  0.166700  0.829400  0.970900  1.0  0.0698
  H  H106  1  0.127000  0.978900  0.937800  1.0  0.1237
  H  H107  1  0.186100  0.288600  0.968500  1.0  0.1299
  H  H108  1  0.223800  0.131200  0.000700  1.0  0.071
  H  H109  1  0.095800  0.130900  0.959700  1.0  0.1122
  H  H110  1  0.061200  0.496400  0.886600  1.0  0.1198
  H  H111  1  0.108200  0.558900  0.874600  1.0  0.1013
  H  H112  1  0.148100  0.407900  0.903100  1.0  0.1118
  H  H113  1  0.179200  0.072300  0.135400  1.0  0.0825
  H  H114  1  0.140400  0.224300  0.110300  1.0  0.1127
  H  H115  1  0.199400  0.531100  0.147200  1.0  0.124
  H  H116  1  0.237200  0.373300  0.169700  1.0  0.0668
  H  H117  1  0.104800  0.369100  0.095600  1.0  0.1068
  H  H118  1  0.077600  0.754200  0.048400  1.0  0.123
  H  H119  1  0.127000  0.823200  0.073000  1.0  0.1032
  H  H120  1  0.165800  0.668300  0.108200  1.0  0.1312
  H  H121  1  0.849400  0.598500  0.700700  1.0  0.0793
  H  H122  1  0.888300  0.744700  0.744800  1.0  0.1205
  H  H123  1  0.828600  0.051600  0.715200  1.0  0.1218
  H  H124  1  0.791400  0.897200  0.670000  1.0  0.0827
  H  H125  1  0.915100  0.882600  0.826600  1.0  0.1071
  H  H126  1  0.951100  0.256900  0.833600  1.0  0.1094
  H  H127  1  0.909900  0.327900  0.749700  1.0  0.0981
  H  H128  1  0.869800  0.181400  0.708000  1.0  0.1127
  H  H129  1  0.666667  0.670600  0.470900  1.0  0.0692
  H  H130  1  0.627000  0.521100  0.437800  1.0  0.1234
  H  H131  1  0.686100  0.211400  0.468500  1.0  0.1302
  H  H132  1  0.723800  0.368800  0.500700  1.0  0.0713
  H  H133  1  0.595800  0.369100  0.459700  1.0  0.1128
  H  H134  1  0.561200  0.003600  0.386600  1.0  0.1193
  H  H135  1  0.608200  0.941100  0.374600  1.0  0.1015
  H  H136  1  0.648100  0.092100  0.403100  1.0  0.1116
  H  H137  1  0.679200  0.427700  0.635400  1.0  0.0819
  H  H138  1  0.640400  0.275700  0.610300  1.0  0.1132
  H  H139  1  0.699400  0.968900  0.647200  1.0  0.1243
  H  H140  1  0.737200  0.126700  0.669700  1.0  0.067
  H  H141  1  0.604800  0.130900  0.595600  1.0  0.1066
  H  H142  1  0.577600  0.745800  0.548400  1.0  0.1229
  H  H143  1  0.627000  0.676800  0.573000  1.0  0.1042
  H  H144  1  0.665800  0.831700  0.608200  1.0  0.1306
  H  H145  1  0.349400  0.901500  0.200700  1.0  0.0789
  H  H146  1  0.388300  0.755300  0.244800  1.0  0.1218
  H  H147  1  0.328600  0.448400  0.215200  1.0  0.122
  H  H148  1  0.291400  0.602800  0.170000  1.0  0.0828
  H  H149  1  0.415100  0.617400  0.326600  1.0  0.1073
  H  H150  1  0.451100  0.243100  0.333600  1.0  0.1091
  H  H151  1  0.409900  0.172100  0.249700  1.0  0.098
  H  H152  1  0.369800  0.318600  0.208000  1.0  0.1124
  H  H153  1  0.166700  0.170600  0.470900  1.0  0.0684
  H  H154  1  0.127000  0.021100  0.437800  1.0  0.1232
  H  H155  1  0.186100  0.711400  0.468500  1.0  0.1302
  H  H156  1  0.223800  0.868800  0.500700  1.0  0.0712
  H  H157  1  0.095800  0.869100  0.459700  1.0  0.1128
  H  H158  1  0.061200  0.503600  0.386600  1.0  0.1193
  H  H159  1  0.108200  0.441100  0.374600  1.0  0.1015
  H  H160  1  0.148100  0.592100  0.403100  1.0  0.1116
  H  H161  1  0.179200  0.927700  0.635400  1.0  0.0819
  H  H162  1  0.140400  0.775700  0.610300  1.0  0.1132
  H  H163  1  0.199400  0.468900  0.647200  1.0  0.1243
  H  H164  1  0.237200  0.626700  0.669700  1.0  0.067
  H  H165  1  0.104800  0.630900  0.595600  1.0  0.1066
  H  H166  1  0.077600  0.245800  0.548400  1.0  0.1229
  H  H167  1  0.127000  0.176800  0.573000  1.0  0.1042
  H  H168  1  0.165800  0.331700  0.608200  1.0  0.1306
  H  H169  1  0.849400  0.401500  0.200700  1.0  0.0789
  H  H170  1  0.888300  0.255300  0.244800  1.0  0.1218
  H  H171  1  0.828600  0.948400  0.215200  1.0  0.122
  H  H172  1  0.791400  0.102800  0.170000  1.0  0.0828
  H  H173  1  0.915100  0.117400  0.326600  1.0  0.1073
  H  H174  1  0.951100  0.743100  0.333600  1.0  0.1091
  H  H175  1  0.909900  0.672100  0.249700  1.0  0.098
  H  H176  1  0.869800  0.818600  0.208000  1.0  0.1124
  H  H177  1  0.333333  0.670600  0.029100  1.0  0.0689
  H  H178  1  0.373000  0.521100  0.062200  1.0  0.1242
  H  H179  1  0.313900  0.211400  0.031500  1.0  0.1299
  H  H180  1  0.276200  0.368800  0.999300  1.0  0.072
  H  H181  1  0.404200  0.369100  0.040300  1.0  0.113
  H  H182  1  0.438800  0.003600  0.113400  1.0  0.1194
  H  H183  1  0.391800  0.941100  0.125400  1.0  0.1019
  H  H184  1  0.351900  0.092100  0.096900  1.0  0.1113
  H  H185  1  0.320800  0.427700  0.864600  1.0  0.0818
  H  H186  1  0.359600  0.275700  0.889700  1.0  0.1129
  H  H187  1  0.300600  0.968900  0.852800  1.0  0.1227
  H  H188  1  0.262800  0.126700  0.830300  1.0  0.0675
  H  H189  1  0.395200  0.130900  0.904400  1.0  0.1066
  H  H190  1  0.422400  0.745800  0.951600  1.0  0.123
  H  H191  1  0.373000  0.676800  0.927000  1.0  0.104
  H  H192  1  0.334200  0.831700  0.891800  1.0  0.1307
  H  H193  1  0.650600  0.901500  0.299300  1.0  0.0788
  H  H194  1  0.611700  0.755300  0.255200  1.0  0.121
  H  H195  1  0.671400  0.448400  0.284800  1.0  0.1227
  H  H196  1  0.708600  0.602800  0.330000  1.0  0.0827
  H  H197  1  0.584900  0.617400  0.173400  1.0  0.1077
  H  H198  1  0.548900  0.243100  0.166400  1.0  0.109
  H  H199  1  0.590100  0.172100  0.250300  1.0  0.0976
  H  H200  1  0.630200  0.318600  0.292000  1.0  0.1126
  H  H201  1  0.833300  0.170600  0.029100  1.0  0.068
  H  H202  1  0.873000  0.021100  0.062200  1.0  0.124
  H  H203  1  0.813900  0.711400  0.031500  1.0  0.1299
  H  H204  1  0.776200  0.868800  0.999300  1.0  0.072
  H  H205  1  0.904200  0.869100  0.040300  1.0  0.113
  H  H206  1  0.938800  0.503600  0.113400  1.0  0.1194
  H  H207  1  0.891800  0.441100  0.125400  1.0  0.1019
  H  H208  1  0.851900  0.592100  0.096900  1.0  0.1113
  H  H209  1  0.820800  0.927700  0.864600  1.0  0.0818
  H  H210  1  0.859600  0.775700  0.889700  1.0  0.1129
  H  H211  1  0.800600  0.468900  0.852800  1.0  0.1227
  H  H212  1  0.762800  0.626700  0.830300  1.0  0.0675
  H  H213  1  0.895200  0.630900  0.904400  1.0  0.1066
  H  H214  1  0.922400  0.245800  0.951600  1.0  0.123
  H  H215  1  0.873000  0.176800  0.927000  1.0  0.104
  H  H216  1  0.834200  0.331700  0.891800  1.0  0.1307
  H  H217  1  0.150600  0.401500  0.299300  1.0  0.0788
  H  H218  1  0.111700  0.255300  0.255200  1.0  0.121
  H  H219  1  0.171400  0.948400  0.284800  1.0  0.1227
  H  H220  1  0.208600  0.102800  0.330000  1.0  0.0827
  H  H221  1  0.084900  0.117400  0.173400  1.0  0.1077
  H  H222  1  0.048900  0.743100  0.166400  1.0  0.109
  H  H223  1  0.090100  0.672100  0.250300  1.0  0.0976
  H  H224  1  0.130200  0.818600  0.292000  1.0  0.1126
  C  C225  1  0.329170  0.422900  0.529300  1.0  0.1699
  C  C226  1  0.353400  0.513000  0.548900  1.0  -0.2069
  C  C227  1  0.348500  0.651200  0.548800  1.0  0.0773
  C  C228  1  0.318510  0.695700  0.530800  1.0  -0.1989
  C  C229  1  0.296010  0.599300  0.512000  1.0  0.1574
  C  C230  1  0.373630  0.751800  0.566100  1.0  -0.0241
  C  C231  1  0.401780  0.716400  0.558200  1.0  -0.0921
  C  C232  1  0.426510  0.804900  0.576300  1.0  -0.1552
  C  C233  1  0.422710  0.935300  0.601600  1.0  -0.0459
  C  C234  1  0.394480  0.972500  0.608800  1.0  -0.1196
  C  C235  1  0.370490  0.881600  0.591500  1.0  -0.1155
  C  C236  1  0.455630  0.765300  0.561200  1.0  0.6822
  C  C237  1  0.316450  0.665800  0.362600  1.0  0.1529
  C  C238  1  0.339880  0.757400  0.377600  1.0  -0.1457
  C  C239  1  0.335190  0.896000  0.375400  1.0  0.0853
  C  C240  1  0.305250  0.938000  0.356200  1.0  -0.2121
  C  C241  1  0.282630  0.842200  0.342300  1.0  0.1511
  C  C242  1  0.360370  0.999300  0.395700  1.0  0.0471
  C  C243  1  0.390520  0.960700  0.409600  1.0  -0.0621
  C  C244  1  0.413470  0.052500  0.430700  1.0  -0.1585
  C  C245  1  0.406910  0.190500  0.437400  1.0  -0.0722
  C  C246  1  0.377470  0.231000  0.422800  1.0  -0.1036
  C  C247  1  0.354150  0.138200  0.401800  1.0  -0.1361
  C  C248  1  0.445760  0.007500  0.447300  1.0  0.6872
  C  C249  1  0.654980  0.191200  0.796600  1.0  0.1699
  C  C250  1  0.631260  0.279000  0.770200  1.0  -0.2104
  C  C251  1  0.636500  0.417400  0.765900  1.0  0.1055
  C  C252  1  0.666460  0.459600  0.788000  1.0  -0.1954
  C  C253  1  0.688860  0.365500  0.814300  1.0  0.1635
  C  C254  1  0.611720  0.514000  0.737700  1.0  0.0451
  C  C255  1  0.586220  0.473000  0.688500  1.0  -0.0949
  C  C256  1  0.562840  0.562000  0.661500  1.0  -0.1363
  C  C257  1  0.564550  0.695700  0.684400  1.0  -0.0433
  C  C258  1  0.589400  0.738600  0.734000  1.0  -0.1136
  C  C259  1  0.613220  0.650300  0.759900  1.0  -0.1048
  C  C260  1  0.536720  0.513900  0.605900  1.0  0.738
  C  C261  1  0.829170  0.922900  0.529300  1.0  0.1718
  C  C262  1  0.853400  0.013000  0.548900  1.0  -0.2064
  C  C263  1  0.848500  0.151200  0.548800  1.0  0.0773
  C  C264  1  0.818510  0.195700  0.530800  1.0  -0.1989
  C  C265  1  0.796010  0.099300  0.512000  1.0  0.1574
  C  C266  1  0.873630  0.251800  0.566100  1.0  -0.0241
  C  C267  1  0.901780  0.216400  0.558200  1.0  -0.0921
  C  C268  1  0.926510  0.304900  0.576300  1.0  -0.1552
  C  C269  1  0.922710  0.435300  0.601600  1.0  -0.0459
  C  C270  1  0.894480  0.472500  0.608800  1.0  -0.1196
  C  C271  1  0.870490  0.381600  0.591500  1.0  -0.1155
  C  C272  1  0.955630  0.265300  0.561200  1.0  0.6822
  C  C273  1  0.816450  0.165800  0.362600  1.0  0.1529
  C  C274  1  0.839880  0.257400  0.377600  1.0  -0.1457
  C  C275  1  0.835190  0.396000  0.375400  1.0  0.0853
  C  C276  1  0.805250  0.438000  0.356200  1.0  -0.2121
  C  C277  1  0.782630  0.342200  0.342300  1.0  0.1511
  C  C278  1  0.860370  0.499300  0.395700  1.0  0.0471
  C  C279  1  0.890520  0.460700  0.409600  1.0  -0.0621
  C  C280  1  0.913470  0.552500  0.430700  1.0  -0.1585
  C  C281  1  0.906910  0.690500  0.437400  1.0  -0.0722
  C  C282  1  0.877470  0.731000  0.422800  1.0  -0.1036
  C  C283  1  0.854150  0.638200  0.401800  1.0  -0.1361
  C  C284  1  0.945760  0.507500  0.447300  1.0  0.6872
  C  C285  1  0.154980  0.691200  0.796600  1.0  0.1699
  C  C286  1  0.131260  0.779000  0.770200  1.0  -0.2104
  C  C287  1  0.136500  0.917400  0.765900  1.0  0.1055
  C  C288  1  0.166460  0.959600  0.788000  1.0  -0.1954
  C  C289  1  0.188860  0.865500  0.814300  1.0  0.1635
  C  C290  1  0.111720  0.014000  0.737700  1.0  0.0451
  C  C291  1  0.086220  0.973000  0.688500  1.0  -0.0949
  C  C292  1  0.062840  0.062000  0.661500  1.0  -0.1363
  C  C293  1  0.064550  0.195700  0.684400  1.0  -0.0433
  C  C294  1  0.089400  0.238600  0.734000  1.0  -0.1136
  C  C295  1  0.113220  0.150300  0.759900  1.0  -0.1048
  C  C296  1  0.036720  0.013900  0.605900  1.0  0.738
  C  C297  1  0.670830  0.422900  0.970700  1.0  0.1705
  C  C298  1  0.646600  0.513000  0.951100  1.0  -0.2047
  C  C299  1  0.651500  0.651200  0.951200  1.0  0.0776
  C  C300  1  0.681490  0.695700  0.969200  1.0  -0.1998
  C  C301  1  0.703990  0.599300  0.988000  1.0  0.1571
  C  C302  1  0.626370  0.751800  0.933900  1.0  -0.0254
  C  C303  1  0.598220  0.716400  0.941800  1.0  -0.0931
  C  C304  1  0.573490  0.804900  0.923700  1.0  -0.1557
  C  C305  1  0.577290  0.935300  0.898400  1.0  -0.047
  C  C306  1  0.605520  0.972500  0.891200  1.0  -0.1194
  C  C307  1  0.629510  0.881600  0.908500  1.0  -0.1169
  C  C308  1  0.544370  0.765300  0.938800  1.0  0.6818
  C  C309  1  0.683550  0.665800  0.137400  1.0  0.1535
  C  C310  1  0.660120  0.757400  0.122400  1.0  -0.1445
  C  C311  1  0.664810  0.896000  0.124600  1.0  0.0848
  C  C312  1  0.694750  0.938000  0.143800  1.0  -0.2138
  C  C313  1  0.717370  0.842200  0.157700  1.0  0.1502
  C  C314  1  0.639630  0.999300  0.104300  1.0  0.0481
  C  C315  1  0.609480  0.960700  0.090400  1.0  -0.0624
  C  C316  1  0.586530  0.052500  0.069300  1.0  -0.1607
  C  C317  1  0.593090  0.190500  0.062600  1.0  -0.0715
  C  C318  1  0.622530  0.231000  0.077200  1.0  -0.1027
  C  C319  1  0.645850  0.138200  0.098200  1.0  -0.1374
  C  C320  1  0.554240  0.007500  0.052700  1.0  0.6876
  C  C321  1  0.345020  0.191200  0.703400  1.0  0.17
  C  C322  1  0.368740  0.279000  0.729800  1.0  -0.2117
  C  C323  1  0.363500  0.417400  0.734100  1.0  0.1059
  C  C324  1  0.333540  0.459600  0.712000  1.0  -0.1953
  C  C325  1  0.311140  0.365500  0.685700  1.0  0.1637
  C  C326  1  0.388280  0.514000  0.762300  1.0  0.0453
  C  C327  1  0.413780  0.473000  0.811500  1.0  -0.0949
  C  C328  1  0.437160  0.562000  0.838500  1.0  -0.1377
  C  C329  1  0.435450  0.695700  0.815600  1.0  -0.0431
  C  C330  1  0.410600  0.738600  0.766000  1.0  -0.1127
  C  C331  1  0.386780  0.650300  0.740100  1.0  -0.1044
  C  C332  1  0.463280  0.513900  0.894100  1.0  0.74
  C  C333  1  0.170830  0.922900  0.970700  1.0  0.1726
  C  C334  1  0.146600  0.013000  0.951100  1.0  -0.2043
  C  C335  1  0.151500  0.151200  0.951200  1.0  0.0776
  C  C336  1  0.181490  0.195700  0.969200  1.0  -0.1998
  C  C337  1  0.203990  0.099300  0.988000  1.0  0.1571
  C  C338  1  0.126370  0.251800  0.933900  1.0  -0.0254
  C  C339  1  0.098220  0.216400  0.941800  1.0  -0.0931
  C  C340  1  0.073490  0.304900  0.923700  1.0  -0.1557
  C  C341  1  0.077290  0.435300  0.898400  1.0  -0.047
  C  C342  1  0.105520  0.472500  0.891200  1.0  -0.1194
  C  C343  1  0.129510  0.381600  0.908500  1.0  -0.1169
  C  C344  1  0.044370  0.265300  0.938800  1.0  0.6818
  C  C345  1  0.183550  0.165800  0.137400  1.0  0.1535
  C  C346  1  0.160120  0.257400  0.122400  1.0  -0.1445
  C  C347  1  0.164810  0.396000  0.124600  1.0  0.0848
  C  C348  1  0.194750  0.438000  0.143800  1.0  -0.2138
  C  C349  1  0.217370  0.342200  0.157700  1.0  0.1502
  C  C350  1  0.139630  0.499300  0.104300  1.0  0.0481
  C  C351  1  0.109480  0.460700  0.090400  1.0  -0.0624
  C  C352  1  0.086530  0.552500  0.069300  1.0  -0.1607
  C  C353  1  0.093090  0.690500  0.062600  1.0  -0.0715
  C  C354  1  0.122530  0.731000  0.077200  1.0  -0.1027
  C  C355  1  0.145850  0.638200  0.098200  1.0  -0.1373
  C  C356  1  0.054240  0.507500  0.052700  1.0  0.6876
  C  C357  1  0.845020  0.691200  0.703400  1.0  0.17
  C  C358  1  0.868740  0.779000  0.729800  1.0  -0.2117
  C  C359  1  0.863500  0.917400  0.734100  1.0  0.1059
  C  C360  1  0.833540  0.959600  0.712000  1.0  -0.1953
  C  C361  1  0.811140  0.865500  0.685700  1.0  0.1637
  C  C362  1  0.888280  0.014000  0.762300  1.0  0.0453
  C  C363  1  0.913780  0.973000  0.811500  1.0  -0.0949
  C  C364  1  0.937160  0.062000  0.838500  1.0  -0.1377
  C  C365  1  0.935450  0.195700  0.815600  1.0  -0.0431
  C  C366  1  0.910600  0.238600  0.766000  1.0  -0.1127
  C  C367  1  0.886780  0.150300  0.740100  1.0  -0.1044
  C  C368  1  0.963280  0.013900  0.894100  1.0  0.74
  C  C369  1  0.670830  0.577100  0.470700  1.0  0.1703
  C  C370  1  0.646600  0.487000  0.451100  1.0  -0.2062
  C  C371  1  0.651500  0.348800  0.451200  1.0  0.0778
  C  C372  1  0.681490  0.304300  0.469200  1.0  -0.1979
  C  C373  1  0.703990  0.400700  0.488000  1.0  0.157
  C  C374  1  0.626370  0.248200  0.433900  1.0  -0.0256
  C  C375  1  0.598220  0.283600  0.441800  1.0  -0.0954
  C  C376  1  0.573490  0.195100  0.423700  1.0  -0.1547
  C  C377  1  0.577290  0.064700  0.398400  1.0  -0.0466
  C  C378  1  0.605520  0.027500  0.391200  1.0  -0.1209
  C  C379  1  0.629510  0.118400  0.408500  1.0  -0.1165
  C  C380  1  0.544370  0.234700  0.438800  1.0  0.6827
  C  C381  1  0.683550  0.334200  0.637400  1.0  0.1528
  C  C382  1  0.660120  0.242600  0.622400  1.0  -0.1448
  C  C383  1  0.664810  0.104000  0.624600  1.0  0.085
  C  C384  1  0.694750  0.062000  0.643800  1.0  -0.2118
  C  C385  1  0.717370  0.157800  0.657700  1.0  0.1513
  C  C386  1  0.639630  0.000700  0.604300  1.0  0.0482
  C  C387  1  0.609480  0.039300  0.590400  1.0  -0.0623
  C  C388  1  0.586530  0.947500  0.569300  1.0  -0.1605
  C  C389  1  0.593090  0.809500  0.562600  1.0  -0.0719
  C  C390  1  0.622530  0.769000  0.577200  1.0  -0.1023
  C  C391  1  0.645850  0.861800  0.598200  1.0  -0.1369
  C  C392  1  0.554240  0.992500  0.552700  1.0  0.6877
  C  C393  1  0.345020  0.808800  0.203400  1.0  0.1705
  C  C394  1  0.368740  0.721000  0.229800  1.0  -0.2122
  C  C395  1  0.363500  0.582600  0.234100  1.0  0.1056
  C  C396  1  0.333540  0.540400  0.212000  1.0  -0.1948
  C  C397  1  0.311140  0.634500  0.185700  1.0  0.1634
  C  C398  1  0.388280  0.486000  0.262300  1.0  0.0453
  C  C399  1  0.413780  0.527000  0.311500  1.0  -0.0949
  C  C400  1  0.437160  0.438000  0.338500  1.0  -0.1385
  C  C401  1  0.435450  0.304300  0.315600  1.0  -0.0435
  C  C402  1  0.410600  0.261400  0.266000  1.0  -0.1138
  C  C403  1  0.386780  0.349700  0.240100  1.0  -0.1046
  C  C404  1  0.463280  0.486100  0.394100  1.0  0.7402
  C  C405  1  0.170830  0.077100  0.470700  1.0  0.1722
  C  C406  1  0.146600  0.987000  0.451100  1.0  -0.2059
  C  C407  1  0.151500  0.848800  0.451200  1.0  0.0778
  C  C408  1  0.181490  0.804300  0.469200  1.0  -0.1979
  C  C409  1  0.203990  0.900700  0.488000  1.0  0.157
  C  C410  1  0.126370  0.748200  0.433900  1.0  -0.0255
  C  C411  1  0.098220  0.783600  0.441800  1.0  -0.0954
  C  C412  1  0.073490  0.695100  0.423700  1.0  -0.1547
  C  C413  1  0.077290  0.564700  0.398400  1.0  -0.0466
  C  C414  1  0.105520  0.527500  0.391200  1.0  -0.1209
  C  C415  1  0.129510  0.618400  0.408500  1.0  -0.1165
  C  C416  1  0.044370  0.734700  0.438800  1.0  0.6827
  C  C417  1  0.183550  0.834200  0.637400  1.0  0.1528
  C  C418  1  0.160120  0.742600  0.622400  1.0  -0.1448
  C  C419  1  0.164810  0.604000  0.624600  1.0  0.085
  C  C420  1  0.194750  0.562000  0.643800  1.0  -0.2118
  C  C421  1  0.217370  0.657800  0.657700  1.0  0.1513
  C  C422  1  0.139630  0.500700  0.604300  1.0  0.0482
  C  C423  1  0.109480  0.539300  0.590400  1.0  -0.0623
  C  C424  1  0.086530  0.447500  0.569300  1.0  -0.1605
  C  C425  1  0.093090  0.309500  0.562600  1.0  -0.0719
  C  C426  1  0.122530  0.269000  0.577200  1.0  -0.1023
  C  C427  1  0.145850  0.361800  0.598200  1.0  -0.1368
  C  C428  1  0.054240  0.492500  0.552700  1.0  0.6877
  C  C429  1  0.845020  0.308800  0.203400  1.0  0.1705
  C  C430  1  0.868740  0.221000  0.229800  1.0  -0.2122
  C  C431  1  0.863500  0.082600  0.234100  1.0  0.1056
  C  C432  1  0.833540  0.040400  0.212000  1.0  -0.1948
  C  C433  1  0.811140  0.134500  0.185700  1.0  0.1634
  C  C434  1  0.888280  0.986000  0.262300  1.0  0.0453
  C  C435  1  0.913780  0.027000  0.311500  1.0  -0.0949
  C  C436  1  0.937160  0.938000  0.338500  1.0  -0.1385
  C  C437  1  0.935450  0.804300  0.315600  1.0  -0.0435
  C  C438  1  0.910600  0.761400  0.266000  1.0  -0.1138
  C  C439  1  0.886780  0.849700  0.240100  1.0  -0.1046
  C  C440  1  0.963280  0.986100  0.394100  1.0  0.7402
  C  C441  1  0.329170  0.577100  0.029300  1.0  0.1699
  C  C442  1  0.353400  0.487000  0.048900  1.0  -0.2079
  C  C443  1  0.348500  0.348800  0.048800  1.0  0.0776
  C  C444  1  0.318510  0.304300  0.030800  1.0  -0.1977
  C  C445  1  0.296010  0.400700  0.012000  1.0  0.1573
  C  C446  1  0.373630  0.248200  0.066100  1.0  -0.0243
  C  C447  1  0.401780  0.283600  0.058200  1.0  -0.0962
  C  C448  1  0.426510  0.195100  0.076300  1.0  -0.1556
  C  C449  1  0.422710  0.064700  0.101600  1.0  -0.0455
  C  C450  1  0.394480  0.027500  0.108800  1.0  -0.1201
  C  C451  1  0.370490  0.118400  0.091500  1.0  -0.1148
  C  C452  1  0.455630  0.234700  0.061200  1.0  0.6821
  C  C453  1  0.316450  0.334200  0.862600  1.0  0.1535
  C  C454  1  0.339880  0.242600  0.877600  1.0  -0.1457
  C  C455  1  0.335190  0.104000  0.875400  1.0  0.0852
  C  C456  1  0.305250  0.062000  0.856200  1.0  -0.2109
  C  C457  1  0.282630  0.157800  0.842300  1.0  0.1514
  C  C458  1  0.360370  0.000700  0.895700  1.0  0.0474
  C  C459  1  0.390520  0.039300  0.909600  1.0  -0.0626
  C  C460  1  0.413470  0.947500  0.930700  1.0  -0.1584
  C  C461  1  0.406910  0.809500  0.937400  1.0  -0.0721
  C  C462  1  0.377470  0.769000  0.922800  1.0  -0.1037
  C  C463  1  0.354150  0.861800  0.901800  1.0  -0.136
  C  C464  1  0.445760  0.992500  0.947300  1.0  0.6874
  C  C465  1  0.654980  0.808800  0.296600  1.0  0.1703
  C  C466  1  0.631260  0.721000  0.270200  1.0  -0.2112
  C  C467  1  0.636500  0.582600  0.265900  1.0  0.1052
  C  C468  1  0.666460  0.540400  0.288000  1.0  -0.1946
  C  C469  1  0.688860  0.634500  0.314300  1.0  0.1633
  C  C470  1  0.611720  0.486000  0.237700  1.0  0.045
  C  C471  1  0.586220  0.527000  0.188500  1.0  -0.0939
  C  C472  1  0.562840  0.438000  0.161500  1.0  -0.1356
  C  C473  1  0.564550  0.304300  0.184400  1.0  -0.0432
  C  C474  1  0.589400  0.261400  0.234000  1.0  -0.1143
  C  C475  1  0.613220  0.349700  0.259900  1.0  -0.1048
  C  C476  1  0.536720  0.486100  0.105900  1.0  0.7388
  C  C477  1  0.829170  0.077100  0.029300  1.0  0.1718
  C  C478  1  0.853400  0.987000  0.048900  1.0  -0.2074
  C  C479  1  0.848500  0.848800  0.048800  1.0  0.0776
  C  C480  1  0.818510  0.804300  0.030800  1.0  -0.1977
  C  C481  1  0.796010  0.900700  0.012000  1.0  0.1573
  C  C482  1  0.873630  0.748200  0.066100  1.0  -0.0243
  C  C483  1  0.901780  0.783600  0.058200  1.0  -0.0962
  C  C484  1  0.926510  0.695100  0.076300  1.0  -0.1556
  C  C485  1  0.922710  0.564700  0.101600  1.0  -0.0455
  C  C486  1  0.894480  0.527500  0.108800  1.0  -0.1201
  C  C487  1  0.870490  0.618400  0.091500  1.0  -0.1148
  C  C488  1  0.955630  0.734700  0.061200  1.0  0.6821
  C  C489  1  0.816450  0.834200  0.862600  1.0  0.1535
  C  C490  1  0.839880  0.742600  0.877600  1.0  -0.1457
  C  C491  1  0.835190  0.604000  0.875400  1.0  0.0852
  C  C492  1  0.805250  0.562000  0.856200  1.0  -0.2109
  C  C493  1  0.782630  0.657800  0.842300  1.0  0.1514
  C  C494  1  0.860370  0.500700  0.895700  1.0  0.0474
  C  C495  1  0.890520  0.539300  0.909600  1.0  -0.0626
  C  C496  1  0.913470  0.447500  0.930700  1.0  -0.1584
  C  C497  1  0.906910  0.309500  0.937400  1.0  -0.0721
  C  C498  1  0.877470  0.269000  0.922800  1.0  -0.1037
  C  C499  1  0.854150  0.361800  0.901800  1.0  -0.1359
  C  C500  1  0.945760  0.492500  0.947300  1.0  0.6874
  C  C501  1  0.154980  0.308800  0.296600  1.0  0.1703
  C  C502  1  0.131260  0.221000  0.270200  1.0  -0.2112
  C  C503  1  0.136500  0.082600  0.265900  1.0  0.1052
  C  C504  1  0.166460  0.040400  0.288000  1.0  -0.1946
  C  C505  1  0.188860  0.134500  0.314300  1.0  0.1633
  C  C506  1  0.111720  0.986000  0.237700  1.0  0.045
  C  C507  1  0.086220  0.027000  0.188500  1.0  -0.0939
  C  C508  1  0.062840  0.938000  0.161500  1.0  -0.1356
  C  C509  1  0.064550  0.804300  0.184400  1.0  -0.0432
  C  C510  1  0.089400  0.761400  0.234000  1.0  -0.1143
  C  C511  1  0.113220  0.849700  0.259900  1.0  -0.1048
  C  C512  1  0.036720  0.986100  0.105900  1.0  0.7388
  I  I513  1  0.216580  0.421440  0.491330  1.0  -0.2418
  I  I514  1  0.267680  0.321800  0.337510  1.0  -0.2673
  I  I515  1  0.198960  0.654220  0.311260  1.0  -0.3843
  I  I516  1  0.716580  0.921440  0.491330  1.0  -0.2418
  I  I517  1  0.767680  0.821800  0.337510  1.0  -0.2675
  I  I518  1  0.698960  0.154220  0.311260  1.0  -0.3843
  I  I519  1  0.783420  0.421440  0.008670  1.0  -0.2435
  I  I520  1  0.732320  0.321800  0.162490  1.0  -0.268
  I  I521  1  0.801040  0.654220  0.188740  1.0  -0.3839
  I  I522  1  0.283420  0.921440  0.008670  1.0  -0.2435
  I  I523  1  0.232320  0.821800  0.162490  1.0  -0.2681
  I  I524  1  0.301040  0.154220  0.188740  1.0  -0.3839
  I  I525  1  0.783420  0.578560  0.508670  1.0  -0.2433
  I  I526  1  0.732320  0.678200  0.662490  1.0  -0.2687
  I  I527  1  0.801040  0.345780  0.688740  1.0  -0.3837
  I  I528  1  0.283420  0.078560  0.508670  1.0  -0.2433
  I  I529  1  0.232320  0.178200  0.662490  1.0  -0.2688
  I  I530  1  0.301040  0.845780  0.688740  1.0  -0.3837
  I  I531  1  0.216580  0.578560  0.991330  1.0  -0.2417
  I  I532  1  0.267680  0.678200  0.837510  1.0  -0.2703
  I  I533  1  0.198960  0.345780  0.811260  1.0  -0.3842
  I  I534  1  0.716580  0.078560  0.991330  1.0  -0.2418
  I  I535  1  0.767680  0.178200  0.837510  1.0  -0.2704
  I  I536  1  0.698960  0.845780  0.811260  1.0  -0.3842
  N  N537  1  0.300140  0.463000  0.510500  1.0  -0.2915
  N  N538  1  0.287360  0.705800  0.344800  1.0  -0.2751
  N  N539  1  0.683780  0.229800  0.818600  1.0  -0.2928
  N  N540  1  0.800140  0.963000  0.510500  1.0  -0.2937
  N  N541  1  0.787360  0.205800  0.344800  1.0  -0.2751
  N  N542  1  0.183780  0.729800  0.818600  1.0  -0.2929
  N  N543  1  0.699860  0.463000  0.989500  1.0  -0.2874
  N  N544  1  0.712640  0.705800  0.155200  1.0  -0.2733
  N  N545  1  0.316220  0.229800  0.681400  1.0  -0.2963
  N  N546  1  0.199860  0.963000  0.989500  1.0  -0.2898
  N  N547  1  0.212640  0.205800  0.155200  1.0  -0.2733
  N  N548  1  0.816220  0.729800  0.681400  1.0  -0.2964
  N  N549  1  0.699860  0.537000  0.489500  1.0  -0.2882
  N  N550  1  0.712640  0.294200  0.655200  1.0  -0.2751
  N  N551  1  0.316220  0.770200  0.181400  1.0  -0.2928
  N  N552  1  0.199860  0.037000  0.489500  1.0  -0.2904
  N  N553  1  0.212640  0.794200  0.655200  1.0  -0.2751
  N  N554  1  0.816220  0.270200  0.181400  1.0  -0.2929
  N  N555  1  0.300140  0.537000  0.010500  1.0  -0.2892
  N  N556  1  0.287360  0.294200  0.844800  1.0  -0.2745
  N  N557  1  0.683780  0.770200  0.318600  1.0  -0.2928
  N  N558  1  0.800140  0.037000  0.010500  1.0  -0.2915
  N  N559  1  0.787360  0.794200  0.844800  1.0  -0.2745
  N  N560  1  0.183780  0.270200  0.318600  1.0  -0.2929
  O  O561  1  0.456440  0.655100  0.529800  1.0  -0.6815
  O  O562  1  0.478240  0.845700  0.577300  1.0  -0.6453
  O  O563  1  0.451100  0.883200  0.436800  1.0  -0.6564
  O  O564  1  0.466500  0.091900  0.472200  1.0  -0.7502
  O  O565  1  0.521490  0.599600  0.565100  1.0  -0.7609
  O  O566  1  0.531610  0.387400  0.602800  1.0  -0.695
  O  O567  1  0.956440  0.155100  0.529800  1.0  -0.6815
  O  O568  1  0.978240  0.345700  0.577300  1.0  -0.6453
  O  O569  1  0.951100  0.383200  0.436800  1.0  -0.6564
  O  O570  1  0.966500  0.591900  0.472200  1.0  -0.7502
  O  O571  1  0.021490  0.099600  0.565100  1.0  -0.7609
  O  O572  1  0.031610  0.887400  0.602800  1.0  -0.695
  O  O573  1  0.543560  0.655100  0.970200  1.0  -0.6828
  O  O574  1  0.521760  0.845700  0.922700  1.0  -0.6452
  O  O575  1  0.548900  0.883200  0.063200  1.0  -0.6586
  O  O576  1  0.533500  0.091900  0.027800  1.0  -0.7506
  O  O577  1  0.478510  0.599600  0.934900  1.0  -0.7616
  O  O578  1  0.468390  0.387400  0.897200  1.0  -0.6974
  O  O579  1  0.043560  0.155100  0.970200  1.0  -0.6828
  O  O580  1  0.021760  0.345700  0.922700  1.0  -0.6452
  O  O581  1  0.048900  0.383200  0.063200  1.0  -0.6586
  O  O582  1  0.033500  0.591900  0.027800  1.0  -0.7506
  O  O583  1  0.978510  0.099600  0.934900  1.0  -0.7616
  O  O584  1  0.968390  0.887400  0.897200  1.0  -0.6974
  O  O585  1  0.543560  0.344900  0.470200  1.0  -0.6836
  O  O586  1  0.521760  0.154300  0.422700  1.0  -0.6455
  O  O587  1  0.548900  0.116800  0.563200  1.0  -0.6606
  O  O588  1  0.533500  0.908100  0.527800  1.0  -0.751
  O  O589  1  0.478510  0.400400  0.434900  1.0  -0.7614
  O  O590  1  0.468390  0.612600  0.397200  1.0  -0.6952
  O  O591  1  0.043560  0.844900  0.470200  1.0  -0.6836
  O  O592  1  0.021760  0.654300  0.422700  1.0  -0.6455
  O  O593  1  0.048900  0.616800  0.563200  1.0  -0.6606
  O  O594  1  0.033500  0.408100  0.527800  1.0  -0.751
  O  O595  1  0.978510  0.900400  0.434900  1.0  -0.7614
  O  O596  1  0.968390  0.112600  0.397200  1.0  -0.6952
  O  O597  1  0.456440  0.344900  0.029800  1.0  -0.6815
  O  O598  1  0.478240  0.154300  0.077300  1.0  -0.6444
  O  O599  1  0.451100  0.116800  0.936800  1.0  -0.6571
  O  O600  1  0.466500  0.908100  0.972200  1.0  -0.7499
  O  O601  1  0.521490  0.400400  0.065100  1.0  -0.7611
  O  O602  1  0.531610  0.612600  0.102800  1.0  -0.6959
  O  O603  1  0.956440  0.844900  0.029800  1.0  -0.6815
  O  O604  1  0.978240  0.654300  0.077300  1.0  -0.6444
  O  O605  1  0.951100  0.616800  0.936800  1.0  -0.6571
  O  O606  1  0.966500  0.408100  0.972200  1.0  -0.7499
  O  O607  1  0.021490  0.900400  0.065100  1.0  -0.7611
  O  O608  1  0.031610  0.112600  0.102800  1.0  -0.6959
