# generated using pymatgen
data_GdCu4H24C36I4(NO2)3
_symmetry_space_group_name_H-M   'P 1'
_cell_length_a   9.63230000
_cell_length_b   16.67600000
_cell_length_c   21.18200000
_cell_angle_alpha   104.08000000
_cell_angle_beta   100.39000000
_cell_angle_gamma   97.03000000
_symmetry_Int_Tables_number   1
_chemical_formula_structural   GdCu4H24C36I4(NO2)3
_chemical_formula_sum   'Gd2 Cu8 H48 C72 I8 N6 O12'
_cell_volume   3196.42210222
_cell_formula_units_Z   2
loop_
 _symmetry_equiv_pos_site_id
 _symmetry_equiv_pos_as_xyz
  1  'x, y, z'
loop_
 _atom_site_type_symbol
 _atom_site_label
 _atom_site_symmetry_multiplicity
 _atom_site_fract_x
 _atom_site_fract_y
 _atom_site_fract_z
 _atom_site_occupancy
 _atom_site_charge
  Gd  Gd1  1  0.776640  0.013500  0.497310  1.0  2.2268
  Gd  Gd2  1  0.223360  0.986500  0.502690  1.0  2.2265
  Cu  Cu3  1  0.462000  0.317220  0.098840  1.0  0.1189
  Cu  Cu4  1  0.513740  0.442410  0.040370  1.0  0.2192
  Cu  Cu5  1  0.319380  0.444550  0.122050  1.0  0.1278
  Cu  Cu6  1  0.254960  0.326820  0.001690  1.0  0.1331
  Cu  Cu7  1  0.538000  0.682780  0.901160  1.0  0.12
  Cu  Cu8  1  0.486260  0.557590  0.959630  1.0  0.2189
  Cu  Cu9  1  0.680620  0.555450  0.877950  1.0  0.1277
  Cu  Cu10  1  0.745040  0.673180  0.998310  1.0  0.1339
  H  H11  1  0.465800  0.186200  0.175900  1.0  0.0857
  H  H12  1  0.627500  0.123200  0.230300  1.0  0.1045
  H  H13  1  0.930100  0.246500  0.169700  1.0  0.1136
  H  H14  1  0.764700  0.304700  0.116900  1.0  0.0796
  H  H15  1  0.814000  0.136700  0.322700  1.0  0.1054
  H  H16  1  0.191000  0.056200  0.341800  1.0  0.1064
  H  H17  1  0.217200  0.081800  0.242600  1.0  0.1039
  H  H18  1  0.041700  0.132500  0.181600  1.0  0.117
  H  H19  1  0.638800  0.384200  0.775700  1.0  0.084
  H  H20  1  0.774900  0.290100  0.733600  1.0  0.1292
  H  H21  1  0.121000  0.456100  0.841000  1.0  0.1099
  H  H22  1  0.976400  0.546000  0.877500  1.0  0.0695
  H  H23  1  0.934000  0.241200  0.669600  1.0  0.1082
  H  H24  1  0.317300  0.169300  0.695700  1.0  0.0937
  H  H25  1  0.387500  0.267600  0.799500  1.0  0.1165
  H  H26  1  0.225900  0.348600  0.837900  1.0  0.1086
  H  H27  1  0.165300  0.175500  0.882100  1.0  0.0802
  H  H28  1  0.968400  0.101100  0.806200  1.0  0.1207
  H  H29  1  0.737900  0.259900  0.896400  1.0  0.1244
  H  H30  1  0.947800  0.333400  0.966600  1.0  0.0679
  H  H31  1  0.768000  0.106900  0.710300  1.0  0.1036
  H  H32  1  0.355700  0.000100  0.676500  1.0  0.1032
  H  H33  1  0.365700  0.042700  0.790700  1.0  0.103
  H  H34  1  0.571700  0.121900  0.863200  1.0  0.1126
  H  H35  1  0.534200  0.813800  0.824100  1.0  0.0853
  H  H36  1  0.372500  0.876800  0.769700  1.0  0.1038
  H  H37  1  0.069900  0.753500  0.830300  1.0  0.1115
  H  H38  1  0.235300  0.695300  0.883100  1.0  0.0805
  H  H39  1  0.186000  0.863300  0.677300  1.0  0.1057
  H  H40  1  0.809000  0.943800  0.658200  1.0  0.1058
  H  H41  1  0.782800  0.918200  0.757400  1.0  0.1044
  H  H42  1  0.958300  0.867500  0.818400  1.0  0.1175
  H  H43  1  0.361200  0.615800  0.224300  1.0  0.082
  H  H44  1  0.225100  0.709900  0.266400  1.0  0.1307
  H  H45  1  0.879000  0.543900  0.159000  1.0  0.1118
  H  H46  1  0.023600  0.454000  0.122500  1.0  0.0699
  H  H47  1  0.066000  0.758800  0.330400  1.0  0.1097
  H  H48  1  0.682700  0.830700  0.304300  1.0  0.0933
  H  H49  1  0.612500  0.732400  0.200500  1.0  0.1171
  H  H50  1  0.774100  0.651400  0.162100  1.0  0.1077
  H  H51  1  0.834700  0.824500  0.117900  1.0  0.0795
  H  H52  1  0.031600  0.898900  0.193800  1.0  0.1193
  H  H53  1  0.262100  0.740100  0.103600  1.0  0.1236
  H  H54  1  0.052200  0.666667  0.033400  1.0  0.0686
  H  H55  1  0.232000  0.893100  0.289700  1.0  0.1036
  H  H56  1  0.644300  0.999900  0.323500  1.0  0.1032
  H  H57  1  0.634300  0.957300  0.209300  1.0  0.103
  H  H58  1  0.428300  0.878100  0.136800  1.0  0.113
  C  C59  1  0.561800  0.199300  0.174900  1.0  0.1527
  C  C60  1  0.659600  0.161600  0.208600  1.0  -0.1999
  C  C61  1  0.803900  0.180100  0.210300  1.0  0.1189
  C  C62  1  0.835500  0.233500  0.173000  1.0  -0.1845
  C  C63  1  0.735100  0.268300  0.140800  1.0  0.156
  C  C64  1  0.909200  0.143000  0.246200  1.0  0.0735
  C  C65  1  0.895300  0.126200  0.306400  1.0  -0.0539
  C  C66  1  0.998400  0.094400  0.342400  1.0  -0.1634
  C  C67  1  0.120600  0.077600  0.317900  1.0  -0.0334
  C  C68  1  0.135900  0.092600  0.258800  1.0  -0.1077
  C  C69  1  0.030800  0.124000  0.222400  1.0  -0.1382
  C  C70  1  0.978100  0.074700  0.406600  1.0  0.785
  C  C71  1  0.738000  0.399000  0.789000  1.0  0.1715
  C  C72  1  0.819200  0.341600  0.763100  1.0  -0.1909
  C  C73  1  0.965800  0.361500  0.781500  1.0  0.1123
  C  C74  1  0.022200  0.440000  0.826300  1.0  -0.1888
  C  C75  1  0.934700  0.493500  0.848800  1.0  0.1613
  C  C76  1  0.062300  0.304700  0.756900  1.0  0.0072
  C  C77  1  0.024700  0.246500  0.695900  1.0  -0.0528
  C  C78  1  0.118600  0.194500  0.671900  1.0  -0.1464
  C  C79  1  0.253800  0.203000  0.711100  1.0  0.0108
  C  C80  1  0.296100  0.261600  0.773500  1.0  -0.1025
  C  C81  1  0.199300  0.310600  0.795800  1.0  -0.1366
  C  C82  1  0.076000  0.132400  0.605000  1.0  0.7629
  C  C83  1  0.078000  0.193200  0.884500  1.0  0.1647
  C  C84  1  0.960100  0.147600  0.839100  1.0  -0.1874
  C  C85  1  0.825600  0.170500  0.841600  1.0  0.1216
  C  C86  1  0.823900  0.241600  0.891700  1.0  -0.2217
  C  C87  1  0.951000  0.284900  0.934400  1.0  0.1743
  C  C88  1  0.693300  0.122700  0.795300  1.0  0.0344
  C  C89  1  0.686700  0.094700  0.726500  1.0  -0.0664
  C  C90  1  0.562500  0.049700  0.682500  1.0  -0.1249
  C  C91  1  0.440000  0.030200  0.705900  1.0  -0.0814
  C  C92  1  0.446000  0.056600  0.774300  1.0  -0.1089
  C  C93  1  0.570500  0.103300  0.818000  1.0  -0.1228
  C  C94  1  0.557000  0.023500  0.608900  1.0  0.7266
  C  C95  1  0.438200  0.800700  0.825100  1.0  0.1482
  C  C96  1  0.340400  0.838400  0.791400  1.0  -0.1978
  C  C97  1  0.196100  0.819900  0.789700  1.0  0.1176
  C  C98  1  0.164500  0.766500  0.827000  1.0  -0.1893
  C  C99  1  0.264900  0.731700  0.859200  1.0  0.1585
  C  C100  1  0.090800  0.857000  0.753800  1.0  0.0726
  C  C101  1  0.104700  0.873800  0.693600  1.0  -0.0508
  C  C102  1  0.001600  0.905600  0.657600  1.0  -0.1611
  C  C103  1  0.879400  0.922400  0.682100  1.0  -0.0259
  C  C104  1  0.864100  0.907400  0.741200  1.0  -0.1036
  C  C105  1  0.969200  0.876000  0.777600  1.0  -0.1398
  C  C106  1  0.021900  0.925300  0.593400  1.0  0.7972
  C  C107  1  0.262000  0.601000  0.211000  1.0  0.169
  C  C108  1  0.180800  0.658400  0.236900  1.0  -0.1911
  C  C109  1  0.034200  0.638500  0.218500  1.0  0.1134
  C  C110  1  0.977800  0.560000  0.173700  1.0  -0.1898
  C  C111  1  0.065300  0.506500  0.151200  1.0  0.162
  C  C112  1  0.937700  0.695300  0.243100  1.0  0.0073
  C  C113  1  0.975300  0.753500  0.304100  1.0  -0.0504
  C  C114  1  0.881400  0.805500  0.328100  1.0  -0.1462
  C  C115  1  0.746200  0.797000  0.288900  1.0  0.0103
  C  C116  1  0.703900  0.738400  0.226500  1.0  -0.1078
  C  C117  1  0.800700  0.689400  0.204200  1.0  -0.1362
  C  C118  1  0.924000  0.867600  0.395000  1.0  0.7507
  C  C119  1  0.922000  0.806800  0.115500  1.0  0.1644
  C  C120  1  0.039900  0.852400  0.160900  1.0  -0.1851
  C  C121  1  0.174400  0.829500  0.158400  1.0  0.1216
  C  C122  1  0.176100  0.758400  0.108300  1.0  -0.2198
  C  C123  1  0.049000  0.715100  0.065600  1.0  0.1719
  C  C124  1  0.306700  0.877300  0.204700  1.0  0.0334
  C  C125  1  0.313300  0.905300  0.273500  1.0  -0.0657
  C  C126  1  0.437500  0.950300  0.317500  1.0  -0.1224
  C  C127  1  0.560000  0.969800  0.294100  1.0  -0.0803
  C  C128  1  0.554000  0.943400  0.225700  1.0  -0.107
  C  C129  1  0.429500  0.896700  0.182000  1.0  -0.1209
  C  C130  1  0.443000  0.976500  0.391100  1.0  0.7269
  I  I131  1  0.588710  0.477540  0.174260  1.0  -0.2924
  I  I132  1  0.489670  0.279620  0.970620  1.0  -0.2865
  I  I133  1  0.195930  0.288440  0.112580  1.0  -0.2849
  I  I134  1  0.262200  0.489780  0.999990  1.0  -0.187
  I  I135  1  0.411290  0.522460  0.825740  1.0  -0.2929
  I  I136  1  0.510330  0.720380  0.029380  1.0  -0.2859
  I  I137  1  0.804070  0.711560  0.887420  1.0  -0.2857
  I  I138  1  0.737800  0.510220  0.000010  1.0  -0.186
  N  N139  1  0.597800  0.253400  0.141200  1.0  -0.2882
  N  N140  1  0.792000  0.474100  0.831600  1.0  -0.3193
  N  N141  1  0.077300  0.261900  0.932400  1.0  -0.2787
  N  N142  1  0.402200  0.746600  0.858800  1.0  -0.2915
  N  N143  1  0.208000  0.525900  0.168400  1.0  -0.3217
  N  N144  1  0.922700  0.738100  0.067600  1.0  -0.2807
  O  O145  1  0.859300  0.083600  0.422110  1.0  -0.673
  O  O146  1  0.076600  0.050900  0.439900  1.0  -0.8175
  O  O147  1  0.951600  0.124500  0.572070  1.0  -0.7405
  O  O148  1  0.170400  0.091400  0.586770  1.0  -0.7166
  O  O149  1  0.669400  0.043200  0.590080  1.0  -0.7601
  O  O150  1  0.441100  0.984300  0.570230  1.0  -0.7567
  O  O151  1  0.140700  0.916400  0.577890  1.0  -0.6757
  O  O152  1  0.923400  0.949100  0.560100  1.0  -0.8182
  O  O153  1  0.048400  0.875500  0.427930  1.0  -0.7397
  O  O154  1  0.829600  0.908600  0.413230  1.0  -0.7165
  O  O155  1  0.330600  0.956800  0.409920  1.0  -0.7575
  O  O156  1  0.558900  0.015700  0.429770  1.0  -0.7567
