# generated using pymatgen
data_GdCuH12C18I(NO2)3
_symmetry_space_group_name_H-M   'P 1'
_cell_length_a   8.52690000
_cell_length_b   26.77400000
_cell_length_c   12.05000000
_cell_angle_alpha   90.00000000
_cell_angle_beta   105.38000000
_cell_angle_gamma   90.00000000
_symmetry_Int_Tables_number   1
_chemical_formula_structural   GdCuH12C18I(NO2)3
_chemical_formula_sum   'Gd4 Cu4 H48 C72 I4 N12 O24'
_cell_volume   2652.48671112
_cell_formula_units_Z   4
loop_
 _symmetry_equiv_pos_site_id
 _symmetry_equiv_pos_as_xyz
  1  'x, y, z'
loop_
 _atom_site_type_symbol
 _atom_site_label
 _atom_site_symmetry_multiplicity
 _atom_site_fract_x
 _atom_site_fract_y
 _atom_site_fract_z
 _atom_site_occupancy
 _atom_site_charge
  Gd  Gd1  1  0.218170  0.481560  0.483230  1.0  2.2301
  Gd  Gd2  1  0.781830  0.981560  0.516770  1.0  2.2315
  Gd  Gd3  1  0.781830  0.518440  0.516770  1.0  2.2325
  Gd  Gd4  1  0.218170  0.018440  0.483230  1.0  2.231
  Cu  Cu5  1  0.905590  0.302120  0.989270  1.0  0.2576
  Cu  Cu6  1  0.094410  0.802120  0.010730  1.0  0.2576
  Cu  Cu7  1  0.094410  0.697880  0.010730  1.0  0.2581
  Cu  Cu8  1  0.905590  0.197880  0.989270  1.0  0.2583
  H  H9  1  0.966600  0.378900  0.181500  1.0  0.0841
  H  H10  1  0.562500  0.396900  0.284500  1.0  0.1051
  H  H11  1  0.437200  0.337400  0.150000  1.0  0.1025
  H  H12  1  0.576100  0.301800  0.030700  1.0  0.0843
  H  H13  1  0.856500  0.382500  0.805100  1.0  0.083
  H  H14  1  0.264800  0.397100  0.703600  1.0  0.1076
  H  H15  1  0.382900  0.335400  0.835300  1.0  0.1178
  H  H16  1  0.234300  0.301700  0.950200  1.0  0.0712
  H  H17  1  0.766600  0.559500  0.806900  1.0  0.0949
  H  H18  1  0.520900  0.441200  0.861600  1.0  0.0699
  H  H19  1  0.655300  0.438600  0.047900  1.0  0.0778
  H  H20  1  0.822700  0.501600  0.119400  1.0  0.0686
  H  H21  1  0.033400  0.878900  0.818500  1.0  0.0845
  H  H22  1  0.437500  0.896900  0.715500  1.0  0.1052
  H  H23  1  0.562800  0.837400  0.850000  1.0  0.1009
  H  H24  1  0.423900  0.801800  0.969300  1.0  0.0842
  H  H25  1  0.143500  0.882500  0.194900  1.0  0.0817
  H  H26  1  0.735200  0.897100  0.296400  1.0  0.1079
  H  H27  1  0.617100  0.835400  0.164700  1.0  0.1177
  H  H28  1  0.765700  0.801700  0.049800  1.0  0.0709
  H  H29  1  0.233400  0.059500  0.193100  1.0  0.0946
  H  H30  1  0.479100  0.941200  0.138400  1.0  0.0701
  H  H31  1  0.344700  0.938600  0.952100  1.0  0.0777
  H  H32  1  0.177300  0.001600  0.880600  1.0  0.0687
  H  H33  1  0.033400  0.621100  0.818500  1.0  0.0851
  H  H34  1  0.437500  0.603100  0.715500  1.0  0.1055
  H  H35  1  0.562800  0.662600  0.850000  1.0  0.1012
  H  H36  1  0.423900  0.698200  0.969300  1.0  0.0838
  H  H37  1  0.143500  0.617500  0.194900  1.0  0.0817
  H  H38  1  0.735200  0.602900  0.296400  1.0  0.1076
  H  H39  1  0.617100  0.664600  0.164700  1.0  0.1178
  H  H40  1  0.765700  0.698300  0.049800  1.0  0.071
  H  H41  1  0.233400  0.440500  0.193100  1.0  0.0953
  H  H42  1  0.479100  0.558800  0.138400  1.0  0.0699
  H  H43  1  0.344700  0.561400  0.952100  1.0  0.0776
  H  H44  1  0.177300  0.498400  0.880600  1.0  0.0686
  H  H45  1  0.966600  0.121100  0.181500  1.0  0.0839
  H  H46  1  0.562500  0.103100  0.284500  1.0  0.1052
  H  H47  1  0.437200  0.162600  0.150000  1.0  0.1027
  H  H48  1  0.576100  0.198200  0.030700  1.0  0.0848
  H  H49  1  0.856500  0.117500  0.805100  1.0  0.0832
  H  H50  1  0.264800  0.102900  0.703600  1.0  0.1078
  H  H51  1  0.382900  0.164600  0.835300  1.0  0.1179
  H  H52  1  0.234300  0.198300  0.950200  1.0  0.0704
  H  H53  1  0.766600  0.940500  0.806900  1.0  0.0956
  H  H54  1  0.520900  0.058800  0.861600  1.0  0.0702
  H  H55  1  0.655300  0.061400  0.047900  1.0  0.0774
  H  H56  1  0.822700  0.998400  0.119400  1.0  0.0684
  C  C57  1  0.858200  0.371000  0.174300  1.0  0.1087
  C  C58  1  0.780300  0.393400  0.247800  1.0  -0.1697
  C  C59  1  0.619300  0.381600  0.237700  1.0  -0.0056
  C  C60  1  0.544400  0.346600  0.156500  1.0  -0.1353
  C  C61  1  0.628300  0.325300  0.084800  1.0  0.1565
  C  C62  1  0.864800  0.430200  0.336400  1.0  0.7079
  C  C63  1  0.963800  0.373400  0.811800  1.0  0.1926
  C  C64  1  0.046600  0.396500  0.740200  1.0  -0.1997
  C  C65  1  0.206100  0.382300  0.749800  1.0  0.0321
  C  C66  1  0.276800  0.346000  0.828400  1.0  -0.179
  C  C67  1  0.185700  0.325800  0.896500  1.0  0.1872
  C  C68  1  0.967800  0.436200  0.658100  1.0  0.6919
  C  C69  1  0.742100  0.535800  0.856000  1.0  0.1703
  C  C70  1  0.631100  0.499900  0.812600  1.0  -0.127
  C  C71  1  0.600100  0.465300  0.890100  1.0  -0.0689
  C  C72  1  0.674000  0.464000  0.000400  1.0  -0.0844
  C  C73  1  0.776000  0.500400  0.040400  1.0  0.1923
  C  C74  1  0.543300  0.497300  0.688700  1.0  0.6981
  C  C75  1  0.141800  0.871000  0.825700  1.0  0.1085
  C  C76  1  0.219700  0.893400  0.752200  1.0  -0.1677
  C  C77  1  0.380700  0.881600  0.762300  1.0  -0.0039
  C  C78  1  0.455600  0.846600  0.843500  1.0  -0.1334
  C  C79  1  0.371700  0.825300  0.915200  1.0  0.1583
  C  C80  1  0.135200  0.930200  0.663600  1.0  0.7106
  C  C81  1  0.036200  0.873400  0.188200  1.0  0.1943
  C  C82  1  0.953400  0.896500  0.259800  1.0  -0.2001
  C  C83  1  0.793900  0.882300  0.250200  1.0  0.0307
  C  C84  1  0.723200  0.846000  0.171600  1.0  -0.1807
  C  C85  1  0.814300  0.825800  0.103500  1.0  0.1856
  C  C86  1  0.032200  0.936200  0.341900  1.0  0.6899
  C  C87  1  0.257900  0.035800  0.144000  1.0  0.1717
  C  C88  1  0.368900  0.999900  0.187400  1.0  -0.1272
  C  C89  1  0.399900  0.965300  0.109900  1.0  -0.0697
  C  C90  1  0.326000  0.964000  0.999600  1.0  -0.0843
  C  C91  1  0.224000  0.000400  0.959600  1.0  0.1904
  C  C92  1  0.456700  0.997300  0.311300  1.0  0.6977
  C  C93  1  0.141800  0.629000  0.825700  1.0  0.1082
  C  C94  1  0.219700  0.606600  0.752200  1.0  -0.1689
  C  C95  1  0.380700  0.618400  0.762300  1.0  -0.003
  C  C96  1  0.455600  0.653400  0.843500  1.0  -0.1329
  C  C97  1  0.371700  0.674700  0.915200  1.0  0.1584
  C  C98  1  0.135200  0.569800  0.663600  1.0  0.7109
  C  C99  1  0.036200  0.626600  0.188200  1.0  0.1939
  C  C100  1  0.953400  0.603500  0.259800  1.0  -0.1993
  C  C101  1  0.793900  0.617700  0.250200  1.0  0.0285
  C  C102  1  0.723200  0.654000  0.171600  1.0  -0.1812
  C  C103  1  0.814300  0.674200  0.103500  1.0  0.1854
  C  C104  1  0.032200  0.563800  0.341900  1.0  0.6903
  C  C105  1  0.257900  0.464200  0.144000  1.0  0.1737
  C  C106  1  0.368900  0.500100  0.187400  1.0  -0.1273
  C  C107  1  0.399900  0.534700  0.109900  1.0  -0.0701
  C  C108  1  0.326000  0.536000  0.999600  1.0  -0.085
  C  C109  1  0.224000  0.499600  0.959600  1.0  0.1905
  C  C110  1  0.456700  0.502700  0.311300  1.0  0.6975
  C  C111  1  0.858200  0.129000  0.174300  1.0  0.109
  C  C112  1  0.780300  0.106600  0.247800  1.0  -0.1682
  C  C113  1  0.619300  0.118400  0.237700  1.0  -0.0059
  C  C114  1  0.544400  0.153400  0.156500  1.0  -0.1348
  C  C115  1  0.628300  0.174700  0.084800  1.0  0.1584
  C  C116  1  0.864800  0.069800  0.336400  1.0  0.7082
  C  C117  1  0.963800  0.126600  0.811800  1.0  0.1913
  C  C118  1  0.046600  0.103500  0.740200  1.0  -0.1993
  C  C119  1  0.206100  0.117700  0.749800  1.0  0.0315
  C  C120  1  0.276800  0.154000  0.828400  1.0  -0.1793
  C  C121  1  0.185700  0.174200  0.896500  1.0  0.1859
  C  C122  1  0.967800  0.063800  0.658100  1.0  0.692
  C  C123  1  0.742100  0.964200  0.856000  1.0  0.1716
  C  C124  1  0.631100  0.000100  0.812600  1.0  -0.1268
  C  C125  1  0.600100  0.034700  0.890100  1.0  -0.0701
  C  C126  1  0.674000  0.036000  0.000400  1.0  -0.0854
  C  C127  1  0.776000  0.999600  0.040400  1.0  0.1924
  C  C128  1  0.543300  0.002700  0.688700  1.0  0.6978
  I  I129  1  0.131660  0.250000  0.149250  1.0  -0.3871
  I  I130  1  0.682000  0.250000  0.831750  1.0  -0.3819
  I  I131  1  0.868340  0.750000  0.850750  1.0  -0.3851
  I  I132  1  0.318000  0.750000  0.168250  1.0  -0.3842
  N  N133  1  0.783700  0.337600  0.091200  1.0  -0.32
  N  N134  1  0.032600  0.338500  0.890200  1.0  -0.2993
  N  N135  1  0.820100  0.537600  0.973100  1.0  -0.4115
  N  N136  1  0.216300  0.837600  0.908800  1.0  -0.3242
  N  N137  1  0.967400  0.838500  0.109800  1.0  -0.2971
  N  N138  1  0.179900  0.037600  0.026900  1.0  -0.4103
  N  N139  1  0.216300  0.662400  0.908800  1.0  -0.322
  N  N140  1  0.967400  0.661500  0.109800  1.0  -0.2979
  N  N141  1  0.179900  0.462400  0.026900  1.0  -0.4103
  N  N142  1  0.783700  0.162400  0.091200  1.0  -0.3207
  N  N143  1  0.032600  0.161500  0.890200  1.0  -0.2989
  N  N144  1  0.820100  0.962400  0.973100  1.0  -0.4106
  O  O145  1  0.010600  0.440800  0.341900  1.0  -0.7207
  O  O146  1  0.782200  0.448400  0.399300  1.0  -0.7031
  O  O147  1  0.046500  0.456900  0.596300  1.0  -0.8137
  O  O148  1  0.823600  0.448700  0.651400  1.0  -0.6977
  O  O149  1  0.426700  0.468200  0.657800  1.0  -0.6256
  O  O150  1  0.588200  0.526000  0.618600  1.0  -0.7462
  O  O151  1  0.989400  0.940800  0.658100  1.0  -0.7211
  O  O152  1  0.217800  0.948400  0.600700  1.0  -0.7037
  O  O153  1  0.953500  0.956900  0.403700  1.0  -0.8136
  O  O154  1  0.176400  0.948700  0.348600  1.0  -0.6975
  O  O155  1  0.573300  0.968200  0.342200  1.0  -0.6257
  O  O156  1  0.411800  0.026000  0.381400  1.0  -0.7478
  O  O157  1  0.989400  0.559200  0.658100  1.0  -0.7228
  O  O158  1  0.217800  0.551600  0.600700  1.0  -0.7034
  O  O159  1  0.953500  0.543100  0.403700  1.0  -0.8132
  O  O160  1  0.176400  0.551300  0.348600  1.0  -0.6977
  O  O161  1  0.573300  0.531800  0.342200  1.0  -0.6266
  O  O162  1  0.411800  0.474000  0.381400  1.0  -0.7479
  O  O163  1  0.010600  0.059200  0.341900  1.0  -0.721
  O  O164  1  0.782200  0.051600  0.399300  1.0  -0.7034
  O  O165  1  0.046500  0.043100  0.596300  1.0  -0.812
  O  O166  1  0.823600  0.051300  0.651400  1.0  -0.6985
  O  O167  1  0.426700  0.031800  0.657800  1.0  -0.6257
  O  O168  1  0.588200  0.974000  0.618600  1.0  -0.7469
