# generated using pymatgen
data_Zn3P2H4C4O13
_symmetry_space_group_name_H-M   'P 1'
_cell_length_a   4.92500000
_cell_length_b   22.09720000
_cell_length_c   12.90380000
_cell_angle_alpha   90.00000000
_cell_angle_beta   99.24500000
_cell_angle_gamma   90.00000000
_symmetry_Int_Tables_number   1
_chemical_formula_structural   Zn3P2H4C4O13
_chemical_formula_sum   'Zn12 P8 H16 C16 O52'
_cell_volume   1386.06254834
_cell_formula_units_Z   4
loop_
 _symmetry_equiv_pos_site_id
 _symmetry_equiv_pos_as_xyz
  1  'x, y, z'
loop_
 _atom_site_type_symbol
 _atom_site_label
 _atom_site_symmetry_multiplicity
 _atom_site_fract_x
 _atom_site_fract_y
 _atom_site_fract_z
 _atom_site_occupancy
 _atom_site_charge
  Zn  Zn1  1  0.672990  0.642960  0.172890  1.0  1.1443
  Zn  Zn2  1  0.592320  0.566760  0.968150  1.0  1.1198
  Zn  Zn3  1  0.883100  0.686600  0.840280  1.0  1.1281
  Zn  Zn4  1  0.827010  0.142960  0.327110  1.0  1.1463
  Zn  Zn5  1  0.907680  0.066760  0.531850  1.0  1.1178
  Zn  Zn6  1  0.616900  0.186600  0.659720  1.0  1.1309
  Zn  Zn7  1  0.327010  0.357040  0.827110  1.0  1.1461
  Zn  Zn8  1  0.407680  0.433240  0.031850  1.0  1.1167
  Zn  Zn9  1  0.116900  0.313400  0.159720  1.0  1.1309
  Zn  Zn10  1  0.172990  0.857040  0.672890  1.0  1.1442
  Zn  Zn11  1  0.092320  0.933240  0.468150  1.0  1.1187
  Zn  Zn12  1  0.383100  0.813400  0.340280  1.0  1.1281
  P  P13  1  0.434900  0.715740  0.964640  1.0  1.604
  P  P14  1  0.179500  0.550410  0.144350  1.0  1.6203
  P  P15  1  0.065100  0.215740  0.535360  1.0  1.6061
  P  P16  1  0.320500  0.050410  0.355650  1.0  1.6216
  P  P17  1  0.565100  0.284260  0.035360  1.0  1.6059
  P  P18  1  0.820500  0.449590  0.855650  1.0  1.6218
  P  P19  1  0.934900  0.784260  0.464640  1.0  1.6039
  P  P20  1  0.679500  0.949590  0.644350  1.0  1.6206
  H  H21  1  0.791000  0.772000  0.059200  1.0  0.2226
  H  H22  1  0.540000  0.815000  0.018000  1.0  0.2338
  H  H23  1  0.027000  0.502700  0.284000  1.0  0.2351
  H  H24  1  0.302000  0.474300  0.266000  1.0  0.2356
  H  H25  1  0.709000  0.272000  0.440800  1.0  0.2232
  H  H26  1  0.960000  0.315000  0.482000  1.0  0.2334
  H  H27  1  0.473000  0.002700  0.216000  1.0  0.2344
  H  H28  1  0.198000  0.974300  0.234000  1.0  0.234
  H  H29  1  0.209000  0.228000  0.940800  1.0  0.2229
  H  H30  1  0.460000  0.185000  0.982000  1.0  0.2332
  H  H31  1  0.973000  0.497300  0.716000  1.0  0.2345
  H  H32  1  0.698000  0.525700  0.734000  1.0  0.2338
  H  H33  1  0.291000  0.728000  0.559200  1.0  0.2227
  H  H34  1  0.040000  0.685000  0.518000  1.0  0.2328
  H  H35  1  0.527000  0.997300  0.784000  1.0  0.235
  H  H36  1  0.802000  0.025700  0.766000  1.0  0.2351
  C  C37  1  0.590500  0.775700  0.050800  1.0  -0.3769
  C  C38  1  0.128200  0.488700  0.231800  1.0  -0.3111
  C  C39  1  0.973900  0.438100  0.170400  1.0  0.8103
  C  C40  1  0.504500  0.774400  0.157400  1.0  0.8436
  C  C41  1  0.909500  0.275700  0.449200  1.0  -0.3773
  C  C42  1  0.371800  0.988700  0.268200  1.0  -0.3106
  C  C43  1  0.526100  0.938100  0.329600  1.0  0.8099
  C  C44  1  0.995500  0.274400  0.342600  1.0  0.8441
  C  C45  1  0.409500  0.224300  0.949200  1.0  -0.3764
  C  C46  1  0.871800  0.511300  0.768200  1.0  -0.311
  C  C47  1  0.026100  0.561900  0.829600  1.0  0.8091
  C  C48  1  0.495500  0.225600  0.842600  1.0  0.8435
  C  C49  1  0.090500  0.724300  0.550800  1.0  -0.3758
  C  C50  1  0.628200  0.011300  0.731800  1.0  -0.3109
  C  C51  1  0.473900  0.061900  0.670400  1.0  0.8097
  C  C52  1  0.004500  0.725600  0.657400  1.0  0.8431
  O  O53  1  0.533300  0.655300  0.015500  1.0  -0.7666
  O  O54  1  0.127400  0.724600  0.953100  1.0  -0.7433
  O  O55  1  0.535000  0.722100  0.858100  1.0  -0.7149
  O  O56  1  0.894000  0.576550  0.105500  1.0  -0.7826
  O  O57  1  0.313800  0.524500  0.054000  1.0  -0.8148
  O  O58  1  0.363900  0.595800  0.210400  1.0  -0.7084
  O  O59  1  0.720800  0.433300  0.166000  1.0  -0.5266
  O  O60  1  0.120100  0.402000  0.122600  1.0  -0.5997
  O  O61  1  0.431900  0.824200  0.193700  1.0  -0.5276
  O  O62  1  0.505700  0.725900  0.207300  1.0  -0.5325
  O  O63  1  0.980500  0.660500  0.287200  1.0  -0.5866
  O  O64  1  0.996000  0.702400  0.196200  1.0  -0.6816
  O  O65  1  0.846000  0.619600  0.335000  1.0  -0.5207
  O  O66  1  0.966700  0.155300  0.484500  1.0  -0.7671
  O  O67  1  0.372600  0.224600  0.546900  1.0  -0.7439
  O  O68  1  0.965000  0.222100  0.641900  1.0  -0.7147
  O  O69  1  0.606000  0.076550  0.394500  1.0  -0.7833
  O  O70  1  0.186200  0.024500  0.446000  1.0  -0.8152
  O  O71  1  0.136100  0.095800  0.289600  1.0  -0.71
  O  O72  1  0.779200  0.933300  0.334000  1.0  -0.5286
  O  O73  1  0.379900  0.902000  0.377400  1.0  -0.6002
  O  O74  1  0.068100  0.324200  0.306300  1.0  -0.5295
  O  O75  1  0.994300  0.225900  0.292700  1.0  -0.5326
  O  O76  1  0.519500  0.160500  0.212800  1.0  -0.5892
  O  O77  1  0.504000  0.202400  0.303800  1.0  -0.6817
  O  O78  1  0.654000  0.119600  0.165000  1.0  -0.5186
  O  O79  1  0.466700  0.344700  0.984500  1.0  -0.7665
  O  O80  1  0.872600  0.275400  0.046900  1.0  -0.7437
  O  O81  1  0.465000  0.277900  0.141900  1.0  -0.7143
  O  O82  1  0.106000  0.423450  0.894500  1.0  -0.784
  O  O83  1  0.686200  0.475500  0.946000  1.0  -0.8153
  O  O84  1  0.636100  0.404200  0.789600  1.0  -0.7106
  O  O85  1  0.279200  0.566700  0.834000  1.0  -0.5283
  O  O86  1  0.879900  0.598000  0.877400  1.0  -0.6001
  O  O87  1  0.568100  0.175800  0.806300  1.0  -0.5288
  O  O88  1  0.494300  0.274100  0.792700  1.0  -0.532
  O  O89  1  0.019500  0.339500  0.712800  1.0  -0.5891
  O  O90  1  0.004000  0.297600  0.803800  1.0  -0.6821
  O  O91  1  0.154000  0.380400  0.665000  1.0  -0.5196
  O  O92  1  0.033300  0.844700  0.515500  1.0  -0.7662
  O  O93  1  0.627400  0.775400  0.453100  1.0  -0.7432
  O  O94  1  0.035000  0.777900  0.358100  1.0  -0.7151
  O  O95  1  0.394000  0.923450  0.605500  1.0  -0.7832
  O  O96  1  0.813800  0.975500  0.554000  1.0  -0.8148
  O  O97  1  0.863900  0.904200  0.710400  1.0  -0.7087
  O  O98  1  0.220800  0.066700  0.666000  1.0  -0.5267
  O  O99  1  0.620100  0.098000  0.622600  1.0  -0.6002
  O  O100  1  0.931900  0.675800  0.693700  1.0  -0.5286
  O  O101  1  0.005700  0.774100  0.707300  1.0  -0.5325
  O  O102  1  0.480500  0.839500  0.787200  1.0  -0.5859
  O  O103  1  0.496000  0.797600  0.696200  1.0  -0.682
  O  O104  1  0.346000  0.880400  0.835000  1.0  -0.5196
