# generated using pymatgen
data_Ca2H26C51(O2F3)6
_symmetry_space_group_name_H-M   'P 1'
_cell_length_a   7.38200000
_cell_length_b   24.64400000
_cell_length_c   31.57800000
_cell_angle_alpha   90.17000000
_cell_angle_beta   90.00000000
_cell_angle_gamma   90.00000000
_symmetry_Int_Tables_number   1
_chemical_formula_structural   Ca2H26C51(O2F3)6
_chemical_formula_sum   'Ca8 H104 C204 O48 F72'
_cell_volume   5744.70788193
_cell_formula_units_Z   4
loop_
 _symmetry_equiv_pos_site_id
 _symmetry_equiv_pos_as_xyz
  1  'x, y, z'
loop_
 _atom_site_type_symbol
 _atom_site_label
 _atom_site_symmetry_multiplicity
 _atom_site_fract_x
 _atom_site_fract_y
 _atom_site_fract_z
 _atom_site_occupancy
 _atom_site_charge
  Ca  Ca1  1  0.453080  0.235270  0.770650  1.0  1.5475
  Ca  Ca2  1  0.917340  0.753300  0.768640  1.0  1.554
  Ca  Ca3  1  0.453080  0.764730  0.729350  1.0  1.5472
  Ca  Ca4  1  0.917340  0.246700  0.731360  1.0  1.5539
  Ca  Ca5  1  0.546920  0.764730  0.229350  1.0  1.5477
  Ca  Ca6  1  0.082660  0.246700  0.231360  1.0  1.5528
  Ca  Ca7  1  0.546920  0.235270  0.270650  1.0  1.5476
  Ca  Ca8  1  0.082660  0.753300  0.268640  1.0  1.553
  H  H9  1  0.519860  0.028280  0.690510  1.0  0.1224
  H  H10  1  0.318250  0.177580  0.639220  1.0  0.1235
  H  H11  1  0.105440  0.127470  0.594700  1.0  0.1187
  H  H12  1  0.309590  0.977810  0.647470  1.0  0.1175
  H  H13  1  0.021150  0.017630  0.684000  1.0  0.1172
  H  H14  1  0.942100  0.944870  0.735270  1.0  0.1247
  H  H15  1  0.713160  0.854020  0.632800  1.0  0.1541
  H  H16  1  0.811640  0.924390  0.582160  1.0  0.1102
  H  H17  1  0.029240  0.606300  0.710370  1.0  0.1099
  H  H18  1  0.553510  0.610940  0.631750  1.0  0.1439
  H  H19  1  0.662910  0.533460  0.591690  1.0  0.113
  H  H20  1  0.139710  0.526730  0.670710  1.0  0.1311
  H  H21  1  0.859790  0.433540  0.674550  1.0  0.1231
  H  H22  1  0.987420  0.363990  0.720930  1.0  0.1087
  H  H23  1  0.481250  0.364820  0.648650  1.0  0.1248
  H  H24  1  0.348690  0.430750  0.599290  1.0  0.1119
  H  H25  1  0.141660  0.354780  0.918980  1.0  0.1189
  H  H26  1  0.938540  0.337210  0.979130  1.0  0.1243
  H  H27  1  0.758620  0.189550  0.918820  1.0  0.1195
  H  H28  1  0.977050  0.205020  0.861000  1.0  0.1112
  H  H29  1  0.686350  0.303720  0.073580  1.0  0.1138
  H  H30  1  0.911740  0.302820  0.130860  1.0  0.1069
  H  H31  1  0.255140  0.197770  0.058000  1.0  0.1162
  H  H32  1  0.038640  0.201460  0.998690  1.0  0.1154
  H  H33  1  0.421730  0.328070  0.835540  1.0  0.4416
  H  H34  1  0.426710  0.211520  0.159280  1.0  0.4202
  H  H35  1  0.519860  0.971720  0.809490  1.0  0.1225
  H  H36  1  0.318250  0.822420  0.860780  1.0  0.1234
  H  H37  1  0.105440  0.872530  0.905300  1.0  0.1178
  H  H38  1  0.309590  0.022190  0.852530  1.0  0.1171
  H  H39  1  0.021150  0.982370  0.816000  1.0  0.1185
  H  H40  1  0.942100  0.055130  0.764730  1.0  0.1235
  H  H41  1  0.713160  0.145980  0.867200  1.0  0.154
  H  H42  1  0.811640  0.075610  0.917840  1.0  0.1101
  H  H43  1  0.029240  0.393700  0.789630  1.0  0.1101
  H  H44  1  0.553510  0.389060  0.868250  1.0  0.1442
  H  H45  1  0.662910  0.466540  0.908310  1.0  0.1126
  H  H46  1  0.139710  0.473270  0.829290  1.0  0.131
  H  H47  1  0.859790  0.566460  0.825450  1.0  0.1227
  H  H48  1  0.987420  0.636010  0.779070  1.0  0.108
  H  H49  1  0.481250  0.635180  0.851350  1.0  0.1245
  H  H50  1  0.348690  0.569250  0.900710  1.0  0.1112
  H  H51  1  0.141660  0.645220  0.581020  1.0  0.1191
  H  H52  1  0.938540  0.662790  0.520870  1.0  0.1244
  H  H53  1  0.758620  0.810450  0.581180  1.0  0.1191
  H  H54  1  0.977050  0.794980  0.639000  1.0  0.1112
  H  H55  1  0.686350  0.696280  0.426420  1.0  0.114
  H  H56  1  0.911740  0.697180  0.369140  1.0  0.1068
  H  H57  1  0.255140  0.802230  0.442000  1.0  0.1163
  H  H58  1  0.038640  0.798540  0.501310  1.0  0.1158
  H  H59  1  0.421730  0.671930  0.664460  1.0  0.4417
  H  H60  1  0.426710  0.788480  0.340720  1.0  0.4186
  H  H61  1  0.480140  0.971720  0.309490  1.0  0.1227
  H  H62  1  0.681750  0.822420  0.360780  1.0  0.1236
  H  H63  1  0.894560  0.872530  0.405300  1.0  0.1185
  H  H64  1  0.690410  0.022190  0.352530  1.0  0.1168
  H  H65  1  0.978850  0.982370  0.316000  1.0  0.1181
  H  H66  1  0.057900  0.055130  0.264730  1.0  0.1235
  H  H67  1  0.286840  0.145980  0.367200  1.0  0.1538
  H  H68  1  0.188360  0.075610  0.417840  1.0  0.1104
  H  H69  1  0.970760  0.393700  0.289630  1.0  0.1101
  H  H70  1  0.446490  0.389060  0.368250  1.0  0.1437
  H  H71  1  0.337090  0.466540  0.408310  1.0  0.1129
  H  H72  1  0.860290  0.473270  0.329290  1.0  0.1302
  H  H73  1  0.140210  0.566460  0.325450  1.0  0.1222
  H  H74  1  0.012580  0.636010  0.279070  1.0  0.1078
  H  H75  1  0.518750  0.635180  0.351350  1.0  0.124
  H  H76  1  0.651310  0.569250  0.400710  1.0  0.112
  H  H77  1  0.858340  0.645220  0.081020  1.0  0.1192
  H  H78  1  0.061460  0.662790  0.020870  1.0  0.1248
  H  H79  1  0.241380  0.810450  0.081180  1.0  0.1198
  H  H80  1  0.022950  0.794980  0.139000  1.0  0.1106
  H  H81  1  0.313650  0.696280  0.926420  1.0  0.1136
  H  H82  1  0.088260  0.697180  0.869140  1.0  0.1067
  H  H83  1  0.744860  0.802230  0.942000  1.0  0.1165
  H  H84  1  0.961360  0.798540  0.001310  1.0  0.1147
  H  H85  1  0.578270  0.671930  0.164460  1.0  0.4431
  H  H86  1  0.573290  0.788480  0.840720  1.0  0.4186
  H  H87  1  0.480140  0.028280  0.190510  1.0  0.1223
  H  H88  1  0.681750  0.177580  0.139220  1.0  0.1237
  H  H89  1  0.894560  0.127470  0.094700  1.0  0.1191
  H  H90  1  0.690410  0.977810  0.147470  1.0  0.1171
  H  H91  1  0.978850  0.017630  0.184000  1.0  0.1169
  H  H92  1  0.057900  0.944870  0.235270  1.0  0.1245
  H  H93  1  0.286840  0.854020  0.132800  1.0  0.1541
  H  H94  1  0.188360  0.924390  0.082160  1.0  0.1104
  H  H95  1  0.970760  0.606300  0.210370  1.0  0.1097
  H  H96  1  0.446490  0.610940  0.131750  1.0  0.1451
  H  H97  1  0.337090  0.533460  0.091690  1.0  0.1135
  H  H98  1  0.860290  0.526730  0.170710  1.0  0.1303
  H  H99  1  0.140210  0.433540  0.174550  1.0  0.1221
  H  H100  1  0.012580  0.363990  0.220930  1.0  0.1084
  H  H101  1  0.518750  0.364820  0.148650  1.0  0.1242
  H  H102  1  0.651310  0.430750  0.099290  1.0  0.1125
  H  H103  1  0.858340  0.354780  0.418980  1.0  0.1189
  H  H104  1  0.061460  0.337210  0.479130  1.0  0.1243
  H  H105  1  0.241380  0.189550  0.418820  1.0  0.1203
  H  H106  1  0.022950  0.205020  0.361000  1.0  0.1112
  H  H107  1  0.313650  0.303720  0.573580  1.0  0.113
  H  H108  1  0.088260  0.302820  0.630860  1.0  0.1069
  H  H109  1  0.744860  0.197770  0.558000  1.0  0.1164
  H  H110  1  0.961360  0.201460  0.498690  1.0  0.1147
  H  H111  1  0.578270  0.328070  0.335540  1.0  0.4417
  H  H112  1  0.573290  0.211520  0.659280  1.0  0.4199
  C  C113  1  0.527530  0.135290  0.704930  1.0  0.68
  C  C114  1  0.427240  0.106480  0.669930  1.0  -0.0258
  C  C115  1  0.428630  0.049680  0.669220  1.0  -0.1168
  C  C116  1  0.315100  0.133480  0.641170  1.0  -0.1249
  C  C117  1  0.192840  0.104680  0.615860  1.0  -0.1351
  C  C118  1  0.308720  0.020930  0.643740  1.0  -0.0815
  C  C119  1  0.180240  0.048030  0.618700  1.0  0.05
  C  C120  1  0.030640  0.014220  0.596740  1.0  -0.1017
  C  C121  1  0.874960  0.050730  0.579410  1.0  0.5778
  C  C122  1  0.126200  0.983950  0.562060  1.0  0.5025
  C  C123  1  0.941000  0.974530  0.629970  1.0  0.0248
  C  C124  1  0.960050  0.981790  0.673820  1.0  -0.1353
  C  C125  1  0.914130  0.940620  0.701590  1.0  -0.0983
  C  C126  1  0.837590  0.892460  0.686350  1.0  -0.0266
  C  C127  1  0.786770  0.889540  0.643890  1.0  -0.0968
  C  C128  1  0.841760  0.929600  0.615600  1.0  -0.1558
  C  C129  1  0.844910  0.843050  0.713160  1.0  0.6666
  C  C130  1  0.727170  0.663910  0.698810  1.0  0.6968
  C  C131  1  0.783180  0.614180  0.674530  1.0  -0.0849
  C  C132  1  0.948350  0.589520  0.684700  1.0  -0.1014
  C  C133  1  0.681590  0.592690  0.641000  1.0  -0.1127
  C  C134  1  0.744630  0.548200  0.617940  1.0  -0.1381
  C  C135  1  0.010670  0.544950  0.662060  1.0  -0.1498
  C  C136  1  0.910150  0.523740  0.628140  1.0  0.0802
  C  C137  1  0.994490  0.476670  0.602540  1.0  -0.212
  C  C138  1  0.850330  0.443000  0.577280  1.0  0.5772
  C  C139  1  0.125650  0.503480  0.569830  1.0  0.5942
  C  C140  1  0.091420  0.436540  0.632450  1.0  0.0789
  C  C141  1  0.994810  0.417970  0.667850  1.0  -0.1302
  C  C142  1  0.067850  0.378880  0.694480  1.0  -0.1075
  C  C143  1  0.343790  0.379590  0.653700  1.0  -0.1043
  C  C144  1  0.267850  0.417200  0.625980  1.0  -0.1362
  C  C145  1  0.242550  0.358710  0.687370  1.0  -0.0553
  C  C146  1  0.318280  0.313270  0.713410  1.0  0.6663
  C  C147  1  0.208090  0.287260  0.852210  1.0  0.6271
  C  C148  1  0.071250  0.280910  0.886060  1.0  -0.1018
  C  C149  1  0.057400  0.318610  0.919170  1.0  -0.0931
  C  C150  1  0.941340  0.308740  0.952770  1.0  -0.0719
  C  C151  1  0.841480  0.225850  0.919260  1.0  -0.1193
  C  C152  1  0.832860  0.261950  0.953350  1.0  0.0737
  C  C153  1  0.962330  0.234700  0.886300  1.0  -0.1252
  C  C154  1  0.718550  0.251250  0.993180  1.0  -0.1955
  C  C155  1  0.621090  0.194820  0.993080  1.0  0.6197
  C  C156  1  0.569690  0.296420  0.994980  1.0  0.5768
  C  C157  1  0.847280  0.253340  0.031460  1.0  0.0635
  C  C158  1  0.811070  0.281010  0.069190  1.0  -0.1382
  C  C159  1  0.937230  0.280350  0.101830  1.0  -0.1281
  C  C160  1  0.098670  0.251170  0.097890  1.0  -0.0899
  C  C161  1  0.132170  0.221620  0.060840  1.0  -0.0969
  C  C162  1  0.008610  0.223450  0.027780  1.0  -0.1357
  C  C163  1  0.224340  0.250350  0.134420  1.0  0.6577
  C  C164  1  0.527530  0.864710  0.795070  1.0  0.6799
  C  C165  1  0.427240  0.893520  0.830070  1.0  -0.0252
  C  C166  1  0.428630  0.950320  0.830780  1.0  -0.1173
  C  C167  1  0.315100  0.866520  0.858830  1.0  -0.1246
  C  C168  1  0.192840  0.895320  0.884140  1.0  -0.1339
  C  C169  1  0.308720  0.979070  0.856260  1.0  -0.0823
  C  C170  1  0.180240  0.951970  0.881300  1.0  0.0493
  C  C171  1  0.030640  0.985780  0.903260  1.0  -0.1013
  C  C172  1  0.874960  0.949270  0.920590  1.0  0.578
  C  C173  1  0.126200  0.016050  0.937940  1.0  0.5033
  C  C174  1  0.941000  0.025470  0.870030  1.0  0.0243
  C  C175  1  0.960050  0.018210  0.826180  1.0  -0.1348
  C  C176  1  0.914130  0.059380  0.798410  1.0  -0.0996
  C  C177  1  0.837590  0.107540  0.813650  1.0  -0.027
  C  C178  1  0.786770  0.110460  0.856110  1.0  -0.0974
  C  C179  1  0.841760  0.070400  0.884400  1.0  -0.1555
  C  C180  1  0.844910  0.156950  0.786840  1.0  0.6669
  C  C181  1  0.727170  0.336090  0.801190  1.0  0.698
  C  C182  1  0.783180  0.385820  0.825470  1.0  -0.0847
  C  C183  1  0.948350  0.410480  0.815300  1.0  -0.1024
  C  C184  1  0.681590  0.407310  0.859000  1.0  -0.113
  C  C185  1  0.744630  0.451800  0.882060  1.0  -0.1385
  C  C186  1  0.010670  0.455050  0.837940  1.0  -0.1503
  C  C187  1  0.910150  0.476260  0.871860  1.0  0.0798
  C  C188  1  0.994490  0.523330  0.897460  1.0  -0.2117
  C  C189  1  0.850330  0.557000  0.922720  1.0  0.5775
  C  C190  1  0.125650  0.496520  0.930170  1.0  0.5934
  C  C191  1  0.091420  0.563460  0.867550  1.0  0.0792
  C  C192  1  0.994810  0.582030  0.832150  1.0  -0.1297
  C  C193  1  0.067850  0.621120  0.805520  1.0  -0.1086
  C  C194  1  0.343790  0.620410  0.846300  1.0  -0.104
  C  C195  1  0.267850  0.582800  0.874020  1.0  -0.1356
  C  C196  1  0.242550  0.641290  0.812630  1.0  -0.0542
  C  C197  1  0.318280  0.686730  0.786590  1.0  0.6655
  C  C198  1  0.208090  0.712740  0.647790  1.0  0.627
  C  C199  1  0.071250  0.719090  0.613940  1.0  -0.1027
  C  C200  1  0.057400  0.681390  0.580830  1.0  -0.0919
  C  C201  1  0.941340  0.691260  0.547230  1.0  -0.0706
  C  C202  1  0.841480  0.774150  0.580740  1.0  -0.1194
  C  C203  1  0.832860  0.738050  0.546650  1.0  0.0734
  C  C204  1  0.962330  0.765300  0.613700  1.0  -0.1281
  C  C205  1  0.718550  0.748750  0.506820  1.0  -0.1953
  C  C206  1  0.621090  0.805180  0.506920  1.0  0.6202
  C  C207  1  0.569690  0.703580  0.505020  1.0  0.5762
  C  C208  1  0.847280  0.746660  0.468540  1.0  0.0639
  C  C209  1  0.811070  0.718990  0.430810  1.0  -0.1378
  C  C210  1  0.937230  0.719650  0.398170  1.0  -0.1291
  C  C211  1  0.098670  0.748830  0.402110  1.0  -0.0906
  C  C212  1  0.132170  0.778380  0.439160  1.0  -0.097
  C  C213  1  0.008610  0.776550  0.472220  1.0  -0.1356
  C  C214  1  0.224340  0.749650  0.365580  1.0  0.657
  C  C215  1  0.472470  0.864710  0.295070  1.0  0.6814
  C  C216  1  0.572760  0.893520  0.330070  1.0  -0.0256
  C  C217  1  0.571370  0.950320  0.330780  1.0  -0.1184
  C  C218  1  0.684900  0.866520  0.358830  1.0  -0.1247
  C  C219  1  0.807160  0.895320  0.384140  1.0  -0.1315
  C  C220  1  0.691280  0.979070  0.356260  1.0  -0.0817
  C  C221  1  0.819760  0.951970  0.381300  1.0  0.0468
  C  C222  1  0.969360  0.985780  0.403260  1.0  -0.102
  C  C223  1  0.125040  0.949270  0.420590  1.0  0.5781
  C  C224  1  0.873800  0.016050  0.437940  1.0  0.5038
  C  C225  1  0.059000  0.025470  0.370030  1.0  0.0244
  C  C226  1  0.039950  0.018210  0.326180  1.0  -0.1338
  C  C227  1  0.085870  0.059380  0.298410  1.0  -0.0997
  C  C228  1  0.162410  0.107540  0.313650  1.0  -0.0271
  C  C229  1  0.213230  0.110460  0.356110  1.0  -0.0974
  C  C230  1  0.158240  0.070400  0.384400  1.0  -0.157
  C  C231  1  0.155090  0.156950  0.286840  1.0  0.6671
  C  C232  1  0.272830  0.336090  0.301190  1.0  0.6984
  C  C233  1  0.216820  0.385820  0.325470  1.0  -0.0846
  C  C234  1  0.051650  0.410480  0.315300  1.0  -0.1028
  C  C235  1  0.318410  0.407310  0.359000  1.0  -0.112
  C  C236  1  0.255370  0.451800  0.382060  1.0  -0.1391
  C  C237  1  0.989330  0.455050  0.337940  1.0  -0.1521
  C  C238  1  0.089850  0.476260  0.371860  1.0  0.0818
  C  C239  1  0.005510  0.523330  0.397460  1.0  -0.2117
  C  C240  1  0.149670  0.557000  0.422720  1.0  0.5783
  C  C241  1  0.874350  0.496520  0.430170  1.0  0.5919
  C  C242  1  0.908580  0.563460  0.367550  1.0  0.0782
  C  C243  1  0.005190  0.582030  0.332150  1.0  -0.1306
  C  C244  1  0.932150  0.621120  0.305520  1.0  -0.1091
  C  C245  1  0.656210  0.620410  0.346300  1.0  -0.1068
  C  C246  1  0.732150  0.582800  0.374020  1.0  -0.1334
  C  C247  1  0.757450  0.641290  0.312630  1.0  -0.0542
  C  C248  1  0.681720  0.686730  0.286590  1.0  0.6652
  C  C249  1  0.791910  0.712740  0.147790  1.0  0.6272
  C  C250  1  0.928750  0.719090  0.113940  1.0  -0.1026
  C  C251  1  0.942600  0.681390  0.080830  1.0  -0.0949
  C  C252  1  0.058660  0.691260  0.047230  1.0  -0.0696
  C  C253  1  0.158520  0.774150  0.080740  1.0  -0.1182
  C  C254  1  0.167140  0.738050  0.046650  1.0  0.0743
  C  C255  1  0.037670  0.765300  0.113700  1.0  -0.1272
  C  C256  1  0.281450  0.748750  0.006820  1.0  -0.1946
  C  C257  1  0.378910  0.805180  0.006920  1.0  0.6213
  C  C258  1  0.430310  0.703580  0.005020  1.0  0.5754
  C  C259  1  0.152720  0.746660  0.968540  1.0  0.0636
  C  C260  1  0.188930  0.718990  0.930810  1.0  -0.1385
  C  C261  1  0.062770  0.719650  0.898170  1.0  -0.1283
  C  C262  1  0.901330  0.748830  0.902110  1.0  -0.0911
  C  C263  1  0.867830  0.778380  0.939160  1.0  -0.1003
  C  C264  1  0.991390  0.776550  0.972220  1.0  -0.1349
  C  C265  1  0.775660  0.749650  0.865580  1.0  0.6576
  C  C266  1  0.472470  0.135290  0.204930  1.0  0.6809
  C  C267  1  0.572760  0.106480  0.169930  1.0  -0.0259
  C  C268  1  0.571370  0.049680  0.169220  1.0  -0.1179
  C  C269  1  0.684900  0.133480  0.141170  1.0  -0.125
  C  C270  1  0.807160  0.104680  0.115860  1.0  -0.1322
  C  C271  1  0.691280  0.020930  0.143740  1.0  -0.0811
  C  C272  1  0.819760  0.048030  0.118700  1.0  0.0475
  C  C273  1  0.969360  0.014220  0.096740  1.0  -0.1023
  C  C274  1  0.125040  0.050730  0.079410  1.0  0.578
  C  C275  1  0.873800  0.983950  0.062060  1.0  0.5026
  C  C276  1  0.059000  0.974530  0.129970  1.0  0.0249
  C  C277  1  0.039950  0.981790  0.173820  1.0  -0.1346
  C  C278  1  0.085870  0.940620  0.201590  1.0  -0.099
  C  C279  1  0.162410  0.892460  0.186350  1.0  -0.0265
  C  C280  1  0.213230  0.889540  0.143890  1.0  -0.0963
  C  C281  1  0.158240  0.929600  0.115600  1.0  -0.1569
  C  C282  1  0.155090  0.843050  0.213160  1.0  0.6668
  C  C283  1  0.272830  0.663910  0.198810  1.0  0.6975
  C  C284  1  0.216820  0.614180  0.174530  1.0  -0.0857
  C  C285  1  0.051650  0.589520  0.184700  1.0  -0.1019
  C  C286  1  0.318410  0.592690  0.141000  1.0  -0.1114
  C  C287  1  0.255370  0.548200  0.117940  1.0  -0.1387
  C  C288  1  0.989330  0.544950  0.162060  1.0  -0.1522
  C  C289  1  0.089850  0.523740  0.128140  1.0  0.0821
  C  C290  1  0.005510  0.476670  0.102540  1.0  -0.2118
  C  C291  1  0.149670  0.443000  0.077280  1.0  0.5781
  C  C292  1  0.874350  0.503480  0.069830  1.0  0.5936
  C  C293  1  0.908580  0.436540  0.132450  1.0  0.0781
  C  C294  1  0.005190  0.417970  0.167850  1.0  -0.1302
  C  C295  1  0.932150  0.378880  0.194480  1.0  -0.1069
  C  C296  1  0.656210  0.379590  0.153700  1.0  -0.1074
  C  C297  1  0.732150  0.417200  0.125980  1.0  -0.1339
  C  C298  1  0.757450  0.358710  0.187370  1.0  -0.0544
  C  C299  1  0.681720  0.313270  0.213410  1.0  0.6658
  C  C300  1  0.791910  0.287260  0.352210  1.0  0.6276
  C  C301  1  0.928750  0.280910  0.386060  1.0  -0.1023
  C  C302  1  0.942600  0.318610  0.419170  1.0  -0.0953
  C  C303  1  0.058660  0.308740  0.452770  1.0  -0.0712
  C  C304  1  0.158520  0.225850  0.419260  1.0  -0.1184
  C  C305  1  0.167140  0.261950  0.453350  1.0  0.0742
  C  C306  1  0.037670  0.234700  0.386300  1.0  -0.1243
  C  C307  1  0.281450  0.251250  0.493180  1.0  -0.1946
  C  C308  1  0.378910  0.194820  0.493080  1.0  0.6219
  C  C309  1  0.430310  0.296420  0.494980  1.0  0.5759
  C  C310  1  0.152720  0.253340  0.531460  1.0  0.0631
  C  C311  1  0.188930  0.281010  0.569190  1.0  -0.1386
  C  C312  1  0.062770  0.280350  0.601830  1.0  -0.1272
  C  C313  1  0.901330  0.251170  0.597890  1.0  -0.0903
  C  C314  1  0.867830  0.221620  0.560840  1.0  -0.1005
  C  C315  1  0.991390  0.223450  0.527780  1.0  -0.1351
  C  C316  1  0.775660  0.250350  0.634420  1.0  0.6578
  O  O317  1  0.531820  0.188190  0.705010  1.0  -0.6652
  O  O318  1  0.588760  0.106680  0.734470  1.0  -0.5362
  O  O319  1  0.984380  0.840290  0.737610  1.0  -0.64
  O  O320  1  0.734660  0.803600  0.710060  1.0  -0.7643
  O  O321  1  0.835200  0.682210  0.726360  1.0  -0.607
  O  O322  1  0.575040  0.686990  0.690630  1.0  -0.6342
  O  O323  1  0.486100  0.309250  0.718860  1.0  -0.6131
  O  O324  1  0.205620  0.278240  0.729300  1.0  -0.6944
  O  O325  1  0.227270  0.252740  0.823580  1.0  -0.6439
  O  O326  1  0.309040  0.331230  0.855750  1.0  -0.4804
  O  O327  1  0.186260  0.274700  0.167880  1.0  -0.6231
  O  O328  1  0.373030  0.221500  0.129600  1.0  -0.4823
  O  O329  1  0.531820  0.811810  0.794990  1.0  -0.6653
  O  O330  1  0.588760  0.893320  0.765530  1.0  -0.5365
  O  O331  1  0.984380  0.159710  0.762390  1.0  -0.6394
  O  O332  1  0.734660  0.196400  0.789940  1.0  -0.7635
  O  O333  1  0.835200  0.317790  0.773640  1.0  -0.6066
  O  O334  1  0.575040  0.313010  0.809370  1.0  -0.6341
  O  O335  1  0.486100  0.690750  0.781140  1.0  -0.613
  O  O336  1  0.205620  0.721760  0.770700  1.0  -0.6947
  O  O337  1  0.227270  0.747260  0.676420  1.0  -0.644
  O  O338  1  0.309040  0.668770  0.644250  1.0  -0.4807
  O  O339  1  0.186260  0.725300  0.332120  1.0  -0.6242
  O  O340  1  0.373030  0.778500  0.370400  1.0  -0.4793
  O  O341  1  0.468180  0.811810  0.294990  1.0  -0.6665
  O  O342  1  0.411240  0.893320  0.265530  1.0  -0.5363
  O  O343  1  0.015620  0.159710  0.262390  1.0  -0.64
  O  O344  1  0.265340  0.196400  0.289940  1.0  -0.7628
  O  O345  1  0.164800  0.317790  0.273640  1.0  -0.6066
  O  O346  1  0.424960  0.313010  0.309370  1.0  -0.6341
  O  O347  1  0.513900  0.690750  0.281140  1.0  -0.6137
  O  O348  1  0.794380  0.721760  0.270700  1.0  -0.6947
  O  O349  1  0.772730  0.747260  0.176420  1.0  -0.6446
  O  O350  1  0.690960  0.668770  0.144250  1.0  -0.4799
  O  O351  1  0.813740  0.725300  0.832120  1.0  -0.6247
  O  O352  1  0.626970  0.778500  0.870400  1.0  -0.4795
  O  O353  1  0.468180  0.188190  0.205010  1.0  -0.6663
  O  O354  1  0.411240  0.106680  0.234470  1.0  -0.5368
  O  O355  1  0.015620  0.840290  0.237610  1.0  -0.6397
  O  O356  1  0.265340  0.803600  0.210060  1.0  -0.7631
  O  O357  1  0.164800  0.682210  0.226360  1.0  -0.6063
  O  O358  1  0.424960  0.686990  0.190630  1.0  -0.6342
  O  O359  1  0.513900  0.309250  0.218860  1.0  -0.6138
  O  O360  1  0.794380  0.278240  0.229300  1.0  -0.6937
  O  O361  1  0.772730  0.252740  0.323580  1.0  -0.6451
  O  O362  1  0.690960  0.331230  0.355750  1.0  -0.4821
  O  O363  1  0.813740  0.274700  0.667880  1.0  -0.6236
  O  O364  1  0.626970  0.221500  0.629600  1.0  -0.4825
  F  F365  1  0.736150  0.021440  0.562840  1.0  -0.2123
  F  F366  1  0.804510  0.081010  0.611670  1.0  -0.202
  F  F367  1  0.929180  0.085820  0.548620  1.0  -0.2185
  F  F368  1  0.008380  0.960130  0.534670  1.0  -0.1878
  F  F369  1  0.233950  0.016530  0.536860  1.0  -0.2024
  F  F370  1  0.234230  0.943550  0.577400  1.0  -0.2
  F  F371  1  0.193100  0.467710  0.540910  1.0  -0.1958
  F  F372  1  0.042410  0.543660  0.547740  1.0  -0.1908
  F  F373  1  0.270020  0.526800  0.589830  1.0  -0.1879
  F  F374  1  0.774050  0.470650  0.544520  1.0  -0.1983
  F  F375  1  0.923060  0.397030  0.560560  1.0  -0.1896
  F  F376  1  0.711810  0.427210  0.603120  1.0  -0.1956
  F  F377  1  0.641570  0.348200  0.004050  1.0  -0.2053
  F  F378  1  0.439430  0.289030  0.024570  1.0  -0.196
  F  F379  1  0.484110  0.301160  0.957070  1.0  -0.1788
  F  F380  1  0.486540  0.191370  0.963590  1.0  -0.1967
  F  F381  1  0.545460  0.186350  0.031360  1.0  -0.1861
  F  F382  1  0.738310  0.153200  0.985310  1.0  -0.1929
  F  F383  1  0.736150  0.978560  0.937160  1.0  -0.2139
  F  F384  1  0.804510  0.918990  0.888330  1.0  -0.2016
  F  F385  1  0.929180  0.914180  0.951380  1.0  -0.2205
  F  F386  1  0.008380  0.039870  0.965330  1.0  -0.1881
  F  F387  1  0.233950  0.983470  0.963140  1.0  -0.2026
  F  F388  1  0.234230  0.056450  0.922600  1.0  -0.1994
  F  F389  1  0.193100  0.532290  0.959090  1.0  -0.196
  F  F390  1  0.042410  0.456340  0.952260  1.0  -0.1902
  F  F391  1  0.270020  0.473200  0.910170  1.0  -0.187
  F  F392  1  0.774050  0.529350  0.955480  1.0  -0.2011
  F  F393  1  0.923060  0.602970  0.939440  1.0  -0.1893
  F  F394  1  0.711810  0.572790  0.896880  1.0  -0.1953
  F  F395  1  0.641570  0.651800  0.495950  1.0  -0.2042
  F  F396  1  0.439430  0.710970  0.475430  1.0  -0.1957
  F  F397  1  0.484110  0.698840  0.542930  1.0  -0.1806
  F  F398  1  0.486540  0.808630  0.536410  1.0  -0.197
  F  F399  1  0.545460  0.813650  0.468640  1.0  -0.1862
  F  F400  1  0.738310  0.846800  0.514690  1.0  -0.1923
  F  F401  1  0.263850  0.978560  0.437160  1.0  -0.2159
  F  F402  1  0.195490  0.918990  0.388330  1.0  -0.2017
  F  F403  1  0.070820  0.914180  0.451380  1.0  -0.2207
  F  F404  1  0.991620  0.039870  0.465330  1.0  -0.1887
  F  F405  1  0.766050  0.983470  0.463140  1.0  -0.2003
  F  F406  1  0.765770  0.056450  0.422600  1.0  -0.1987
  F  F407  1  0.806900  0.532290  0.459090  1.0  -0.1965
  F  F408  1  0.957590  0.456340  0.452260  1.0  -0.1905
  F  F409  1  0.729980  0.473200  0.410170  1.0  -0.1857
  F  F410  1  0.225950  0.529350  0.455480  1.0  -0.2007
  F  F411  1  0.076940  0.602970  0.439440  1.0  -0.1899
  F  F412  1  0.288190  0.572790  0.396880  1.0  -0.1962
  F  F413  1  0.358430  0.651800  0.995950  1.0  -0.2048
  F  F414  1  0.560570  0.710970  0.975430  1.0  -0.1975
  F  F415  1  0.515890  0.698840  0.042930  1.0  -0.1808
  F  F416  1  0.513460  0.808630  0.036410  1.0  -0.1975
  F  F417  1  0.454540  0.813650  0.968640  1.0  -0.1864
  F  F418  1  0.261690  0.846800  0.014690  1.0  -0.1927
  F  F419  1  0.263850  0.021440  0.062840  1.0  -0.2145
  F  F420  1  0.195490  0.081010  0.111670  1.0  -0.2016
  F  F421  1  0.070820  0.085820  0.048620  1.0  -0.2188
  F  F422  1  0.991620  0.960130  0.034670  1.0  -0.1883
  F  F423  1  0.766050  0.016530  0.036860  1.0  -0.2007
  F  F424  1  0.765770  0.943550  0.077400  1.0  -0.1985
  F  F425  1  0.806900  0.467710  0.040910  1.0  -0.1956
  F  F426  1  0.957590  0.543660  0.047740  1.0  -0.191
  F  F427  1  0.729980  0.526800  0.089830  1.0  -0.1868
  F  F428  1  0.225950  0.470650  0.044520  1.0  -0.1982
  F  F429  1  0.076940  0.397030  0.060560  1.0  -0.1899
  F  F430  1  0.288190  0.427210  0.103120  1.0  -0.1964
  F  F431  1  0.358430  0.348200  0.504050  1.0  -0.2059
  F  F432  1  0.560570  0.289030  0.524570  1.0  -0.1973
  F  F433  1  0.515890  0.301160  0.457070  1.0  -0.179
  F  F434  1  0.513460  0.191370  0.463590  1.0  -0.1973
  F  F435  1  0.454540  0.186350  0.531360  1.0  -0.1865
  F  F436  1  0.261690  0.153200  0.485310  1.0  -0.194
