# generated using pymatgen
data_ZnH12C20NO4
_symmetry_space_group_name_H-M   'P 1'
_cell_length_a   17.21900000
_cell_length_b   23.08470000
_cell_length_c   23.08470000
_cell_angle_alpha   60.54050000
_cell_angle_beta   68.10210000
_cell_angle_gamma   68.10220000
_symmetry_Int_Tables_number   1
_chemical_formula_structural   ZnH12C20NO4
_chemical_formula_sum   'Zn4 H48 C80 N4 O16'
_cell_volume   7206.28852958
_cell_formula_units_Z   4
loop_
 _symmetry_equiv_pos_site_id
 _symmetry_equiv_pos_as_xyz
  1  'x, y, z'
loop_
 _atom_site_type_symbol
 _atom_site_label
 _atom_site_symmetry_multiplicity
 _atom_site_fract_x
 _atom_site_fract_y
 _atom_site_fract_z
 _atom_site_occupancy
 _atom_site_charge
  Zn  Zn1  1  0.971750  0.470000  0.970000  1.0  1.1341
  Zn  Zn2  1  0.411750  0.030000  0.530000  1.0  1.1231
  Zn  Zn3  1  0.028250  0.530000  0.030000  1.0  1.1349
  Zn  Zn4  1  0.588250  0.970000  0.470000  1.0  1.1233
  H  H5  1  0.244800  0.577300  0.667700  1.0  0.1013
  H  H6  1  0.230700  0.609600  0.852600  1.0  0.1008
  H  H7  1  0.148300  0.533400  0.769600  1.0  0.0988
  H  H8  1  0.333400  0.643100  0.754700  1.0  0.0959
  H  H9  1  0.382800  0.674500  0.511300  1.0  0.0967
  H  H10  1  0.453700  0.612300  0.444300  1.0  0.1104
  H  H11  1  0.489800  0.922700  0.832300  1.0  0.1016
  H  H12  1  0.692900  0.890400  0.647400  1.0  0.103
  H  H13  1  0.451300  0.966600  0.730400  1.0  0.1001
  H  H14  1  0.731200  0.856900  0.745300  1.0  0.098
  H  H15  1  0.568600  0.825500  0.988700  1.0  0.0973
  H  H16  1  0.510300  0.887700  0.055700  1.0  0.1083
  H  H17  1  0.755200  0.832300  0.922700  1.0  0.1015
  H  H18  1  0.769300  0.647400  0.890400  1.0  0.102
  H  H19  1  0.851700  0.730400  0.966600  1.0  0.0982
  H  H20  1  0.666667  0.745300  0.856900  1.0  0.0942
  H  H21  1  0.617200  0.988700  0.825500  1.0  0.0971
  H  H22  1  0.546300  0.055700  0.887700  1.0  0.1108
  H  H23  1  0.510200  0.667700  0.577300  1.0  0.1011
  H  H24  1  0.307100  0.852600  0.609600  1.0  0.1029
  H  H25  1  0.548700  0.769600  0.533400  1.0  0.0991
  H  H26  1  0.268800  0.754700  0.643100  1.0  0.0954
  H  H27  1  0.431400  0.511300  0.674500  1.0  0.0964
  H  H28  1  0.489700  0.444300  0.612300  1.0  0.1122
  H  H29  1  0.755200  0.422700  0.332300  1.0  0.1018
  H  H30  1  0.769300  0.390400  0.147400  1.0  0.1013
  H  H31  1  0.851700  0.466600  0.230400  1.0  0.099
  H  H32  1  0.666667  0.356900  0.245300  1.0  0.0953
  H  H33  1  0.617200  0.325500  0.488700  1.0  0.0962
  H  H34  1  0.546300  0.387700  0.555700  1.0  0.1109
  H  H35  1  0.510200  0.077300  0.167700  1.0  0.1017
  H  H36  1  0.307100  0.109600  0.352600  1.0  0.1032
  H  H37  1  0.548700  0.033400  0.269600  1.0  0.0997
  H  H38  1  0.268800  0.143100  0.254700  1.0  0.0977
  H  H39  1  0.431400  0.174500  0.011300  1.0  0.0967
  H  H40  1  0.489700  0.112300  0.944300  1.0  0.1079
  H  H41  1  0.244800  0.167700  0.077300  1.0  0.1006
  H  H42  1  0.230700  0.352600  0.109600  1.0  0.1022
  H  H43  1  0.148300  0.269600  0.033400  1.0  0.0974
  H  H44  1  0.333400  0.254700  0.143100  1.0  0.0943
  H  H45  1  0.382800  0.011300  0.174500  1.0  0.0975
  H  H46  1  0.453700  0.944300  0.112300  1.0  0.1102
  H  H47  1  0.489800  0.332300  0.422700  1.0  0.1012
  H  H48  1  0.692900  0.147400  0.390400  1.0  0.1026
  H  H49  1  0.451300  0.230400  0.466600  1.0  0.0993
  H  H50  1  0.731200  0.245300  0.356900  1.0  0.0954
  H  H51  1  0.568600  0.488700  0.325500  1.0  0.0968
  H  H52  1  0.510300  0.555700  0.387700  1.0  0.1115
  C  C53  1  0.111930  0.543290  0.887250  1.0  0.7099
  C  C54  1  0.242930  0.582830  0.705510  1.0  -0.1741
  C  C55  1  0.299540  0.615630  0.700090  1.0  0.2128
  C  C56  1  0.233760  0.602090  0.815590  1.0  -0.058
  C  C57  1  0.176290  0.569480  0.820940  1.0  -0.1312
  C  C58  1  0.183380  0.557920  0.766120  1.0  -0.0419
  C  C59  1  0.294220  0.622970  0.756590  1.0  -0.1835
  C  C60  1  0.406710  0.627900  0.531880  1.0  -0.1852
  C  C61  1  0.447890  0.590040  0.491380  1.0  -0.1427
  C  C62  1  0.542470  0.956710  0.612750  1.0  0.7131
  C  C63  1  0.531270  0.917170  0.794490  1.0  -0.1773
  C  C64  1  0.615260  0.884370  0.799910  1.0  0.2131
  C  C65  1  0.651440  0.897910  0.684410  1.0  -0.0599
  C  C66  1  0.566710  0.930520  0.679060  1.0  -0.1277
  C  C67  1  0.507420  0.942080  0.733880  1.0  -0.041
  C  C68  1  0.673780  0.877030  0.743410  1.0  -0.1832
  C  C69  1  0.566490  0.872100  0.968120  1.0  -0.1858
  C  C70  1  0.529310  0.909960  0.008620  1.0  -0.1415
  C  C71  1  0.888070  0.612750  0.956710  1.0  0.7138
  C  C72  1  0.757070  0.794490  0.917170  1.0  -0.1773
  C  C73  1  0.700460  0.799910  0.884370  1.0  0.2128
  C  C74  1  0.766240  0.684410  0.897910  1.0  -0.062
  C  C75  1  0.823710  0.679060  0.930520  1.0  -0.127
  C  C76  1  0.816620  0.733880  0.942080  1.0  -0.0432
  C  C77  1  0.705780  0.743410  0.877030  1.0  -0.187
  C  C78  1  0.593290  0.968120  0.872100  1.0  -0.1826
  C  C79  1  0.552110  0.008620  0.909960  1.0  -0.1375
  C  C80  1  0.457530  0.887250  0.543290  1.0  0.7109
  C  C81  1  0.468730  0.705510  0.582830  1.0  -0.1741
  C  C82  1  0.384740  0.700090  0.615630  1.0  0.2128
  C  C83  1  0.348560  0.815590  0.602090  1.0  -0.0594
  C  C84  1  0.433290  0.820940  0.569480  1.0  -0.1303
  C  C85  1  0.492580  0.766120  0.557920  1.0  -0.036
  C  C86  1  0.326220  0.756590  0.622970  1.0  -0.1861
  C  C87  1  0.433510  0.531880  0.627900  1.0  -0.181
  C  C88  1  0.470690  0.491380  0.590040  1.0  -0.1396
  C  C89  1  0.888070  0.456710  0.112750  1.0  0.7095
  C  C90  1  0.757070  0.417170  0.294490  1.0  -0.1762
  C  C91  1  0.700460  0.384370  0.299910  1.0  0.2134
  C  C92  1  0.766240  0.397910  0.184410  1.0  -0.0592
  C  C93  1  0.823710  0.430520  0.179060  1.0  -0.1308
  C  C94  1  0.816620  0.442080  0.233880  1.0  -0.0409
  C  C95  1  0.705780  0.377030  0.243410  1.0  -0.1854
  C  C96  1  0.593290  0.372100  0.468120  1.0  -0.183
  C  C97  1  0.552110  0.409960  0.508620  1.0  -0.1444
  C  C98  1  0.457530  0.043290  0.387250  1.0  0.7132
  C  C99  1  0.468730  0.082830  0.205510  1.0  -0.173
  C  C100  1  0.384740  0.115630  0.200090  1.0  0.2132
  C  C101  1  0.348560  0.102090  0.315590  1.0  -0.0597
  C  C102  1  0.433290  0.069480  0.320940  1.0  -0.1291
  C  C103  1  0.492580  0.057920  0.266120  1.0  -0.0406
  C  C104  1  0.326220  0.122970  0.256590  1.0  -0.1823
  C  C105  1  0.433510  0.127900  0.031880  1.0  -0.1857
  C  C106  1  0.470690  0.090040  0.991380  1.0  -0.1419
  C  C107  1  0.111930  0.387250  0.043290  1.0  0.7142
  C  C108  1  0.242930  0.205510  0.082830  1.0  -0.1783
  C  C109  1  0.299540  0.200090  0.115630  1.0  0.2125
  C  C110  1  0.233760  0.315590  0.102090  1.0  -0.0614
  C  C111  1  0.176290  0.320940  0.069480  1.0  -0.1274
  C  C112  1  0.183380  0.266120  0.057920  1.0  -0.0432
  C  C113  1  0.294220  0.256590  0.122970  1.0  -0.1859
  C  C114  1  0.406710  0.031880  0.127900  1.0  -0.1829
  C  C115  1  0.447890  0.991380  0.090040  1.0  -0.1401
  C  C116  1  0.542470  0.112750  0.456710  1.0  0.7105
  C  C117  1  0.531270  0.294490  0.417170  1.0  -0.1771
  C  C118  1  0.615260  0.299910  0.384370  1.0  0.2118
  C  C119  1  0.651440  0.184410  0.397910  1.0  -0.0607
  C  C120  1  0.566710  0.179060  0.430520  1.0  -0.1308
  C  C121  1  0.507420  0.233880  0.442080  1.0  -0.0368
  C  C122  1  0.673780  0.243410  0.377030  1.0  -0.184
  C  C123  1  0.566490  0.468120  0.372100  1.0  -0.1817
  C  C124  1  0.529310  0.508620  0.409960  1.0  -0.1392
  C  C125  1  0.401560  0.598440  0.598440  1.0  0.2233
  C  C126  1  0.479070  0.520930  0.520930  1.0  0.1125
  C  C127  1  0.598440  0.901560  0.901560  1.0  0.2233
  C  C128  1  0.520930  0.979070  0.979070  1.0  0.109
  C  C129  1  0.598440  0.401560  0.401560  1.0  0.2233
  C  C130  1  0.520930  0.479070  0.479070  1.0  0.1115
  C  C131  1  0.401560  0.098440  0.098440  1.0  0.2233
  C  C132  1  0.479070  0.020930  0.020930  1.0  0.1101
  N  N133  1  0.361530  0.638470  0.638470  1.0  -0.1303
  N  N134  1  0.638470  0.861530  0.861530  1.0  -0.1304
  N  N135  1  0.638470  0.361530  0.361530  1.0  -0.1304
  N  N136  1  0.361530  0.138470  0.138470  1.0  -0.1303
  O  O137  1  0.065420  0.511330  0.889390  1.0  -0.6392
  O  O138  1  0.108060  0.556930  0.934250  1.0  -0.6424
  O  O139  1  0.466140  0.988670  0.610610  1.0  -0.6383
  O  O140  1  0.599240  0.943070  0.565750  1.0  -0.6424
  O  O141  1  0.934580  0.610610  0.988670  1.0  -0.639
  O  O142  1  0.891940  0.565750  0.943070  1.0  -0.6428
  O  O143  1  0.533860  0.889390  0.511330  1.0  -0.6397
  O  O144  1  0.400760  0.934250  0.556930  1.0  -0.6417
  O  O145  1  0.934580  0.488670  0.110610  1.0  -0.6402
  O  O146  1  0.891940  0.443070  0.065750  1.0  -0.6421
  O  O147  1  0.533860  0.011330  0.389390  1.0  -0.6386
  O  O148  1  0.400760  0.056930  0.434250  1.0  -0.642
  O  O149  1  0.065420  0.389390  0.011330  1.0  -0.6396
  O  O150  1  0.108060  0.434250  0.056930  1.0  -0.6432
  O  O151  1  0.466140  0.110610  0.488670  1.0  -0.6391
  O  O152  1  0.599240  0.065750  0.443070  1.0  -0.6427
