# generated using pymatgen
data_ZnH12C20NO4
_symmetry_space_group_name_H-M   'P 1'
_cell_length_a   18.83300000
_cell_length_b   22.78030000
_cell_length_c   22.78030000
_cell_angle_alpha   60.39170000
_cell_angle_beta   65.58380000
_cell_angle_gamma   65.58380000
_symmetry_Int_Tables_number   1
_chemical_formula_structural   ZnH12C20NO4
_chemical_formula_sum   'Zn4 H48 C80 N4 O16'
_cell_volume   7462.31006607
_cell_formula_units_Z   4
loop_
 _symmetry_equiv_pos_site_id
 _symmetry_equiv_pos_as_xyz
  1  'x, y, z'
loop_
 _atom_site_type_symbol
 _atom_site_label
 _atom_site_symmetry_multiplicity
 _atom_site_fract_x
 _atom_site_fract_y
 _atom_site_fract_z
 _atom_site_occupancy
 _atom_site_charge
  Zn  Zn1  1  0.985570  0.466460  0.966460  1.0  1.0798
  Zn  Zn2  1  0.418490  0.033540  0.533540  1.0  1.1058
  Zn  Zn3  1  0.014430  0.533540  0.033540  1.0  1.0787
  Zn  Zn4  1  0.581510  0.966460  0.466460  1.0  1.1063
  H  H5  1  0.215600  0.616400  0.863400  1.0  0.1105
  H  H6  1  0.249500  0.585100  0.669500  1.0  0.109
  H  H7  1  0.153800  0.543600  0.771600  1.0  0.1057
  H  H8  1  0.315200  0.651000  0.764000  1.0  0.0899
  H  H9  1  0.490700  0.444000  0.611200  1.0  0.1417
  H  H10  1  0.431900  0.512000  0.677800  1.0  0.1058
  H  H11  1  0.695400  0.883600  0.636600  1.0  0.1125
  H  H12  1  0.504100  0.914900  0.830500  1.0  0.1103
  H  H13  1  0.469000  0.956400  0.728400  1.0  0.1064
  H  H14  1  0.730200  0.849000  0.736000  1.0  0.0922
  H  H15  1  0.545900  0.056000  0.888800  1.0  0.1416
  H  H16  1  0.621700  0.988000  0.822200  1.0  0.1077
  H  H17  1  0.784400  0.636600  0.883600  1.0  0.1107
  H  H18  1  0.750500  0.830500  0.914900  1.0  0.1096
  H  H19  1  0.846200  0.728400  0.956400  1.0  0.1061
  H  H20  1  0.684800  0.736000  0.849000  1.0  0.0895
  H  H21  1  0.509300  0.888800  0.056000  1.0  0.14
  H  H22  1  0.568100  0.822200  0.988000  1.0  0.1077
  H  H23  1  0.304600  0.863400  0.616400  1.0  0.1127
  H  H24  1  0.495900  0.669500  0.585100  1.0  0.1112
  H  H25  1  0.531000  0.771600  0.543600  1.0  0.1045
  H  H26  1  0.269800  0.764000  0.651000  1.0  0.0907
  H  H27  1  0.454100  0.611200  0.444000  1.0  0.1414
  H  H28  1  0.378300  0.677800  0.512000  1.0  0.1075
  H  H29  1  0.784400  0.383600  0.136600  1.0  0.1107
  H  H30  1  0.750500  0.414900  0.330500  1.0  0.1093
  H  H31  1  0.846200  0.456400  0.228400  1.0  0.106
  H  H32  1  0.684800  0.349000  0.236000  1.0  0.0901
  H  H33  1  0.509300  0.556000  0.388800  1.0  0.1422
  H  H34  1  0.568100  0.488000  0.322200  1.0  0.1068
  H  H35  1  0.304600  0.116400  0.363400  1.0  0.1125
  H  H36  1  0.495900  0.085100  0.169500  1.0  0.1105
  H  H37  1  0.531000  0.043600  0.271600  1.0  0.1062
  H  H38  1  0.269800  0.151000  0.264000  1.0  0.093
  H  H39  1  0.454100  0.944000  0.111200  1.0  0.1419
  H  H40  1  0.378300  0.012000  0.177800  1.0  0.1073
  H  H41  1  0.215600  0.363400  0.116400  1.0  0.1109
  H  H42  1  0.249500  0.169500  0.085100  1.0  0.1088
  H  H43  1  0.153800  0.271600  0.043600  1.0  0.1065
  H  H44  1  0.315200  0.264000  0.151000  1.0  0.0897
  H  H45  1  0.490700  0.111200  0.944000  1.0  0.1391
  H  H46  1  0.431900  0.177800  0.012000  1.0  0.1078
  H  H47  1  0.695400  0.136600  0.383600  1.0  0.1124
  H  H48  1  0.504100  0.330500  0.414900  1.0  0.1109
  H  H49  1  0.469000  0.228400  0.456400  1.0  0.1047
  H  H50  1  0.730200  0.236000  0.349000  1.0  0.0895
  H  H51  1  0.545900  0.388800  0.556000  1.0  0.1417
  H  H52  1  0.621700  0.322200  0.488000  1.0  0.1071
  C  C53  1  0.222320  0.608980  0.824580  1.0  -0.1507
  C  C54  1  0.244110  0.590890  0.708890  1.0  -0.1581
  C  C55  1  0.111470  0.552030  0.890830  1.0  0.6897
  C  C56  1  0.294470  0.623230  0.705630  1.0  0.2142
  C  C57  1  0.174450  0.577220  0.826880  1.0  -0.1147
  C  C58  1  0.185550  0.566950  0.769950  1.0  -0.0711
  C  C59  1  0.281780  0.630320  0.763920  1.0  -0.1604
  C  C60  1  0.470900  0.492200  0.589600  1.0  -0.1339
  C  C61  1  0.432500  0.533400  0.630800  1.0  -0.1981
  C  C62  1  0.655880  0.891020  0.675420  1.0  -0.1543
  C  C63  1  0.543890  0.909110  0.791110  1.0  -0.1626
  C  C64  1  0.554330  0.947970  0.609170  1.0  0.6971
  C  C65  1  0.623330  0.876770  0.794370  1.0  0.2163
  C  C66  1  0.578550  0.922780  0.673120  1.0  -0.1118
  C  C67  1  0.522450  0.933050  0.730050  1.0  -0.0696
  C  C68  1  0.676020  0.869680  0.736080  1.0  -0.1601
  C  C69  1  0.552700  0.007800  0.910400  1.0  -0.1358
  C  C70  1  0.596700  0.966600  0.869200  1.0  -0.1995
  C  C71  1  0.777680  0.675420  0.891020  1.0  -0.1537
  C  C72  1  0.755890  0.791110  0.909110  1.0  -0.1632
  C  C73  1  0.888530  0.609170  0.947970  1.0  0.6906
  C  C74  1  0.705530  0.794370  0.876770  1.0  0.2142
  C  C75  1  0.825550  0.673120  0.922780  1.0  -0.1136
  C  C76  1  0.814450  0.730050  0.933050  1.0  -0.0691
  C  C77  1  0.718220  0.736080  0.869680  1.0  -0.1603
  C  C78  1  0.529100  0.910400  0.007800  1.0  -0.1354
  C  C79  1  0.567500  0.869200  0.966600  1.0  -0.2047
  C  C80  1  0.344120  0.824580  0.608980  1.0  -0.1575
  C  C81  1  0.456110  0.708890  0.590890  1.0  -0.1622
  C  C82  1  0.445670  0.890830  0.552030  1.0  0.6904
  C  C83  1  0.376670  0.705630  0.623230  1.0  0.2149
  C  C84  1  0.421450  0.826880  0.577220  1.0  -0.1145
  C  C85  1  0.477550  0.769950  0.566950  1.0  -0.0667
  C  C86  1  0.323980  0.763920  0.630320  1.0  -0.1632
  C  C87  1  0.447300  0.589600  0.492200  1.0  -0.1347
  C  C88  1  0.403300  0.630800  0.533400  1.0  -0.201
  C  C89  1  0.777680  0.391020  0.175420  1.0  -0.1504
  C  C90  1  0.755890  0.409110  0.291110  1.0  -0.1594
  C  C91  1  0.888530  0.447970  0.109170  1.0  0.6896
  C  C92  1  0.705530  0.376770  0.294370  1.0  0.214
  C  C93  1  0.825550  0.422780  0.173120  1.0  -0.1141
  C  C94  1  0.814450  0.433050  0.230050  1.0  -0.0698
  C  C95  1  0.718220  0.369680  0.236080  1.0  -0.1591
  C  C96  1  0.529100  0.507800  0.410400  1.0  -0.1311
  C  C97  1  0.567500  0.466600  0.369200  1.0  -0.1982
  C  C98  1  0.344120  0.108980  0.324580  1.0  -0.1555
  C  C99  1  0.456110  0.090890  0.208890  1.0  -0.1602
  C  C100  1  0.445670  0.052030  0.390830  1.0  0.6967
  C  C101  1  0.376670  0.123230  0.205630  1.0  0.2167
  C  C102  1  0.421450  0.077220  0.326880  1.0  -0.1122
  C  C103  1  0.477550  0.066950  0.269950  1.0  -0.0665
  C  C104  1  0.323980  0.130320  0.263920  1.0  -0.1617
  C  C105  1  0.447300  0.992200  0.089600  1.0  -0.1354
  C  C106  1  0.403300  0.033400  0.130800  1.0  -0.2019
  C  C107  1  0.222320  0.324580  0.108980  1.0  -0.1555
  C  C108  1  0.244110  0.208890  0.090890  1.0  -0.1647
  C  C109  1  0.111470  0.390830  0.052030  1.0  0.6909
  C  C110  1  0.294470  0.205630  0.123230  1.0  0.2146
  C  C111  1  0.174450  0.326880  0.077220  1.0  -0.1137
  C  C112  1  0.185550  0.269950  0.066950  1.0  -0.0691
  C  C113  1  0.281780  0.263920  0.130320  1.0  -0.161
  C  C114  1  0.470900  0.089600  0.992200  1.0  -0.1324
  C  C115  1  0.432500  0.130800  0.033400  1.0  -0.2029
  C  C116  1  0.655880  0.175420  0.391020  1.0  -0.1562
  C  C117  1  0.543890  0.291110  0.409110  1.0  -0.1638
  C  C118  1  0.554330  0.109170  0.447970  1.0  0.6903
  C  C119  1  0.623330  0.294370  0.376770  1.0  0.2143
  C  C120  1  0.578550  0.173120  0.422780  1.0  -0.1127
  C  C121  1  0.522450  0.230050  0.433050  1.0  -0.0677
  C  C122  1  0.676020  0.236080  0.369680  1.0  -0.1612
  C  C123  1  0.552700  0.410400  0.507800  1.0  -0.1344
  C  C124  1  0.596700  0.369200  0.466600  1.0  -0.1998
  C  C125  1  0.478800  0.521200  0.521200  1.0  0.1165
  C  C126  1  0.396700  0.603300  0.603300  1.0  0.2366
  C  C127  1  0.521200  0.978800  0.978800  1.0  0.1159
  C  C128  1  0.603300  0.896700  0.896700  1.0  0.2358
  C  C129  1  0.521200  0.478800  0.478800  1.0  0.1159
  C  C130  1  0.603300  0.396700  0.396700  1.0  0.2358
  C  C131  1  0.478800  0.021200  0.021200  1.0  0.1165
  C  C132  1  0.396700  0.103300  0.103300  1.0  0.2366
  N  N133  1  0.356000  0.644000  0.644000  1.0  -0.1281
  N  N134  1  0.644000  0.856000  0.856000  1.0  -0.1282
  N  N135  1  0.644000  0.356000  0.356000  1.0  -0.1282
  N  N136  1  0.356000  0.144000  0.144000  1.0  -0.1281
  O  O137  1  0.073610  0.517950  0.889450  1.0  -0.6462
  O  O138  1  0.098000  0.566620  0.941420  1.0  -0.5908
  O  O139  1  0.481010  0.982050  0.610550  1.0  -0.6479
  O  O140  1  0.606040  0.933380  0.558580  1.0  -0.5913
  O  O141  1  0.926390  0.610550  0.982050  1.0  -0.6437
  O  O142  1  0.902000  0.558580  0.933380  1.0  -0.5911
  O  O143  1  0.518990  0.889450  0.517950  1.0  -0.6474
  O  O144  1  0.393960  0.941420  0.566620  1.0  -0.5918
  O  O145  1  0.926390  0.482050  0.110550  1.0  -0.6473
  O  O146  1  0.902000  0.433380  0.058580  1.0  -0.5909
  O  O147  1  0.518990  0.017950  0.389450  1.0  -0.6469
  O  O148  1  0.393960  0.066620  0.441420  1.0  -0.5915
  O  O149  1  0.073610  0.389450  0.017950  1.0  -0.6455
  O  O150  1  0.098000  0.441420  0.066620  1.0  -0.5913
  O  O151  1  0.481010  0.110550  0.482050  1.0  -0.6473
  O  O152  1  0.606040  0.058580  0.433380  1.0  -0.591
