# generated using pymatgen
data_MgH4(C4O3)2
_symmetry_space_group_name_H-M   'P 1'
_cell_length_a   9.58560000
_cell_length_b   10.02630000
_cell_length_c   10.02630000
_cell_angle_alpha   107.14400000
_cell_angle_beta   109.33300000
_cell_angle_gamma   70.66710000
_symmetry_Int_Tables_number   1
_chemical_formula_structural   MgH4(C4O3)2
_chemical_formula_sum   'Mg2 H8 C16 O12'
_cell_volume   839.23860819
_cell_formula_units_Z   2
loop_
 _symmetry_equiv_pos_site_id
 _symmetry_equiv_pos_as_xyz
  1  'x, y, z'
loop_
 _atom_site_type_symbol
 _atom_site_label
 _atom_site_symmetry_multiplicity
 _atom_site_fract_x
 _atom_site_fract_y
 _atom_site_fract_z
 _atom_site_occupancy
 _atom_site_charge
  Mg  Mg1  1  0.500000  0.000000  0.000000  1.0  1.6255
  Mg  Mg2  1  0.000000  0.000000  0.000000  1.0  1.6255
  H  H3  1  0.634800  0.866600  0.329600  1.0  0.1288
  H  H4  1  0.152600  0.108400  0.338800  1.0  0.4023
  H  H5  1  0.865200  0.329600  0.866600  1.0  0.1285
  H  H6  1  0.347400  0.338800  0.108400  1.0  0.4036
  H  H7  1  0.365200  0.133400  0.670400  1.0  0.1283
  H  H8  1  0.847400  0.891600  0.661200  1.0  0.4009
  H  H9  1  0.134800  0.670400  0.133400  1.0  0.1276
  H  H10  1  0.652600  0.661200  0.891600  1.0  0.4059
  C  C11  1  0.342800  0.951600  0.195800  1.0  0.8007
  C  C12  1  0.422500  0.977700  0.353300  1.0  -0.2768
  C  C13  1  0.580700  0.919700  0.398300  1.0  -0.1381
  C  C14  1  0.342800  0.060600  0.458000  1.0  0.3341
  C  C15  1  0.157200  0.195800  0.951600  1.0  0.799
  C  C16  1  0.077500  0.353300  0.977700  1.0  -0.2764
  C  C17  1  0.919300  0.398300  0.919700  1.0  -0.1378
  C  C18  1  0.157200  0.458000  0.060600  1.0  0.3339
  C  C19  1  0.657200  0.048400  0.804200  1.0  0.8019
  C  C20  1  0.577500  0.022300  0.646700  1.0  -0.2767
  C  C21  1  0.419300  0.080300  0.601700  1.0  -0.1364
  C  C22  1  0.657200  0.939400  0.542000  1.0  0.3287
  C  C23  1  0.842800  0.804200  0.048400  1.0  0.7992
  C  C24  1  0.922500  0.646700  0.022300  1.0  -0.277
  C  C25  1  0.080700  0.601700  0.080300  1.0  -0.1379
  C  C26  1  0.842800  0.542000  0.939400  1.0  0.3325
  O  O27  1  0.419800  0.902600  0.105000  1.0  -0.7547
  O  O28  1  0.196800  0.980000  0.164200  1.0  -0.7851
  O  O29  1  0.189000  0.125900  0.426500  1.0  -0.5213
  O  O30  1  0.080200  0.105000  0.902600  1.0  -0.7519
  O  O31  1  0.303200  0.164200  0.980000  1.0  -0.784
  O  O32  1  0.311000  0.426500  0.125900  1.0  -0.5226
  O  O33  1  0.580200  0.097400  0.895000  1.0  -0.7578
  O  O34  1  0.803200  0.020000  0.835800  1.0  -0.7864
  O  O35  1  0.811000  0.874100  0.573500  1.0  -0.5229
  O  O36  1  0.919800  0.895000  0.097400  1.0  -0.7535
  O  O37  1  0.696800  0.835800  0.020000  1.0  -0.786
  O  O38  1  0.689000  0.573500  0.874100  1.0  -0.5234
