# generated using pymatgen
data_MgH4(CO)8
_symmetry_space_group_name_H-M   'P 1'
_cell_length_a   16.25200000
_cell_length_b   11.87380000
_cell_length_c   9.55850000
_cell_angle_alpha   90.00000000
_cell_angle_beta   114.58800000
_cell_angle_gamma   90.00000000
_symmetry_Int_Tables_number   1
_chemical_formula_structural   MgH4(CO)8
_chemical_formula_sum   'Mg4 H16 C32 O32'
_cell_volume   1677.27624013
_cell_formula_units_Z   4
loop_
 _symmetry_equiv_pos_site_id
 _symmetry_equiv_pos_as_xyz
  1  'x, y, z'
loop_
 _atom_site_type_symbol
 _atom_site_label
 _atom_site_symmetry_multiplicity
 _atom_site_fract_x
 _atom_site_fract_y
 _atom_site_fract_z
 _atom_site_occupancy
 _atom_site_charge
  Mg  Mg1  1  0.500000  0.500000  0.000000  1.0  1.5285
  Mg  Mg2  1  0.000000  0.000000  0.000000  1.0  1.5285
  Mg  Mg3  1  0.500000  0.500000  0.500000  1.0  1.5285
  Mg  Mg4  1  0.000000  0.000000  0.500000  1.0  1.5285
  H  H5  1  0.381800  0.281500  0.851900  1.0  0.3246
  H  H6  1  0.302900  0.465600  0.360500  1.0  0.3343
  H  H7  1  0.881800  0.781500  0.851900  1.0  0.3246
  H  H8  1  0.802900  0.965600  0.360500  1.0  0.3343
  H  H9  1  0.618200  0.281500  0.648100  1.0  0.3257
  H  H10  1  0.697100  0.465600  0.139500  1.0  0.3345
  H  H11  1  0.118200  0.781500  0.648100  1.0  0.3257
  H  H12  1  0.197100  0.965600  0.139500  1.0  0.3345
  H  H13  1  0.618200  0.718500  0.148100  1.0  0.3253
  H  H14  1  0.697100  0.534400  0.639500  1.0  0.3354
  H  H15  1  0.118200  0.218500  0.148100  1.0  0.3253
  H  H16  1  0.197100  0.034400  0.639500  1.0  0.3354
  H  H17  1  0.381800  0.718500  0.351900  1.0  0.3234
  H  H18  1  0.302900  0.534400  0.860500  1.0  0.3345
  H  H19  1  0.881800  0.218500  0.351900  1.0  0.3234
  H  H20  1  0.802900  0.034400  0.860500  1.0  0.3345
  C  C21  1  0.312370  0.334500  0.576710  1.0  -0.0845
  C  C22  1  0.301470  0.242080  0.659010  1.0  0.2591
  C  C23  1  0.260900  0.341030  0.418070  1.0  0.1457
  C  C24  1  0.378620  0.426360  0.656780  1.0  0.6894
  C  C25  1  0.812370  0.834500  0.576710  1.0  -0.0845
  C  C26  1  0.801470  0.742080  0.659010  1.0  0.2591
  C  C27  1  0.760900  0.841030  0.418070  1.0  0.1457
  C  C28  1  0.878620  0.926360  0.656780  1.0  0.6894
  C  C29  1  0.687630  0.334500  0.923290  1.0  -0.0851
  C  C30  1  0.698530  0.242080  0.840990  1.0  0.259
  C  C31  1  0.739100  0.341030  0.081930  1.0  0.1447
  C  C32  1  0.621380  0.426360  0.843220  1.0  0.6886
  C  C33  1  0.187630  0.834500  0.923290  1.0  -0.0851
  C  C34  1  0.198530  0.742080  0.840990  1.0  0.259
  C  C35  1  0.239100  0.841030  0.081930  1.0  0.1447
  C  C36  1  0.121380  0.926360  0.843220  1.0  0.6886
  C  C37  1  0.687630  0.665500  0.423290  1.0  -0.085
  C  C38  1  0.698530  0.757920  0.340990  1.0  0.2621
  C  C39  1  0.739100  0.658970  0.581930  1.0  0.1451
  C  C40  1  0.621380  0.573640  0.343220  1.0  0.6897
  C  C41  1  0.187630  0.165500  0.423290  1.0  -0.085
  C  C42  1  0.198530  0.257920  0.340990  1.0  0.2621
  C  C43  1  0.239100  0.158970  0.581930  1.0  0.1451
  C  C44  1  0.121380  0.073640  0.343220  1.0  0.6897
  C  C45  1  0.312370  0.665500  0.076710  1.0  -0.0845
  C  C46  1  0.301470  0.757920  0.159010  1.0  0.2616
  C  C47  1  0.260900  0.658970  0.918070  1.0  0.146
  C  C48  1  0.378620  0.573640  0.156780  1.0  0.6904
  C  C49  1  0.812370  0.165500  0.076710  1.0  -0.0845
  C  C50  1  0.801470  0.257920  0.159010  1.0  0.2616
  C  C51  1  0.760900  0.158970  0.918070  1.0  0.146
  C  C52  1  0.878620  0.073640  0.156780  1.0  0.6904
  O  O53  1  0.408910  0.428210  0.801860  1.0  -0.675
  O  O54  1  0.398560  0.496130  0.577510  1.0  -0.6406
  O  O55  1  0.350120  0.224420  0.812280  1.0  -0.5469
  O  O56  1  0.265200  0.415000  0.314600  1.0  -0.5707
  O  O57  1  0.908910  0.928210  0.801860  1.0  -0.675
  O  O58  1  0.898560  0.996130  0.577510  1.0  -0.6406
  O  O59  1  0.850120  0.724420  0.812280  1.0  -0.5469
  O  O60  1  0.765200  0.915000  0.314600  1.0  -0.5707
  O  O61  1  0.591090  0.428210  0.698140  1.0  -0.6769
  O  O62  1  0.601440  0.496130  0.922490  1.0  -0.6406
  O  O63  1  0.649880  0.224420  0.687720  1.0  -0.5462
  O  O64  1  0.734800  0.415000  0.185400  1.0  -0.5746
  O  O65  1  0.091090  0.928210  0.698140  1.0  -0.6769
  O  O66  1  0.101440  0.996130  0.922490  1.0  -0.6406
  O  O67  1  0.149880  0.724420  0.687720  1.0  -0.5462
  O  O68  1  0.234800  0.915000  0.185400  1.0  -0.5746
  O  O69  1  0.591090  0.571790  0.198140  1.0  -0.677
  O  O70  1  0.601440  0.503870  0.422490  1.0  -0.6405
  O  O71  1  0.649880  0.775580  0.187720  1.0  -0.5446
  O  O72  1  0.734800  0.585000  0.685400  1.0  -0.5734
  O  O73  1  0.091090  0.071790  0.198140  1.0  -0.677
  O  O74  1  0.101440  0.003870  0.422490  1.0  -0.6405
  O  O75  1  0.149880  0.275580  0.187720  1.0  -0.5446
  O  O76  1  0.234800  0.085000  0.685400  1.0  -0.5734
  O  O77  1  0.408910  0.571790  0.301860  1.0  -0.6753
  O  O78  1  0.398560  0.503870  0.077510  1.0  -0.6403
  O  O79  1  0.350120  0.775580  0.312280  1.0  -0.5429
  O  O80  1  0.265200  0.585000  0.814600  1.0  -0.5711
  O  O81  1  0.908910  0.071790  0.301860  1.0  -0.6753
  O  O82  1  0.898560  0.003870  0.077510  1.0  -0.6403
  O  O83  1  0.850120  0.275580  0.312280  1.0  -0.5429
  O  O84  1  0.765200  0.085000  0.814600  1.0  -0.5711
