# generated using pymatgen
data_Zn4H18C36O13
_symmetry_space_group_name_H-M   'P 1'
_cell_length_a   17.22370000
_cell_length_b   17.23440000
_cell_length_c   17.29230000
_cell_angle_alpha   90.54800000
_cell_angle_beta   90.00000000
_cell_angle_gamma   90.00000000
_symmetry_Int_Tables_number   1
_chemical_formula_structural   Zn4H18C36O13
_chemical_formula_sum   'Zn16 H72 C144 O52'
_cell_volume   5132.81389302
_cell_formula_units_Z   4
loop_
 _symmetry_equiv_pos_site_id
 _symmetry_equiv_pos_as_xyz
  1  'x, y, z'
loop_
 _atom_site_type_symbol
 _atom_site_label
 _atom_site_symmetry_multiplicity
 _atom_site_fract_x
 _atom_site_fract_y
 _atom_site_fract_z
 _atom_site_occupancy
 _atom_site_charge
  Zn  Zn1  1  0.431910  0.110100  0.075500  1.0  1.0877
  Zn  Zn2  1  0.585550  0.172950  0.983800  1.0  1.1056
  Zn  Zn3  1  0.424210  0.262460  0.978980  1.0  1.0508
  Zn  Zn4  1  0.517990  0.260470  0.134030  1.0  1.0764
  Zn  Zn5  1  0.436600  0.601130  0.413200  1.0  1.0955
  Zn  Zn6  1  0.348170  0.757070  0.344340  1.0  1.0947
  Zn  Zn7  1  0.789130  0.328450  0.506580  1.0  1.0473
  Zn  Zn8  1  0.444600  0.766990  0.498060  1.0  1.0659
  Zn  Zn9  1  0.931910  0.889900  0.924500  1.0  1.0879
  Zn  Zn10  1  0.085550  0.827050  0.016200  1.0  1.1065
  Zn  Zn11  1  0.924210  0.737540  0.021020  1.0  1.0503
  Zn  Zn12  1  0.017990  0.739530  0.865970  1.0  1.0751
  Zn  Zn13  1  0.936600  0.398870  0.586800  1.0  1.0973
  Zn  Zn14  1  0.848170  0.242930  0.655660  1.0  1.0943
  Zn  Zn15  1  0.289130  0.671550  0.493420  1.0  1.0478
  Zn  Zn16  1  0.944600  0.233010  0.501940  1.0  1.066
  H  H17  1  0.693400  0.972900  0.976700  1.0  0.1142
  H  H18  1  0.743400  0.750600  0.126600  1.0  0.1136
  H  H19  1  0.679300  0.689400  0.220700  1.0  0.1188
  H  H20  1  0.559100  0.714800  0.263700  1.0  0.1032
  H  H21  1  0.482900  0.807700  0.234600  1.0  0.0961
  H  H22  1  0.497200  0.902800  0.153600  1.0  0.1111
  H  H23  1  0.631900  0.207400  0.763200  1.0  0.1044
  H  H24  1  0.561800  0.328300  0.528500  1.0  0.1029
  H  H25  1  0.454100  0.381400  0.486800  1.0  0.1104
  H  H26  1  0.344700  0.397900  0.546100  1.0  0.0882
  H  H27  1  0.306500  0.355900  0.656000  1.0  0.1066
  H  H28  1  0.373600  0.296600  0.744900  1.0  0.1104
  H  H29  1  0.712000  0.266600  0.278100  1.0  0.116
  H  H30  1  0.935800  0.114100  0.313500  1.0  0.1152
  H  H31  1  0.993400  0.024400  0.243600  1.0  0.1153
  H  H32  1  0.966100  0.982400  0.128600  1.0  0.103
  H  H33  1  0.876600  0.017900  0.051000  1.0  0.0999
  H  H34  1  0.778000  0.099100  0.073400  1.0  0.106
  H  H35  1  0.399300  0.998300  0.270600  1.0  0.1086
  H  H36  1  0.554600  0.950500  0.487000  1.0  0.1077
  H  H37  1  0.649500  0.010400  0.545900  1.0  0.1155
  H  H38  1  0.695100  0.129200  0.522400  1.0  0.1084
  H  H39  1  0.660400  0.208200  0.428800  1.0  0.0978
  H  H40  1  0.569400  0.196300  0.344800  1.0  0.1108
  H  H41  1  0.453500  0.491200  0.215100  1.0  0.1049
  H  H42  1  0.375900  0.477400  0.954600  1.0  0.1149
  H  H43  1  0.332300  0.562000  0.869800  1.0  0.1163
  H  H44  1  0.287000  0.681900  0.892600  1.0  0.0929
  H  H45  1  0.302800  0.750300  0.995500  1.0  0.0936
  H  H46  1  0.341100  0.719500  0.110100  1.0  0.1116
  H  H47  1  0.658700  0.545600  0.475200  1.0  0.105
  H  H48  1  0.838800  0.572800  0.678100  1.0  0.1099
  H  H49  1  0.862400  0.663900  0.764800  1.0  0.1078
  H  H50  1  0.805400  0.777500  0.779900  1.0  0.1124
  H  H51  1  0.708300  0.827100  0.714700  1.0  0.1174
  H  H52  1  0.644500  0.776600  0.619000  1.0  0.108
  H  H53  1  0.193400  0.027100  0.023300  1.0  0.1137
  H  H54  1  0.243400  0.249400  0.873400  1.0  0.1133
  H  H55  1  0.179300  0.310600  0.779300  1.0  0.119
  H  H56  1  0.059100  0.285200  0.736300  1.0  0.1033
  H  H57  1  0.982900  0.192300  0.765400  1.0  0.0955
  H  H58  1  0.997200  0.097200  0.846400  1.0  0.1109
  H  H59  1  0.131900  0.792600  0.236800  1.0  0.1041
  H  H60  1  0.061800  0.671700  0.471500  1.0  0.1043
  H  H61  1  0.954100  0.618600  0.513200  1.0  0.1105
  H  H62  1  0.844700  0.602100  0.453900  1.0  0.0879
  H  H63  1  0.806500  0.644100  0.344000  1.0  0.1066
  H  H64  1  0.873600  0.703400  0.255100  1.0  0.1106
  H  H65  1  0.212000  0.733400  0.721900  1.0  0.1157
  H  H66  1  0.435800  0.885900  0.686500  1.0  0.1158
  H  H67  1  0.493400  0.975600  0.756400  1.0  0.1143
  H  H68  1  0.466100  0.017600  0.871400  1.0  0.103
  H  H69  1  0.376600  0.982100  0.949000  1.0  0.0987
  H  H70  1  0.278000  0.900900  0.926600  1.0  0.1059
  H  H71  1  0.899300  0.001700  0.729400  1.0  0.1085
  H  H72  1  0.054600  0.049500  0.513000  1.0  0.1076
  H  H73  1  0.149500  0.989600  0.454100  1.0  0.1157
  H  H74  1  0.195100  0.870800  0.477600  1.0  0.1074
  H  H75  1  0.160400  0.791800  0.571200  1.0  0.0981
  H  H76  1  0.069400  0.803700  0.655200  1.0  0.1105
  H  H77  1  0.953500  0.508800  0.784900  1.0  0.1055
  H  H78  1  0.875900  0.522600  0.045400  1.0  0.115
  H  H79  1  0.832300  0.438000  0.130200  1.0  0.1179
  H  H80  1  0.787000  0.318100  0.107400  1.0  0.0929
  H  H81  1  0.802800  0.249700  0.004500  1.0  0.0927
  H  H82  1  0.841100  0.280500  0.889900  1.0  0.1111
  H  H83  1  0.158700  0.454400  0.524800  1.0  0.1049
  H  H84  1  0.338800  0.427200  0.321900  1.0  0.1102
  H  H85  1  0.362400  0.336100  0.235200  1.0  0.1083
  H  H86  1  0.305400  0.222500  0.220100  1.0  0.112
  H  H87  1  0.208300  0.172900  0.285300  1.0  0.1177
  H  H88  1  0.144500  0.223400  0.381000  1.0  0.1074
  C  C89  1  0.549500  0.005600  0.037200  1.0  0.6912
  C  C90  1  0.604400  0.943500  0.051400  1.0  -0.2589
  C  C91  1  0.675400  0.938100  0.013400  1.0  0.0154
  C  C92  1  0.716100  0.871600  0.038700  1.0  -0.2672
  C  C93  1  0.670500  0.835400  0.095600  1.0  0.0773
  C  C94  1  0.598200  0.880600  0.104300  1.0  0.0685
  C  C95  1  0.694500  0.770300  0.138700  1.0  -0.0743
  C  C96  1  0.653900  0.731000  0.198000  1.0  -0.1182
  C  C97  1  0.578000  0.748700  0.226600  1.0  -0.023
  C  C98  1  0.529700  0.807300  0.207700  1.0  -0.0761
  C  C99  1  0.537800  0.867200  0.154900  1.0  -0.0406
  C  C100  1  0.793300  0.848600  0.008400  1.0  0.7393
  C  C101  1  0.493900  0.230000  0.838900  1.0  0.6953
  C  C102  1  0.518800  0.246800  0.758400  1.0  -0.2431
  C  C103  1  0.594300  0.232300  0.734000  1.0  0.0295
  C  C104  1  0.606100  0.260500  0.659200  1.0  -0.244
  C  C105  1  0.535400  0.295500  0.633900  1.0  0.0558
  C  C106  1  0.480000  0.285000  0.699800  1.0  0.0725
  C  C107  1  0.520500  0.328500  0.563200  1.0  -0.0377
  C  C108  1  0.452100  0.362000  0.536700  1.0  -0.111
  C  C109  1  0.381900  0.370700  0.573800  1.0  -0.0154
  C  C110  1  0.358200  0.346200  0.643900  1.0  -0.0943
  C  C111  1  0.400900  0.308400  0.700200  1.0  -0.0478
  C  C112  1  0.681200  0.259100  0.620700  1.0  0.7059
  C  C113  1  0.670400  0.207900  0.134800  1.0  0.6936
  C  C114  1  0.738500  0.192900  0.185800  1.0  -0.2393
  C  C115  1  0.746100  0.229600  0.258100  1.0  0.0112
  C  C116  1  0.812100  0.202800  0.295600  1.0  -0.2689
  C  C117  1  0.847900  0.147300  0.247100  1.0  0.0811
  C  C118  1  0.800400  0.141300  0.176600  1.0  0.0689
  C  C119  1  0.913700  0.104000  0.265300  1.0  -0.0632
  C  C120  1  0.950500  0.047500  0.220600  1.0  -0.0964
  C  C121  1  0.933100  0.020800  0.147600  1.0  -0.0234
  C  C122  1  0.875900  0.041500  0.099500  1.0  -0.0799
  C  C123  1  0.814100  0.095000  0.113200  1.0  -0.0524
  C  C124  1  0.832400  0.230100  0.373700  1.0  0.7193
  C  C125  1  0.456900  0.142100  0.235500  1.0  0.7074
  C  C126  1  0.472000  0.087200  0.300100  1.0  -0.2671
  C  C127  1  0.437500  0.015800  0.304600  1.0  0.0301
  C  C128  1  0.465800  0.973000  0.364900  1.0  -0.2154
  C  C129  1  0.521000  0.018200  0.403900  1.0  0.0771
  C  C130  1  0.527700  0.091600  0.359700  1.0  0.0801
  C  C131  1  0.566400  0.998800  0.466500  1.0  -0.0424
  C  C132  1  0.626400  0.037000  0.505400  1.0  -0.1117
  C  C133  1  0.655900  0.111400  0.489900  1.0  -0.0562
  C  C134  1  0.632900  0.161900  0.430900  1.0  -0.0886
  C  C135  1  0.576400  0.153300  0.376300  1.0  -0.0619
  C  C136  1  0.439100  0.895300  0.384400  1.0  0.7194
  C  C137  1  0.436000  0.399000  0.083900  1.0  0.7204
  C  C138  1  0.417700  0.481300  0.101100  1.0  -0.2652
  C  C139  1  0.430700  0.516100  0.173400  1.0  0.0231
  C  C140  1  0.405400  0.592300  0.174500  1.0  -0.2446
  C  C141  1  0.405900  0.642000  0.243500  1.0  0.7161
  C  C142  1  0.386100  0.537200  0.051400  1.0  0.0845
  C  C143  1  0.367100  0.527000  0.974200  1.0  -0.0503
  C  C144  1  0.336500  0.580100  0.920500  1.0  -0.1109
  C  C145  1  0.311200  0.657300  0.933700  1.0  -0.0146
  C  C146  1  0.318600  0.698900  0.999900  1.0  -0.1077
  C  C147  1  0.344700  0.680500  0.072700  1.0  -0.0445
  C  C148  1  0.376300  0.609400  0.097000  1.0  0.0564
  C  C149  1  0.577400  0.682400  0.500100  1.0  0.6927
  C  C150  1  0.649500  0.645700  0.536400  1.0  -0.2192
  C  C151  1  0.677800  0.575800  0.515800  1.0  0.0353
  C  C152  1  0.740000  0.554200  0.563400  1.0  -0.2413
  C  C153  1  0.750300  0.612400  0.618000  1.0  0.0717
  C  C154  1  0.692200  0.673600  0.600600  1.0  0.0621
  C  C155  1  0.806600  0.615900  0.675500  1.0  -0.0441
  C  C156  1  0.822300  0.674400  0.730400  1.0  -0.0886
  C  C157  1  0.785700  0.746400  0.740200  1.0  -0.0142
  C  C158  1  0.724200  0.777900  0.699100  1.0  -0.0931
  C  C159  1  0.684000  0.745500  0.638400  1.0  -0.0539
  C  C160  1  0.781900  0.481000  0.556600  1.0  0.6948
  C  C161  1  0.049500  0.994400  0.962800  1.0  0.6922
  C  C162  1  0.104400  0.056500  0.948600  1.0  -0.2586
  C  C163  1  0.175400  0.061900  0.986600  1.0  0.0155
  C  C164  1  0.216100  0.128400  0.961300  1.0  -0.2651
  C  C165  1  0.170500  0.164600  0.904400  1.0  0.0773
  C  C166  1  0.098200  0.119400  0.895700  1.0  0.0684
  C  C167  1  0.194500  0.229700  0.861300  1.0  -0.0725
  C  C168  1  0.153900  0.269000  0.802000  1.0  -0.1193
  C  C169  1  0.078000  0.251300  0.773400  1.0  -0.0239
  C  C170  1  0.029700  0.192700  0.792300  1.0  -0.0759
  C  C171  1  0.037800  0.132800  0.845100  1.0  -0.0406
  C  C172  1  0.293300  0.151400  0.991600  1.0  0.7384
  C  C173  1  0.993900  0.770000  0.161100  1.0  0.6955
  C  C174  1  0.018800  0.753200  0.241600  1.0  -0.2421
  C  C175  1  0.094300  0.767700  0.266000  1.0  0.0292
  C  C176  1  0.106100  0.739500  0.340800  1.0  -0.2428
  C  C177  1  0.035400  0.704500  0.366100  1.0  0.0556
  C  C178  1  0.980000  0.715000  0.300200  1.0  0.0722
  C  C179  1  0.020500  0.671500  0.436800  1.0  -0.0372
  C  C180  1  0.952100  0.638000  0.463300  1.0  -0.1119
  C  C181  1  0.881900  0.629300  0.426200  1.0  -0.0151
  C  C182  1  0.858200  0.653800  0.356100  1.0  -0.094
  C  C183  1  0.900900  0.691600  0.299800  1.0  -0.0481
  C  C184  1  0.181200  0.740900  0.379300  1.0  0.7058
  C  C185  1  0.170400  0.792100  0.865200  1.0  0.6939
  C  C186  1  0.238500  0.807100  0.814200  1.0  -0.2391
  C  C187  1  0.246100  0.770400  0.741900  1.0  0.0129
  C  C188  1  0.312100  0.797200  0.704400  1.0  -0.2692
  C  C189  1  0.347900  0.852700  0.752900  1.0  0.0814
  C  C190  1  0.300400  0.858700  0.823400  1.0  0.0688
  C  C191  1  0.413700  0.896000  0.734700  1.0  -0.0648
  C  C192  1  0.450500  0.952500  0.779400  1.0  -0.0971
  C  C193  1  0.433100  0.979200  0.852400  1.0  -0.0229
  C  C194  1  0.375900  0.958500  0.900500  1.0  -0.0784
  C  C195  1  0.314100  0.905000  0.886800  1.0  -0.0524
  C  C196  1  0.332400  0.769900  0.626300  1.0  0.7187
  C  C197  1  0.956900  0.857900  0.764500  1.0  0.7072
  C  C198  1  0.972000  0.912800  0.699900  1.0  -0.2674
  C  C199  1  0.937500  0.984200  0.695400  1.0  0.0306
  C  C200  1  0.965800  0.027000  0.635100  1.0  -0.2207
  C  C201  1  0.021000  0.981800  0.596100  1.0  0.0761
  C  C202  1  0.027700  0.908400  0.640300  1.0  0.0796
  C  C203  1  0.066400  0.001200  0.533500  1.0  -0.0436
  C  C204  1  0.126400  0.963000  0.494600  1.0  -0.1141
  C  C205  1  0.155900  0.888600  0.510100  1.0  -0.0649
  C  C206  1  0.132900  0.838100  0.569100  1.0  -0.0877
  C  C207  1  0.076400  0.846700  0.623700  1.0  -0.0611
  C  C208  1  0.939100  0.104700  0.615600  1.0  0.7196
  C  C209  1  0.936000  0.601000  0.916100  1.0  0.7201
  C  C210  1  0.917700  0.518700  0.898900  1.0  -0.2653
  C  C211  1  0.930700  0.483900  0.826600  1.0  0.0231
  C  C212  1  0.905400  0.407700  0.825500  1.0  -0.2436
  C  C213  1  0.905900  0.358000  0.756500  1.0  0.7155
  C  C214  1  0.886100  0.462800  0.948600  1.0  0.0831
  C  C215  1  0.867100  0.473000  0.025800  1.0  -0.0516
  C  C216  1  0.836500  0.419900  0.079500  1.0  -0.1105
  C  C217  1  0.811200  0.342700  0.066300  1.0  -0.014
  C  C218  1  0.818600  0.301100  0.000100  1.0  -0.1074
  C  C219  1  0.844700  0.319500  0.927300  1.0  -0.0454
  C  C220  1  0.876300  0.390600  0.903000  1.0  0.0562
  C  C221  1  0.077400  0.317600  0.499900  1.0  0.6935
  C  C222  1  0.149500  0.354300  0.463600  1.0  -0.2149
  C  C223  1  0.177800  0.424200  0.484200  1.0  0.035
  C  C224  1  0.240000  0.445800  0.436600  1.0  -0.2461
  C  C225  1  0.250300  0.387600  0.382000  1.0  0.0709
  C  C226  1  0.192200  0.326400  0.399400  1.0  0.0616
  C  C227  1  0.306600  0.384100  0.324500  1.0  -0.0466
  C  C228  1  0.322300  0.325600  0.269600  1.0  -0.089
  C  C229  1  0.285700  0.253600  0.259800  1.0  -0.0146
  C  C230  1  0.224200  0.222100  0.300900  1.0  -0.0927
  C  C231  1  0.184000  0.254500  0.361600  1.0  -0.0546
  C  C232  1  0.281900  0.519000  0.443400  1.0  0.6942
  O  O233  1  0.488600  0.199800  0.045000  1.0  -1.2154
  O  O234  1  0.489200  0.012600  0.080800  1.0  -0.6027
  O  O235  1  0.565300  0.053100  0.984300  1.0  -0.6429
  O  O236  1  0.829600  0.901200  0.972300  1.0  -0.6098
  O  O237  1  0.818200  0.781400  0.019300  1.0  -0.6099
  O  O238  1  0.524600  0.176500  0.874500  1.0  -0.6075
  O  O239  1  0.441400  0.276600  0.868300  1.0  -0.5995
  O  O240  1  0.736400  0.224600  0.658700  1.0  -0.6345
  O  O241  1  0.691200  0.292800  0.558200  1.0  -0.5995
  O  O242  1  0.657400  0.163000  0.079300  1.0  -0.5923
  O  O243  1  0.629300  0.267400  0.154000  1.0  -0.5876
  O  O244  1  0.891100  0.200800  0.406400  1.0  -0.6022
  O  O245  1  0.789300  0.282300  0.403200  1.0  -0.6152
  O  O246  1  0.495400  0.204500  0.230700  1.0  -0.6106
  O  O247  1  0.407200  0.120900  0.186900  1.0  -0.6283
  O  O248  1  0.464100  0.865300  0.446800  1.0  -0.6158
  O  O249  1  0.391800  0.862200  0.338300  1.0  -0.6146
  O  O250  1  0.473100  0.364000  0.136300  1.0  -0.613
  O  O251  1  0.413900  0.369200  0.020800  1.0  -0.6026
  O  O252  1  0.450200  0.622800  0.296300  1.0  -0.6311
  O  O253  1  0.362000  0.702400  0.244200  1.0  -0.6068
  O  O254  1  0.379700  0.701600  0.435000  1.0  -1.2166
  O  O255  1  0.544000  0.737100  0.538400  1.0  -0.5728
  O  O256  1  0.552200  0.652000  0.438500  1.0  -0.6334
  O  O257  1  0.834500  0.463200  0.604100  1.0  -0.6064
  O  O258  1  0.759000  0.437000  0.501700  1.0  -0.6068
  O  O259  1  0.988600  0.800200  0.955000  1.0  -1.2152
  O  O260  1  0.989200  0.987400  0.919200  1.0  -0.6028
  O  O261  1  0.065300  0.946900  0.015700  1.0  -0.645
  O  O262  1  0.329600  0.098800  0.027700  1.0  -0.6092
  O  O263  1  0.318200  0.218600  0.980700  1.0  -0.61
  O  O264  1  0.024600  0.823500  0.125500  1.0  -0.6072
  O  O265  1  0.941400  0.723400  0.131700  1.0  -0.6007
  O  O266  1  0.236400  0.775400  0.341300  1.0  -0.6347
  O  O267  1  0.191200  0.707200  0.441800  1.0  -0.5992
  O  O268  1  0.157400  0.837000  0.920700  1.0  -0.592
  O  O269  1  0.129300  0.732600  0.846000  1.0  -0.5919
  O  O270  1  0.391100  0.799200  0.593600  1.0  -0.6022
  O  O271  1  0.289300  0.717700  0.596800  1.0  -0.6119
  O  O272  1  0.995400  0.795500  0.769300  1.0  -0.6101
  O  O273  1  0.907200  0.879100  0.813100  1.0  -0.6284
  O  O274  1  0.964100  0.134700  0.553200  1.0  -0.6147
  O  O275  1  0.891800  0.137800  0.661700  1.0  -0.6129
  O  O276  1  0.973100  0.636000  0.863700  1.0  -0.6134
  O  O277  1  0.913900  0.630800  0.979200  1.0  -0.6037
  O  O278  1  0.950200  0.377200  0.703700  1.0  -0.6309
  O  O279  1  0.862000  0.297600  0.755800  1.0  -0.6062
  O  O280  1  0.879700  0.298400  0.565000  1.0  -1.2168
  O  O281  1  0.044000  0.262900  0.461600  1.0  -0.5729
  O  O282  1  0.052200  0.348000  0.561500  1.0  -0.634
  O  O283  1  0.334500  0.536800  0.395900  1.0  -0.6047
  O  O284  1  0.259000  0.563000  0.498300  1.0  -0.6063
