# generated using pymatgen
data_Fe2PHC3O10
_symmetry_space_group_name_H-M   'P 1'
_cell_length_a   7.59430000
_cell_length_b   7.81720000
_cell_length_c   18.31800000
_cell_angle_alpha   90.00000000
_cell_angle_beta   99.11100000
_cell_angle_gamma   90.00000000
_symmetry_Int_Tables_number   1
_chemical_formula_structural   Fe2PHC3O10
_chemical_formula_sum   'Fe8 P4 H4 C12 O40'
_cell_volume   1073.74921544
_cell_formula_units_Z   4
loop_
 _symmetry_equiv_pos_site_id
 _symmetry_equiv_pos_as_xyz
  1  'x, y, z'
loop_
 _atom_site_type_symbol
 _atom_site_label
 _atom_site_symmetry_multiplicity
 _atom_site_fract_x
 _atom_site_fract_y
 _atom_site_fract_z
 _atom_site_occupancy
 _atom_site_charge
  Fe  Fe1  1  0.364750  0.215600  0.383590  1.0  1.1066
  Fe  Fe2  1  0.712300  0.958350  0.439970  1.0  1.0
  Fe  Fe3  1  0.628260  0.087350  0.115490  1.0  1.0922
  Fe  Fe4  1  0.279200  0.349400  0.058190  1.0  0.9988
  Fe  Fe5  1  0.635250  0.715600  0.616410  1.0  1.1059
  Fe  Fe6  1  0.287700  0.458350  0.560030  1.0  1.001
  Fe  Fe7  1  0.371740  0.587350  0.884510  1.0  1.0942
  Fe  Fe8  1  0.720800  0.849400  0.941810  1.0  0.9985
  P  P9  1  0.449700  0.728500  0.055370  1.0  1.8167
  P  P10  1  0.558600  0.575200  0.445580  1.0  1.7385
  P  P11  1  0.550300  0.228500  0.944630  1.0  1.8155
  P  P12  1  0.441400  0.075200  0.554420  1.0  1.7389
  H  H13  1  0.273600  0.917400  0.024800  1.0  0.4835
  H  H14  1  0.749600  0.400400  0.475100  1.0  0.4581
  H  H15  1  0.726400  0.417400  0.975200  1.0  0.4839
  H  H16  1  0.250400  0.900400  0.524900  1.0  0.4574
  C  C17  1  0.940500  0.290500  0.103100  1.0  0.6816
  C  C18  1  0.971800  0.131800  0.055400  1.0  0.6606
  C  C19  1  0.023200  0.176900  0.441600  1.0  0.6628
  C  C20  1  0.052700  0.014700  0.396000  1.0  0.6574
  C  C21  1  0.413400  0.198000  0.227400  1.0  0.6555
  C  C22  1  0.577800  0.101900  0.272100  1.0  0.6276
  C  C23  1  0.059500  0.790500  0.896900  1.0  0.6829
  C  C24  1  0.028200  0.631800  0.944600  1.0  0.6606
  C  C25  1  0.976800  0.676900  0.558400  1.0  0.6641
  C  C26  1  0.947300  0.514700  0.604000  1.0  0.6596
  C  C27  1  0.586600  0.698000  0.772600  1.0  0.6566
  C  C28  1  0.422200  0.601900  0.727900  1.0  0.6273
  O  O29  1  0.431300  0.461500  0.393800  1.0  -0.7653
  O  O30  1  0.188300  0.007300  0.364900  1.0  -0.5227
  O  O31  1  0.576900  0.096400  0.340300  1.0  -0.5712
  O  O32  1  0.496500  0.589900  0.520700  1.0  -0.843
  O  O33  1  0.301400  0.259500  0.261400  1.0  -0.5216
  O  O34  1  0.138600  0.290900  0.445600  1.0  -0.5804
  O  O35  1  0.576200  0.746300  0.410900  1.0  -0.7395
  O  O36  1  0.942100  0.896000  0.395700  1.0  -0.5281
  O  O37  1  0.879000  0.177800  0.467400  1.0  -0.5442
  O  O38  1  0.581900  0.835000  0.107500  1.0  -0.7529
  O  O39  1  0.803900  0.287400  0.133900  1.0  -0.5552
  O  O40  1  0.409500  0.201000  0.157200  1.0  -0.5946
  O  O41  1  0.515200  0.707100  0.981300  1.0  -0.8288
  O  O42  1  0.689800  0.042000  0.236700  1.0  -0.5322
  O  O43  1  0.855800  0.015700  0.049700  1.0  -0.6259
  O  O44  1  0.414800  0.557200  0.089200  1.0  -0.7545
  O  O45  1  0.052300  0.405200  0.108800  1.0  -0.5116
  O  O46  1  0.110200  0.137800  0.026600  1.0  -0.5537
  O  O47  1  0.262900  0.823100  0.043100  1.0  -0.6657
  O  O48  1  0.751400  0.495200  0.456100  1.0  -0.6483
  O  O49  1  0.568700  0.961500  0.606200  1.0  -0.763
  O  O50  1  0.811700  0.507300  0.635100  1.0  -0.5224
  O  O51  1  0.423100  0.596400  0.659700  1.0  -0.5707
  O  O52  1  0.503500  0.089900  0.479300  1.0  -0.8436
  O  O53  1  0.698600  0.759500  0.738600  1.0  -0.5212
  O  O54  1  0.861400  0.790900  0.554400  1.0  -0.5816
  O  O55  1  0.423800  0.246300  0.589100  1.0  -0.7403
  O  O56  1  0.057900  0.396000  0.604300  1.0  -0.5298
  O  O57  1  0.121000  0.677800  0.532600  1.0  -0.5462
  O  O58  1  0.418100  0.335000  0.892500  1.0  -0.754
  O  O59  1  0.196100  0.787400  0.866100  1.0  -0.5555
  O  O60  1  0.590500  0.701000  0.842800  1.0  -0.5957
  O  O61  1  0.484800  0.207100  0.018700  1.0  -0.8288
  O  O62  1  0.310200  0.542000  0.763300  1.0  -0.5323
  O  O63  1  0.144200  0.515700  0.950300  1.0  -0.6269
  O  O64  1  0.585200  0.057200  0.910800  1.0  -0.756
  O  O65  1  0.947700  0.905200  0.891200  1.0  -0.5132
  O  O66  1  0.889800  0.637800  0.973400  1.0  -0.552
  O  O67  1  0.737100  0.323100  0.956900  1.0  -0.6649
  O  O68  1  0.248600  0.995200  0.543900  1.0  -0.6487
