# generated using pymatgen
data_Co3H34C44(N5O4)2
_symmetry_space_group_name_H-M   'P 1'
_cell_length_a   11.54320000
_cell_length_b   11.67230000
_cell_length_c   11.84140000
_cell_angle_alpha   65.44000000
_cell_angle_beta   78.96800000
_cell_angle_gamma   72.17500000
_symmetry_Int_Tables_number   1
_chemical_formula_structural   Co3H34C44(N5O4)2
_chemical_formula_sum   'Co3 H34 C44 N10 O8'
_cell_volume   1377.65967293
_cell_formula_units_Z   1
loop_
 _symmetry_equiv_pos_site_id
 _symmetry_equiv_pos_as_xyz
  1  'x, y, z'
loop_
 _atom_site_type_symbol
 _atom_site_label
 _atom_site_symmetry_multiplicity
 _atom_site_fract_x
 _atom_site_fract_y
 _atom_site_fract_z
 _atom_site_occupancy
 _atom_site_charge
  Co  Co1  1  0.500000  0.500000  0.500000  1.0  0.6317
  Co  Co2  1  0.500000  0.500000  0.000000  1.0  1.0677
  Co  Co3  1  0.500000  0.000000  0.000000  1.0  0.5341
  H  H4  1  0.470000  0.941700  0.312300  1.0  0.1091
  H  H5  1  0.458600  0.820300  0.434500  1.0  0.0946
  H  H6  1  0.275900  0.983300  0.410900  1.0  0.1233
  H  H7  1  0.252400  0.860000  0.406300  1.0  0.1274
  H  H8  1  0.263500  0.980200  0.282700  1.0  0.1107
  H  H9  1  0.762500  0.329400  0.502800  1.0  0.109
  H  H10  1  0.962900  0.318100  0.513600  1.0  0.1224
  H  H11  1  0.855200  0.679200  0.496100  1.0  0.1246
  H  H12  1  0.661300  0.677900  0.488100  1.0  0.0653
  H  H13  1  0.693400  0.838900  0.208600  1.0  0.066
  H  H14  1  0.897000  0.744600  0.222200  1.0  0.1053
  H  H15  1  0.949200  0.959600  0.863700  1.0  0.1266
  H  H16  1  0.744200  0.053300  0.865000  1.0  0.1053
  H  H17  1  0.077100  0.614100  0.207800  1.0  0.1057
  H  H18  1  0.273700  0.501700  0.192500  1.0  0.0797
  H  H19  1  0.334600  0.773000  0.875800  1.0  0.082
  H  H20  1  0.138200  0.892900  0.882600  1.0  0.121
  H  H21  1  0.530000  0.058300  0.687700  1.0  0.1111
  H  H22  1  0.541400  0.179700  0.565500  1.0  0.0944
  H  H23  1  0.724100  0.016700  0.589100  1.0  0.1217
  H  H24  1  0.747600  0.140000  0.593700  1.0  0.127
  H  H25  1  0.736500  0.019800  0.717300  1.0  0.112
  H  H26  1  0.237500  0.670600  0.497200  1.0  0.1103
  H  H27  1  0.037100  0.681900  0.486400  1.0  0.1227
  H  H28  1  0.144800  0.320800  0.503900  1.0  0.1243
  H  H29  1  0.338700  0.322100  0.511900  1.0  0.0646
  H  H30  1  0.306600  0.161100  0.791400  1.0  0.0655
  H  H31  1  0.103000  0.255400  0.777800  1.0  0.1055
  H  H32  1  0.050800  0.040400  0.136300  1.0  0.1274
  H  H33  1  0.255800  0.946700  0.135000  1.0  0.1062
  H  H34  1  0.922900  0.385900  0.792200  1.0  0.1066
  H  H35  1  0.726300  0.498300  0.807500  1.0  0.0796
  H  H36  1  0.665400  0.227000  0.124200  1.0  0.0822
  H  H37  1  0.861800  0.107100  0.117400  1.0  0.1215
  C  C38  1  0.534700  0.473800  0.262500  1.0  0.68
  C  C39  1  0.511900  0.615800  0.231700  1.0  -0.0352
  C  C40  1  0.514000  0.724400  0.121900  1.0  -0.0267
  C  C41  1  0.548900  0.745400  0.989100  1.0  0.675
  C  C42  1  0.464200  0.786500  0.277400  1.0  0.3765
  C  C43  1  0.429600  0.871400  0.352000  1.0  -0.2365
  C  C44  1  0.292700  0.929100  0.364100  1.0  -0.3008
  C  C45  1  0.781100  0.401800  0.502100  1.0  0.1877
  C  C46  1  0.903300  0.395000  0.506200  1.0  -0.2051
  C  C47  1  0.935100  0.501700  0.499200  1.0  0.0801
  C  C48  1  0.840500  0.605100  0.496200  1.0  -0.2156
  C  C49  1  0.722700  0.602900  0.493300  1.0  0.1905
  C  C50  1  0.745100  0.862700  0.136900  1.0  0.178
  C  C51  1  0.868500  0.804800  0.145700  1.0  -0.199
  C  C52  1  0.949800  0.834600  0.043300  1.0  0.064
  C  C53  1  0.899600  0.931300  0.936100  1.0  -0.2248
  C  C54  1  0.774700  0.985900  0.937400  1.0  0.1552
  C  C55  1  0.081400  0.766300  0.043800  1.0  0.074
  C  C56  1  0.127500  0.647800  0.137800  1.0  -0.1787
  C  C57  1  0.245900  0.580800  0.128100  1.0  0.1843
  C  C58  1  0.281400  0.739300  0.942900  1.0  0.1776
  C  C59  1  0.163000  0.812300  0.946300  1.0  -0.213
  C  C60  1  0.465300  0.526200  0.737500  1.0  0.681
  C  C61  1  0.488100  0.384200  0.768300  1.0  -0.0353
  C  C62  1  0.486000  0.275600  0.878100  1.0  -0.0271
  C  C63  1  0.451100  0.254600  0.010900  1.0  0.6745
  C  C64  1  0.535800  0.213500  0.722600  1.0  0.3775
  C  C65  1  0.570400  0.128600  0.648000  1.0  -0.2364
  C  C66  1  0.707300  0.070900  0.635900  1.0  -0.3003
  C  C67  1  0.218900  0.598200  0.497900  1.0  0.1872
  C  C68  1  0.096700  0.605000  0.493800  1.0  -0.207
  C  C69  1  0.064900  0.498300  0.500800  1.0  0.0801
  C  C70  1  0.159500  0.394900  0.503800  1.0  -0.2155
  C  C71  1  0.277300  0.397100  0.506700  1.0  0.1903
  C  C72  1  0.254900  0.137300  0.863100  1.0  0.1777
  C  C73  1  0.131500  0.195200  0.854300  1.0  -0.1997
  C  C74  1  0.050200  0.165400  0.956700  1.0  0.0653
  C  C75  1  0.100400  0.068700  0.063900  1.0  -0.2245
  C  C76  1  0.225300  0.014100  0.062600  1.0  0.1553
  C  C77  1  0.918600  0.233700  0.956200  1.0  0.0746
  C  C78  1  0.872500  0.352200  0.862200  1.0  -0.1803
  C  C79  1  0.754100  0.419200  0.871900  1.0  0.1834
  C  C80  1  0.718600  0.260700  0.057100  1.0  0.1783
  C  C81  1  0.837000  0.187700  0.053700  1.0  -0.2133
  N  N82  1  0.480900  0.657100  0.328800  1.0  -0.4339
  N  N83  1  0.483500  0.830300  0.152800  1.0  -0.3595
  N  N84  1  0.691200  0.504200  0.497300  1.0  -0.3145
  N  N85  1  0.696000  0.949700  0.033300  1.0  -0.3011
  N  N86  1  0.324500  0.622600  0.030800  1.0  -0.3157
  N  N87  1  0.519100  0.342900  0.671200  1.0  -0.436
  N  N88  1  0.516500  0.169700  0.847200  1.0  -0.3589
  N  N89  1  0.308800  0.495800  0.502700  1.0  -0.3157
  N  N90  1  0.304000  0.050300  0.966700  1.0  -0.3004
  N  N91  1  0.675500  0.377400  0.969200  1.0  -0.3165
  O  O92  1  0.546500  0.401400  0.378400  1.0  -0.5758
  O  O93  1  0.539700  0.427500  0.183900  1.0  -0.5938
  O  O94  1  0.578800  0.652800  0.952100  1.0  -0.5931
  O  O95  1  0.549100  0.861400  0.915800  1.0  -0.5947
  O  O96  1  0.453500  0.598600  0.621600  1.0  -0.574
  O  O97  1  0.460300  0.572500  0.816100  1.0  -0.5939
  O  O98  1  0.421200  0.347200  0.047900  1.0  -0.5931
  O  O99  1  0.450900  0.138600  0.084200  1.0  -0.597
