# generated using pymatgen
data_Co3H36C48(N5O4)2
_symmetry_space_group_name_H-M   'P 1'
_cell_length_a   11.58300000
_cell_length_b   11.74000000
_cell_length_c   13.63800000
_cell_angle_alpha   76.28000000
_cell_angle_beta   75.52000000
_cell_angle_gamma   65.56700000
_symmetry_Int_Tables_number   1
_chemical_formula_structural   Co3H36C48(N5O4)2
_chemical_formula_sum   'Co3 H36 C48 N10 O8'
_cell_volume   1615.90968020
_cell_formula_units_Z   1
loop_
 _symmetry_equiv_pos_site_id
 _symmetry_equiv_pos_as_xyz
  1  'x, y, z'
loop_
 _atom_site_type_symbol
 _atom_site_label
 _atom_site_symmetry_multiplicity
 _atom_site_fract_x
 _atom_site_fract_y
 _atom_site_fract_z
 _atom_site_occupancy
 _atom_site_charge
  Co  Co1  1  0.000000  0.000000  0.500000  1.0  0.7777
  Co  Co2  1  0.000000  0.500000  0.500000  1.0  0.9659
  Co  Co3  1  0.500000  0.500000  0.500000  1.0  0.5814
  H  H4  1  0.432700  0.661300  0.295100  1.0  0.0615
  H  H5  1  0.489000  0.670100  0.123100  1.0  0.1362
  H  H6  1  0.606100  0.575600  0.973900  1.0  0.0934
  H  H7  1  0.025500  0.288500  0.688600  1.0  0.0735
  H  H8  1  0.934900  0.254100  0.856900  1.0  0.1218
  H  H9  1  0.750100  0.614100  0.644100  1.0  0.0768
  H  H10  1  0.631600  0.307700  0.337900  1.0  0.0659
  H  H11  1  0.652300  0.593000  0.810600  1.0  0.1262
  H  H12  1  0.770900  0.329300  0.003400  1.0  0.0937
  H  H13  1  0.428800  0.825400  0.481200  1.0  0.1429
  H  H14  1  0.313900  0.943200  0.441500  1.0  0.1448
  H  H15  1  0.408100  0.846200  0.368000  1.0  0.128
  H  H16  1  0.699900  0.307500  0.168900  1.0  0.1078
  H  H17  1  0.873000  0.025500  0.026800  1.0  0.0985
  H  H18  1  0.798600  0.029400  0.367100  1.0  0.0944
  H  H19  1  0.782700  0.033200  0.206200  1.0  0.1099
  H  H20  1  0.153300  0.994500  0.118600  1.0  0.1163
  H  H21  1  0.156100  0.006800  0.282600  1.0  0.0795
  H  H22  1  0.567300  0.338700  0.704900  1.0  0.0607
  H  H23  1  0.511000  0.329900  0.876900  1.0  0.1363
  H  H24  1  0.393900  0.424400  0.026100  1.0  0.0928
  H  H25  1  0.974500  0.711500  0.311400  1.0  0.0732
  H  H26  1  0.065100  0.745900  0.143100  1.0  0.1214
  H  H27  1  0.249900  0.385900  0.355900  1.0  0.0763
  H  H28  1  0.368400  0.692300  0.662100  1.0  0.0656
  H  H29  1  0.347700  0.407000  0.189400  1.0  0.1254
  H  H30  1  0.229100  0.670700  0.996600  1.0  0.0945
  H  H31  1  0.571200  0.174600  0.518800  1.0  0.1439
  H  H32  1  0.686100  0.056800  0.558500  1.0  0.143
  H  H33  1  0.591900  0.153800  0.632000  1.0  0.1284
  H  H34  1  0.300100  0.692500  0.831100  1.0  0.1084
  H  H35  1  0.127000  0.974500  0.973200  1.0  0.0984
  H  H36  1  0.201400  0.970600  0.632900  1.0  0.0951
  H  H37  1  0.217300  0.966800  0.793800  1.0  0.1094
  H  H38  1  0.846700  0.005500  0.881400  1.0  0.1166
  H  H39  1  0.843900  0.993200  0.717400  1.0  0.0793
  C  C40  1  0.251200  0.483200  0.538600  1.0  0.652
  C  C41  1  0.977300  0.759900  0.530200  1.0  0.7017
  C  C42  1  0.226600  0.621000  0.510800  1.0  -0.006
  C  C43  1  0.116200  0.730400  0.510600  1.0  -0.0112
  C  C44  1  0.489100  0.587400  0.269300  1.0  0.1902
  C  C45  1  0.601000  0.488100  0.125000  1.0  0.1422
  C  C46  1  0.521500  0.593700  0.165500  1.0  -0.2333
  C  C47  1  0.645600  0.498700  0.013400  1.0  -0.1514
  C  C48  1  0.282900  0.781500  0.470300  1.0  0.4148
  C  C49  1  0.949300  0.351100  0.713400  1.0  0.2003
  C  C50  1  0.896800  0.330000  0.815700  1.0  -0.2216
  C  C51  1  0.788600  0.541100  0.688000  1.0  0.1748
  C  C52  1  0.604500  0.383900  0.294100  1.0  0.1757
  C  C53  1  0.729700  0.530300  0.787800  1.0  -0.2122
  C  C54  1  0.788400  0.422400  0.855200  1.0  0.101
  C  C55  1  0.736600  0.408400  0.964900  1.0  -0.1099
  C  C56  1  0.365600  0.855500  0.437400  1.0  -0.4425
  C  C57  1  0.643100  0.382700  0.192700  1.0  -0.2171
  C  C58  1  0.953800  0.010700  0.039000  1.0  -0.0933
  C  C59  1  0.870300  0.023500  0.316100  1.0  0.1602
  C  C60  1  0.860700  0.024900  0.219900  1.0  -0.1685
  C  C61  1  0.959900  0.014600  0.143700  1.0  0.0184
  C  C62  1  0.080100  0.003900  0.168600  1.0  -0.1677
  C  C63  1  0.081700  0.008000  0.267400  1.0  0.1844
  C  C64  1  0.748800  0.516800  0.461400  1.0  0.6528
  C  C65  1  0.022700  0.240100  0.469800  1.0  0.704
  C  C66  1  0.773400  0.379000  0.489200  1.0  -0.0045
  C  C67  1  0.883800  0.269600  0.489400  1.0  -0.012
  C  C68  1  0.510900  0.412600  0.730700  1.0  0.19
  C  C69  1  0.399000  0.511900  0.875000  1.0  0.1446
  C  C70  1  0.478500  0.406300  0.834500  1.0  -0.2325
  C  C71  1  0.354400  0.501300  0.986600  1.0  -0.1494
  C  C72  1  0.717100  0.218500  0.529700  1.0  0.4151
  C  C73  1  0.050700  0.648900  0.286600  1.0  0.1991
  C  C74  1  0.103200  0.670000  0.184300  1.0  -0.222
  C  C75  1  0.211400  0.458900  0.312000  1.0  0.1748
  C  C76  1  0.395500  0.616100  0.705900  1.0  0.1749
  C  C77  1  0.270300  0.469700  0.212200  1.0  -0.2139
  C  C78  1  0.211600  0.577600  0.144800  1.0  0.101
  C  C79  1  0.263400  0.591600  0.035100  1.0  -0.1081
  C  C80  1  0.634400  0.144500  0.562600  1.0  -0.4415
  C  C81  1  0.356900  0.617300  0.807300  1.0  -0.2185
  C  C82  1  0.046200  0.989300  0.961000  1.0  -0.0936
  C  C83  1  0.129700  0.976500  0.683900  1.0  0.1588
  C  C84  1  0.139300  0.975100  0.780100  1.0  -0.1664
  C  C85  1  0.040100  0.985400  0.856300  1.0  0.0183
  C  C86  1  0.919900  0.996100  0.831400  1.0  -0.1696
  C  C87  1  0.918300  0.992000  0.732600  1.0  0.1832
  N  N88  1  0.332100  0.652800  0.486800  1.0  -0.3941
  N  N89  1  0.154700  0.829800  0.486200  1.0  -0.434
  N  N90  1  0.899200  0.453100  0.648700  1.0  -0.3276
  N  N91  1  0.531000  0.486400  0.334400  1.0  -0.291
  N  N92  1  0.981900  0.013700  0.343300  1.0  -0.3167
  N  N93  1  0.667900  0.347200  0.513200  1.0  -0.3957
  N  N94  1  0.845300  0.170200  0.513800  1.0  -0.4328
  N  N95  1  0.100800  0.546900  0.351300  1.0  -0.3272
  N  N96  1  0.469000  0.513600  0.665600  1.0  -0.2904
  N  N97  1  0.018100  0.986300  0.656700  1.0  -0.3193
  O  O98  1  0.368800  0.408900  0.537400  1.0  -0.5724
  O  O99  1  0.929100  0.681900  0.530700  1.0  -0.6088
  O  O100  1  0.905800  0.874900  0.538300  1.0  -0.5719
  O  O101  1  0.160900  0.445200  0.562200  1.0  -0.599
  O  O102  1  0.631200  0.591100  0.462600  1.0  -0.5716
  O  O103  1  0.070900  0.318100  0.469300  1.0  -0.6074
  O  O104  1  0.094200  0.125100  0.461700  1.0  -0.574
  O  O105  1  0.839100  0.554800  0.437800  1.0  -0.5965
