# generated using pymatgen
data_DyCuH32C48(NO2)4
_symmetry_space_group_name_H-M   'P 1'
_cell_length_a   16.04300000
_cell_length_b   19.72270000
_cell_length_c   19.72270000
_cell_angle_alpha   80.47850000
_cell_angle_beta   66.00140000
_cell_angle_gamma   66.00130000
_symmetry_Int_Tables_number   1
_chemical_formula_structural   DyCuH32C48(NO2)4
_chemical_formula_sum   'Dy4 Cu4 H128 C192 N16 O32'
_cell_volume   5208.20125306
_cell_formula_units_Z   4
loop_
 _symmetry_equiv_pos_site_id
 _symmetry_equiv_pos_as_xyz
  1  'x, y, z'
loop_
 _atom_site_type_symbol
 _atom_site_label
 _atom_site_symmetry_multiplicity
 _atom_site_fract_x
 _atom_site_fract_y
 _atom_site_fract_z
 _atom_site_occupancy
 _atom_site_charge
  Dy  Dy1  1  0.959110  0.701620  0.884570  1.0  2.1723
  Dy  Dy2  1  0.545290  0.298380  0.115440  1.0  2.1722
  Dy  Dy3  1  0.156330  0.884560  0.298380  1.0  2.1725
  Dy  Dy4  1  0.339260  0.115440  0.701630  1.0  2.174
  Cu  Cu5  1  0.612700  0.590710  0.187230  1.0  0.2947
  Cu  Cu6  1  0.390640  0.409290  0.812770  1.0  0.2967
  Cu  Cu7  1  0.200070  0.187230  0.409290  1.0  0.296
  Cu  Cu8  1  0.796590  0.812770  0.590710  1.0  0.2963
  H  H9  1  0.119500  0.582600  0.067800  1.0  0.0937
  H  H10  1  0.238500  0.557100  0.115900  1.0  0.0932
  H  H11  1  0.223500  0.724800  0.924000  1.0  0.1136
  H  H12  1  0.336400  0.702500  0.973700  1.0  0.0965
  H  H13  1  0.415000  0.505700  0.102500  1.0  0.1128
  H  H14  1  0.534200  0.492800  0.144800  1.0  0.0822
  H  H15  1  0.359300  0.724100  0.079500  1.0  0.1251
  H  H16  1  0.474500  0.704500  0.127700  1.0  0.0596
  H  H17  1  0.843000  0.584700  0.767700  1.0  0.0861
  H  H18  1  0.734300  0.546300  0.753100  1.0  0.1061
  H  H19  1  0.683500  0.614600  0.984600  1.0  0.0991
  H  H20  1  0.572400  0.575300  0.971500  1.0  0.0933
  H  H21  1  0.570700  0.577000  0.753800  1.0  0.1191
  H  H22  1  0.465600  0.531500  0.742300  1.0  0.0717
  H  H23  1  0.539900  0.476700  0.949900  1.0  0.1167
  H  H24  1  0.431400  0.436600  0.936200  1.0  0.0812
  H  H25  1  0.110700  0.759600  0.628800  1.0  0.0848
  H  H26  1  0.219600  0.736900  0.505900  1.0  0.1081
  H  H27  1  0.276100  0.563300  0.687900  1.0  0.1076
  H  H28  1  0.383500  0.542200  0.567000  1.0  0.0777
  H  H29  1  0.286500  0.652000  0.399200  1.0  0.1185
  H  H30  1  0.400600  0.627500  0.278500  1.0  0.0649
  H  H31  1  0.511300  0.590700  0.465500  1.0  0.1216
  H  H32  1  0.616500  0.573500  0.344900  1.0  0.0684
  H  H33  1  0.827500  0.964600  0.921400  1.0  0.0957
  H  H34  1  0.732500  0.088200  0.912200  1.0  0.1115
  H  H35  1  0.687500  0.905100  0.832500  1.0  0.083
  H  H36  1  0.605500  0.028300  0.810900  1.0  0.0978
  H  H37  1  0.573700  0.190600  0.946400  1.0  0.1248
  H  H38  1  0.481700  0.309700  0.927100  1.0  0.067
  H  H39  1  0.618200  0.142100  0.742500  1.0  0.1043
  H  H40  1  0.522700  0.262600  0.729800  1.0  0.0641
  H  H41  1  0.769900  0.417400  0.932200  1.0  0.0946
  H  H42  1  0.911500  0.442900  0.884100  1.0  0.093
  H  H43  1  0.872300  0.275200  0.076000  1.0  0.1129
  H  H44  1  0.012600  0.297500  0.026300  1.0  0.0965
  H  H45  1  0.023200  0.494300  0.897500  1.0  0.1134
  H  H46  1  0.171800  0.507200  0.855200  1.0  0.0822
  H  H47  1  0.162900  0.275900  0.920500  1.0  0.1239
  H  H48  1  0.306700  0.295500  0.872300  1.0  0.0599
  H  H49  1  0.195400  0.415300  0.232300  1.0  0.0866
  H  H50  1  0.033700  0.453700  0.246900  1.0  0.1056
  H  H51  1  0.282700  0.385400  0.015400  1.0  0.0981
  H  H52  1  0.119200  0.424700  0.028500  1.0  0.0931
  H  H53  1  0.901500  0.423000  0.246200  1.0  0.1188
  H  H54  1  0.739400  0.468500  0.257700  1.0  0.0722
  H  H55  1  0.966500  0.523300  0.050100  1.0  0.1158
  H  H56  1  0.804200  0.563400  0.063800  1.0  0.0811
  H  H57  1  0.499100  0.240400  0.371200  1.0  0.0843
  H  H58  1  0.462400  0.263100  0.494100  1.0  0.1083
  H  H59  1  0.527300  0.436700  0.312100  1.0  0.1078
  H  H60  1  0.492700  0.457800  0.433000  1.0  0.0764
  H  H61  1  0.337700  0.348000  0.600800  1.0  0.1171
  H  H62  1  0.306600  0.372500  0.721500  1.0  0.0643
  H  H63  1  0.567500  0.409300  0.534500  1.0  0.1219
  H  H64  1  0.534900  0.426500  0.655100  1.0  0.0665
  H  H65  1  0.713500  0.035400  0.078600  1.0  0.0963
  H  H66  1  0.732900  0.911800  0.087800  1.0  0.111
  H  H67  1  0.425100  0.094900  0.167500  1.0  0.0827
  H  H68  1  0.444700  0.971700  0.189100  1.0  0.099
  H  H69  1  0.710700  0.809400  0.053600  1.0  0.1235
  H  H70  1  0.718500  0.690300  0.072900  1.0  0.0666
  H  H71  1  0.502800  0.857900  0.257500  1.0  0.1038
  H  H72  1  0.515100  0.737400  0.270200  1.0  0.0604
  H  H73  1  0.812700  0.067800  0.417400  1.0  0.0936
  H  H74  1  0.645600  0.115900  0.442900  1.0  0.0922
  H  H75  1  0.852500  0.924000  0.275200  1.0  0.1118
  H  H76  1  0.689900  0.973700  0.297500  1.0  0.0967
  H  H77  1  0.482500  0.102500  0.494300  1.0  0.113
  H  H78  1  0.321000  0.144800  0.507200  1.0  0.081
  H  H79  1  0.561200  0.079500  0.275900  1.0  0.123
  H  H80  1  0.397800  0.127700  0.295500  1.0  0.0607
  H  H81  1  0.389300  0.767700  0.415300  1.0  0.0868
  H  H82  1  0.512600  0.753100  0.453700  1.0  0.1053
  H  H83  1  0.331900  0.984600  0.385400  1.0  0.0985
  H  H84  1  0.456100  0.971500  0.424700  1.0  0.0929
  H  H85  1  0.675500  0.753800  0.423000  1.0  0.1183
  H  H86  1  0.792100  0.742300  0.468500  1.0  0.0711
  H  H87  1  0.510200  0.949900  0.523300  1.0  0.116
  H  H88  1  0.632400  0.936200  0.563400  1.0  0.0802
  H  H89  1  0.260500  0.628800  0.240400  1.0  0.0837
  H  H90  1  0.274500  0.505900  0.263100  1.0  0.1079
  H  H91  1  0.036000  0.687900  0.436700  1.0  0.107
  H  H92  1  0.049500  0.567000  0.457800  1.0  0.0748
  H  H93  1  0.314300  0.399200  0.348000  1.0  0.1185
  H  H94  1  0.320900  0.278500  0.372500  1.0  0.0649
  H  H95  1  0.023200  0.465500  0.409300  1.0  0.1219
  H  H96  1  0.038600  0.344900  0.426500  1.0  0.0677
  H  H97  1  0.251100  0.921400  0.035400  1.0  0.0968
  H  H98  1  0.355300  0.912200  0.911800  1.0  0.1114
  H  H99  1  0.480000  0.832500  0.094900  1.0  0.0838
  H  H100  1  0.583600  0.810900  0.971700  1.0  0.0979
  H  H101  1  0.479900  0.946400  0.809400  1.0  0.1247
  H  H102  1  0.591200  0.927100  0.690300  1.0  0.0683
  H  H103  1  0.639300  0.742500  0.857900  1.0  0.1037
  H  H104  1  0.747500  0.729800  0.737400  1.0  0.062
  H  H105  1  0.297900  0.932200  0.582600  1.0  0.0949
  H  H106  1  0.204400  0.884100  0.557100  1.0  0.0934
  H  H107  1  0.051700  0.076000  0.724800  1.0  0.1121
  H  H108  1  0.961100  0.026300  0.702500  1.0  0.0972
  H  H109  1  0.079300  0.897500  0.505700  1.0  0.1118
  H  H110  1  0.973000  0.855200  0.492800  1.0  0.0833
  H  H111  1  0.916600  0.920500  0.724100  1.0  0.1232
  H  H112  1  0.821000  0.872300  0.704500  1.0  0.059
  H  H113  1  0.572300  0.232300  0.584700  1.0  0.0863
  H  H114  1  0.719400  0.246900  0.546300  1.0  0.1054
  H  H115  1  0.701900  0.015400  0.614600  1.0  0.0984
  H  H116  1  0.852300  0.028500  0.575300  1.0  0.0935
  H  H117  1  0.852300  0.246200  0.577000  1.0  0.1181
  H  H118  1  0.002900  0.257700  0.531500  1.0  0.0708
  H  H119  1  0.983400  0.050100  0.476700  1.0  0.1152
  H  H120  1  0.132000  0.063800  0.436600  1.0  0.0812
  H  H121  1  0.129700  0.371200  0.759600  1.0  0.0867
  H  H122  1  0.043500  0.494100  0.736900  1.0  0.1082
  H  H123  1  0.160600  0.312100  0.563300  1.0  0.1069
  H  H124  1  0.074300  0.433000  0.542200  1.0  0.0759
  H  H125  1  0.061500  0.600800  0.652000  1.0  0.1172
  H  H126  1  0.971900  0.721500  0.627500  1.0  0.0646
  H  H127  1  0.898000  0.534500  0.590700  1.0  0.1217
  H  H128  1  0.810000  0.655100  0.573500  1.0  0.0667
  H  H129  1  0.207900  0.078600  0.964600  1.0  0.096
  H  H130  1  0.179300  0.087800  0.088200  1.0  0.1125
  H  H131  1  0.407400  0.167500  0.905100  1.0  0.0832
  H  H132  1  0.366200  0.189100  0.028300  1.0  0.0972
  H  H133  1  0.235700  0.053600  0.190600  1.0  0.1239
  H  H134  1  0.208600  0.072900  0.309700  1.0  0.0674
  H  H135  1  0.239700  0.257500  0.142100  1.0  0.1041
  H  H136  1  0.214700  0.270200  0.262600  1.0  0.0615
  C  C137  1  0.083400  0.671800  0.956800  1.0  0.6751
  C  C138  1  0.160500  0.653500  0.989500  1.0  -0.1046
  C  C139  1  0.164500  0.605800  0.047800  1.0  -0.0342
  C  C140  1  0.235000  0.591500  0.077700  1.0  -0.121
  C  C141  1  0.226200  0.691000  0.962600  1.0  -0.0549
  C  C142  1  0.293100  0.677600  0.992800  1.0  -0.1245
  C  C143  1  0.300300  0.628200  0.051200  1.0  0.0421
  C  C144  1  0.373200  0.617300  0.082900  1.0  0.1005
  C  C145  1  0.427470  0.547100  0.105160  1.0  -0.1847
  C  C146  1  0.499300  0.539700  0.130900  1.0  0.1593
  C  C147  1  0.393500  0.676200  0.092000  1.0  -0.1993
  C  C148  1  0.465000  0.663400  0.120000  1.0  0.1646
  C  C149  1  0.849500  0.625200  0.884200  1.0  0.6621
  C  C150  1  0.775340  0.601090  0.878030  1.0  -0.1263
  C  C151  1  0.788700  0.582200  0.808800  1.0  -0.0428
  C  C152  1  0.723100  0.559900  0.799900  1.0  -0.1287
  C  C153  1  0.694100  0.600100  0.938300  1.0  -0.0295
  C  C154  1  0.626600  0.577200  0.930000  1.0  -0.1083
  C  C155  1  0.639200  0.557300  0.860700  1.0  0.0408
  C  C156  1  0.568100  0.532060  0.852940  1.0  0.0801
  C  C157  1  0.544400  0.547600  0.791400  1.0  -0.2107
  C  C158  1  0.480900  0.519600  0.784600  1.0  0.1412
  C  C159  1  0.525700  0.488800  0.907200  1.0  -0.1888
  C  C160  1  0.461500  0.463500  0.897900  1.0  0.1783
  C  C161  1  0.107800  0.677500  0.748100  1.0  0.6653
  C  C162  1  0.180800  0.663400  0.670800  1.0  -0.1353
  C  C163  1  0.165500  0.715400  0.616200  1.0  -0.016
  C  C164  1  0.231400  0.702300  0.542500  1.0  -0.1345
  C  C165  1  0.264100  0.598400  0.651800  1.0  -0.0444
  C  C166  1  0.328600  0.586300  0.579300  1.0  -0.1334
  C  C167  1  0.314500  0.637400  0.524200  1.0  0.0418
  C  C168  1  0.385500  0.623400  0.446200  1.0  0.1143
  C  C169  1  0.353500  0.634900  0.389700  1.0  -0.1905
  C  C170  1  0.423300  0.620500  0.316700  1.0  0.1719
  C  C171  1  0.486700  0.599200  0.428200  1.0  -0.2159
  C  C172  1  0.549500  0.588200  0.355600  1.0  0.1577
  C  C173  1  0.818600  0.841700  0.894100  1.0  0.6573
  C  C174  1  0.763100  0.922700  0.883100  1.0  -0.1236
  C  C175  1  0.779000  0.976900  0.902100  1.0  -0.0392
  C  C176  1  0.724700  0.051600  0.893800  1.0  -0.1463
  C  C177  1  0.698100  0.941900  0.847900  1.0  -0.0382
  C  C178  1  0.648200  0.016000  0.835600  1.0  -0.1338
  C  C179  1  0.660600  0.071100  0.859300  1.0  0.0514
  C  C180  1  0.605700  0.150300  0.847100  1.0  0.1076
  C  C181  1  0.564200  0.203500  0.901700  1.0  -0.1993
  C  C182  1  0.508800  0.275200  0.889600  1.0  0.1676
  C  C183  1  0.590000  0.175000  0.781600  1.0  -0.1928
  C  C184  1  0.532900  0.248000  0.774000  1.0  0.1673
  C  C185  1  0.712000  0.328200  0.043200  1.0  0.6745
  C  C186  1  0.803500  0.346500  0.010500  1.0  -0.1035
  C  C187  1  0.818100  0.394200  0.952200  1.0  -0.037
  C  C188  1  0.904200  0.408500  0.922300  1.0  -0.1231
  C  C189  1  0.879800  0.309000  0.037400  1.0  -0.06
  C  C190  1  0.963500  0.322400  0.007200  1.0  -0.1265
  C  C191  1  0.979700  0.371800  0.948800  1.0  0.0424
  C  C192  1  0.073400  0.382700  0.917100  1.0  0.1003
  C  C193  1  0.079730  0.452900  0.894840  1.0  -0.1858
  C  C194  1  0.169900  0.460300  0.869100  1.0  0.1598
  C  C195  1  0.161700  0.323800  0.908000  1.0  -0.1995
  C  C196  1  0.248400  0.336600  0.880000  1.0  0.1643
  C  C197  1  0.358900  0.374800  0.115800  1.0  0.6611
  C  C198  1  0.254460  0.398910  0.121970  1.0  -0.1254
  C  C199  1  0.179700  0.417800  0.191200  1.0  -0.0421
  C  C200  1  0.082900  0.440100  0.200100  1.0  -0.1325
  C  C201  1  0.232500  0.399900  0.061700  1.0  -0.0308
  C  C202  1  0.133800  0.422800  0.070000  1.0  -0.1092
  C  C203  1  0.057200  0.442700  0.139300  1.0  0.0391
  C  C204  1  0.953100  0.467940  0.147060  1.0  0.08
  C  C205  1  0.883400  0.452400  0.208600  1.0  -0.208
  C  C206  1  0.785100  0.480400  0.215400  1.0  0.1408
  C  C207  1  0.921700  0.511200  0.092800  1.0  -0.1879
  C  C208  1  0.822900  0.536500  0.102100  1.0  0.1781
  C  C209  1  0.533400  0.322500  0.251900  1.0  0.6635
  C  C210  1  0.515000  0.336600  0.329200  1.0  -0.1342
  C  C211  1  0.497100  0.284600  0.383800  1.0  -0.017
  C  C212  1  0.476200  0.297700  0.457500  1.0  -0.1368
  C  C213  1  0.514300  0.401600  0.348200  1.0  -0.0477
  C  C214  1  0.494200  0.413700  0.420700  1.0  -0.1358
  C  C215  1  0.476100  0.362600  0.475800  1.0  0.0421
  C  C216  1  0.455100  0.376600  0.553800  1.0  0.1145
  C  C217  1  0.378100  0.365100  0.610300  1.0  -0.1892
  C  C218  1  0.360500  0.379500  0.683300  1.0  0.171
  C  C219  1  0.514100  0.400800  0.571800  1.0  -0.2163
  C  C220  1  0.493300  0.411800  0.644400  1.0  0.1567
  C  C221  1  0.554400  0.158300  0.105900  1.0  0.6585
  C  C222  1  0.568900  0.077300  0.116900  1.0  -0.1243
  C  C223  1  0.658000  0.023100  0.097900  1.0  -0.0387
  C  C224  1  0.670100  0.948400  0.106200  1.0  -0.1449
  C  C225  1  0.487900  0.058100  0.152100  1.0  -0.0364
  C  C226  1  0.499800  0.984000  0.164400  1.0  -0.136
  C  C227  1  0.591000  0.928900  0.140700  1.0  0.0515
  C  C228  1  0.603100  0.849700  0.152900  1.0  0.1059
  C  C229  1  0.669400  0.796500  0.098300  1.0  -0.2004
  C  C230  1  0.673600  0.724800  0.110400  1.0  0.1683
  C  C231  1  0.546600  0.825000  0.218400  1.0  -0.1883
  C  C232  1  0.554900  0.752000  0.226000  1.0  0.1687
  C  C233  1  0.959800  0.956800  0.328200  1.0  0.6745
  C  C234  1  0.850000  0.989500  0.346500  1.0  -0.1027
  C  C235  1  0.787700  0.047800  0.394200  1.0  -0.0327
  C  C236  1  0.687300  0.077700  0.408500  1.0  -0.1181
  C  C237  1  0.811200  0.962600  0.309000  1.0  -0.0546
  C  C238  1  0.714100  0.992800  0.322400  1.0  -0.1229
  C  C239  1  0.648500  0.051200  0.371800  1.0  0.0442
  C  C240  1  0.543900  0.082900  0.382700  1.0  0.1011
  C  C241  1  0.467370  0.105160  0.452900  1.0  -0.1872
  C  C242  1  0.369800  0.130900  0.460300  1.0  0.1592
  C  C243  1  0.514500  0.092000  0.323800  1.0  -0.1995
  C  C244  1  0.415000  0.120000  0.336600  1.0  0.1619
  C  C245  1  0.266300  0.884200  0.374800  1.0  0.6613
  C  C246  1  0.346630  0.878030  0.398910  1.0  -0.1257
  C  C247  1  0.402500  0.808800  0.417800  1.0  -0.0404
  C  C248  1  0.477000  0.799900  0.440100  1.0  -0.1359
  C  C249  1  0.367600  0.938300  0.399900  1.0  -0.0298
  C  C250  1  0.443400  0.930000  0.422800  1.0  -0.1099
  C  C251  1  0.500100  0.860700  0.442700  1.0  0.0404
  C  C252  1  0.578960  0.852940  0.467940  1.0  0.0805
  C  C253  1  0.664200  0.791400  0.452400  1.0  -0.2102
  C  C254  1  0.734500  0.784600  0.480400  1.0  0.1392
  C  C255  1  0.567100  0.907200  0.511200  1.0  -0.1901
  C  C256  1  0.640600  0.897900  0.536500  1.0  0.1758
  C  C257  1  0.144100  0.748100  0.322500  1.0  0.6626
  C  C258  1  0.148400  0.670800  0.336600  1.0  -0.1332
  C  C259  1  0.218300  0.616200  0.284600  1.0  -0.0185
  C  C260  1  0.226100  0.542500  0.297700  1.0  -0.1372
  C  C261  1  0.084100  0.651800  0.401600  1.0  -0.0449
  C  C262  1  0.092100  0.579300  0.413700  1.0  -0.1344
  C  C263  1  0.161300  0.524200  0.362600  1.0  0.0411
  C  C264  1  0.168300  0.446200  0.376600  1.0  0.1129
  C  C265  1  0.256800  0.389700  0.365100  1.0  -0.1923
  C  C266  1  0.260000  0.316700  0.379500  1.0  0.1724
  C  C267  1  0.085100  0.428200  0.400800  1.0  -0.2145
  C  C268  1  0.094900  0.355600  0.411800  1.0  0.157
  C  C269  1  0.287300  0.894100  0.158300  1.0  0.6568
  C  C270  1  0.353800  0.883100  0.077300  1.0  -0.1229
  C  C271  1  0.318900  0.902100  0.023100  1.0  -0.0394
  C  C272  1  0.381500  0.893800  0.948400  1.0  -0.1472
  C  C273  1  0.454000  0.847900  0.058100  1.0  -0.0376
  C  C274  1  0.516200  0.835600  0.984000  1.0  -0.1341
  C  C275  1  0.480100  0.859300  0.928900  1.0  0.0498
  C  C276  1  0.547200  0.847100  0.849700  1.0  0.1057
  C  C277  1  0.534100  0.901700  0.796500  1.0  -0.2017
  C  C278  1  0.601600  0.889600  0.724800  1.0  0.1683
  C  C279  1  0.628400  0.781600  0.825000  1.0  -0.1898
  C  C280  1  0.693100  0.774000  0.752000  1.0  0.1685
  C  C281  1  0.244800  0.043200  0.671800  1.0  0.6782
  C  C282  1  0.186000  0.010500  0.653500  1.0  -0.0987
  C  C283  1  0.229700  0.952200  0.605800  1.0  -0.0377
  C  C284  1  0.173500  0.922300  0.591500  1.0  -0.12
  C  C285  1  0.082800  0.037400  0.691000  1.0  -0.056
  C  C286  1  0.029300  0.007200  0.677600  1.0  -0.1235
  C  C287  1  0.071500  0.948800  0.628200  1.0  0.0423
  C  C288  1  0.009500  0.917100  0.617300  1.0  0.101
  C  C289  1  0.025430  0.894840  0.547100  1.0  -0.1862
  C  C290  1  0.961000  0.869100  0.539700  1.0  0.1627
  C  C291  1  0.930300  0.908000  0.676200  1.0  -0.1978
  C  C292  1  0.871600  0.880000  0.663400  1.0  0.1625
  C  C293  1  0.525300  0.115800  0.625200  1.0  0.66
  C  C294  1  0.623570  0.121970  0.601090  1.0  -0.1262
  C  C295  1  0.629100  0.191200  0.582200  1.0  -0.0398
  C  C296  1  0.717000  0.200100  0.559900  1.0  -0.1379
  C  C297  1  0.705800  0.061700  0.600100  1.0  -0.0302
  C  C298  1  0.796200  0.070000  0.577200  1.0  -0.1087
  C  C299  1  0.803500  0.139300  0.557300  1.0  0.0403
  C  C300  1  0.899840  0.147060  0.532060  1.0  0.0819
  C  C301  1  0.908000  0.208600  0.547600  1.0  -0.2117
  C  C302  1  0.999500  0.215400  0.519600  1.0  0.1392
  C  C303  1  0.985500  0.092800  0.488800  1.0  -0.1879
  C  C304  1  0.075000  0.102100  0.463500  1.0  0.1761
  C  C305  1  0.214700  0.251900  0.677500  1.0  0.6628
  C  C306  1  0.155800  0.329200  0.663400  1.0  -0.1357
  C  C307  1  0.119100  0.383800  0.715400  1.0  -0.0198
  C  C308  1  0.066300  0.457500  0.702300  1.0  -0.1364
  C  C309  1  0.137500  0.348200  0.598400  1.0  -0.0464
  C  C310  1  0.085100  0.420700  0.586300  1.0  -0.1345
  C  C311  1  0.048100  0.475800  0.637400  1.0  0.0415
  C  C312  1  0.991100  0.553800  0.623400  1.0  0.1109
  C  C313  1  0.011600  0.610300  0.634900  1.0  -0.189
  C  C314  1  0.956200  0.683300  0.620500  1.0  0.1712
  C  C315  1  0.914100  0.571800  0.599200  1.0  -0.2151
  C  C316  1  0.862300  0.644400  0.588200  1.0  0.157
  C  C317  1  0.339700  0.105900  0.841700  1.0  0.6575
  C  C318  1  0.314200  0.116900  0.922700  1.0  -0.1222
  C  C319  1  0.244100  0.097900  0.976900  1.0  -0.0406
  C  C320  1  0.223700  0.106200  0.051600  1.0  -0.1464
  C  C321  1  0.360000  0.152100  0.941900  1.0  -0.039
  C  C322  1  0.335800  0.164400  0.016000  1.0  -0.133
  C  C323  1  0.268300  0.140700  0.071100  1.0  0.0509
  C  C324  1  0.244000  0.152900  0.150300  1.0  0.1079
  C  C325  1  0.232300  0.098300  0.203500  1.0  -0.2009
  C  C326  1  0.216000  0.110400  0.275200  1.0  0.1704
  C  C327  1  0.235000  0.218400  0.175000  1.0  -0.1902
  C  C328  1  0.219100  0.226000  0.248000  1.0  0.1702
  N  N329  1  0.521020  0.597300  0.136860  1.0  -0.3078
  N  N330  1  0.441040  0.476220  0.836100  1.0  -0.3127
  N  N331  1  0.520690  0.597160  0.298660  1.0  -0.3033
  N  N332  1  0.491600  0.298580  0.827020  1.0  -0.3274
  N  N333  1  0.255180  0.402700  0.863140  1.0  -0.3082
  N  N334  1  0.753360  0.523780  0.163900  1.0  -0.3112
  N  N335  1  0.416510  0.402840  0.701340  1.0  -0.3042
  N  N336  1  0.617200  0.701420  0.172980  1.0  -0.3287
  N  N337  1  0.342120  0.136860  0.402700  1.0  -0.3105
  N  N338  1  0.722860  0.836100  0.523780  1.0  -0.3143
  N  N339  1  0.180650  0.298660  0.402840  1.0  -0.3009
  N  N340  1  0.681380  0.827020  0.701420  1.0  -0.3304
  N  N341  1  0.881680  0.863140  0.597300  1.0  -0.31
  N  N342  1  0.082740  0.163900  0.476220  1.0  -0.3127
  N  N343  1  0.882150  0.701340  0.597160  1.0  -0.302
  N  N344  1  0.209820  0.172980  0.298580  1.0  -0.329
  O  O345  1  0.075190  0.724770  0.911250  1.0  -0.6577
  O  O346  1  0.029600  0.635190  0.973810  1.0  -0.6855
  O  O347  1  0.837180  0.645940  0.946500  1.0  -0.6941
  O  O348  1  0.921370  0.626430  0.828230  1.0  -0.6635
  O  O349  1  0.115220  0.626260  0.796500  1.0  -0.6791
  O  O350  1  0.035610  0.739350  0.764430  1.0  -0.6482
  O  O351  1  0.816800  0.793600  0.862400  1.0  -0.6623
  O  O352  1  0.871010  0.823990  0.932990  1.0  -0.7005
  O  O353  1  0.711210  0.275230  0.088750  1.0  -0.6581
  O  O354  1  0.638600  0.364810  0.026190  1.0  -0.6889
  O  O355  1  0.429620  0.354060  0.053500  1.0  -0.6937
  O  O356  1  0.376030  0.373570  0.171770  1.0  -0.662
  O  O357  1  0.537980  0.373740  0.203500  1.0  -0.6785
  O  O358  1  0.539390  0.260650  0.235570  1.0  -0.6514
  O  O359  1  0.472800  0.206400  0.137600  1.0  -0.6612
  O  O360  1  0.627990  0.176010  0.067010  1.0  -0.6887
  O  O361  1  0.013560  0.911250  0.275230  1.0  -0.6562
  O  O362  1  0.996590  0.973810  0.364810  1.0  -0.6885
  O  O363  1  0.216320  0.946500  0.354060  1.0  -0.6956
  O  O364  1  0.250400  0.828230  0.373570  1.0  -0.6653
  O  O365  1  0.088280  0.796500  0.373740  1.0  -0.6784
  O  O366  1  0.199960  0.764430  0.260650  1.0  -0.6437
  O  O367  1  0.320800  0.862400  0.206400  1.0  -0.6621
  O  O368  1  0.196000  0.932990  0.176010  1.0  -0.6931
  O  O369  1  0.200040  0.088750  0.724770  1.0  -0.6586
  O  O370  1  0.335210  0.026190  0.635190  1.0  -0.6898
  O  O371  1  0.516880  0.053500  0.645940  1.0  -0.696
  O  O372  1  0.452200  0.171770  0.626430  1.0  -0.6672
  O  O373  1  0.258520  0.203500  0.626260  1.0  -0.6808
  O  O374  1  0.225040  0.235570  0.739350  1.0  -0.6459
  O  O375  1  0.389600  0.137600  0.793600  1.0  -0.6623
  O  O376  1  0.305000  0.067010  0.823990  1.0  -0.6935
