# generated using pymatgen
data_ErCuH32C48(NO2)4
_symmetry_space_group_name_H-M   'P 1'
_cell_length_a   15.92240000
_cell_length_b   19.68140000
_cell_length_c   19.68140000
_cell_angle_alpha   80.58270000
_cell_angle_beta   66.14000000
_cell_angle_gamma   66.13990000
_symmetry_Int_Tables_number   1
_chemical_formula_structural   ErCuH32C48(NO2)4
_chemical_formula_sum   'Er4 Cu4 H128 C192 N16 O32'
_cell_volume   5158.48685208
_cell_formula_units_Z   4
loop_
 _symmetry_equiv_pos_site_id
 _symmetry_equiv_pos_as_xyz
  1  'x, y, z'
loop_
 _atom_site_type_symbol
 _atom_site_label
 _atom_site_symmetry_multiplicity
 _atom_site_fract_x
 _atom_site_fract_y
 _atom_site_fract_z
 _atom_site_occupancy
 _atom_site_charge
  Er  Er1  1  0.205710  0.382780  0.201890  1.0  1.384
  Er  Er2  1  0.790380  0.617220  0.798110  1.0  1.3864
  Er  Er3  1  0.592400  0.201890  0.617220  1.0  1.3826
  Er  Er4  1  0.411510  0.798110  0.382780  1.0  1.382
  Cu  Cu5  1  0.360360  0.686240  0.090700  1.0  0.3517
  Cu  Cu6  1  0.137300  0.313760  0.909300  1.0  0.352
  Cu  Cu7  1  0.548940  0.090700  0.313760  1.0  0.3512
  Cu  Cu8  1  0.953400  0.909300  0.686240  1.0  0.3519
  H  H9  1  0.035400  0.425700  0.462700  1.0  0.1134
  H  H10  1  0.015700  0.408100  0.585900  1.0  0.1094
  H  H11  1  0.325800  0.330700  0.405100  1.0  0.0915
  H  H12  1  0.306300  0.311700  0.527500  1.0  0.0998
  H  H13  1  0.248900  0.243200  0.641600  1.0  0.1166
  H  H14  1  0.234600  0.231600  0.761400  1.0  0.0687
  H  H15  1  0.037000  0.446800  0.690800  1.0  0.1283
  H  H16  1  0.032300  0.428600  0.808800  1.0  0.0789
  H  H17  1  0.984300  0.564800  0.080800  1.0  0.093
  H  H18  1  0.839200  0.616900  0.058900  1.0  0.1022
  H  H19  1  0.881200  0.422500  0.225100  1.0  0.1175
  H  H20  1  0.736500  0.473600  0.203800  1.0  0.1088
  H  H21  1  0.728400  0.601500  0.006300  1.0  0.1129
  H  H22  1  0.579500  0.643500  0.992900  1.0  0.0855
  H  H23  1  0.587800  0.580500  0.223700  1.0  0.118
  H  H24  1  0.443900  0.624800  0.204600  1.0  0.0684
  H  H25  1  0.555100  0.267100  0.082700  1.0  0.0929
  H  H26  1  0.717600  0.253200  0.047400  1.0  0.1134
  H  H27  1  0.467300  0.484900  0.113300  1.0  0.1061
  H  H28  1  0.631000  0.470800  0.077000  1.0  0.0996
  H  H29  1  0.848100  0.255000  0.079000  1.0  0.1355
  H  H30  1  0.010600  0.243800  0.032200  1.0  0.0788
  H  H31  1  0.782100  0.451200  0.976800  1.0  0.1301
  H  H32  1  0.945500  0.436200  0.934800  1.0  0.0888
  H  H33  1  0.226400  0.187000  0.062800  1.0  0.0987
  H  H34  1  0.255200  0.066600  0.042000  1.0  0.0958
  H  H35  1  0.249500  0.128500  0.260500  1.0  0.0881
  H  H36  1  0.286300  0.006200  0.237400  1.0  0.1079
  H  H37  1  0.180800  0.964900  0.091900  1.0  0.1325
  H  H38  1  0.215200  0.843600  0.073800  1.0  0.0713
  H  H39  1  0.414000  0.896600  0.152200  1.0  0.1204
  H  H40  1  0.443900  0.778600  0.128200  1.0  0.0731
  H  H41  1  0.923800  0.574300  0.537300  1.0  0.1144
  H  H42  1  0.009700  0.591900  0.414100  1.0  0.1083
  H  H43  1  0.061600  0.669300  0.594900  1.0  0.092
  H  H44  1  0.145500  0.688300  0.472500  1.0  0.1002
  H  H45  1  0.133700  0.756800  0.358400  1.0  0.1169
  H  H46  1  0.227600  0.768400  0.238600  1.0  0.0694
  H  H47  1  0.174600  0.553200  0.309200  1.0  0.1284
  H  H48  1  0.269700  0.571400  0.191200  1.0  0.0775
  H  H49  1  0.629900  0.435200  0.919200  1.0  0.0926
  H  H50  1  0.515000  0.383100  0.941100  1.0  0.1002
  H  H51  1  0.528800  0.577500  0.774900  1.0  0.1177
  H  H52  1  0.413900  0.526400  0.796200  1.0  0.1085
  H  H53  1  0.336200  0.398500  0.993700  1.0  0.1142
  H  H54  1  0.215900  0.356500  0.007100  1.0  0.0838
  H  H55  1  0.392000  0.419500  0.776300  1.0  0.1181
  H  H56  1  0.273300  0.375200  0.795400  1.0  0.0692
  H  H57  1  0.904900  0.732900  0.917300  1.0  0.093
  H  H58  1  0.018200  0.746800  0.952600  1.0  0.1138
  H  H59  1  0.065500  0.515100  0.886700  1.0  0.106
  H  H60  1  0.178800  0.529200  0.923000  1.0  0.0991
  H  H61  1  0.182100  0.745000  0.921000  1.0  0.1352
  H  H62  1  0.286600  0.756200  0.967800  1.0  0.0795
  H  H63  1  0.210100  0.548800  0.023200  1.0  0.1297
  H  H64  1  0.316500  0.563800  0.065200  1.0  0.0883
  H  H65  1  0.476200  0.813000  0.937200  1.0  0.0991
  H  H66  1  0.363800  0.933400  0.958000  1.0  0.0928
  H  H67  1  0.638500  0.871500  0.739500  1.0  0.0854
  H  H68  1  0.529900  0.993800  0.762600  1.0  0.1073
  H  H69  1  0.237600  0.035100  0.908100  1.0  0.1321
  H  H70  1  0.132600  0.156400  0.926200  1.0  0.0716
  H  H71  1  0.462800  0.103400  0.847800  1.0  0.1221
  H  H72  1  0.350700  0.221400  0.871800  1.0  0.0732
  H  H73  1  0.501900  0.462700  0.574300  1.0  0.1137
  H  H74  1  0.398400  0.585900  0.591900  1.0  0.1085
  H  H75  1  0.269100  0.405100  0.669300  1.0  0.0914
  H  H76  1  0.166200  0.527500  0.688300  1.0  0.1014
  H  H77  1  0.109500  0.641600  0.756800  1.0  0.1178
  H  H78  1  0.004000  0.761400  0.768400  1.0  0.0674
  H  H79  1  0.272200  0.690800  0.553200  1.0  0.1281
  H  H80  1  0.158900  0.808800  0.571400  1.0  0.0795
  H  H81  1  0.934900  0.080800  0.435200  1.0  0.0922
  H  H82  1  0.101900  0.058900  0.383100  1.0  0.1017
  H  H83  1  0.893700  0.225100  0.577500  1.0  0.1187
  H  H84  1  0.059700  0.203800  0.526400  1.0  0.1078
  H  H85  1  0.265300  0.006300  0.398500  1.0  0.1132
  H  H86  1  0.427600  0.992900  0.356500  1.0  0.0846
  H  H87  1  0.188500  0.223700  0.419500  1.0  0.1197
  H  H88  1  0.351500  0.204600  0.375200  1.0  0.0686
  H  H89  1  0.362200  0.082700  0.732900  1.0  0.0941
  H  H90  1  0.235000  0.047400  0.746800  1.0  0.1139
  H  H91  1  0.419400  0.113300  0.515100  1.0  0.1054
  H  H92  1  0.292000  0.077000  0.529200  1.0  0.0989
  H  H93  1  0.072900  0.079000  0.745000  1.0  0.1353
  H  H94  1  0.957200  0.032200  0.756200  1.0  0.0794
  H  H95  1  0.241100  0.976800  0.548800  1.0  0.1295
  H  H96  1  0.119700  0.934800  0.563800  1.0  0.089
  H  H97  1  0.710800  0.062800  0.813000  1.0  0.1001
  H  H98  1  0.702800  0.042000  0.933400  1.0  0.0933
  H  H99  1  0.490000  0.260500  0.871500  1.0  0.086
  H  H100  1  0.476300  0.237400  0.993800  1.0  0.1073
  H  H101  1  0.727300  0.091900  0.035100  1.0  0.1326
  H  H102  1  0.711000  0.073800  0.156400  1.0  0.0712
  H  H103  1  0.433800  0.152200  0.103400  1.0  0.1212
  H  H104  1  0.427900  0.128200  0.221400  1.0  0.0727
  H  H105  1  0.538900  0.537300  0.425700  1.0  0.113
  H  H106  1  0.576200  0.414100  0.408100  1.0  0.1085
  H  H107  1  0.343500  0.594900  0.330700  1.0  0.0914
  H  H108  1  0.382000  0.472500  0.311700  1.0  0.1003
  H  H109  1  0.507900  0.358400  0.243200  1.0  0.1177
  H  H110  1  0.533800  0.238600  0.231600  1.0  0.0705
  H  H111  1  0.516200  0.309200  0.446800  1.0  0.1285
  H  H112  1  0.539100  0.191200  0.428600  1.0  0.0768
  H  H113  1  0.450900  0.919200  0.564800  1.0  0.0928
  H  H114  1  0.543900  0.941100  0.616900  1.0  0.1011
  H  H115  1  0.696300  0.774900  0.422500  1.0  0.1181
  H  H116  1  0.789900  0.796200  0.473600  1.0  0.1088
  H  H117  1  0.670100  0.993700  0.601500  1.0  0.1146
  H  H118  1  0.777000  0.007100  0.643500  1.0  0.0843
  H  H119  1  0.831700  0.776300  0.580500  1.0  0.1206
  H  H120  1  0.931300  0.795400  0.624800  1.0  0.0688
  H  H121  1  0.177800  0.917300  0.267100  1.0  0.0928
  H  H122  1  0.029200  0.952600  0.253200  1.0  0.1139
  H  H123  1  0.047800  0.886700  0.484900  1.0  0.107
  H  H124  1  0.898200  0.923000  0.470800  1.0  0.0984
  H  H125  1  0.896900  0.921000  0.255000  1.0  0.1356
  H  H126  1  0.745600  0.967800  0.243800  1.0  0.0812
  H  H127  1  0.766700  0.023200  0.451200  1.0  0.1326
  H  H128  1  0.618300  0.065200  0.436200  1.0  0.0885
  H  H129  1  0.586600  0.937200  0.187000  1.0  0.0997
  H  H130  1  0.678200  0.958000  0.066600  1.0  0.0944
  H  H131  1  0.622000  0.739500  0.128500  1.0  0.0864
  H  H132  1  0.707500  0.762600  0.006200  1.0  0.1078
  H  H133  1  0.854300  0.908100  0.964900  1.0  0.1323
  H  H134  1  0.941200  0.926200  0.843600  1.0  0.0717
  H  H135  1  0.689400  0.847800  0.896600  1.0  0.1222
  H  H136  1  0.777500  0.871800  0.778600  1.0  0.0735
  C  C137  1  0.196100  0.392500  0.341100  1.0  0.6595
  C  C138  1  0.181900  0.382500  0.421500  1.0  -0.1176
  C  C139  1  0.090900  0.403600  0.475400  1.0  -0.0548
  C  C140  1  0.079300  0.392600  0.549600  1.0  -0.1265
  C  C141  1  0.262500  0.347200  0.441600  1.0  -0.0461
  C  C142  1  0.250800  0.335900  0.515100  1.0  -0.132
  C  C143  1  0.158400  0.359700  0.570900  1.0  0.0646
  C  C144  1  0.146000  0.347300  0.649900  1.0  0.1108
  C  C145  1  0.203800  0.282300  0.674500  1.0  -0.2043
  C  C146  1  0.194500  0.275900  0.746700  1.0  0.1942
  C  C147  1  0.079200  0.402400  0.703400  1.0  -0.1835
  C  C148  1  0.076300  0.390500  0.774500  1.0  0.1868
  C  C149  1  0.038600  0.454800  0.173000  1.0  0.69
  C  C150  1  0.947900  0.488900  0.154900  1.0  -0.1465
  C  C151  1  0.934300  0.546400  0.105600  1.0  -0.0266
  C  C152  1  0.847300  0.577600  0.092200  1.0  -0.1186
  C  C153  1  0.872800  0.461500  0.191700  1.0  -0.0783
  C  C154  1  0.786400  0.492200  0.178600  1.0  -0.1195
  C  C155  1  0.772100  0.550300  0.128300  1.0  0.0675
  C  C156  1  0.677500  0.582100  0.117100  1.0  0.1109
  C  C157  1  0.671380  0.604220  0.047620  1.0  -0.1859
  C  C158  1  0.581400  0.630000  0.040000  1.0  0.1793
  C  C159  1  0.588900  0.592000  0.175600  1.0  -0.2181
  C  C160  1  0.502200  0.618800  0.163600  1.0  0.1725
  C  C161  1  0.390300  0.383900  0.127100  1.0  0.6443
  C  C162  1  0.494500  0.377400  0.102600  1.0  -0.1219
  C  C163  1  0.570300  0.308200  0.081800  1.0  -0.0359
  C  C164  1  0.667700  0.300000  0.060000  1.0  -0.1168
  C  C165  1  0.517400  0.438300  0.100100  1.0  -0.0419
  C  C166  1  0.615800  0.429700  0.077900  1.0  -0.0843
  C  C167  1  0.691600  0.361300  0.056900  1.0  0.0506
  C  C168  1  0.796550  0.353480  0.031420  1.0  0.1053
  C  C169  1  0.866500  0.292100  0.048700  1.0  -0.22
  C  C170  1  0.964400  0.285900  0.020300  1.0  0.1631
  C  C171  1  0.827400  0.408200  0.988600  1.0  -0.2106
  C  C172  1  0.926100  0.398500  0.963100  1.0  0.1815
  C  C173  1  0.217700  0.247700  0.177900  1.0  0.6661
  C  C174  1  0.235000  0.170500  0.163900  1.0  -0.1226
  C  C175  1  0.237300  0.150900  0.098500  1.0  -0.0158
  C  C176  1  0.255600  0.078600  0.085600  1.0  -0.121
  C  C177  1  0.252100  0.116000  0.216000  1.0  -0.0159
  C  C178  1  0.273000  0.042800  0.202600  1.0  -0.1159
  C  C179  1  0.274200  0.024100  0.137300  1.0  0.0527
  C  C180  1  0.294800  0.946200  0.123600  1.0  0.1038
  C  C181  1  0.235000  0.927800  0.100000  1.0  -0.2172
  C  C182  1  0.256900  0.854500  0.088700  1.0  0.1777
  C  C183  1  0.372900  0.887700  0.134900  1.0  -0.1986
  C  C184  1  0.389900  0.816600  0.121000  1.0  0.1784
  C  C185  1  0.929700  0.607500  0.658900  1.0  0.6589
  C  C186  1  0.985900  0.617500  0.578500  1.0  -0.1192
  C  C187  1  0.969900  0.596400  0.524600  1.0  -0.054
  C  C188  1  0.021500  0.607400  0.450400  1.0  -0.1298
  C  C189  1  0.051300  0.652800  0.558400  1.0  -0.0442
  C  C190  1  0.101800  0.664100  0.484900  1.0  -0.1329
  C  C191  1  0.089000  0.640300  0.429100  1.0  0.064
  C  C192  1  0.143200  0.652700  0.350100  1.0  0.1087
  C  C193  1  0.160600  0.717700  0.325500  1.0  -0.2055
  C  C194  1  0.217100  0.724100  0.253300  1.0  0.1929
  C  C195  1  0.185000  0.597600  0.296600  1.0  -0.1823
  C  C196  1  0.241300  0.609500  0.225500  1.0  0.1849
  C  C197  1  0.666400  0.545200  0.827000  1.0  0.6867
  C  C198  1  0.591700  0.511100  0.845100  1.0  -0.149
  C  C199  1  0.586300  0.453600  0.894400  1.0  -0.022
  C  C200  1  0.517100  0.422400  0.907800  1.0  -0.1148
  C  C201  1  0.526000  0.538500  0.808300  1.0  -0.0754
  C  C202  1  0.457200  0.507800  0.821400  1.0  -0.114
  C  C203  1  0.450700  0.449700  0.871700  1.0  0.071
  C  C204  1  0.376700  0.417900  0.882900  1.0  0.1121
  C  C205  1  0.323220  0.395780  0.952380  1.0  -0.1854
  C  C206  1  0.251400  0.370000  0.960000  1.0  0.1773
  C  C207  1  0.356500  0.408000  0.824400  1.0  -0.2222
  C  C208  1  0.284600  0.381200  0.836400  1.0  0.172
  C  C209  1  0.901300  0.616100  0.872900  1.0  0.6458
  C  C210  1  0.974500  0.622600  0.897400  1.0  -0.1219
  C  C211  1  0.960300  0.691800  0.918200  1.0  -0.035
  C  C212  1  0.027700  0.700000  0.940000  1.0  -0.1158
  C  C213  1  0.055800  0.561700  0.899900  1.0  -0.0431
  C  C214  1  0.123400  0.570300  0.922100  1.0  -0.085
  C  C215  1  0.109800  0.638700  0.943100  1.0  0.0502
  C  C216  1  0.181450  0.646520  0.968580  1.0  0.1071
  C  C217  1  0.207300  0.707900  0.951300  1.0  -0.2195
  C  C218  1  0.270600  0.714100  0.979700  1.0  0.1639
  C  C219  1  0.224200  0.591800  0.011400  1.0  -0.2128
  C  C220  1  0.287700  0.601500  0.036900  1.0  0.1799
  C  C221  1  0.643300  0.752300  0.822100  1.0  0.6625
  C  C222  1  0.569400  0.829500  0.836100  1.0  -0.1269
  C  C223  1  0.486700  0.849100  0.901500  1.0  -0.0153
  C  C224  1  0.419800  0.921400  0.914400  1.0  -0.1215
  C  C225  1  0.584100  0.884000  0.784000  1.0  -0.0131
  C  C226  1  0.518400  0.957200  0.797400  1.0  -0.1156
  C  C227  1  0.435600  0.975900  0.862700  1.0  0.0525
  C  C228  1  0.364600  0.053800  0.876400  1.0  0.1046
  C  C229  1  0.262800  0.072200  0.900000  1.0  -0.2163
  C  C230  1  0.200100  0.145500  0.911300  1.0  0.1778
  C  C231  1  0.395500  0.112300  0.865100  1.0  -0.2002
  C  C232  1  0.327500  0.183400  0.879000  1.0  0.1784
  C  C233  1  0.462800  0.341100  0.607500  1.0  0.659
  C  C234  1  0.396600  0.421500  0.617500  1.0  -0.1196
  C  C235  1  0.433700  0.475400  0.596400  1.0  -0.0553
  C  C236  1  0.371100  0.549600  0.607400  1.0  -0.1257
  C  C237  1  0.295900  0.441600  0.652800  1.0  -0.045
  C  C238  1  0.234100  0.515100  0.664100  1.0  -0.1348
  C  C239  1  0.270700  0.570900  0.640300  1.0  0.0663
  C  C240  1  0.204100  0.649900  0.652700  1.0  0.1089
  C  C241  1  0.121700  0.674500  0.717700  1.0  -0.2016
  C  C242  1  0.058800  0.746700  0.724100  1.0  0.1923
  C  C243  1  0.217400  0.703400  0.597600  1.0  -0.1821
  C  C244  1  0.149200  0.774500  0.609500  1.0  0.185
  C  C245  1  0.788400  0.173000  0.545200  1.0  0.688
  C  C246  1  0.897200  0.154900  0.511100  1.0  -0.149
  C  C247  1  0.960100  0.105600  0.453600  1.0  -0.0288
  C  C248  1  0.060500  0.092200  0.422400  1.0  -0.1212
  C  C249  1  0.935500  0.191700  0.538500  1.0  -0.081
  C  C250  1  0.035000  0.178600  0.507800  1.0  -0.1192
  C  C251  1  0.099600  0.128300  0.449700  1.0  0.0681
  C  C252  1  0.205400  0.117100  0.417900  1.0  0.1123
  C  C253  1  0.281000  0.047620  0.395780  1.0  -0.1836
  C  C254  1  0.378600  0.040000  0.370000  1.0  0.1762
  C  C255  1  0.235500  0.175600  0.408000  1.0  -0.2236
  C  C256  1  0.334200  0.163600  0.381200  1.0  0.1732
  C  C257  1  0.482600  0.127100  0.616100  1.0  0.6475
  C  C258  1  0.402900  0.102600  0.622600  1.0  -0.1215
  C  C259  1  0.347900  0.081800  0.691800  1.0  -0.0406
  C  C260  1  0.272300  0.060000  0.700000  1.0  -0.1122
  C  C261  1  0.382500  0.100100  0.561700  1.0  -0.0431
  C  C262  1  0.306300  0.077900  0.570300  1.0  -0.0864
  C  C263  1  0.251500  0.056900  0.638700  1.0  0.0507
  C  C264  1  0.172030  0.031420  0.646520  1.0  0.1025
  C  C265  1  0.084800  0.048700  0.707900  1.0  -0.2198
  C  C266  1  0.015300  0.020300  0.714100  1.0  0.1628
  C  C267  1  0.184000  0.988600  0.591800  1.0  -0.2097
  C  C268  1  0.110800  0.963100  0.601500  1.0  0.1843
  C  C269  1  0.604400  0.177900  0.752300  1.0  0.6636
  C  C270  1  0.601100  0.163900  0.829500  1.0  -0.1233
  C  C271  1  0.664200  0.098500  0.849100  1.0  -0.0161
  C  C272  1  0.658800  0.085600  0.921400  1.0  -0.1228
  C  C273  1  0.531900  0.216000  0.884000  1.0  -0.0141
  C  C274  1  0.524400  0.202600  0.957200  1.0  -0.1167
  C  C275  1  0.588500  0.137300  0.975900  1.0  0.0537
  C  C276  1  0.581600  0.123600  0.053800  1.0  0.1063
  C  C277  1  0.665000  0.100000  0.072200  1.0  -0.2169
  C  C278  1  0.654400  0.088700  0.145500  1.0  0.1779
  C  C279  1  0.492200  0.134900  0.112300  1.0  -0.1976
  C  C280  1  0.489100  0.121000  0.183400  1.0  0.178
  C  C281  1  0.411400  0.658900  0.392500  1.0  0.6585
  C  C282  1  0.435600  0.578500  0.382500  1.0  -0.1206
  C  C283  1  0.505500  0.524600  0.403600  1.0  -0.0526
  C  C284  1  0.528100  0.450400  0.392600  1.0  -0.1271
  C  C285  1  0.390300  0.558400  0.347200  1.0  -0.044
  C  C286  1  0.413300  0.484900  0.335900  1.0  -0.1337
  C  C287  1  0.481900  0.429100  0.359700  1.0  0.0658
  C  C288  1  0.506700  0.350100  0.347300  1.0  0.1101
  C  C289  1  0.513900  0.325500  0.282300  1.0  -0.2059
  C  C290  1  0.529600  0.253300  0.275900  1.0  0.1935
  C  C291  1  0.518400  0.296600  0.402400  1.0  -0.1811
  C  C292  1  0.533200  0.225500  0.390500  1.0  0.1845
  C  C293  1  0.506600  0.827000  0.454800  1.0  0.6885
  C  C294  1  0.563200  0.845100  0.488900  1.0  -0.1523
  C  C295  1  0.519300  0.894400  0.546400  1.0  -0.0235
  C  C296  1  0.575100  0.907800  0.577600  1.0  -0.1197
  C  C297  1  0.665700  0.808300  0.461500  1.0  -0.0789
  C  C298  1  0.721400  0.821400  0.492200  1.0  -0.1196
  C  C299  1  0.677600  0.871700  0.550300  1.0  0.0683
  C  C300  1  0.740400  0.882900  0.582100  1.0  0.1113
  C  C301  1  0.724400  0.952380  0.604220  1.0  -0.1852
  C  C302  1  0.788600  0.960000  0.630000  1.0  0.1759
  C  C303  1  0.819100  0.824400  0.592000  1.0  -0.2209
  C  C304  1  0.879000  0.836400  0.618800  1.0  0.1731
  C  C305  1  0.225800  0.872900  0.383900  1.0  0.6471
  C  C306  1  0.128100  0.897400  0.377400  1.0  -0.1221
  C  C307  1  0.121500  0.918200  0.308200  1.0  -0.0398
  C  C308  1  0.032300  0.940000  0.300000  1.0  -0.1113
  C  C309  1  0.044300  0.899900  0.438300  1.0  -0.0421
  C  C310  1  0.954500  0.922100  0.429700  1.0  -0.0847
  C  C311  1  0.947100  0.943100  0.361300  1.0  0.0496
  C  C312  1  0.849970  0.968580  0.353480  1.0  0.1032
  C  C313  1  0.841400  0.951300  0.292100  1.0  -0.2214
  C  C314  1  0.749700  0.979700  0.285900  1.0  0.1626
  C  C315  1  0.764400  0.011400  0.408200  1.0  -0.2108
  C  C316  1  0.675400  0.036900  0.398500  1.0  0.1831
  C  C317  1  0.534600  0.822100  0.247700  1.0  0.667
  C  C318  1  0.594500  0.836100  0.170500  1.0  -0.1218
  C  C319  1  0.611800  0.901500  0.150900  1.0  -0.0162
  C  C320  1  0.665800  0.914400  0.078600  1.0  -0.1214
  C  C321  1  0.631900  0.784000  0.116000  1.0  -0.0148
  C  C322  1  0.684200  0.797400  0.042800  1.0  -0.1128
  C  C323  1  0.701700  0.862700  0.024100  1.0  0.053
  C  C324  1  0.759000  0.876400  0.946200  1.0  0.1044
  C  C325  1  0.837200  0.900000  0.927800  1.0  -0.2186
  C  C326  1  0.888600  0.911300  0.854500  1.0  0.1782
  C  C327  1  0.739400  0.865100  0.887700  1.0  -0.1982
  C  C328  1  0.793500  0.879000  0.816600  1.0  0.1787
  N  N329  1  0.132220  0.328120  0.798040  1.0  -0.3301
  N  N330  1  0.495680  0.636840  0.097800  1.0  -0.3292
  N  N331  1  0.995500  0.337430  0.976970  1.0  -0.3167
  N  N332  1  0.333770  0.798020  0.097440  1.0  -0.3147
  N  N333  1  0.258380  0.671880  0.201960  1.0  -0.3314
  N  N334  1  0.230320  0.363160  0.902200  1.0  -0.33
  N  N335  1  0.309900  0.662570  0.023030  1.0  -0.3201
  N  N336  1  0.229230  0.201980  0.902560  1.0  -0.3138
  N  N337  1  0.069740  0.798040  0.671880  1.0  -0.331
  N  N338  1  0.406520  0.097800  0.363160  1.0  -0.3287
  N  N339  1  0.027530  0.976970  0.662570  1.0  -0.3178
  N  N340  1  0.568790  0.097440  0.201980  1.0  -0.3175
  N  N341  1  0.539660  0.201960  0.328120  1.0  -0.3293
  N  N342  1  0.867480  0.902200  0.636840  1.0  -0.3293
  N  N343  1  0.667070  0.023030  0.337430  1.0  -0.3176
  N  N344  1  0.868210  0.902560  0.798020  1.0  -0.3153
  O  O345  1  0.278300  0.359700  0.293100  1.0  -0.6276
  O  O346  1  0.124410  0.432190  0.322390  1.0  -0.6241
  O  O347  1  0.039600  0.409660  0.225540  1.0  -0.6175
  O  O348  1  0.113300  0.472280  0.136720  1.0  -0.6278
  O  O349  1  0.319120  0.445270  0.147490  1.0  -0.6428
  O  O350  1  0.373580  0.327120  0.127320  1.0  -0.6384
  O  O351  1  0.213520  0.295990  0.126170  1.0  -0.6816
  O  O352  1  0.210210  0.264480  0.239700  1.0  -0.5881
  O  O353  1  0.931100  0.640300  0.706900  1.0  -0.6268
  O  O354  1  0.878990  0.567810  0.677610  1.0  -0.6254
  O  O355  1  0.674800  0.590340  0.774460  1.0  -0.616
  O  O356  1  0.722300  0.527720  0.863280  1.0  -0.6275
  O  O357  1  0.911880  0.554730  0.852510  1.0  -0.6431
  O  O358  1  0.828020  0.672880  0.872680  1.0  -0.6387
  O  O359  1  0.635680  0.704010  0.873830  1.0  -0.6791
  O  O360  1  0.714390  0.735520  0.760300  1.0  -0.5882
  O  O361  1  0.428600  0.293100  0.640300  1.0  -0.6282
  O  O362  1  0.553200  0.322390  0.567810  1.0  -0.6223
  O  O363  1  0.734860  0.225540  0.590340  1.0  -0.6156
  O  O364  1  0.749980  0.136720  0.527720  1.0  -0.6271
  O  O365  1  0.533390  0.147490  0.554730  1.0  -0.6415
  O  O366  1  0.499100  0.127320  0.672880  1.0  -0.6358
  O  O367  1  0.660310  0.126170  0.704010  1.0  -0.6784
  O  O368  1  0.550090  0.239700  0.735520  1.0  -0.5898
  O  O369  1  0.362000  0.706900  0.359700  1.0  -0.6277
  O  O370  1  0.443400  0.677610  0.432190  1.0  -0.6304
  O  O371  1  0.550740  0.774460  0.409660  1.0  -0.6147
  O  O372  1  0.414420  0.863280  0.472280  1.0  -0.6241
  O  O373  1  0.235610  0.852510  0.445270  1.0  -0.6405
  O  O374  1  0.299300  0.872680  0.327120  1.0  -0.6364
  O  O375  1  0.490490  0.873830  0.295990  1.0  -0.6784
  O  O376  1  0.525310  0.760300  0.264480  1.0  -0.5917
