# generated using pymatgen
data_Ga4P5HO20
_symmetry_space_group_name_H-M   'P 1'
_cell_length_a   9.36190000
_cell_length_b   10.11580000
_cell_length_c   12.64560000
_cell_angle_alpha   98.48500000
_cell_angle_beta   107.01800000
_cell_angle_gamma   105.42400000
_symmetry_Int_Tables_number   1
_chemical_formula_structural   Ga4P5HO20
_chemical_formula_sum   'Ga8 P10 H2 O40'
_cell_volume   1070.38709228
_cell_formula_units_Z   2
loop_
 _symmetry_equiv_pos_site_id
 _symmetry_equiv_pos_as_xyz
  1  'x, y, z'
loop_
 _atom_site_type_symbol
 _atom_site_label
 _atom_site_symmetry_multiplicity
 _atom_site_fract_x
 _atom_site_fract_y
 _atom_site_fract_z
 _atom_site_occupancy
 _atom_site_charge
  Ga  Ga1  1  0.777250  0.097790  0.511840  1.0  1.6668
  Ga  Ga2  1  0.784450  0.601680  0.516640  1.0  1.6537
  Ga  Ga3  1  0.498110  0.201430  0.227690  1.0  1.7195
  Ga  Ga4  1  0.512440  0.691170  0.219730  1.0  1.7257
  Ga  Ga5  1  0.222750  0.902210  0.488160  1.0  1.6655
  Ga  Ga6  1  0.215550  0.398320  0.483360  1.0  1.6515
  Ga  Ga7  1  0.501890  0.798570  0.772310  1.0  1.7186
  Ga  Ga8  1  0.487560  0.308830  0.780270  1.0  1.7272
  P  P9  1  0.417000  0.954600  0.324500  1.0  1.8417
  P  P10  1  0.422900  0.464700  0.335000  1.0  1.8403
  P  P11  1  0.840800  0.339400  0.392300  1.0  1.8643
  P  P12  1  0.155000  0.161300  0.604400  1.0  1.8449
  P  P13  1  0.495700  0.189600  0.982900  1.0  1.8102
  P  P14  1  0.583000  0.045400  0.675500  1.0  1.8428
  P  P15  1  0.577100  0.535300  0.665000  1.0  1.8413
  P  P16  1  0.159200  0.660600  0.607700  1.0  1.8651
  P  P17  1  0.845000  0.838700  0.395600  1.0  1.8439
  P  P18  1  0.504300  0.810400  0.017100  1.0  1.812
  H  H19  1  0.636000  0.076000  0.055000  1.0  0.4595
  H  H20  1  0.364000  0.924000  0.945000  1.0  0.4581
  O  O21  1  0.560800  0.055900  0.419800  1.0  -0.8933
  O  O22  1  0.268300  0.926100  0.357200  1.0  -0.8313
  O  O23  1  0.830400  0.284900  0.498000  1.0  -0.8305
  O  O24  1  0.995500  0.141600  0.619100  1.0  -0.7826
  O  O25  1  0.190900  0.022200  0.598400  1.0  -0.8419
  O  O26  1  0.567800  0.570300  0.427400  1.0  -0.8711
  O  O27  1  0.272800  0.456600  0.364100  1.0  -0.7899
  O  O28  1  0.821700  0.486400  0.405700  1.0  -0.839
  O  O29  1  0.996600  0.347800  0.373300  1.0  -0.7584
  O  O30  1  0.162300  0.212000  0.497500  1.0  -0.8315
  O  O31  1  0.384400  0.021700  0.221200  1.0  -0.8538
  O  O32  1  0.433000  0.315300  0.313700  1.0  -0.9642
  O  O33  1  0.710700  0.238400  0.283600  1.0  -0.8914
  O  O34  1  0.445800  0.231500  0.083800  1.0  -0.7995
  O  O35  1  0.430500  0.808700  0.286100  1.0  -1.0244
  O  O36  1  0.400300  0.515600  0.223400  1.0  -0.8383
  O  O37  1  0.275800  0.269900  0.713400  1.0  -0.8703
  O  O38  1  0.530200  0.318400  0.932100  1.0  -0.8128
  O  O39  1  0.659000  0.166200  0.028400  1.0  -0.5298
  O  O40  1  0.372000  0.060600  0.897100  1.0  -0.572
  O  O41  1  0.439200  0.944100  0.580200  1.0  -0.8941
  O  O42  1  0.731700  0.073900  0.642800  1.0  -0.8328
  O  O43  1  0.169600  0.715100  0.502000  1.0  -0.8302
  O  O44  1  0.004500  0.858400  0.380900  1.0  -0.7839
  O  O45  1  0.809100  0.977800  0.401600  1.0  -0.8397
  O  O46  1  0.432200  0.429700  0.572600  1.0  -0.87
  O  O47  1  0.727200  0.543400  0.635900  1.0  -0.7898
  O  O48  1  0.178300  0.513600  0.594300  1.0  -0.8384
  O  O49  1  0.003400  0.652200  0.626700  1.0  -0.7574
  O  O50  1  0.837700  0.788000  0.502500  1.0  -0.8305
  O  O51  1  0.615600  0.978300  0.778800  1.0  -0.8541
  O  O52  1  0.567000  0.684700  0.686300  1.0  -0.9631
  O  O53  1  0.289300  0.761600  0.716400  1.0  -0.8926
  O  O54  1  0.554200  0.768500  0.916200  1.0  -0.7994
  O  O55  1  0.569500  0.191300  0.713900  1.0  -1.0256
  O  O56  1  0.599700  0.484400  0.776600  1.0  -0.8372
  O  O57  1  0.724200  0.730100  0.286600  1.0  -0.8701
  O  O58  1  0.469800  0.681600  0.067900  1.0  -0.813
  O  O59  1  0.341000  0.833800  0.971600  1.0  -0.5303
  O  O60  1  0.628000  0.939400  0.102900  1.0  -0.5741
