# generated using pymatgen
data_Sr2H48C84ClO8
_symmetry_space_group_name_H-M   'P 1'
_cell_length_a   40.59200000
_cell_length_b   16.61600000
_cell_length_c   12.99800000
_cell_angle_alpha   90.00000000
_cell_angle_beta   98.14500000
_cell_angle_gamma   90.00000000
_symmetry_Int_Tables_number   1
_chemical_formula_structural   Sr2H48C84ClO8
_chemical_formula_sum   'Sr8 H192 C336 Cl4 O32'
_cell_volume   8678.41386093
_cell_formula_units_Z   4
loop_
 _symmetry_equiv_pos_site_id
 _symmetry_equiv_pos_as_xyz
  1  'x, y, z'
loop_
 _atom_site_type_symbol
 _atom_site_label
 _atom_site_symmetry_multiplicity
 _atom_site_fract_x
 _atom_site_fract_y
 _atom_site_fract_z
 _atom_site_occupancy
 _atom_site_charge
  Sr  Sr1  1  0.763870  0.404630  0.133390  1.0  1.6335
  Sr  Sr2  1  0.740790  0.391410  0.829570  1.0  1.6418
  Sr  Sr3  1  0.236130  0.904630  0.366610  1.0  1.6337
  Sr  Sr4  1  0.259210  0.891410  0.670430  1.0  1.6433
  Sr  Sr5  1  0.236130  0.595370  0.866610  1.0  1.6335
  Sr  Sr6  1  0.259210  0.608590  0.170430  1.0  1.6423
  Sr  Sr7  1  0.763870  0.095370  0.633390  1.0  1.6332
  Sr  Sr8  1  0.740790  0.108590  0.329570  1.0  1.6417
  H  H9  1  0.688900  0.297700  0.149300  1.0  0.1123
  H  H10  1  0.647700  0.246600  0.236000  1.0  0.1054
  H  H11  1  0.581900  0.267300  0.975900  1.0  0.1011
  H  H12  1  0.623000  0.317200  0.889300  1.0  0.0989
  H  H13  1  0.599700  0.369900  0.238900  1.0  0.099
  H  H14  1  0.574700  0.455800  0.337700  1.0  0.1103
  H  H15  1  0.526100  0.416700  0.403300  1.0  0.1019
  H  H16  1  0.502600  0.294400  0.360200  1.0  0.1065
  H  H17  1  0.507800  0.025800  0.193000  1.0  0.1042
  H  H18  1  0.535600  0.937100  0.102100  1.0  0.1089
  H  H19  1  0.585400  0.974000  0.045900  1.0  0.1027
  H  H20  1  0.605600  0.102300  0.071900  1.0  0.1098
  H  H21  1  0.534300  0.130700  0.440100  1.0  0.1098
  H  H22  1  0.526800  0.097800  0.606800  1.0  0.0968
  H  H23  1  0.473300  0.070500  0.646100  1.0  0.0999
  H  H24  1  0.428000  0.078400  0.520500  1.0  0.1154
  H  H25  1  0.379900  0.134700  0.154300  1.0  0.1102
  H  H26  1  0.386700  0.175800  0.990300  1.0  0.119
  H  H27  1  0.439800  0.215600  0.955900  1.0  0.101
  H  H28  1  0.485100  0.204200  0.079600  1.0  0.1002
  H  H29  1  0.380000  0.226200  0.359000  1.0  0.1055
  H  H30  1  0.324600  0.213200  0.379300  1.0  0.1147
  H  H31  1  0.332300  0.973000  0.354200  1.0  0.094
  H  H32  1  0.388300  0.986700  0.344000  1.0  0.0954
  H  H33  1  0.878400  0.320500  0.082200  1.0  0.1085
  H  H34  1  0.921100  0.276800  0.996600  1.0  0.0973
  H  H35  1  0.855900  0.226300  0.744600  1.0  0.0952
  H  H36  1  0.812800  0.271800  0.828700  1.0  0.1088
  H  H37  1  0.905000  0.364700  0.745400  1.0  0.1062
  H  H38  1  0.929200  0.446300  0.639100  1.0  0.1194
  H  H39  1  0.976300  0.403200  0.571700  1.0  0.0929
  H  H40  1  0.001500  0.284700  0.620500  1.0  0.1007
  H  H41  1  0.897000  0.098500  0.913100  1.0  0.1106
  H  H42  1  0.917500  0.971800  0.946200  1.0  0.0962
  H  H43  1  0.967900  0.932700  0.897300  1.0  0.1043
  H  H44  1  0.997400  0.020200  0.807900  1.0  0.0927
  H  H45  1  0.966900  0.117700  0.551900  1.0  0.1135
  H  H46  1  0.972000  0.093500  0.383200  1.0  0.0891
  H  H47  1  0.024100  0.080000  0.329000  1.0  0.1096
  H  H48  1  0.070900  0.084200  0.448700  1.0  0.1106
  H  H49  1  0.022000  0.194000  0.905500  1.0  0.0983
  H  H50  1  0.068900  0.206700  0.023500  1.0  0.1157
  H  H51  1  0.120900  0.171600  0.976300  1.0  0.1068
  H  H52  1  0.125200  0.132500  0.811800  1.0  0.1138
  H  H53  1  0.110900  0.982700  0.605700  1.0  0.1046
  H  H54  1  0.161800  0.968300  0.546100  1.0  0.0879
  H  H55  1  0.172700  0.207600  0.547300  1.0  0.1081
  H  H56  1  0.124000  0.221200  0.616000  1.0  0.0972
  H  H57  1  0.311100  0.797700  0.350700  1.0  0.1119
  H  H58  1  0.352300  0.746600  0.264000  1.0  0.1058
  H  H59  1  0.418100  0.767300  0.524100  1.0  0.1013
  H  H60  1  0.377000  0.817200  0.610700  1.0  0.0988
  H  H61  1  0.400300  0.869900  0.261100  1.0  0.0989
  H  H62  1  0.425300  0.955800  0.162300  1.0  0.1109
  H  H63  1  0.473900  0.916700  0.096700  1.0  0.1021
  H  H64  1  0.497400  0.794400  0.139800  1.0  0.1062
  H  H65  1  0.492200  0.525800  0.307000  1.0  0.1048
  H  H66  1  0.464400  0.437100  0.397900  1.0  0.1091
  H  H67  1  0.414600  0.474000  0.454100  1.0  0.1017
  H  H68  1  0.394400  0.602300  0.428100  1.0  0.109
  H  H69  1  0.465700  0.630700  0.059900  1.0  0.1088
  H  H70  1  0.473200  0.597800  0.893200  1.0  0.0966
  H  H71  1  0.526700  0.570500  0.853900  1.0  0.0997
  H  H72  1  0.572000  0.578400  0.979500  1.0  0.1151
  H  H73  1  0.620100  0.634700  0.345700  1.0  0.1109
  H  H74  1  0.613300  0.675800  0.509700  1.0  0.1194
  H  H75  1  0.560200  0.715600  0.544100  1.0  0.1002
  H  H76  1  0.514900  0.704200  0.420400  1.0  0.1007
  H  H77  1  0.620000  0.726200  0.141000  1.0  0.1054
  H  H78  1  0.675400  0.713200  0.120700  1.0  0.1147
  H  H79  1  0.667700  0.473000  0.145800  1.0  0.0945
  H  H80  1  0.611700  0.486700  0.156000  1.0  0.0957
  H  H81  1  0.121600  0.820500  0.417800  1.0  0.1075
  H  H82  1  0.078900  0.776800  0.503400  1.0  0.0972
  H  H83  1  0.144100  0.726300  0.755400  1.0  0.0955
  H  H84  1  0.187200  0.771800  0.671300  1.0  0.1097
  H  H85  1  0.095000  0.864700  0.754600  1.0  0.1068
  H  H86  1  0.070800  0.946300  0.860900  1.0  0.1191
  H  H87  1  0.023700  0.903200  0.928300  1.0  0.0928
  H  H88  1  0.998500  0.784700  0.879500  1.0  0.1002
  H  H89  1  0.103000  0.598500  0.586900  1.0  0.1106
  H  H90  1  0.082500  0.471800  0.553800  1.0  0.0964
  H  H91  1  0.032100  0.432700  0.602700  1.0  0.1053
  H  H92  1  0.002600  0.520200  0.692100  1.0  0.0931
  H  H93  1  0.033100  0.617700  0.948100  1.0  0.1139
  H  H94  1  0.028000  0.593500  0.116800  1.0  0.0892
  H  H95  1  0.975900  0.580000  0.171000  1.0  0.1103
  H  H96  1  0.929100  0.584200  0.051300  1.0  0.1098
  H  H97  1  0.978000  0.694000  0.594500  1.0  0.0977
  H  H98  1  0.931100  0.706700  0.476500  1.0  0.116
  H  H99  1  0.879100  0.671600  0.523700  1.0  0.1058
  H  H100  1  0.874800  0.632500  0.688200  1.0  0.1134
  H  H101  1  0.889100  0.482700  0.894300  1.0  0.1042
  H  H102  1  0.838200  0.468300  0.953900  1.0  0.089
  H  H103  1  0.827300  0.707600  0.952700  1.0  0.1077
  H  H104  1  0.876000  0.721200  0.884000  1.0  0.0971
  H  H105  1  0.311100  0.702300  0.850700  1.0  0.1121
  H  H106  1  0.352300  0.753400  0.764000  1.0  0.1057
  H  H107  1  0.418100  0.732700  0.024100  1.0  0.1013
  H  H108  1  0.377000  0.682800  0.110700  1.0  0.099
  H  H109  1  0.400300  0.630100  0.761100  1.0  0.0991
  H  H110  1  0.425300  0.544200  0.662300  1.0  0.1106
  H  H111  1  0.473900  0.583300  0.596700  1.0  0.1018
  H  H112  1  0.497400  0.705600  0.639800  1.0  0.1063
  H  H113  1  0.492200  0.974200  0.807000  1.0  0.1048
  H  H114  1  0.464400  0.062900  0.897900  1.0  0.1095
  H  H115  1  0.414600  0.026000  0.954100  1.0  0.1036
  H  H116  1  0.394400  0.897700  0.928100  1.0  0.1091
  H  H117  1  0.465700  0.869300  0.559900  1.0  0.109
  H  H118  1  0.473200  0.902200  0.393200  1.0  0.0967
  H  H119  1  0.526700  0.929500  0.353900  1.0  0.0997
  H  H120  1  0.572000  0.921600  0.479500  1.0  0.1152
  H  H121  1  0.620100  0.865300  0.845700  1.0  0.1107
  H  H122  1  0.613300  0.824200  0.009700  1.0  0.1194
  H  H123  1  0.560200  0.784400  0.044100  1.0  0.1001
  H  H124  1  0.514900  0.795800  0.920400  1.0  0.1005
  H  H125  1  0.620000  0.773800  0.641000  1.0  0.1041
  H  H126  1  0.675400  0.786800  0.620700  1.0  0.1143
  H  H127  1  0.667700  0.027000  0.645800  1.0  0.0942
  H  H128  1  0.611700  0.013300  0.656000  1.0  0.096
  H  H129  1  0.121600  0.679500  0.917800  1.0  0.1076
  H  H130  1  0.078900  0.723200  0.003400  1.0  0.0968
  H  H131  1  0.144100  0.773700  0.255400  1.0  0.0949
  H  H132  1  0.187200  0.728200  0.171300  1.0  0.1094
  H  H133  1  0.095000  0.635300  0.254600  1.0  0.1066
  H  H134  1  0.070800  0.553700  0.360900  1.0  0.1191
  H  H135  1  0.023700  0.596800  0.428300  1.0  0.0927
  H  H136  1  0.998500  0.715300  0.379500  1.0  0.1006
  H  H137  1  0.103000  0.901500  0.086900  1.0  0.1109
  H  H138  1  0.082500  0.028200  0.053800  1.0  0.0952
  H  H139  1  0.032100  0.067300  0.102700  1.0  0.1047
  H  H140  1  0.002600  0.979800  0.192100  1.0  0.0931
  H  H141  1  0.033100  0.882300  0.448100  1.0  0.1138
  H  H142  1  0.028000  0.906500  0.616800  1.0  0.089
  H  H143  1  0.975900  0.920000  0.671000  1.0  0.1096
  H  H144  1  0.929100  0.915800  0.551300  1.0  0.1098
  H  H145  1  0.978000  0.806000  0.094500  1.0  0.0975
  H  H146  1  0.931100  0.793300  0.976500  1.0  0.1161
  H  H147  1  0.879100  0.828400  0.023700  1.0  0.1059
  H  H148  1  0.874800  0.867500  0.188200  1.0  0.1135
  H  H149  1  0.889100  0.017300  0.394300  1.0  0.1042
  H  H150  1  0.838200  0.031700  0.453900  1.0  0.0878
  H  H151  1  0.827300  0.792400  0.452700  1.0  0.1064
  H  H152  1  0.876000  0.778800  0.384000  1.0  0.0966
  H  H153  1  0.688900  0.202300  0.649300  1.0  0.1087
  H  H154  1  0.647700  0.253400  0.736000  1.0  0.1054
  H  H155  1  0.581900  0.232700  0.475900  1.0  0.1011
  H  H156  1  0.623000  0.182800  0.389300  1.0  0.0987
  H  H157  1  0.599700  0.130100  0.738900  1.0  0.0989
  H  H158  1  0.574700  0.044200  0.837700  1.0  0.1105
  H  H159  1  0.526100  0.083300  0.903300  1.0  0.1021
  H  H160  1  0.502600  0.205600  0.860200  1.0  0.1067
  H  H161  1  0.507800  0.474200  0.693000  1.0  0.1041
  H  H162  1  0.535600  0.562900  0.602100  1.0  0.1091
  H  H163  1  0.585400  0.526000  0.545900  1.0  0.1038
  H  H164  1  0.605600  0.397700  0.571900  1.0  0.11
  H  H165  1  0.534300  0.369300  0.940100  1.0  0.1102
  H  H166  1  0.526800  0.402200  0.106800  1.0  0.0965
  H  H167  1  0.473300  0.429500  0.146100  1.0  0.0998
  H  H168  1  0.428000  0.421600  0.020500  1.0  0.1153
  H  H169  1  0.379900  0.365300  0.654300  1.0  0.1102
  H  H170  1  0.386700  0.324200  0.490300  1.0  0.1194
  H  H171  1  0.439800  0.284400  0.455900  1.0  0.1012
  H  H172  1  0.485100  0.295800  0.579600  1.0  0.1
  H  H173  1  0.380000  0.273800  0.859000  1.0  0.1036
  H  H174  1  0.324600  0.286800  0.879300  1.0  0.1143
  H  H175  1  0.332300  0.527000  0.854200  1.0  0.0944
  H  H176  1  0.388300  0.513300  0.844000  1.0  0.0954
  H  H177  1  0.878400  0.179500  0.582200  1.0  0.109
  H  H178  1  0.921100  0.223200  0.496600  1.0  0.0974
  H  H179  1  0.855900  0.273700  0.244600  1.0  0.0952
  H  H180  1  0.812800  0.228200  0.328700  1.0  0.1089
  H  H181  1  0.905000  0.135300  0.245400  1.0  0.106
  H  H182  1  0.929200  0.053700  0.139100  1.0  0.1194
  H  H183  1  0.976300  0.096800  0.071700  1.0  0.0925
  H  H184  1  0.001500  0.215300  0.120500  1.0  0.1008
  H  H185  1  0.897000  0.401500  0.413100  1.0  0.1108
  H  H186  1  0.917500  0.528200  0.446200  1.0  0.0945
  H  H187  1  0.967900  0.567300  0.397300  1.0  0.1051
  H  H188  1  0.997400  0.479800  0.307900  1.0  0.0929
  H  H189  1  0.966900  0.382300  0.051900  1.0  0.1135
  H  H190  1  0.972000  0.406500  0.883200  1.0  0.0892
  H  H191  1  0.024100  0.420000  0.829000  1.0  0.1087
  H  H192  1  0.070900  0.415800  0.948700  1.0  0.1106
  H  H193  1  0.022000  0.306000  0.405500  1.0  0.0981
  H  H194  1  0.068900  0.293300  0.523500  1.0  0.1158
  H  H195  1  0.120900  0.328400  0.476300  1.0  0.1066
  H  H196  1  0.125200  0.367500  0.311800  1.0  0.1138
  H  H197  1  0.110900  0.517300  0.105700  1.0  0.1046
  H  H198  1  0.161800  0.531700  0.046100  1.0  0.089
  H  H199  1  0.172700  0.292400  0.047300  1.0  0.1079
  H  H200  1  0.124000  0.278800  0.116000  1.0  0.0974
  C  C201  1  0.659890  0.315000  0.010600  1.0  -0.1404
  C  C202  1  0.667360  0.292200  0.114800  1.0  -0.0471
  C  C203  1  0.642570  0.261500  0.166600  1.0  -0.0873
  C  C204  1  0.610200  0.252600  0.116400  1.0  0.0636
  C  C205  1  0.603310  0.273800  0.011100  1.0  -0.1094
  C  C206  1  0.627910  0.304000  0.959300  1.0  -0.0167
  C  C207  1  0.582310  0.223500  0.171100  1.0  -0.0641
  C  C208  1  0.569640  0.145100  0.153100  1.0  -0.0008
  C  C209  1  0.539640  0.121300  0.192200  1.0  0.0355
  C  C210  1  0.522840  0.176800  0.248600  1.0  -0.0592
  C  C211  1  0.536930  0.253000  0.273200  1.0  -0.0011
  C  C212  1  0.566870  0.276500  0.235200  1.0  0.0137
  C  C213  1  0.580190  0.354200  0.262800  1.0  -0.1186
  C  C214  1  0.565560  0.405200  0.322100  1.0  -0.1023
  C  C215  1  0.536020  0.382000  0.360800  1.0  -0.1478
  C  C216  1  0.522260  0.308400  0.335600  1.0  -0.1311
  C  C217  1  0.527500  0.041800  0.170100  1.0  -0.0931
  C  C218  1  0.544100  0.988600  0.115800  1.0  -0.1092
  C  C219  1  0.573880  0.011100  0.080700  1.0  -0.1082
  C  C220  1  0.586170  0.087700  0.097400  1.0  -0.1322
  C  C221  1  0.489370  0.156200  0.275700  1.0  -0.0557
  C  C222  1  0.461380  0.163400  0.198300  1.0  0.0129
  C  C223  1  0.428860  0.143800  0.221300  1.0  -0.0005
  C  C224  1  0.424650  0.120600  0.323500  1.0  -0.0582
  C  C225  1  0.452450  0.113300  0.399600  1.0  0.0134
  C  C226  1  0.485260  0.130200  0.376200  1.0  0.0094
  C  C227  1  0.512950  0.121900  0.455600  1.0  -0.1302
  C  C228  1  0.508530  0.101200  0.555000  1.0  -0.0905
  C  C229  1  0.476130  0.084900  0.578800  1.0  -0.0855
  C  C230  1  0.449020  0.090100  0.503800  1.0  -0.1203
  C  C231  1  0.400930  0.148700  0.140100  1.0  -0.1106
  C  C232  1  0.404840  0.173600  0.042500  1.0  -0.1534
  C  C233  1  0.437210  0.196400  0.021500  1.0  -0.0983
  C  C234  1  0.464240  0.190400  0.095900  1.0  -0.0977
  C  C235  1  0.390060  0.108100  0.345500  1.0  0.0409
  C  C236  1  0.370500  0.175200  0.358000  1.0  -0.1277
  C  C237  1  0.337120  0.167700  0.369100  1.0  -0.0597
  C  C238  1  0.322230  0.091100  0.364900  1.0  -0.1279
  C  C239  1  0.341730  0.024000  0.355400  1.0  -0.0501
  C  C240  1  0.375350  0.032500  0.347700  1.0  -0.1318
  C  C241  1  0.285540  0.082300  0.366500  1.0  0.6883
  C  C242  1  0.841370  0.302000  0.963600  1.0  -0.1303
  C  C243  1  0.873780  0.302300  0.014000  1.0  -0.035
  C  C244  1  0.899330  0.275400  0.962800  1.0  -0.1788
  C  C245  1  0.893070  0.246400  0.862100  1.0  0.0329
  C  C246  1  0.860510  0.245500  0.812300  1.0  -0.117
  C  C247  1  0.834600  0.272900  0.862600  1.0  -0.0298
  C  C248  1  0.921570  0.218100  0.812000  1.0  -0.0664
  C  C249  1  0.934290  0.139400  0.833400  1.0  0.0262
  C  C250  1  0.964770  0.115700  0.799000  1.0  -0.0016
  C  C251  1  0.981410  0.168600  0.740100  1.0  -0.068
  C  C252  1  0.967350  0.243500  0.711400  1.0  0.0325
  C  C253  1  0.937100  0.269500  0.748800  1.0  0.0017
  C  C254  1  0.924010  0.347300  0.719800  1.0  -0.0822
  C  C255  1  0.938250  0.395900  0.656800  1.0  -0.1364
  C  C256  1  0.967090  0.370100  0.617700  1.0  -0.0921
  C  C257  1  0.981830  0.298500  0.645000  1.0  -0.1388
  C  C258  1  0.916800  0.083400  0.890400  1.0  -0.1274
  C  C259  1  0.929370  0.008100  0.911100  1.0  -0.0936
  C  C260  1  0.959610  0.984100  0.880900  1.0  -0.0893
  C  C261  1  0.977200  0.036400  0.826800  1.0  -0.1169
  C  C262  1  0.014450  0.146800  0.711100  1.0  -0.0851
  C  C263  1  0.043630  0.154600  0.783300  1.0  0.038
  C  C264  1  0.075560  0.137300  0.755000  1.0  0.0235
  C  C265  1  0.078030  0.115900  0.649900  1.0  -0.0442
  C  C266  1  0.048860  0.110100  0.576100  1.0  0.0508
  C  C267  1  0.016810  0.122700  0.606800  1.0  0.0096
  C  C268  1  0.987940  0.113300  0.531900  1.0  -0.1315
  C  C269  1  0.991040  0.098100  0.431700  1.0  -0.087
  C  C270  1  0.022480  0.088800  0.398700  1.0  -0.1473
  C  C271  1  0.050320  0.092900  0.470100  1.0  -0.0896
  C  C272  1  0.042520  0.181100  0.885700  1.0  -0.1157
  C  C273  1  0.070410  0.188500  0.956600  1.0  -0.1235
  C  C274  1  0.101910  0.168300  0.927400  1.0  -0.125
  C  C275  1  0.104430  0.144400  0.830100  1.0  -0.1541
  C  C276  1  0.111020  0.104900  0.615300  1.0  0.0565
  C  C277  1  0.123240  0.028200  0.594600  1.0  -0.0868
  C  C278  1  0.153710  0.019400  0.557500  1.0  -0.0223
  C  C279  1  0.172070  0.087000  0.537400  1.0  -0.1263
  C  C280  1  0.160510  0.162000  0.559400  1.0  -0.0486
  C  C281  1  0.130880  0.170100  0.599300  1.0  -0.1399
  C  C282  1  0.203860  0.076800  0.492100  1.0  0.6769
  C  C283  1  0.686820  0.348700  0.954000  1.0  0.7315
  C  C284  1  0.813790  0.330400  0.019000  1.0  0.7015
  C  C285  1  0.340110  0.815000  0.489400  1.0  -0.1419
  C  C286  1  0.332640  0.792200  0.385200  1.0  -0.0454
  C  C287  1  0.357430  0.761500  0.333400  1.0  -0.0875
  C  C288  1  0.389800  0.752600  0.383600  1.0  0.0631
  C  C289  1  0.396690  0.773800  0.488900  1.0  -0.1121
  C  C290  1  0.372090  0.804000  0.540700  1.0  -0.0175
  C  C291  1  0.417690  0.723500  0.328900  1.0  -0.0648
  C  C292  1  0.430360  0.645100  0.346900  1.0  -0.0015
  C  C293  1  0.460360  0.621300  0.307800  1.0  0.0352
  C  C294  1  0.477160  0.676800  0.251400  1.0  -0.0588
  C  C295  1  0.463070  0.753000  0.226800  1.0  -0.0016
  C  C296  1  0.433130  0.776500  0.264800  1.0  0.0134
  C  C297  1  0.419810  0.854200  0.237200  1.0  -0.1159
  C  C298  1  0.434440  0.905200  0.177900  1.0  -0.101
  C  C299  1  0.463980  0.882000  0.139200  1.0  -0.1483
  C  C300  1  0.477740  0.808400  0.164400  1.0  -0.132
  C  C301  1  0.472500  0.541800  0.329900  1.0  -0.0954
  C  C302  1  0.455900  0.488600  0.384200  1.0  -0.1135
  C  C303  1  0.426120  0.511100  0.419300  1.0  -0.108
  C  C304  1  0.413830  0.587700  0.402600  1.0  -0.1336
  C  C305  1  0.510630  0.656200  0.224300  1.0  -0.0561
  C  C306  1  0.538620  0.663400  0.301700  1.0  0.0126
  C  C307  1  0.571140  0.643800  0.278700  1.0  -0.0005
  C  C308  1  0.575350  0.620600  0.176500  1.0  -0.0576
  C  C309  1  0.547550  0.613300  0.100400  1.0  0.0141
  C  C310  1  0.514740  0.630200  0.123800  1.0  0.0094
  C  C311  1  0.487050  0.621900  0.044400  1.0  -0.1307
  C  C312  1  0.491470  0.601200  0.945000  1.0  -0.0908
  C  C313  1  0.523870  0.584900  0.921200  1.0  -0.0845
  C  C314  1  0.550980  0.590100  0.996200  1.0  -0.1228
  C  C315  1  0.599070  0.648700  0.359900  1.0  -0.11
  C  C316  1  0.595160  0.673600  0.457500  1.0  -0.1516
  C  C317  1  0.562790  0.696400  0.478500  1.0  -0.097
  C  C318  1  0.535760  0.690400  0.404100  1.0  -0.0954
  C  C319  1  0.609940  0.608100  0.154500  1.0  0.0405
  C  C320  1  0.629500  0.675200  0.142000  1.0  -0.1266
  C  C321  1  0.662880  0.667700  0.130900  1.0  -0.059
  C  C322  1  0.677770  0.591100  0.135100  1.0  -0.1292
  C  C323  1  0.658270  0.524000  0.144600  1.0  -0.0523
  C  C324  1  0.624650  0.532500  0.152300  1.0  -0.1296
  C  C325  1  0.714460  0.582300  0.133500  1.0  0.6857
  C  C326  1  0.158630  0.802000  0.536400  1.0  -0.1283
  C  C327  1  0.126220  0.802300  0.486000  1.0  -0.0346
  C  C328  1  0.100670  0.775400  0.537200  1.0  -0.1765
  C  C329  1  0.106930  0.746400  0.637900  1.0  0.0347
  C  C330  1  0.139490  0.745500  0.687700  1.0  -0.1167
  C  C331  1  0.165400  0.772900  0.637400  1.0  -0.0329
  C  C332  1  0.078430  0.718100  0.688000  1.0  -0.0652
  C  C333  1  0.065710  0.639400  0.666667  1.0  0.0257
  C  C334  1  0.035230  0.615700  0.701000  1.0  -0.0013
  C  C335  1  0.018590  0.668600  0.759900  1.0  -0.0683
  C  C336  1  0.032650  0.743500  0.788600  1.0  0.0323
  C  C337  1  0.062900  0.769500  0.751200  1.0  0.003
  C  C338  1  0.075990  0.847300  0.780200  1.0  -0.0826
  C  C339  1  0.061750  0.895900  0.843200  1.0  -0.1377
  C  C340  1  0.032910  0.870100  0.882300  1.0  -0.0925
  C  C341  1  0.018170  0.798500  0.855000  1.0  -0.1371
  C  C342  1  0.083200  0.583400  0.609600  1.0  -0.129
  C  C343  1  0.070630  0.508100  0.588900  1.0  -0.094
  C  C344  1  0.040390  0.484100  0.619100  1.0  -0.0876
  C  C345  1  0.022800  0.536400  0.673200  1.0  -0.1153
  C  C346  1  0.985550  0.646800  0.788900  1.0  -0.0856
  C  C347  1  0.956370  0.654600  0.716700  1.0  0.0376
  C  C348  1  0.924440  0.637300  0.745000  1.0  0.0228
  C  C349  1  0.921970  0.615900  0.850100  1.0  -0.0447
  C  C350  1  0.951140  0.610100  0.923900  1.0  0.0517
  C  C351  1  0.983190  0.622700  0.893200  1.0  0.0092
  C  C352  1  0.012060  0.613300  0.968100  1.0  -0.1317
  C  C353  1  0.008960  0.598100  0.068300  1.0  -0.0875
  C  C354  1  0.977520  0.588800  0.101300  1.0  -0.1468
  C  C355  1  0.949680  0.592900  0.029900  1.0  -0.0886
  C  C356  1  0.957480  0.681100  0.614300  1.0  -0.1156
  C  C357  1  0.929590  0.688500  0.543400  1.0  -0.1264
  C  C358  1  0.898090  0.668300  0.572600  1.0  -0.1274
  C  C359  1  0.895570  0.644400  0.669900  1.0  -0.1557
  C  C360  1  0.888980  0.604900  0.884700  1.0  0.0563
  C  C361  1  0.876760  0.528200  0.905400  1.0  -0.089
  C  C362  1  0.846290  0.519400  0.942500  1.0  -0.0213
  C  C363  1  0.827930  0.587000  0.962600  1.0  -0.1235
  C  C364  1  0.839490  0.662000  0.940600  1.0  -0.0484
  C  C365  1  0.869120  0.670100  0.900700  1.0  -0.1382
  C  C366  1  0.796140  0.576800  0.007900  1.0  0.675
  C  C367  1  0.313180  0.848700  0.546000  1.0  0.7291
  C  C368  1  0.186210  0.830400  0.481000  1.0  0.7034
  C  C369  1  0.340110  0.685000  0.989400  1.0  -0.1416
  C  C370  1  0.332640  0.707800  0.885200  1.0  -0.0459
  C  C371  1  0.357430  0.738500  0.833400  1.0  -0.0884
  C  C372  1  0.389800  0.747400  0.883600  1.0  0.0634
  C  C373  1  0.396690  0.726200  0.988900  1.0  -0.1123
  C  C374  1  0.372090  0.696000  0.040700  1.0  -0.0172
  C  C375  1  0.417690  0.776500  0.828900  1.0  -0.0652
  C  C376  1  0.430360  0.854900  0.846900  1.0  -0.0003
  C  C377  1  0.460360  0.878700  0.807800  1.0  0.0351
  C  C378  1  0.477160  0.823200  0.751400  1.0  -0.0588
  C  C379  1  0.463070  0.747000  0.726800  1.0  -0.0017
  C  C380  1  0.433130  0.723500  0.764800  1.0  0.0132
  C  C381  1  0.419810  0.645800  0.737200  1.0  -0.1157
  C  C382  1  0.434440  0.594800  0.677900  1.0  -0.1027
  C  C383  1  0.463980  0.618000  0.639200  1.0  -0.1476
  C  C384  1  0.477740  0.691600  0.664400  1.0  -0.1315
  C  C385  1  0.472500  0.958200  0.829900  1.0  -0.095
  C  C386  1  0.455900  0.011400  0.884200  1.0  -0.1136
  C  C387  1  0.426120  0.988900  0.919300  1.0  -0.1072
  C  C388  1  0.413830  0.912300  0.902600  1.0  -0.1337
  C  C389  1  0.510630  0.843800  0.724300  1.0  -0.056
  C  C390  1  0.538620  0.836600  0.801700  1.0  0.0125
  C  C391  1  0.571140  0.856200  0.778700  1.0  -0.0003
  C  C392  1  0.575350  0.879400  0.676500  1.0  -0.0577
  C  C393  1  0.547550  0.886700  0.600400  1.0  0.0142
  C  C394  1  0.514740  0.869800  0.623800  1.0  0.0094
  C  C395  1  0.487050  0.878100  0.544400  1.0  -0.1304
  C  C396  1  0.491470  0.898800  0.445000  1.0  -0.0907
  C  C397  1  0.523870  0.915100  0.421200  1.0  -0.0848
  C  C398  1  0.550980  0.909900  0.496200  1.0  -0.1234
  C  C399  1  0.599070  0.851300  0.859900  1.0  -0.1103
  C  C400  1  0.595160  0.826400  0.957500  1.0  -0.1517
  C  C401  1  0.562790  0.803600  0.978500  1.0  -0.0964
  C  C402  1  0.535760  0.809600  0.904100  1.0  -0.0947
  C  C403  1  0.609940  0.891900  0.654500  1.0  0.0404
  C  C404  1  0.629500  0.824800  0.642000  1.0  -0.1258
  C  C405  1  0.662880  0.832300  0.630900  1.0  -0.0582
  C  C406  1  0.677770  0.908900  0.635100  1.0  -0.1294
  C  C407  1  0.658270  0.976000  0.644600  1.0  -0.0531
  C  C408  1  0.624650  0.967500  0.652300  1.0  -0.1309
  C  C409  1  0.714460  0.917700  0.633500  1.0  0.6856
  C  C410  1  0.158630  0.698000  0.036400  1.0  -0.1282
  C  C411  1  0.126220  0.697700  0.986000  1.0  -0.034
  C  C412  1  0.100670  0.724600  0.037200  1.0  -0.1767
  C  C413  1  0.106930  0.753600  0.137900  1.0  0.0347
  C  C414  1  0.139490  0.754500  0.187700  1.0  -0.1174
  C  C415  1  0.165400  0.727100  0.137400  1.0  -0.0331
  C  C416  1  0.078430  0.781900  0.188000  1.0  -0.0654
  C  C417  1  0.065710  0.860600  0.166600  1.0  0.0264
  C  C418  1  0.035230  0.884300  0.201000  1.0  -0.0013
  C  C419  1  0.018590  0.831400  0.259900  1.0  -0.0684
  C  C420  1  0.032650  0.756500  0.288600  1.0  0.0322
  C  C421  1  0.062900  0.730500  0.251200  1.0  0.0028
  C  C422  1  0.075990  0.652700  0.280200  1.0  -0.0829
  C  C423  1  0.061750  0.604100  0.343200  1.0  -0.1377
  C  C424  1  0.032910  0.629900  0.382300  1.0  -0.0923
  C  C425  1  0.018170  0.701500  0.355000  1.0  -0.1369
  C  C426  1  0.083200  0.916600  0.109600  1.0  -0.129
  C  C427  1  0.070630  0.991900  0.088900  1.0  -0.0931
  C  C428  1  0.040390  0.015900  0.119100  1.0  -0.0885
  C  C429  1  0.022800  0.963600  0.173200  1.0  -0.1152
  C  C430  1  0.985550  0.853200  0.288900  1.0  -0.0856
  C  C431  1  0.956370  0.845400  0.216700  1.0  0.0377
  C  C432  1  0.924440  0.862700  0.245000  1.0  0.0225
  C  C433  1  0.921970  0.884100  0.350100  1.0  -0.0448
  C  C434  1  0.951140  0.889900  0.423900  1.0  0.0516
  C  C435  1  0.983190  0.877300  0.393200  1.0  0.0093
  C  C436  1  0.012060  0.886700  0.468100  1.0  -0.1316
  C  C437  1  0.008960  0.901900  0.568300  1.0  -0.0873
  C  C438  1  0.977520  0.911200  0.601300  1.0  -0.1471
  C  C439  1  0.949680  0.907100  0.529900  1.0  -0.0886
  C  C440  1  0.957480  0.818900  0.114300  1.0  -0.1156
  C  C441  1  0.929590  0.811500  0.043400  1.0  -0.1263
  C  C442  1  0.898090  0.831700  0.072600  1.0  -0.1271
  C  C443  1  0.895570  0.855600  0.169900  1.0  -0.1563
  C  C444  1  0.888980  0.895100  0.384700  1.0  0.0561
  C  C445  1  0.876760  0.971800  0.405400  1.0  -0.0888
  C  C446  1  0.846290  0.980600  0.442500  1.0  -0.0217
  C  C447  1  0.827930  0.913000  0.462600  1.0  -0.1243
  C  C448  1  0.839490  0.838000  0.440600  1.0  -0.0473
  C  C449  1  0.869120  0.829900  0.400700  1.0  -0.1373
  C  C450  1  0.796140  0.923200  0.507900  1.0  0.6757
  C  C451  1  0.313180  0.651300  0.046000  1.0  0.7293
  C  C452  1  0.186210  0.669600  0.981000  1.0  0.7041
  C  C453  1  0.659890  0.185000  0.510600  1.0  -0.1405
  C  C454  1  0.667360  0.207800  0.614800  1.0  -0.046
  C  C455  1  0.642570  0.238500  0.666667  1.0  -0.0925
  C  C456  1  0.610200  0.247400  0.616400  1.0  0.0575
  C  C457  1  0.603310  0.226200  0.511100  1.0  -0.1097
  C  C458  1  0.627910  0.196000  0.459300  1.0  -0.016
  C  C459  1  0.582310  0.276500  0.671100  1.0  -0.0644
  C  C460  1  0.569640  0.354900  0.653100  1.0  0.0
  C  C461  1  0.539640  0.378700  0.692200  1.0  0.0353
  C  C462  1  0.522840  0.323200  0.748600  1.0  -0.0591
  C  C463  1  0.536930  0.247000  0.773200  1.0  -0.0011
  C  C464  1  0.566870  0.223500  0.735200  1.0  0.0134
  C  C465  1  0.580190  0.145800  0.762800  1.0  -0.1182
  C  C466  1  0.565560  0.094800  0.822100  1.0  -0.1034
  C  C467  1  0.536020  0.118000  0.860800  1.0  -0.147
  C  C468  1  0.522260  0.191600  0.835600  1.0  -0.1311
  C  C469  1  0.527500  0.458200  0.670100  1.0  -0.0928
  C  C470  1  0.544100  0.511400  0.615800  1.0  -0.1099
  C  C471  1  0.573880  0.488900  0.580700  1.0  -0.107
  C  C472  1  0.586170  0.412300  0.597400  1.0  -0.1321
  C  C473  1  0.489370  0.343800  0.775700  1.0  -0.0557
  C  C474  1  0.461380  0.336600  0.698300  1.0  0.013
  C  C475  1  0.428860  0.356200  0.721300  1.0  -0.0003
  C  C476  1  0.424650  0.379400  0.823500  1.0  -0.0581
  C  C477  1  0.452450  0.386700  0.899600  1.0  0.0134
  C  C478  1  0.485260  0.369800  0.876200  1.0  0.0093
  C  C479  1  0.512950  0.378100  0.955600  1.0  -0.1298
  C  C480  1  0.508530  0.398800  0.055000  1.0  -0.0904
  C  C481  1  0.476130  0.415100  0.078800  1.0  -0.0852
  C  C482  1  0.449020  0.409900  0.003800  1.0  -0.1214
  C  C483  1  0.400930  0.351300  0.640100  1.0  -0.1111
  C  C484  1  0.404840  0.326400  0.542500  1.0  -0.1533
  C  C485  1  0.437210  0.303600  0.521500  1.0  -0.0984
  C  C486  1  0.464240  0.309600  0.595900  1.0  -0.0975
  C  C487  1  0.390060  0.391900  0.845500  1.0  0.0408
  C  C488  1  0.370500  0.324800  0.858000  1.0  -0.1273
  C  C489  1  0.337120  0.332300  0.869100  1.0  -0.0571
  C  C490  1  0.322230  0.408900  0.864900  1.0  -0.1287
  C  C491  1  0.341730  0.476000  0.855400  1.0  -0.051
  C  C492  1  0.375350  0.467500  0.847700  1.0  -0.1319
  C  C493  1  0.285540  0.417700  0.866500  1.0  0.6881
  C  C494  1  0.841370  0.198000  0.463600  1.0  -0.1298
  C  C495  1  0.873780  0.197700  0.514000  1.0  -0.0351
  C  C496  1  0.899330  0.224600  0.462800  1.0  -0.1792
  C  C497  1  0.893070  0.253600  0.362100  1.0  0.0329
  C  C498  1  0.860510  0.254500  0.312300  1.0  -0.1171
  C  C499  1  0.834600  0.227100  0.362600  1.0  -0.0303
  C  C500  1  0.921570  0.281900  0.312000  1.0  -0.0664
  C  C501  1  0.934290  0.360600  0.333400  1.0  0.0267
  C  C502  1  0.964770  0.384300  0.299000  1.0  -0.0018
  C  C503  1  0.981410  0.331400  0.240100  1.0  -0.0681
  C  C504  1  0.967350  0.256500  0.211400  1.0  0.0326
  C  C505  1  0.937100  0.230500  0.248800  1.0  0.0016
  C  C506  1  0.924010  0.152700  0.219800  1.0  -0.0826
  C  C507  1  0.938250  0.104100  0.156800  1.0  -0.1367
  C  C508  1  0.967090  0.129900  0.117700  1.0  -0.0919
  C  C509  1  0.981830  0.201500  0.145000  1.0  -0.1385
  C  C510  1  0.916800  0.416600  0.390400  1.0  -0.1265
  C  C511  1  0.929370  0.491900  0.411100  1.0  -0.093
  C  C512  1  0.959610  0.515900  0.380900  1.0  -0.0893
  C  C513  1  0.977200  0.463600  0.326800  1.0  -0.1164
  C  C514  1  0.014450  0.353200  0.211100  1.0  -0.085
  C  C515  1  0.043630  0.345400  0.283300  1.0  0.038
  C  C516  1  0.075560  0.362700  0.255000  1.0  0.0232
  C  C517  1  0.078030  0.384100  0.149900  1.0  -0.0443
  C  C518  1  0.048860  0.389900  0.076100  1.0  0.0507
  C  C519  1  0.016810  0.377300  0.106800  1.0  0.0098
  C  C520  1  0.987940  0.386700  0.031900  1.0  -0.1315
  C  C521  1  0.991040  0.401900  0.931700  1.0  -0.0868
  C  C522  1  0.022480  0.411200  0.898700  1.0  -0.1476
  C  C523  1  0.050320  0.407100  0.970100  1.0  -0.0898
  C  C524  1  0.042520  0.318900  0.385700  1.0  -0.1152
  C  C525  1  0.070410  0.311500  0.456600  1.0  -0.1227
  C  C526  1  0.101910  0.331700  0.427400  1.0  -0.1251
  C  C527  1  0.104430  0.355600  0.330100  1.0  -0.1537
  C  C528  1  0.111020  0.395100  0.115300  1.0  0.0567
  C  C529  1  0.123240  0.471800  0.094600  1.0  -0.088
  C  C530  1  0.153710  0.480600  0.057500  1.0  -0.0229
  C  C531  1  0.172070  0.413000  0.037400  1.0  -0.1264
  C  C532  1  0.160510  0.338000  0.059400  1.0  -0.0486
  C  C533  1  0.130880  0.329900  0.099300  1.0  -0.1384
  C  C534  1  0.203860  0.423200  0.992100  1.0  0.6774
  C  C535  1  0.686820  0.151300  0.454000  1.0  0.7311
  C  C536  1  0.813790  0.169600  0.519000  1.0  0.7014
  Cl  Cl537  1  0.748790  0.270380  0.255700  1.0  -0.4452
  Cl  Cl538  1  0.251210  0.770380  0.244300  1.0  -0.4442
  Cl  Cl539  1  0.251210  0.729620  0.744300  1.0  -0.4441
  Cl  Cl540  1  0.748790  0.229620  0.755700  1.0  -0.4451
  O  O541  1  0.680860  0.354100  0.857200  1.0  -0.6197
  O  O542  1  0.270660  0.142200  0.400900  1.0  -0.4765
  O  O543  1  0.271820  0.018100  0.335500  1.0  -0.7204
  O  O544  1  0.820470  0.348900  0.113000  1.0  -0.6091
  O  O545  1  0.784400  0.336200  0.969300  1.0  -0.7636
  O  O546  1  0.216020  0.007700  0.488900  1.0  -0.7038
  O  O547  1  0.216270  0.141500  0.459200  1.0  -0.4822
  O  O548  1  0.714250  0.368500  0.005800  1.0  -0.7222
  O  O549  1  0.319140  0.854100  0.642800  1.0  -0.6217
  O  O550  1  0.729340  0.642200  0.099100  1.0  -0.4763
  O  O551  1  0.728180  0.518100  0.164500  1.0  -0.7219
  O  O552  1  0.179530  0.848900  0.387000  1.0  -0.606
  O  O553  1  0.215600  0.836200  0.530700  1.0  -0.7638
  O  O554  1  0.783980  0.507700  0.011100  1.0  -0.7044
  O  O555  1  0.783730  0.641500  0.040800  1.0  -0.4815
  O  O556  1  0.285750  0.868500  0.494200  1.0  -0.72
  O  O557  1  0.319140  0.645900  0.142800  1.0  -0.622
  O  O558  1  0.729340  0.857800  0.599100  1.0  -0.4748
  O  O559  1  0.728180  0.981900  0.664500  1.0  -0.7218
  O  O560  1  0.179530  0.651100  0.887000  1.0  -0.6061
  O  O561  1  0.215600  0.663800  0.030700  1.0  -0.7644
  O  O562  1  0.783980  0.992300  0.511100  1.0  -0.7044
  O  O563  1  0.783730  0.858500  0.540800  1.0  -0.4807
  O  O564  1  0.285750  0.631500  0.994200  1.0  -0.7201
  O  O565  1  0.680860  0.145900  0.357200  1.0  -0.6207
  O  O566  1  0.270660  0.357800  0.900900  1.0  -0.4753
  O  O567  1  0.271820  0.481900  0.835500  1.0  -0.7204
  O  O568  1  0.820470  0.151100  0.613000  1.0  -0.6085
  O  O569  1  0.784400  0.163800  0.469300  1.0  -0.7638
  O  O570  1  0.216020  0.492300  0.988900  1.0  -0.7011
  O  O571  1  0.216270  0.358500  0.959200  1.0  -0.482
  O  O572  1  0.714250  0.131500  0.505800  1.0  -0.722
