# generated using pymatgen
data_DyH7C15(NO3)2
_symmetry_space_group_name_H-M   'P 1'
_cell_length_a   13.47660000
_cell_length_b   14.41010000
_cell_length_c   15.98980000
_cell_angle_alpha   116.78200000
_cell_angle_beta   96.76640000
_cell_angle_gamma   90.00000000
_symmetry_Int_Tables_number   1
_chemical_formula_structural   DyH7C15(NO3)2
_chemical_formula_sum   'Dy4 H28 C60 N8 O24'
_cell_volume   2747.85313111
_cell_formula_units_Z   4
loop_
 _symmetry_equiv_pos_site_id
 _symmetry_equiv_pos_as_xyz
  1  'x, y, z'
loop_
 _atom_site_type_symbol
 _atom_site_label
 _atom_site_symmetry_multiplicity
 _atom_site_fract_x
 _atom_site_fract_y
 _atom_site_fract_z
 _atom_site_occupancy
 _atom_site_charge
  Dy  Dy1  1  0.036730  0.523290  0.633440  1.0  2.2569
  Dy  Dy2  1  0.463270  0.889850  0.366560  1.0  2.2613
  Dy  Dy3  1  0.963270  0.476710  0.366560  1.0  2.2596
  Dy  Dy4  1  0.536730  0.110150  0.633440  1.0  2.261
  H  H5  1  0.283400  0.298100  0.529200  1.0  0.1097
  H  H6  1  0.424300  0.112000  0.312000  1.0  0.1202
  H  H7  1  0.230600  0.309500  0.283600  1.0  0.1017
  H  H8  1  0.408300  0.054400  0.030600  1.0  0.1112
  H  H9  1  0.457900  0.023100  0.886400  1.0  0.1003
  H  H10  1  0.403200  0.313600  0.934200  1.0  0.1164
  H  H11  1  0.343400  0.340100  0.073400  1.0  0.1079
  H  H12  1  0.216600  0.768900  0.470800  1.0  0.1102
  H  H13  1  0.075700  0.800000  0.688000  1.0  0.1191
  H  H14  1  0.269400  0.025900  0.716400  1.0  0.1023
  H  H15  1  0.091700  0.023800  0.969400  1.0  0.1101
  H  H16  1  0.042100  0.136700  0.113600  1.0  0.1011
  H  H17  1  0.096800  0.379400  0.065800  1.0  0.1167
  H  H18  1  0.156600  0.266700  0.926600  1.0  0.1061
  H  H19  1  0.716600  0.701900  0.470800  1.0  0.1094
  H  H20  1  0.575700  0.888000  0.688000  1.0  0.1201
  H  H21  1  0.769400  0.690500  0.716400  1.0  0.1021
  H  H22  1  0.591700  0.945600  0.969400  1.0  0.1111
  H  H23  1  0.542100  0.976900  0.113600  1.0  0.0999
  H  H24  1  0.596800  0.686400  0.065800  1.0  0.1164
  H  H25  1  0.656600  0.659900  0.926600  1.0  0.1067
  H  H26  1  0.783400  0.231100  0.529200  1.0  0.1104
  H  H27  1  0.924300  0.200000  0.312000  1.0  0.1195
  H  H28  1  0.730600  0.974100  0.283600  1.0  0.1019
  H  H29  1  0.908300  0.976200  0.030600  1.0  0.1108
  H  H30  1  0.957900  0.863300  0.886400  1.0  0.1005
  H  H31  1  0.903200  0.620600  0.934200  1.0  0.1165
  H  H32  1  0.843400  0.733300  0.073400  1.0  0.1062
  C  C33  1  0.240700  0.313500  0.411400  1.0  -0.1564
  C  C34  1  0.293400  0.273400  0.466400  1.0  0.0139
  C  C35  1  0.360900  0.196900  0.429400  1.0  -0.1574
  C  C36  1  0.378800  0.162900  0.337000  1.0  -0.0817
  C  C37  1  0.330900  0.202700  0.282600  1.0  0.1479
  C  C38  1  0.261900  0.280400  0.320400  1.0  -0.036
  C  C39  1  0.416000  0.156400  0.493800  1.0  0.7859
  C  C40  1  0.165300  0.393000  0.449800  1.0  0.8188
  C  C41  1  0.375700  0.204000  0.069200  1.0  0.1855
  C  C42  1  0.407400  0.106900  0.011800  1.0  -0.1264
  C  C43  1  0.438200  0.088800  0.925800  1.0  -0.0312
  C  C44  1  0.439800  0.165300  0.898200  1.0  -0.1408
  C  C45  1  0.404400  0.261300  0.953200  1.0  -0.0616
  C  C46  1  0.370500  0.277200  0.037600  1.0  -0.1567
  C  C47  1  0.478600  0.147800  0.806400  1.0  0.7083
  C  C48  1  0.259300  0.902100  0.588600  1.0  -0.1567
  C  C49  1  0.206600  0.807000  0.533600  1.0  0.0153
  C  C50  1  0.139100  0.767500  0.570600  1.0  -0.1559
  C  C51  1  0.121200  0.825900  0.663000  1.0  -0.0827
  C  C52  1  0.169100  0.920100  0.717400  1.0  0.1482
  C  C53  1  0.238100  0.960000  0.679600  1.0  -0.0345
  C  C54  1  0.084000  0.662600  0.506200  1.0  0.786
  C  C55  1  0.334700  0.943200  0.550200  1.0  0.8211
  C  C56  1  0.124300  0.134800  0.930800  1.0  0.1883
  C  C57  1  0.092600  0.095100  0.988200  1.0  -0.1272
  C  C58  1  0.061800  0.163000  0.074200  1.0  -0.0285
  C  C59  1  0.060200  0.267100  0.101800  1.0  -0.1419
  C  C60  1  0.095600  0.308100  0.046800  1.0  -0.0625
  C  C61  1  0.129500  0.239600  0.962400  1.0  -0.1501
  C  C62  1  0.021400  0.341400  0.193600  1.0  0.7067
  C  C63  1  0.759300  0.686500  0.588600  1.0  -0.1561
  C  C64  1  0.706600  0.726600  0.533600  1.0  0.0148
  C  C65  1  0.639100  0.803100  0.570600  1.0  -0.1569
  C  C66  1  0.621200  0.837100  0.663000  1.0  -0.0828
  C  C67  1  0.669100  0.797300  0.717400  1.0  0.1472
  C  C68  1  0.738100  0.719600  0.679600  1.0  -0.0348
  C  C69  1  0.584000  0.843600  0.506200  1.0  0.787
  C  C70  1  0.834700  0.607000  0.550200  1.0  0.8192
  C  C71  1  0.624300  0.796000  0.930800  1.0  0.1869
  C  C72  1  0.592600  0.893100  0.988200  1.0  -0.1257
  C  C73  1  0.561800  0.911200  0.074200  1.0  -0.0316
  C  C74  1  0.560200  0.834700  0.101800  1.0  -0.1457
  C  C75  1  0.595600  0.738700  0.046800  1.0  -0.0616
  C  C76  1  0.629500  0.722800  0.962400  1.0  -0.1546
  C  C77  1  0.521400  0.852200  0.193600  1.0  0.7061
  C  C78  1  0.740700  0.097900  0.411400  1.0  -0.157
  C  C79  1  0.793400  0.193000  0.466400  1.0  0.0135
  C  C80  1  0.860900  0.232500  0.429400  1.0  -0.1558
  C  C81  1  0.878800  0.174100  0.337000  1.0  -0.0814
  C  C82  1  0.830900  0.079900  0.282600  1.0  0.1479
  C  C83  1  0.761900  0.040000  0.320400  1.0  -0.0361
  C  C84  1  0.916000  0.337400  0.493800  1.0  0.7863
  C  C85  1  0.665300  0.056800  0.449800  1.0  0.8209
  C  C86  1  0.875700  0.865200  0.069200  1.0  0.1864
  C  C87  1  0.907400  0.904900  0.011800  1.0  -0.1276
  C  C88  1  0.938200  0.837000  0.925800  1.0  -0.0285
  C  C89  1  0.939800  0.732900  0.898200  1.0  -0.1399
  C  C90  1  0.904400  0.691900  0.953200  1.0  -0.0616
  C  C91  1  0.870500  0.760400  0.037600  1.0  -0.151
  C  C92  1  0.978600  0.658600  0.806400  1.0  0.7053
  N  N93  1  0.358500  0.170500  0.190000  1.0  -0.1541
  N  N94  1  0.345100  0.233900  0.159200  1.0  -0.1592
  N  N95  1  0.141500  0.980500  0.810000  1.0  -0.1544
  N  N96  1  0.154900  0.074700  0.840800  1.0  -0.1616
  N  N97  1  0.641500  0.829500  0.810000  1.0  -0.1533
  N  N98  1  0.654900  0.766100  0.840800  1.0  -0.1621
  N  N99  1  0.858500  0.019500  0.190000  1.0  -0.1539
  N  N100  1  0.845100  0.925300  0.159200  1.0  -0.1605
  O  O101  1  0.125000  0.430400  0.398800  1.0  -0.6866
  O  O102  1  0.148900  0.417410  0.533020  1.0  -0.8075
  O  O103  1  0.433600  0.212680  0.579760  1.0  -0.659
  O  O104  1  0.446700  0.065480  0.455360  1.0  -0.8651
  O  O105  1  0.516700  0.063900  0.762200  1.0  -0.7075
  O  O106  1  0.468000  0.214200  0.778800  1.0  -0.7045
  O  O107  1  0.375000  0.031600  0.601200  1.0  -0.6879
  O  O108  1  0.351100  0.884390  0.466980  1.0  -0.8058
  O  O109  1  0.066400  0.632920  0.420240  1.0  -0.6546
  O  O110  1  0.053300  0.610120  0.544640  1.0  -0.8673
  O  O111  1  0.983300  0.301700  0.237800  1.0  -0.707
  O  O112  1  0.032000  0.435400  0.221200  1.0  -0.6942
  O  O113  1  0.875000  0.569600  0.601200  1.0  -0.6866
  O  O114  1  0.851100  0.582590  0.466980  1.0  -0.8067
  O  O115  1  0.566400  0.787320  0.420240  1.0  -0.6597
  O  O116  1  0.553300  0.934520  0.544640  1.0  -0.8694
  O  O117  1  0.483300  0.936100  0.237800  1.0  -0.7063
  O  O118  1  0.532000  0.785800  0.221200  1.0  -0.7092
  O  O119  1  0.625000  0.968400  0.398800  1.0  -0.6879
  O  O120  1  0.648900  0.115610  0.533020  1.0  -0.8075
  O  O121  1  0.933600  0.367080  0.579760  1.0  -0.6599
  O  O122  1  0.946700  0.389880  0.455360  1.0  -0.8633
  O  O123  1  0.016700  0.698300  0.762200  1.0  -0.7062
  O  O124  1  0.968000  0.564600  0.778800  1.0  -0.7051
