# generated using pymatgen
data_Fe3P3O13F3
_symmetry_space_group_name_H-M   'P 1'
_cell_length_a   18.18360000
_cell_length_b   10.01260000
_cell_length_c   20.05890000
_cell_angle_alpha   90.00000000
_cell_angle_beta   106.08000000
_cell_angle_gamma   90.00000000
_symmetry_Int_Tables_number   1
_chemical_formula_structural   Fe3P3O13F3
_chemical_formula_sum   'Fe24 P24 O104 F24'
_cell_volume   3509.14366371
_cell_formula_units_Z   8
loop_
 _symmetry_equiv_pos_site_id
 _symmetry_equiv_pos_as_xyz
  1  'x, y, z'
loop_
 _atom_site_type_symbol
 _atom_site_label
 _atom_site_symmetry_multiplicity
 _atom_site_fract_x
 _atom_site_fract_y
 _atom_site_fract_z
 _atom_site_occupancy
 _atom_site_charge
  Fe  Fe1  1  0.187400  0.577700  0.161200  1.0  1.4157
  Fe  Fe2  1  0.310700  0.315000  0.240000  1.0  1.5558
  Fe  Fe3  1  0.424300  0.429300  0.997800  1.0  1.4903
  Fe  Fe4  1  0.687400  0.077700  0.161200  1.0  1.4157
  Fe  Fe5  1  0.810700  0.815000  0.240000  1.0  1.5558
  Fe  Fe6  1  0.924300  0.929300  0.997800  1.0  1.4903
  Fe  Fe7  1  0.812600  0.577700  0.338800  1.0  1.4129
  Fe  Fe8  1  0.689300  0.315000  0.260000  1.0  1.5554
  Fe  Fe9  1  0.575700  0.429300  0.502200  1.0  1.4889
  Fe  Fe10  1  0.312600  0.077700  0.338800  1.0  1.4129
  Fe  Fe11  1  0.189300  0.815000  0.260000  1.0  1.5554
  Fe  Fe12  1  0.075700  0.929300  0.502200  1.0  1.4889
  Fe  Fe13  1  0.812600  0.422300  0.838800  1.0  1.413
  Fe  Fe14  1  0.689300  0.685000  0.760000  1.0  1.5556
  Fe  Fe15  1  0.575700  0.570700  0.002200  1.0  1.4884
  Fe  Fe16  1  0.312600  0.922300  0.838800  1.0  1.413
  Fe  Fe17  1  0.189300  0.185000  0.760000  1.0  1.5556
  Fe  Fe18  1  0.075700  0.070700  0.002200  1.0  1.4884
  Fe  Fe19  1  0.187400  0.422300  0.661200  1.0  1.4164
  Fe  Fe20  1  0.310700  0.685000  0.740000  1.0  1.5557
  Fe  Fe21  1  0.424300  0.570700  0.497800  1.0  1.49
  Fe  Fe22  1  0.687400  0.922300  0.661200  1.0  1.4164
  Fe  Fe23  1  0.810700  0.185000  0.740000  1.0  1.5557
  Fe  Fe24  1  0.924300  0.070700  0.497800  1.0  1.49
  P  P25  1  0.079000  0.827300  0.106900  1.0  1.8113
  P  P26  1  0.141300  0.270800  0.132000  1.0  1.8024
  P  P27  1  0.333700  0.484000  0.114600  1.0  1.7486
  P  P28  1  0.579000  0.327300  0.106900  1.0  1.8113
  P  P29  1  0.641300  0.770800  0.132000  1.0  1.8024
  P  P30  1  0.833700  0.984000  0.114600  1.0  1.7486
  P  P31  1  0.921000  0.827300  0.393100  1.0  1.8102
  P  P32  1  0.858700  0.270800  0.368000  1.0  1.8027
  P  P33  1  0.666300  0.484000  0.385400  1.0  1.7487
  P  P34  1  0.421000  0.327300  0.393100  1.0  1.8102
  P  P35  1  0.358700  0.770800  0.368000  1.0  1.8027
  P  P36  1  0.166300  0.984000  0.385400  1.0  1.7487
  P  P37  1  0.921000  0.172700  0.893100  1.0  1.8095
  P  P38  1  0.858700  0.729200  0.868000  1.0  1.8026
  P  P39  1  0.666300  0.516000  0.885400  1.0  1.7489
  P  P40  1  0.421000  0.672700  0.893100  1.0  1.8095
  P  P41  1  0.358700  0.229200  0.868000  1.0  1.8026
  P  P42  1  0.166300  0.016000  0.885400  1.0  1.7489
  P  P43  1  0.079000  0.172700  0.606900  1.0  1.8107
  P  P44  1  0.141300  0.729200  0.632000  1.0  1.8025
  P  P45  1  0.333700  0.516000  0.614600  1.0  1.7486
  P  P46  1  0.579000  0.672700  0.606900  1.0  1.8107
  P  P47  1  0.641300  0.229200  0.632000  1.0  1.8025
  P  P48  1  0.833700  0.016000  0.614600  1.0  1.7486
  O  O49  1  0.251800  0.537300  0.101000  1.0  -0.6541
  O  O50  1  0.109900  0.686300  0.099700  1.0  -0.6814
  O  O51  1  0.123200  0.418400  0.138800  1.0  -0.6787
  O  O52  1  0.263200  0.487100  0.238900  1.0  -0.6632
  O  O53  1  0.355100  0.366700  0.165900  1.0  -0.6575
  O  O54  1  0.224100  0.238300  0.168100  1.0  -0.7114
  O  O55  1  0.096800  0.866900  0.184300  1.0  -0.6991
  O  O56  1  0.345500  0.447500  0.045400  1.0  -0.7375
  O  O57  1  0.116900  0.930600  0.070800  1.0  -0.7004
  O  O58  1  0.120900  0.228400  0.056000  1.0  -0.6942
  O  O59  1  0.991000  0.819600  0.074800  1.0  -0.6679
  O  O60  1  0.087900  0.195000  0.169700  1.0  -0.4546
  O  O61  1  0.388500  0.602800  0.148100  1.0  -0.4404
  O  O62  1  0.751800  0.037300  0.101000  1.0  -0.6541
  O  O63  1  0.609900  0.186300  0.099700  1.0  -0.6814
  O  O64  1  0.623200  0.918400  0.138800  1.0  -0.6787
  O  O65  1  0.763200  0.987100  0.238900  1.0  -0.6632
  O  O66  1  0.855100  0.866700  0.165900  1.0  -0.6575
  O  O67  1  0.724100  0.738300  0.168100  1.0  -0.7114
  O  O68  1  0.596800  0.366900  0.184300  1.0  -0.6991
  O  O69  1  0.845500  0.947500  0.045400  1.0  -0.7385
  O  O70  1  0.616900  0.430600  0.070800  1.0  -0.7004
  O  O71  1  0.620900  0.728400  0.056000  1.0  -0.6942
  O  O72  1  0.491000  0.319600  0.074800  1.0  -0.6679
  O  O73  1  0.587900  0.695000  0.169700  1.0  -0.4546
  O  O74  1  0.888500  0.102800  0.148100  1.0  -0.4404
  O  O75  1  0.748200  0.537300  0.399000  1.0  -0.6536
  O  O76  1  0.890100  0.686300  0.400300  1.0  -0.6809
  O  O77  1  0.876800  0.418400  0.361200  1.0  -0.6776
  O  O78  1  0.736800  0.487100  0.261100  1.0  -0.6643
  O  O79  1  0.644900  0.366700  0.334100  1.0  -0.6568
  O  O80  1  0.775900  0.238300  0.331900  1.0  -0.7117
  O  O81  1  0.903200  0.866900  0.315700  1.0  -0.7002
  O  O82  1  0.654500  0.447500  0.454600  1.0  -0.7354
  O  O83  1  0.883100  0.930600  0.429200  1.0  -0.7001
  O  O84  1  0.879100  0.228400  0.444000  1.0  -0.6935
  O  O85  1  0.009000  0.819600  0.425200  1.0  -0.6697
  O  O86  1  0.912100  0.195000  0.330300  1.0  -0.4571
  O  O87  1  0.611500  0.602800  0.351900  1.0  -0.4406
  O  O88  1  0.248200  0.037300  0.399000  1.0  -0.6536
  O  O89  1  0.390100  0.186300  0.400300  1.0  -0.6809
  O  O90  1  0.376800  0.918400  0.361200  1.0  -0.6776
  O  O91  1  0.236800  0.987100  0.261100  1.0  -0.6643
  O  O92  1  0.144900  0.866700  0.334100  1.0  -0.6568
  O  O93  1  0.275900  0.738300  0.331900  1.0  -0.7117
  O  O94  1  0.403200  0.366900  0.315700  1.0  -0.7002
  O  O95  1  0.154500  0.947500  0.454600  1.0  -0.7361
  O  O96  1  0.383100  0.430600  0.429200  1.0  -0.7001
  O  O97  1  0.379100  0.728400  0.444000  1.0  -0.6935
  O  O98  1  0.509000  0.319600  0.425200  1.0  -0.6697
  O  O99  1  0.412100  0.695000  0.330300  1.0  -0.4571
  O  O100  1  0.111500  0.102800  0.351900  1.0  -0.4406
  O  O101  1  0.748200  0.462700  0.899000  1.0  -0.6547
  O  O102  1  0.890100  0.313700  0.900300  1.0  -0.6795
  O  O103  1  0.876800  0.581600  0.861200  1.0  -0.6772
  O  O104  1  0.736800  0.512900  0.761100  1.0  -0.6646
  O  O105  1  0.644900  0.633300  0.834100  1.0  -0.6565
  O  O106  1  0.775900  0.761700  0.831900  1.0  -0.7128
  O  O107  1  0.903200  0.133100  0.815700  1.0  -0.6998
  O  O108  1  0.654500  0.552500  0.954600  1.0  -0.7357
  O  O109  1  0.883100  0.069400  0.929200  1.0  -0.7001
  O  O110  1  0.879100  0.771600  0.944000  1.0  -0.6931
  O  O111  1  0.009000  0.180400  0.925200  1.0  -0.6694
  O  O112  1  0.912100  0.805000  0.830300  1.0  -0.4571
  O  O113  1  0.611500  0.397200  0.851900  1.0  -0.4402
  O  O114  1  0.248200  0.962700  0.899000  1.0  -0.6547
  O  O115  1  0.390100  0.813700  0.900300  1.0  -0.6795
  O  O116  1  0.376800  0.081600  0.861200  1.0  -0.6772
  O  O117  1  0.236800  0.012900  0.761100  1.0  -0.6646
  O  O118  1  0.144900  0.133300  0.834100  1.0  -0.6565
  O  O119  1  0.275900  0.261700  0.831900  1.0  -0.7128
  O  O120  1  0.403200  0.633100  0.815700  1.0  -0.6998
  O  O121  1  0.154500  0.052500  0.954600  1.0  -0.7357
  O  O122  1  0.383100  0.569400  0.929200  1.0  -0.7001
  O  O123  1  0.379100  0.271600  0.944000  1.0  -0.6931
  O  O124  1  0.509000  0.680400  0.925200  1.0  -0.6694
  O  O125  1  0.412100  0.305000  0.830300  1.0  -0.4571
  O  O126  1  0.111500  0.897200  0.851900  1.0  -0.4402
  O  O127  1  0.251800  0.462700  0.601000  1.0  -0.6543
  O  O128  1  0.109900  0.313700  0.599700  1.0  -0.6809
  O  O129  1  0.123200  0.581600  0.638800  1.0  -0.6781
  O  O130  1  0.263200  0.512900  0.738900  1.0  -0.6638
  O  O131  1  0.355100  0.633300  0.665900  1.0  -0.6565
  O  O132  1  0.224100  0.761700  0.668100  1.0  -0.7117
  O  O133  1  0.096800  0.133100  0.684300  1.0  -0.6987
  O  O134  1  0.345500  0.552500  0.545400  1.0  -0.738
  O  O135  1  0.116900  0.069400  0.570800  1.0  -0.7005
  O  O136  1  0.120900  0.771600  0.556000  1.0  -0.6938
  O  O137  1  0.991000  0.180400  0.574800  1.0  -0.6675
  O  O138  1  0.087900  0.805000  0.669700  1.0  -0.4539
  O  O139  1  0.388500  0.397200  0.648100  1.0  -0.442
  O  O140  1  0.751800  0.962700  0.601000  1.0  -0.6543
  O  O141  1  0.609900  0.813700  0.599700  1.0  -0.6809
  O  O142  1  0.623200  0.081600  0.638800  1.0  -0.6781
  O  O143  1  0.763200  0.012900  0.738900  1.0  -0.6638
  O  O144  1  0.855100  0.133300  0.665900  1.0  -0.6565
  O  O145  1  0.724100  0.261700  0.668100  1.0  -0.7117
  O  O146  1  0.596800  0.633100  0.684300  1.0  -0.6987
  O  O147  1  0.845500  0.052500  0.545400  1.0  -0.7381
  O  O148  1  0.616900  0.569400  0.570800  1.0  -0.7005
  O  O149  1  0.620900  0.271600  0.556000  1.0  -0.6938
  O  O150  1  0.491000  0.680400  0.574800  1.0  -0.6675
  O  O151  1  0.587900  0.305000  0.669700  1.0  -0.4539
  O  O152  1  0.888500  0.897200  0.648100  1.0  -0.442
  F  F153  1  0.145300  0.632500  0.241200  1.0  -0.4443
  F  F154  1  0.243600  0.751600  0.190800  1.0  -0.462
  F  F155  1  0.489900  0.580400  0.048100  1.0  -0.4734
  F  F156  1  0.645300  0.132500  0.241200  1.0  -0.4443
  F  F157  1  0.743600  0.251600  0.190800  1.0  -0.462
  F  F158  1  0.989900  0.080400  0.048100  1.0  -0.4734
  F  F159  1  0.854700  0.632500  0.258800  1.0  -0.445
  F  F160  1  0.756400  0.751600  0.309200  1.0  -0.4605
  F  F161  1  0.510100  0.580400  0.451900  1.0  -0.4751
  F  F162  1  0.354700  0.132500  0.258800  1.0  -0.445
  F  F163  1  0.256400  0.251600  0.309200  1.0  -0.4605
  F  F164  1  0.010100  0.080400  0.451900  1.0  -0.4751
  F  F165  1  0.854700  0.367500  0.758800  1.0  -0.4471
  F  F166  1  0.756400  0.248400  0.809200  1.0  -0.461
  F  F167  1  0.510100  0.419600  0.951900  1.0  -0.4747
  F  F168  1  0.354700  0.867500  0.758800  1.0  -0.4471
  F  F169  1  0.256400  0.748400  0.809200  1.0  -0.461
  F  F170  1  0.010100  0.919600  0.951900  1.0  -0.4747
  F  F171  1  0.145300  0.367500  0.741200  1.0  -0.443
  F  F172  1  0.243600  0.248400  0.690800  1.0  -0.4618
  F  F173  1  0.489900  0.419600  0.548100  1.0  -0.4738
  F  F174  1  0.645300  0.867500  0.741200  1.0  -0.443
  F  F175  1  0.743600  0.748400  0.690800  1.0  -0.4618
  F  F176  1  0.989900  0.919600  0.548100  1.0  -0.4738
