# generated using pymatgen
data_Zn2H8C15(N2O)4
_symmetry_space_group_name_H-M   'P 1'
_cell_length_a   20.90900000
_cell_length_b   11.36400000
_cell_length_c   17.69900000
_cell_angle_alpha   90.00000000
_cell_angle_beta   103.27500000
_cell_angle_gamma   90.00000000
_symmetry_Int_Tables_number   1
_chemical_formula_structural   Zn2H8C15(N2O)4
_chemical_formula_sum   'Zn16 H64 C120 N64 O32'
_cell_volume   4093.08383920
_cell_formula_units_Z   8
loop_
 _symmetry_equiv_pos_site_id
 _symmetry_equiv_pos_as_xyz
  1  'x, y, z'
loop_
 _atom_site_type_symbol
 _atom_site_label
 _atom_site_symmetry_multiplicity
 _atom_site_fract_x
 _atom_site_fract_y
 _atom_site_fract_z
 _atom_site_occupancy
 _atom_site_charge
  Zn  Zn1  1  0.053200  0.863770  0.358210  1.0  0.7676
  Zn  Zn2  1  0.228200  0.917260  0.685760  1.0  0.9333
  Zn  Zn3  1  0.553200  0.363770  0.358210  1.0  0.7676
  Zn  Zn4  1  0.728200  0.417260  0.685760  1.0  0.9333
  Zn  Zn5  1  0.946800  0.863770  0.141790  1.0  0.7682
  Zn  Zn6  1  0.771800  0.917260  0.814240  1.0  0.9336
  Zn  Zn7  1  0.446800  0.363770  0.141790  1.0  0.7682
  Zn  Zn8  1  0.271800  0.417260  0.814240  1.0  0.9336
  Zn  Zn9  1  0.946800  0.136230  0.641790  1.0  0.7657
  Zn  Zn10  1  0.771800  0.082740  0.314240  1.0  0.9339
  Zn  Zn11  1  0.446800  0.636230  0.641790  1.0  0.7657
  Zn  Zn12  1  0.271800  0.582740  0.314240  1.0  0.9339
  Zn  Zn13  1  0.053200  0.136230  0.858210  1.0  0.765
  Zn  Zn14  1  0.228200  0.082740  0.185760  1.0  0.934
  Zn  Zn15  1  0.553200  0.636230  0.858210  1.0  0.765
  Zn  Zn16  1  0.728200  0.582740  0.185760  1.0  0.934
  H  H17  1  0.208600  0.642800  0.517900  1.0  0.1013
  H  H18  1  0.180000  0.452900  0.542900  1.0  0.1158
  H  H19  1  0.021500  0.573600  0.602400  1.0  0.119
  H  H20  1  0.051000  0.762600  0.578800  1.0  0.1141
  H  H21  1  0.137500  0.269100  0.534400  1.0  0.1354
  H  H22  1  0.003900  0.389300  0.641300  1.0  0.0999
  H  H23  1  0.184300  0.661500  0.759400  1.0  0.0922
  H  H24  1  0.072100  0.105200  0.564500  1.0  0.1087
  H  H25  1  0.708600  0.142800  0.517900  1.0  0.1013
  H  H26  1  0.680000  0.952900  0.542900  1.0  0.1158
  H  H27  1  0.521500  0.073600  0.602400  1.0  0.119
  H  H28  1  0.551000  0.262600  0.578800  1.0  0.1141
  H  H29  1  0.637500  0.769100  0.534400  1.0  0.1354
  H  H30  1  0.503900  0.889300  0.641300  1.0  0.0999
  H  H31  1  0.684300  0.161500  0.759400  1.0  0.0922
  H  H32  1  0.572100  0.605200  0.564500  1.0  0.1087
  H  H33  1  0.791400  0.642800  0.982100  1.0  0.1014
  H  H34  1  0.820000  0.452900  0.957100  1.0  0.1158
  H  H35  1  0.978500  0.573600  0.897600  1.0  0.1197
  H  H36  1  0.949000  0.762600  0.921200  1.0  0.1136
  H  H37  1  0.862500  0.269100  0.965600  1.0  0.1352
  H  H38  1  0.996100  0.389300  0.858700  1.0  0.1002
  H  H39  1  0.815700  0.661500  0.740600  1.0  0.0919
  H  H40  1  0.927900  0.105200  0.935500  1.0  0.1091
  H  H41  1  0.291400  0.142800  0.982100  1.0  0.1014
  H  H42  1  0.320000  0.952900  0.957100  1.0  0.1158
  H  H43  1  0.478500  0.073600  0.897600  1.0  0.1197
  H  H44  1  0.449000  0.262600  0.921200  1.0  0.1136
  H  H45  1  0.362500  0.769100  0.965600  1.0  0.1352
  H  H46  1  0.496100  0.889300  0.858700  1.0  0.1002
  H  H47  1  0.315700  0.161500  0.740600  1.0  0.0919
  H  H48  1  0.427900  0.605200  0.935500  1.0  0.1091
  H  H49  1  0.791400  0.357200  0.482100  1.0  0.1011
  H  H50  1  0.820000  0.547100  0.457100  1.0  0.1162
  H  H51  1  0.978500  0.426400  0.397600  1.0  0.1195
  H  H52  1  0.949000  0.237400  0.421200  1.0  0.1138
  H  H53  1  0.862500  0.730900  0.465600  1.0  0.1353
  H  H54  1  0.996100  0.610700  0.358700  1.0  0.1004
  H  H55  1  0.815700  0.338500  0.240600  1.0  0.0918
  H  H56  1  0.927900  0.894800  0.435500  1.0  0.1088
  H  H57  1  0.291400  0.857200  0.482100  1.0  0.1011
  H  H58  1  0.320000  0.047100  0.457100  1.0  0.1162
  H  H59  1  0.478500  0.926400  0.397600  1.0  0.1195
  H  H60  1  0.449000  0.737400  0.421200  1.0  0.1138
  H  H61  1  0.362500  0.230900  0.465600  1.0  0.1353
  H  H62  1  0.496100  0.110700  0.358700  1.0  0.1004
  H  H63  1  0.315700  0.838500  0.240600  1.0  0.0918
  H  H64  1  0.427900  0.394800  0.435500  1.0  0.1088
  H  H65  1  0.208600  0.357200  0.017900  1.0  0.1014
  H  H66  1  0.180000  0.547100  0.042900  1.0  0.1164
  H  H67  1  0.021500  0.426400  0.102400  1.0  0.1193
  H  H68  1  0.051000  0.237400  0.078800  1.0  0.1139
  H  H69  1  0.137500  0.730900  0.034400  1.0  0.1356
  H  H70  1  0.003900  0.610700  0.141300  1.0  0.1003
  H  H71  1  0.184300  0.338500  0.259400  1.0  0.0922
  H  H72  1  0.072100  0.894800  0.064500  1.0  0.1084
  H  H73  1  0.708600  0.857200  0.017900  1.0  0.1014
  H  H74  1  0.680000  0.047100  0.042900  1.0  0.1164
  H  H75  1  0.521500  0.926400  0.102400  1.0  0.1193
  H  H76  1  0.551000  0.737400  0.078800  1.0  0.1139
  H  H77  1  0.637500  0.230900  0.034400  1.0  0.1356
  H  H78  1  0.503900  0.110700  0.141300  1.0  0.1003
  H  H79  1  0.684300  0.838500  0.259400  1.0  0.0922
  H  H80  1  0.572100  0.394800  0.064500  1.0  0.1084
  C  C81  1  0.148300  0.843600  0.523200  1.0  0.3369
  C  C82  1  0.131500  0.722000  0.542600  1.0  0.0225
  C  C83  1  0.169900  0.629600  0.534100  1.0  -0.0994
  C  C84  1  0.152800  0.515100  0.549100  1.0  -0.1565
  C  C85  1  0.096700  0.493700  0.572600  1.0  0.1447
  C  C86  1  0.059300  0.586500  0.584400  1.0  -0.1461
  C  C87  1  0.077000  0.700000  0.569800  1.0  -0.1134
  C  C88  1  0.102700  0.274100  0.558800  1.0  -0.1509
  C  C89  1  0.028600  0.338700  0.618100  1.0  0.1702
  C  C90  1  0.355700  0.812500  0.689500  1.0  0.6729
  C  C91  1  0.314300  0.722200  0.716100  1.0  -0.0536
  C  C92  1  0.322900  0.607700  0.740800  1.0  0.0084
  C  C93  1  0.376900  0.522600  0.751000  1.0  0.6764
  C  C94  1  0.226200  0.662900  0.749900  1.0  0.3483
  C  C95  1  0.066500  0.183700  0.576300  1.0  0.0319
  C  C96  1  0.648300  0.343600  0.523200  1.0  0.3369
  C  C97  1  0.631500  0.222000  0.542600  1.0  0.0225
  C  C98  1  0.669900  0.129600  0.534100  1.0  -0.0994
  C  C99  1  0.652800  0.015100  0.549100  1.0  -0.1565
  C  C100  1  0.596700  0.993700  0.572600  1.0  0.1447
  C  C101  1  0.559300  0.086500  0.584400  1.0  -0.1461
  C  C102  1  0.577000  0.200000  0.569800  1.0  -0.1134
  C  C103  1  0.602700  0.774100  0.558800  1.0  -0.1509
  C  C104  1  0.528600  0.838700  0.618100  1.0  0.1702
  C  C105  1  0.855700  0.312500  0.689500  1.0  0.6729
  C  C106  1  0.814300  0.222200  0.716100  1.0  -0.0536
  C  C107  1  0.822900  0.107700  0.740800  1.0  0.0084
  C  C108  1  0.876900  0.022600  0.751000  1.0  0.6764
  C  C109  1  0.726200  0.162900  0.749900  1.0  0.3483
  C  C110  1  0.566500  0.683700  0.576300  1.0  0.0319
  C  C111  1  0.851700  0.843600  0.976800  1.0  0.3372
  C  C112  1  0.868500  0.722000  0.957400  1.0  0.0232
  C  C113  1  0.830100  0.629600  0.965900  1.0  -0.0976
  C  C114  1  0.847200  0.515100  0.950900  1.0  -0.1553
  C  C115  1  0.903300  0.493700  0.927400  1.0  0.1441
  C  C116  1  0.940700  0.586500  0.915600  1.0  -0.1462
  C  C117  1  0.923000  0.700000  0.930200  1.0  -0.1147
  C  C118  1  0.897300  0.274100  0.941200  1.0  -0.1529
  C  C119  1  0.971400  0.338700  0.881900  1.0  0.1705
  C  C120  1  0.644300  0.812500  0.810500  1.0  0.6733
  C  C121  1  0.685700  0.722200  0.783900  1.0  -0.0534
  C  C122  1  0.677100  0.607700  0.759200  1.0  0.0091
  C  C123  1  0.623100  0.522600  0.749000  1.0  0.6758
  C  C124  1  0.773800  0.662900  0.750100  1.0  0.3483
  C  C125  1  0.933500  0.183700  0.923700  1.0  0.0328
  C  C126  1  0.351700  0.343600  0.976800  1.0  0.3372
  C  C127  1  0.368500  0.222000  0.957400  1.0  0.0232
  C  C128  1  0.330100  0.129600  0.965900  1.0  -0.0976
  C  C129  1  0.347200  0.015100  0.950900  1.0  -0.1553
  C  C130  1  0.403300  0.993700  0.927400  1.0  0.1441
  C  C131  1  0.440700  0.086500  0.915600  1.0  -0.1462
  C  C132  1  0.423000  0.200000  0.930200  1.0  -0.1147
  C  C133  1  0.397300  0.774100  0.941200  1.0  -0.1529
  C  C134  1  0.471400  0.838700  0.881900  1.0  0.1705
  C  C135  1  0.144300  0.312500  0.810500  1.0  0.6733
  C  C136  1  0.185700  0.222200  0.783900  1.0  -0.0534
  C  C137  1  0.177100  0.107700  0.759200  1.0  0.0091
  C  C138  1  0.123100  0.022600  0.749000  1.0  0.6758
  C  C139  1  0.273800  0.162900  0.750100  1.0  0.3483
  C  C140  1  0.433500  0.683700  0.923700  1.0  0.0328
  C  C141  1  0.851700  0.156400  0.476800  1.0  0.3377
  C  C142  1  0.868500  0.278000  0.457400  1.0  0.0229
  C  C143  1  0.830100  0.370400  0.465900  1.0  -0.0976
  C  C144  1  0.847200  0.484900  0.450900  1.0  -0.1561
  C  C145  1  0.903300  0.506300  0.427400  1.0  0.1441
  C  C146  1  0.940700  0.413500  0.415600  1.0  -0.1466
  C  C147  1  0.923000  0.300000  0.430200  1.0  -0.1129
  C  C148  1  0.897300  0.725900  0.441200  1.0  -0.1533
  C  C149  1  0.971400  0.661300  0.381900  1.0  0.1714
  C  C150  1  0.644300  0.187500  0.310500  1.0  0.6737
  C  C151  1  0.685700  0.277800  0.283900  1.0  -0.0531
  C  C152  1  0.677100  0.392300  0.259200  1.0  0.0092
  C  C153  1  0.623100  0.477400  0.249000  1.0  0.6755
  C  C154  1  0.773800  0.337100  0.250100  1.0  0.3484
  C  C155  1  0.933500  0.816300  0.423700  1.0  0.0334
  C  C156  1  0.351700  0.656400  0.476800  1.0  0.3377
  C  C157  1  0.368500  0.778000  0.457400  1.0  0.0229
  C  C158  1  0.330100  0.870400  0.465900  1.0  -0.0976
  C  C159  1  0.347200  0.984900  0.450900  1.0  -0.1561
  C  C160  1  0.403300  0.006300  0.427400  1.0  0.1441
  C  C161  1  0.440700  0.913500  0.415600  1.0  -0.1466
  C  C162  1  0.423000  0.800000  0.430200  1.0  -0.1129
  C  C163  1  0.397300  0.225900  0.441200  1.0  -0.1533
  C  C164  1  0.471400  0.161300  0.381900  1.0  0.1714
  C  C165  1  0.144300  0.687500  0.310500  1.0  0.6737
  C  C166  1  0.185700  0.777800  0.283900  1.0  -0.0531
  C  C167  1  0.177100  0.892300  0.259200  1.0  0.0092
  C  C168  1  0.123100  0.977400  0.249000  1.0  0.6755
  C  C169  1  0.273800  0.837100  0.250100  1.0  0.3484
  C  C170  1  0.433500  0.316300  0.423700  1.0  0.0334
  C  C171  1  0.148300  0.156400  0.023200  1.0  0.3373
  C  C172  1  0.131500  0.278000  0.042600  1.0  0.0223
  C  C173  1  0.169900  0.370400  0.034100  1.0  -0.099
  C  C174  1  0.152800  0.484900  0.049100  1.0  -0.1571
  C  C175  1  0.096700  0.506300  0.072600  1.0  0.1445
  C  C176  1  0.059300  0.413500  0.084400  1.0  -0.1458
  C  C177  1  0.077000  0.300000  0.069800  1.0  -0.1108
  C  C178  1  0.102700  0.725900  0.058800  1.0  -0.1516
  C  C179  1  0.028600  0.661300  0.118100  1.0  0.1708
  C  C180  1  0.355700  0.187500  0.189500  1.0  0.6731
  C  C181  1  0.314300  0.277800  0.216100  1.0  -0.0532
  C  C182  1  0.322900  0.392300  0.240800  1.0  0.0082
  C  C183  1  0.376900  0.477400  0.251000  1.0  0.6763
  C  C184  1  0.226200  0.337100  0.249900  1.0  0.3485
  C  C185  1  0.066500  0.816300  0.076300  1.0  0.0329
  C  C186  1  0.648300  0.656400  0.023200  1.0  0.3373
  C  C187  1  0.631500  0.778000  0.042600  1.0  0.0223
  C  C188  1  0.669900  0.870400  0.034100  1.0  -0.099
  C  C189  1  0.652800  0.984900  0.049100  1.0  -0.1571
  C  C190  1  0.596700  0.006300  0.072600  1.0  0.1445
  C  C191  1  0.559300  0.913500  0.084400  1.0  -0.1458
  C  C192  1  0.577000  0.800000  0.069800  1.0  -0.1108
  C  C193  1  0.602700  0.225900  0.058800  1.0  -0.1516
  C  C194  1  0.528600  0.161300  0.118100  1.0  0.1708
  C  C195  1  0.855700  0.687500  0.189500  1.0  0.6731
  C  C196  1  0.814300  0.777800  0.216100  1.0  -0.0532
  C  C197  1  0.822900  0.892300  0.240800  1.0  0.0082
  C  C198  1  0.876900  0.977400  0.251000  1.0  0.6763
  C  C199  1  0.726200  0.837100  0.249900  1.0  0.3485
  C  C200  1  0.566500  0.316300  0.076300  1.0  0.0329
  N  N201  1  0.020100  0.224900  0.614100  1.0  -0.3845
  N  N202  1  0.127700  0.893700  0.453500  1.0  -0.243
  N  N203  1  0.157700  0.001800  0.458500  1.0  -0.1311
  N  N204  1  0.194500  0.014200  0.528100  1.0  -0.134
  N  N205  1  0.189100  0.914900  0.569900  1.0  -0.2248
  N  N206  1  0.077700  0.375100  0.584600  1.0  0.027
  N  N207  1  0.251910  0.756400  0.722400  1.0  -0.4074
  N  N208  1  0.267390  0.571300  0.762500  1.0  -0.4021
  N  N209  1  0.520100  0.724900  0.614100  1.0  -0.3845
  N  N210  1  0.627700  0.393700  0.453500  1.0  -0.243
  N  N211  1  0.657700  0.501800  0.458500  1.0  -0.1311
  N  N212  1  0.694500  0.514200  0.528100  1.0  -0.134
  N  N213  1  0.689100  0.414900  0.569900  1.0  -0.2248
  N  N214  1  0.577700  0.875100  0.584600  1.0  0.027
  N  N215  1  0.751910  0.256400  0.722400  1.0  -0.4074
  N  N216  1  0.767390  0.071300  0.762500  1.0  -0.4021
  N  N217  1  0.979900  0.224900  0.885900  1.0  -0.3848
  N  N218  1  0.872300  0.893700  0.046500  1.0  -0.2436
  N  N219  1  0.842300  0.001800  0.041500  1.0  -0.1336
  N  N220  1  0.805500  0.014200  0.971900  1.0  -0.1346
  N  N221  1  0.810900  0.914900  0.930100  1.0  -0.2258
  N  N222  1  0.922300  0.375100  0.915400  1.0  0.0264
  N  N223  1  0.748090  0.756400  0.777600  1.0  -0.4076
  N  N224  1  0.732610  0.571300  0.737500  1.0  -0.402
  N  N225  1  0.479900  0.724900  0.885900  1.0  -0.3848
  N  N226  1  0.372300  0.393700  0.046500  1.0  -0.2436
  N  N227  1  0.342300  0.501800  0.041500  1.0  -0.1336
  N  N228  1  0.305500  0.514200  0.971900  1.0  -0.1346
  N  N229  1  0.310900  0.414900  0.930100  1.0  -0.2258
  N  N230  1  0.422300  0.875100  0.915400  1.0  0.0264
  N  N231  1  0.248090  0.256400  0.777600  1.0  -0.4076
  N  N232  1  0.232610  0.071300  0.737500  1.0  -0.402
  N  N233  1  0.979900  0.775100  0.385900  1.0  -0.3853
  N  N234  1  0.872300  0.106300  0.546500  1.0  -0.2444
  N  N235  1  0.842300  0.998200  0.541500  1.0  -0.1294
  N  N236  1  0.805500  0.985800  0.471900  1.0  -0.1319
  N  N237  1  0.810900  0.085100  0.430100  1.0  -0.2259
  N  N238  1  0.922300  0.624900  0.415400  1.0  0.0267
  N  N239  1  0.748090  0.243600  0.277600  1.0  -0.4073
  N  N240  1  0.732610  0.428700  0.237500  1.0  -0.4016
  N  N241  1  0.479900  0.275100  0.385900  1.0  -0.3853
  N  N242  1  0.372300  0.606300  0.546500  1.0  -0.2444
  N  N243  1  0.342300  0.498200  0.541500  1.0  -0.1294
  N  N244  1  0.305500  0.485800  0.471900  1.0  -0.1319
  N  N245  1  0.310900  0.585100  0.430100  1.0  -0.2259
  N  N246  1  0.422300  0.124900  0.415400  1.0  0.0267
  N  N247  1  0.248090  0.743600  0.277600  1.0  -0.4073
  N  N248  1  0.232610  0.928700  0.237500  1.0  -0.4016
  N  N249  1  0.020100  0.775100  0.114100  1.0  -0.3847
  N  N250  1  0.127700  0.106300  0.953500  1.0  -0.2439
  N  N251  1  0.157700  0.998200  0.958500  1.0  -0.1283
  N  N252  1  0.194500  0.985800  0.028100  1.0  -0.1311
  N  N253  1  0.189100  0.085100  0.069900  1.0  -0.2241
  N  N254  1  0.077700  0.624900  0.084600  1.0  0.0276
  N  N255  1  0.251910  0.243600  0.222400  1.0  -0.4066
  N  N256  1  0.267390  0.428700  0.262500  1.0  -0.4027
  N  N257  1  0.520100  0.275100  0.114100  1.0  -0.3847
  N  N258  1  0.627700  0.606300  0.953500  1.0  -0.2439
  N  N259  1  0.657700  0.498200  0.958500  1.0  -0.1283
  N  N260  1  0.694500  0.485800  0.028100  1.0  -0.1311
  N  N261  1  0.689100  0.585100  0.069900  1.0  -0.2241
  N  N262  1  0.577700  0.124900  0.084600  1.0  0.0276
  N  N263  1  0.751910  0.743600  0.222400  1.0  -0.4066
  N  N264  1  0.767390  0.928700  0.262500  1.0  -0.4027
  O  O265  1  0.330460  0.914700  0.680100  1.0  -0.5764
  O  O266  1  0.410890  0.787800  0.678400  1.0  -0.5922
  O  O267  1  0.429640  0.545700  0.731100  1.0  -0.6084
  O  O268  1  0.369360  0.427000  0.784100  1.0  -0.606
  O  O269  1  0.830460  0.414700  0.680100  1.0  -0.5764
  O  O270  1  0.910890  0.287800  0.678400  1.0  -0.5922
  O  O271  1  0.929640  0.045700  0.731100  1.0  -0.6084
  O  O272  1  0.869360  0.927000  0.784100  1.0  -0.606
  O  O273  1  0.669540  0.914700  0.819900  1.0  -0.5768
  O  O274  1  0.589110  0.787800  0.821600  1.0  -0.5914
  O  O275  1  0.570360  0.545700  0.768900  1.0  -0.6076
  O  O276  1  0.630640  0.427000  0.715900  1.0  -0.6078
  O  O277  1  0.169540  0.414700  0.819900  1.0  -0.5768
  O  O278  1  0.089110  0.287800  0.821600  1.0  -0.5914
  O  O279  1  0.070360  0.045700  0.768900  1.0  -0.6076
  O  O280  1  0.130640  0.927000  0.715900  1.0  -0.6078
  O  O281  1  0.669540  0.085300  0.319900  1.0  -0.576
  O  O282  1  0.589110  0.212200  0.321600  1.0  -0.5912
  O  O283  1  0.570360  0.454300  0.268900  1.0  -0.6072
  O  O284  1  0.630640  0.573000  0.215900  1.0  -0.6074
  O  O285  1  0.169540  0.585300  0.319900  1.0  -0.576
  O  O286  1  0.089110  0.712200  0.321600  1.0  -0.5912
  O  O287  1  0.070360  0.954300  0.268900  1.0  -0.6072
  O  O288  1  0.130640  0.073000  0.215900  1.0  -0.6074
  O  O289  1  0.330460  0.085300  0.180100  1.0  -0.5764
  O  O290  1  0.410890  0.212200  0.178400  1.0  -0.5915
  O  O291  1  0.429640  0.454300  0.231100  1.0  -0.6078
  O  O292  1  0.369360  0.573000  0.284100  1.0  -0.6059
  O  O293  1  0.830460  0.585300  0.180100  1.0  -0.5764
  O  O294  1  0.910890  0.712200  0.178400  1.0  -0.5915
  O  O295  1  0.929640  0.954300  0.231100  1.0  -0.6078
  O  O296  1  0.869360  0.073000  0.284100  1.0  -0.6059
