# generated using pymatgen
data_CoH8C13(NO2)2
_symmetry_space_group_name_H-M   'P 1'
_cell_length_a   22.75280000
_cell_length_b   10.90390000
_cell_length_c   11.56020000
_cell_angle_alpha   90.00000000
_cell_angle_beta   112.20800000
_cell_angle_gamma   90.00000000
_symmetry_Int_Tables_number   1
_chemical_formula_structural   CoH8C13(NO2)2
_chemical_formula_sum   'Co8 H64 C104 N16 O32'
_cell_volume   2655.26329734
_cell_formula_units_Z   8
loop_
 _symmetry_equiv_pos_site_id
 _symmetry_equiv_pos_as_xyz
  1  'x, y, z'
loop_
 _atom_site_type_symbol
 _atom_site_label
 _atom_site_symmetry_multiplicity
 _atom_site_fract_x
 _atom_site_fract_y
 _atom_site_fract_z
 _atom_site_occupancy
 _atom_site_charge
  Co  Co1  1  0.179430  0.082460  0.437090  1.0  0.8596
  Co  Co2  1  0.679430  0.582460  0.437090  1.0  0.8596
  Co  Co3  1  0.820570  0.082460  0.062910  1.0  0.8608
  Co  Co4  1  0.320570  0.582460  0.062910  1.0  0.8608
  Co  Co5  1  0.820570  0.917540  0.562910  1.0  0.8621
  Co  Co6  1  0.320570  0.417540  0.562910  1.0  0.8621
  Co  Co7  1  0.179430  0.917540  0.937090  1.0  0.8602
  Co  Co8  1  0.679430  0.417540  0.937090  1.0  0.8602
  H  H9  1  0.290100  0.921800  0.433600  1.0  0.0912
  H  H10  1  0.356400  0.766000  0.539400  1.0  0.1322
  H  H11  1  0.218500  0.946200  0.690200  1.0  0.0875
  H  H12  1  0.070700  0.111300  0.170600  1.0  0.0851
  H  H13  1  0.015900  0.257100  0.030200  1.0  0.1296
  H  H14  1  0.155800  0.357200  0.416300  1.0  0.0743
  H  H15  1  0.103000  0.509600  0.284600  1.0  0.1116
  H  H16  1  0.032700  0.584600  0.087500  1.0  0.1083
  H  H17  1  0.790100  0.421800  0.433600  1.0  0.0912
  H  H18  1  0.856400  0.266000  0.539400  1.0  0.1322
  H  H19  1  0.718500  0.446200  0.690200  1.0  0.0875
  H  H20  1  0.570700  0.611300  0.170600  1.0  0.0851
  H  H21  1  0.515900  0.757100  0.030200  1.0  0.1296
  H  H22  1  0.655800  0.857200  0.416300  1.0  0.0743
  H  H23  1  0.603000  0.009600  0.284600  1.0  0.1116
  H  H24  1  0.532700  0.084600  0.087500  1.0  0.1083
  H  H25  1  0.709900  0.921800  0.066400  1.0  0.0903
  H  H26  1  0.643600  0.766000  0.960600  1.0  0.1325
  H  H27  1  0.781500  0.946200  0.809800  1.0  0.0869
  H  H28  1  0.929300  0.111300  0.329400  1.0  0.0858
  H  H29  1  0.984100  0.257100  0.469800  1.0  0.1297
  H  H30  1  0.844200  0.357200  0.083700  1.0  0.0739
  H  H31  1  0.897000  0.509600  0.215400  1.0  0.112
  H  H32  1  0.967300  0.584600  0.412500  1.0  0.1097
  H  H33  1  0.209900  0.421800  0.066400  1.0  0.0903
  H  H34  1  0.143600  0.266000  0.960600  1.0  0.1325
  H  H35  1  0.281500  0.446200  0.809800  1.0  0.0869
  H  H36  1  0.429300  0.611300  0.329400  1.0  0.0858
  H  H37  1  0.484100  0.757100  0.469800  1.0  0.1297
  H  H38  1  0.344200  0.857200  0.083700  1.0  0.0739
  H  H39  1  0.397000  0.009600  0.215400  1.0  0.112
  H  H40  1  0.467300  0.084600  0.412500  1.0  0.1097
  H  H41  1  0.709900  0.078200  0.566400  1.0  0.0903
  H  H42  1  0.643600  0.234000  0.460600  1.0  0.1324
  H  H43  1  0.781500  0.053800  0.309800  1.0  0.087
  H  H44  1  0.929300  0.888700  0.829400  1.0  0.0852
  H  H45  1  0.984100  0.742900  0.969800  1.0  0.1293
  H  H46  1  0.844200  0.642800  0.583700  1.0  0.0741
  H  H47  1  0.897000  0.490400  0.715400  1.0  0.1116
  H  H48  1  0.967300  0.415400  0.912500  1.0  0.1098
  H  H49  1  0.209900  0.578200  0.566400  1.0  0.0903
  H  H50  1  0.143600  0.734000  0.460600  1.0  0.1324
  H  H51  1  0.281500  0.553800  0.309800  1.0  0.087
  H  H52  1  0.429300  0.388700  0.829400  1.0  0.0852
  H  H53  1  0.484100  0.242900  0.969800  1.0  0.1293
  H  H54  1  0.344200  0.142800  0.583700  1.0  0.0741
  H  H55  1  0.397000  0.990400  0.715400  1.0  0.1116
  H  H56  1  0.467300  0.915400  0.912500  1.0  0.1098
  H  H57  1  0.290100  0.078200  0.933600  1.0  0.0912
  H  H58  1  0.356400  0.234000  0.039400  1.0  0.1326
  H  H59  1  0.218500  0.053800  0.190200  1.0  0.088
  H  H60  1  0.070700  0.888700  0.670600  1.0  0.0854
  H  H61  1  0.015900  0.742900  0.530200  1.0  0.1297
  H  H62  1  0.155800  0.642800  0.916300  1.0  0.0744
  H  H63  1  0.103000  0.490400  0.784600  1.0  0.1115
  H  H64  1  0.032700  0.415400  0.587500  1.0  0.109
  H  H65  1  0.790100  0.578200  0.933600  1.0  0.0912
  H  H66  1  0.856400  0.734000  0.039400  1.0  0.1326
  H  H67  1  0.718500  0.553800  0.190200  1.0  0.088
  H  H68  1  0.570700  0.388700  0.670600  1.0  0.0854
  H  H69  1  0.515900  0.242900  0.530200  1.0  0.1297
  H  H70  1  0.655800  0.142800  0.916300  1.0  0.0744
  H  H71  1  0.603000  0.990400  0.784600  1.0  0.1115
  H  H72  1  0.532700  0.915400  0.587500  1.0  0.109
  C  C73  1  0.288180  0.894150  0.508170  1.0  0.1741
  C  C74  1  0.328220  0.800150  0.571330  1.0  -0.1597
  C  C75  1  0.326160  0.756880  0.683070  1.0  -0.0746
  C  C76  1  0.368670  0.651540  0.749250  1.0  0.7384
  C  C77  1  0.284440  0.814170  0.728530  1.0  -0.1392
  C  C78  1  0.279720  0.778800  0.850760  1.0  0.7009
  C  C79  1  0.246010  0.908370  0.659000  1.0  0.207
  C  C80  1  0.077620  0.193300  0.194300  1.0  0.1959
  C  C81  1  0.044260  0.280600  0.108800  1.0  -0.2037
  C  C82  1  0.127060  0.335800  0.337300  1.0  0.193
  C  C83  1  0.095430  0.428700  0.257900  1.0  -0.2209
  C  C84  1  0.053090  0.403800  0.140300  1.0  0.1245
  C  C85  1  0.021460  0.505500  0.057100  1.0  -0.0884
  C  C86  1  0.788180  0.394150  0.508170  1.0  0.1741
  C  C87  1  0.828220  0.300150  0.571330  1.0  -0.1597
  C  C88  1  0.826160  0.256880  0.683070  1.0  -0.0746
  C  C89  1  0.868670  0.151540  0.749250  1.0  0.7384
  C  C90  1  0.784440  0.314170  0.728530  1.0  -0.1392
  C  C91  1  0.779720  0.278800  0.850760  1.0  0.7009
  C  C92  1  0.746010  0.408370  0.659000  1.0  0.207
  C  C93  1  0.577620  0.693300  0.194300  1.0  0.1959
  C  C94  1  0.544260  0.780600  0.108800  1.0  -0.2037
  C  C95  1  0.627060  0.835800  0.337300  1.0  0.193
  C  C96  1  0.595430  0.928700  0.257900  1.0  -0.2209
  C  C97  1  0.553090  0.903800  0.140300  1.0  0.1245
  C  C98  1  0.521460  0.005500  0.057100  1.0  -0.0884
  C  C99  1  0.711820  0.894150  0.991830  1.0  0.1729
  C  C100  1  0.671780  0.800150  0.928670  1.0  -0.1603
  C  C101  1  0.673840  0.756880  0.816930  1.0  -0.0748
  C  C102  1  0.631330  0.651540  0.750750  1.0  0.7393
  C  C103  1  0.715560  0.814170  0.771470  1.0  -0.1397
  C  C104  1  0.720280  0.778800  0.649240  1.0  0.6991
  C  C105  1  0.753990  0.908370  0.841000  1.0  0.207
  C  C106  1  0.922380  0.193300  0.305700  1.0  0.1961
  C  C107  1  0.955740  0.280600  0.391200  1.0  -0.2033
  C  C108  1  0.872940  0.335800  0.162700  1.0  0.1925
  C  C109  1  0.904570  0.428700  0.242100  1.0  -0.2233
  C  C110  1  0.946910  0.403800  0.359700  1.0  0.1242
  C  C111  1  0.978540  0.505500  0.442900  1.0  -0.0879
  C  C112  1  0.211820  0.394150  0.991830  1.0  0.1729
  C  C113  1  0.171780  0.300150  0.928670  1.0  -0.1603
  C  C114  1  0.173840  0.256880  0.816930  1.0  -0.0748
  C  C115  1  0.131330  0.151540  0.750750  1.0  0.7393
  C  C116  1  0.215560  0.314170  0.771470  1.0  -0.1397
  C  C117  1  0.220280  0.278800  0.649240  1.0  0.6991
  C  C118  1  0.253990  0.408370  0.841000  1.0  0.207
  C  C119  1  0.422380  0.693300  0.305700  1.0  0.1961
  C  C120  1  0.455740  0.780600  0.391200  1.0  -0.2033
  C  C121  1  0.372940  0.835800  0.162700  1.0  0.1925
  C  C122  1  0.404570  0.928700  0.242100  1.0  -0.2233
  C  C123  1  0.446910  0.903800  0.359700  1.0  0.1242
  C  C124  1  0.478540  0.005500  0.442900  1.0  -0.0879
  C  C125  1  0.711820  0.105850  0.491830  1.0  0.1731
  C  C126  1  0.671780  0.199850  0.428670  1.0  -0.1601
  C  C127  1  0.673840  0.243120  0.316930  1.0  -0.0738
  C  C128  1  0.631330  0.348460  0.250750  1.0  0.74
  C  C129  1  0.715560  0.185830  0.271470  1.0  -0.1384
  C  C130  1  0.720280  0.221200  0.149240  1.0  0.7011
  C  C131  1  0.753990  0.091630  0.341000  1.0  0.207
  C  C132  1  0.922380  0.806700  0.805700  1.0  0.1963
  C  C133  1  0.955740  0.719400  0.891200  1.0  -0.2041
  C  C134  1  0.872940  0.664200  0.662700  1.0  0.1926
  C  C135  1  0.904570  0.571300  0.742100  1.0  -0.222
  C  C136  1  0.946910  0.596200  0.859700  1.0  0.1237
  C  C137  1  0.978540  0.494500  0.942900  1.0  -0.0903
  C  C138  1  0.211820  0.605850  0.491830  1.0  0.1731
  C  C139  1  0.171780  0.699850  0.428670  1.0  -0.1601
  C  C140  1  0.173840  0.743120  0.316930  1.0  -0.0738
  C  C141  1  0.131330  0.848460  0.250750  1.0  0.74
  C  C142  1  0.215560  0.685830  0.271470  1.0  -0.1384
  C  C143  1  0.220280  0.721200  0.149240  1.0  0.7011
  C  C144  1  0.253990  0.591630  0.341000  1.0  0.207
  C  C145  1  0.422380  0.306700  0.805700  1.0  0.1963
  C  C146  1  0.455740  0.219400  0.891200  1.0  -0.2041
  C  C147  1  0.372940  0.164200  0.662700  1.0  0.1926
  C  C148  1  0.404570  0.071300  0.742100  1.0  -0.222
  C  C149  1  0.446910  0.096200  0.859700  1.0  0.1237
  C  C150  1  0.478540  0.994500  0.942900  1.0  -0.0903
  C  C151  1  0.288180  0.105850  0.008170  1.0  0.1741
  C  C152  1  0.328220  0.199850  0.071330  1.0  -0.1604
  C  C153  1  0.326160  0.243120  0.183070  1.0  -0.0745
  C  C154  1  0.368670  0.348460  0.249250  1.0  0.7385
  C  C155  1  0.284440  0.185830  0.228530  1.0  -0.1387
  C  C156  1  0.279720  0.221200  0.350760  1.0  0.699
  C  C157  1  0.246010  0.091630  0.159000  1.0  0.2077
  C  C158  1  0.077620  0.806700  0.694300  1.0  0.196
  C  C159  1  0.044260  0.719400  0.608800  1.0  -0.2046
  C  C160  1  0.127060  0.664200  0.837300  1.0  0.1931
  C  C161  1  0.095430  0.571300  0.757900  1.0  -0.2204
  C  C162  1  0.053090  0.596200  0.640300  1.0  0.1239
  C  C163  1  0.021460  0.494500  0.557100  1.0  -0.0906
  C  C164  1  0.788180  0.605850  0.008170  1.0  0.1741
  C  C165  1  0.828220  0.699850  0.071330  1.0  -0.1604
  C  C166  1  0.826160  0.743120  0.183070  1.0  -0.0745
  C  C167  1  0.868670  0.848460  0.249250  1.0  0.7385
  C  C168  1  0.784440  0.685830  0.228530  1.0  -0.1387
  C  C169  1  0.779720  0.721200  0.350760  1.0  0.699
  C  C170  1  0.746010  0.591630  0.159000  1.0  0.2077
  C  C171  1  0.577620  0.306700  0.694300  1.0  0.196
  C  C172  1  0.544260  0.219400  0.608800  1.0  -0.2046
  C  C173  1  0.627060  0.164200  0.837300  1.0  0.1931
  C  C174  1  0.595430  0.071300  0.757900  1.0  -0.2204
  C  C175  1  0.553090  0.096200  0.640300  1.0  0.1239
  C  C176  1  0.521460  0.994500  0.557100  1.0  -0.0906
  N  N177  1  0.246480  0.947570  0.549690  1.0  -0.3243
  N  N178  1  0.119210  0.218360  0.308650  1.0  -0.3376
  N  N179  1  0.746480  0.447570  0.549690  1.0  -0.3243
  N  N180  1  0.619210  0.718360  0.308650  1.0  -0.3376
  N  N181  1  0.753520  0.947570  0.950310  1.0  -0.3244
  N  N182  1  0.880790  0.218360  0.191350  1.0  -0.3394
  N  N183  1  0.253520  0.447570  0.950310  1.0  -0.3244
  N  N184  1  0.380790  0.718360  0.191350  1.0  -0.3394
  N  N185  1  0.753520  0.052430  0.450310  1.0  -0.3233
  N  N186  1  0.880790  0.781640  0.691350  1.0  -0.3377
  N  N187  1  0.253520  0.552430  0.450310  1.0  -0.3233
  N  N188  1  0.380790  0.281640  0.691350  1.0  -0.3377
  N  N189  1  0.246480  0.052430  0.049690  1.0  -0.3243
  N  N190  1  0.119210  0.781640  0.808650  1.0  -0.3387
  N  N191  1  0.746480  0.552430  0.049690  1.0  -0.3243
  N  N192  1  0.619210  0.281640  0.808650  1.0  -0.3387
  O  O193  1  0.252950  0.853450  0.896340  1.0  -0.6086
  O  O194  1  0.304610  0.679530  0.898730  1.0  -0.59
  O  O195  1  0.350730  0.545480  0.711520  1.0  -0.636
  O  O196  1  0.420420  0.678020  0.834920  1.0  -0.6281
  O  O197  1  0.752950  0.353450  0.896340  1.0  -0.6086
  O  O198  1  0.804610  0.179530  0.898730  1.0  -0.59
  O  O199  1  0.850730  0.045480  0.711520  1.0  -0.636
  O  O200  1  0.920420  0.178020  0.834920  1.0  -0.6281
  O  O201  1  0.747050  0.853450  0.603660  1.0  -0.6105
  O  O202  1  0.695390  0.679530  0.601270  1.0  -0.5915
  O  O203  1  0.649270  0.545480  0.788480  1.0  -0.6347
  O  O204  1  0.579580  0.678020  0.665080  1.0  -0.6273
  O  O205  1  0.247050  0.353450  0.603660  1.0  -0.6105
  O  O206  1  0.195390  0.179530  0.601270  1.0  -0.5915
  O  O207  1  0.149270  0.045480  0.788480  1.0  -0.6347
  O  O208  1  0.079580  0.178020  0.665080  1.0  -0.6273
  O  O209  1  0.747050  0.146550  0.103660  1.0  -0.6114
  O  O210  1  0.695390  0.320470  0.101270  1.0  -0.5904
  O  O211  1  0.649270  0.454520  0.288480  1.0  -0.635
  O  O212  1  0.579580  0.321980  0.165080  1.0  -0.6275
  O  O213  1  0.247050  0.646550  0.103660  1.0  -0.6114
  O  O214  1  0.195390  0.820470  0.101270  1.0  -0.5904
  O  O215  1  0.149270  0.954520  0.288480  1.0  -0.635
  O  O216  1  0.079580  0.821980  0.165080  1.0  -0.6275
  O  O217  1  0.252950  0.146550  0.396340  1.0  -0.6088
  O  O218  1  0.304610  0.320470  0.398730  1.0  -0.5899
  O  O219  1  0.350730  0.454520  0.211520  1.0  -0.6354
  O  O220  1  0.420420  0.321980  0.334920  1.0  -0.6273
  O  O221  1  0.752950  0.646550  0.396340  1.0  -0.6088
  O  O222  1  0.804610  0.820470  0.398730  1.0  -0.5899
  O  O223  1  0.850730  0.954520  0.211520  1.0  -0.6354
  O  O224  1  0.920420  0.821980  0.334920  1.0  -0.6273
