# generated using pymatgen
data_CuH7C11S(NO2)2
_symmetry_space_group_name_H-M   'P 1'
_cell_length_a   8.52200000
_cell_length_b   10.18000000
_cell_length_c   17.53400000
_cell_angle_alpha   90.00000000
_cell_angle_beta   100.62700000
_cell_angle_gamma   90.00000000
_symmetry_Int_Tables_number   1
_chemical_formula_structural   CuH7C11S(NO2)2
_chemical_formula_sum   'Cu4 H28 C44 S4 N8 O16'
_cell_volume   1495.05411808
_cell_formula_units_Z   4
loop_
 _symmetry_equiv_pos_site_id
 _symmetry_equiv_pos_as_xyz
  1  'x, y, z'
loop_
 _atom_site_type_symbol
 _atom_site_label
 _atom_site_symmetry_multiplicity
 _atom_site_fract_x
 _atom_site_fract_y
 _atom_site_fract_z
 _atom_site_occupancy
 _atom_site_charge
  Cu  Cu1  1  0.015220  0.672920  0.095360  1.0  0.8611
  Cu  Cu2  1  0.484780  0.172920  0.404640  1.0  0.8608
  Cu  Cu3  1  0.984780  0.327080  0.904640  1.0  0.8608
  Cu  Cu4  1  0.515220  0.827080  0.595360  1.0  0.8611
  H  H5  1  0.432700  0.386400  0.036300  1.0  0.104
  H  H6  1  0.494500  0.277800  0.156200  1.0  0.1192
  H  H7  1  0.160300  0.497000  0.227800  1.0  0.0821
  H  H8  1  0.720900  0.742400  0.140300  1.0  0.0942
  H  H9  1  0.494700  0.867800  0.103000  1.0  0.1392
  H  H10  1  0.699500  0.010500  0.932300  1.0  0.1297
  H  H11  1  0.917700  0.883000  0.977200  1.0  0.0867
  H  H12  1  0.067300  0.886400  0.463700  1.0  0.1042
  H  H13  1  0.005500  0.777800  0.343800  1.0  0.1192
  H  H14  1  0.339700  0.997000  0.272200  1.0  0.0823
  H  H15  1  0.779100  0.242400  0.359700  1.0  0.0941
  H  H16  1  0.005300  0.367800  0.397000  1.0  0.1389
  H  H17  1  0.800500  0.510500  0.567700  1.0  0.1301
  H  H18  1  0.582300  0.383000  0.522800  1.0  0.0869
  H  H19  1  0.567300  0.613600  0.963700  1.0  0.1041
  H  H20  1  0.505500  0.722200  0.843800  1.0  0.1194
  H  H21  1  0.839700  0.503000  0.772200  1.0  0.0825
  H  H22  1  0.279100  0.257600  0.859700  1.0  0.0941
  H  H23  1  0.505300  0.132200  0.897000  1.0  0.139
  H  H24  1  0.300500  0.989500  0.067700  1.0  0.1302
  H  H25  1  0.082300  0.117000  0.022800  1.0  0.087
  H  H26  1  0.932700  0.113600  0.536300  1.0  0.1039
  H  H27  1  0.994500  0.222200  0.656200  1.0  0.1192
  H  H28  1  0.660300  0.003000  0.727800  1.0  0.082
  H  H29  1  0.220900  0.757600  0.640300  1.0  0.0943
  H  H30  1  0.994700  0.632200  0.603000  1.0  0.1392
  H  H31  1  0.199500  0.489500  0.432300  1.0  0.1296
  H  H32  1  0.417700  0.617000  0.477200  1.0  0.0866
  C  C33  1  0.267000  0.504600  0.066400  1.0  0.134
  C  C34  1  0.380200  0.408400  0.076500  1.0  -0.1165
  C  C35  1  0.416900  0.343100  0.147700  1.0  0.0228
  C  C36  1  0.333000  0.379200  0.205700  1.0  -0.1892
  C  C37  1  0.363600  0.316600  0.284600  1.0  0.677
  C  C38  1  0.218800  0.475300  0.189700  1.0  0.2031
  C  C39  1  0.715500  0.797300  0.097500  1.0  0.1768
  C  C40  1  0.578800  0.873300  0.076100  1.0  -0.2019
  C  C41  1  0.571700  0.957900  0.013200  1.0  0.0979
  C  C42  1  0.700500  0.957600  0.975600  1.0  -0.1774
  C  C43  1  0.830600  0.878900  0.002200  1.0  0.1741
  C  C44  1  0.233000  0.004600  0.433600  1.0  0.1328
  C  C45  1  0.119800  0.908400  0.423500  1.0  -0.1126
  C  C46  1  0.083100  0.843100  0.352300  1.0  0.0238
  C  C47  1  0.167000  0.879200  0.294300  1.0  -0.1876
  C  C48  1  0.136400  0.816600  0.215400  1.0  0.6758
  C  C49  1  0.281200  0.975300  0.310300  1.0  0.2024
  C  C50  1  0.784500  0.297300  0.402500  1.0  0.1765
  C  C51  1  0.921200  0.373300  0.423900  1.0  -0.2026
  C  C52  1  0.928300  0.457900  0.486800  1.0  0.0981
  C  C53  1  0.799500  0.457600  0.524400  1.0  -0.1773
  C  C54  1  0.669400  0.378900  0.497800  1.0  0.1741
  C  C55  1  0.733000  0.495400  0.933600  1.0  0.1319
  C  C56  1  0.619800  0.591600  0.923500  1.0  -0.1143
  C  C57  1  0.583100  0.656900  0.852300  1.0  0.0235
  C  C58  1  0.667000  0.620800  0.794300  1.0  -0.187
  C  C59  1  0.636400  0.683400  0.715400  1.0  0.6761
  C  C60  1  0.781200  0.524700  0.810300  1.0  0.2023
  C  C61  1  0.284500  0.202700  0.902500  1.0  0.1763
  C  C62  1  0.421200  0.126700  0.923900  1.0  -0.2031
  C  C63  1  0.428300  0.042100  0.986800  1.0  0.0975
  C  C64  1  0.299500  0.042400  0.024400  1.0  -0.1774
  C  C65  1  0.169400  0.121100  0.997800  1.0  0.1744
  C  C66  1  0.767000  0.995400  0.566400  1.0  0.1333
  C  C67  1  0.880200  0.091600  0.576500  1.0  -0.118
  C  C68  1  0.916900  0.156900  0.647700  1.0  0.0236
  C  C69  1  0.833000  0.120800  0.705700  1.0  -0.19
  C  C70  1  0.863600  0.183400  0.784600  1.0  0.6774
  C  C71  1  0.718800  0.024700  0.689700  1.0  0.2033
  C  C72  1  0.215500  0.702700  0.597500  1.0  0.1764
  C  C73  1  0.078800  0.626700  0.576100  1.0  -0.2028
  C  C74  1  0.071700  0.542100  0.513200  1.0  0.0976
  C  C75  1  0.200500  0.542400  0.475600  1.0  -0.1776
  C  C76  1  0.330600  0.621100  0.502200  1.0  0.1745
  S  S77  1  0.216400  0.596680  0.976450  1.0  0.5609
  S  S78  1  0.283600  0.096680  0.523550  1.0  0.559
  S  S79  1  0.783600  0.403320  0.023550  1.0  0.5579
  S  S80  1  0.716400  0.903320  0.476450  1.0  0.5607
  N  N81  1  0.837200  0.798100  0.061500  1.0  -0.3012
  N  N82  1  0.187700  0.539500  0.121900  1.0  -0.3244
  N  N83  1  0.662800  0.298100  0.438500  1.0  -0.3026
  N  N84  1  0.312300  0.039500  0.378100  1.0  -0.3242
  N  N85  1  0.162800  0.201900  0.938500  1.0  -0.3026
  N  N86  1  0.812300  0.460500  0.878100  1.0  -0.3225
  N  N87  1  0.337200  0.701900  0.561500  1.0  -0.3016
  N  N88  1  0.687700  0.960500  0.621900  1.0  -0.3233
  O  O89  1  0.469700  0.224800  0.295300  1.0  -0.5834
  O  O90  1  0.290800  0.353500  0.334500  1.0  -0.5978
  O  O91  1  0.177400  0.491900  0.916800  1.0  -0.595
  O  O92  1  0.066600  0.665500  0.990200  1.0  -0.5766
  O  O93  1  0.030300  0.724800  0.204700  1.0  -0.583
  O  O94  1  0.209200  0.853500  0.165500  1.0  -0.5976
  O  O95  1  0.322600  0.991900  0.583200  1.0  -0.5907
  O  O96  1  0.433400  0.165500  0.509800  1.0  -0.5735
  O  O97  1  0.530300  0.775200  0.704700  1.0  -0.5829
  O  O98  1  0.709200  0.646500  0.665500  1.0  -0.5977
  O  O99  1  0.822600  0.508100  0.083200  1.0  -0.5921
  O  O100  1  0.933400  0.334500  0.009800  1.0  -0.5755
  O  O101  1  0.969700  0.275200  0.795300  1.0  -0.5835
  O  O102  1  0.790800  0.146500  0.834500  1.0  -0.5974
  O  O103  1  0.677400  0.008100  0.416800  1.0  -0.5965
  O  O104  1  0.566600  0.834500  0.490200  1.0  -0.5802
