# generated using pymatgen
data_MnH14C15N3O4
_symmetry_space_group_name_H-M   'P 1'
_cell_length_a   10.01600000
_cell_length_b   21.93400000
_cell_length_c   21.93400000
_cell_angle_alpha   87.01180000
_cell_angle_beta   76.80180000
_cell_angle_gamma   76.80170000
_symmetry_Int_Tables_number   1
_chemical_formula_structural   MnH14C15N3O4
_chemical_formula_sum   'Mn8 H112 C120 N24 O32'
_cell_volume   4567.49967131
_cell_formula_units_Z   8
loop_
 _symmetry_equiv_pos_site_id
 _symmetry_equiv_pos_as_xyz
  1  'x, y, z'
loop_
 _atom_site_type_symbol
 _atom_site_label
 _atom_site_symmetry_multiplicity
 _atom_site_fract_x
 _atom_site_fract_y
 _atom_site_fract_z
 _atom_site_occupancy
 _atom_site_charge
  Mn  Mn1  1  0.975950  0.566370  0.528630  1.0  1.0245
  Mn  Mn2  1  0.570950  0.933630  0.971380  1.0  1.0232
  Mn  Mn3  1  0.504580  0.471380  0.066360  1.0  1.023
  Mn  Mn4  1  0.542330  0.028620  0.433630  1.0  1.0237
  Mn  Mn5  1  0.024050  0.433630  0.471370  1.0  1.0239
  Mn  Mn6  1  0.429050  0.066370  0.028620  1.0  1.0233
  Mn  Mn7  1  0.495420  0.528620  0.933640  1.0  1.024
  Mn  Mn8  1  0.457680  0.971380  0.566360  1.0  1.0232
  H  H9  1  0.243700  0.656900  0.262900  1.0  0.0982
  H  H10  1  0.286600  0.708100  0.299500  1.0  0.062
  H  H11  1  0.390100  0.640800  0.284400  1.0  0.0729
  H  H12  1  0.440700  0.685200  0.363800  1.0  0.106
  H  H13  1  0.519100  0.694300  0.455100  1.0  0.0978
  H  H14  1  0.401700  0.662200  0.549800  1.0  0.0971
  H  H15  1  0.213200  0.626800  0.612000  1.0  0.0974
  H  H16  1  0.871400  0.617100  0.764100  1.0  0.1247
  H  H17  1  0.731100  0.602700  0.860700  1.0  0.0795
  H  H18  1  0.609000  0.466700  0.795500  1.0  0.0706
  H  H19  1  0.740300  0.478700  0.696100  1.0  0.1275
  H  H20  1  0.718500  0.513700  0.456700  1.0  0.065
  H  H21  1  0.702200  0.524300  0.529900  1.0  0.065
  H  H22  1  0.701200  0.582500  0.482900  1.0  0.0539
  H  H23  1  0.663500  0.843100  0.237100  1.0  0.0918
  H  H24  1  0.794200  0.791900  0.200500  1.0  0.0579
  H  H25  1  0.815300  0.859200  0.215600  1.0  0.0755
  H  H26  1  0.989700  0.814800  0.136200  1.0  0.1071
  H  H27  1  0.168500  0.805700  0.044900  1.0  0.098
  H  H28  1  0.113700  0.837800  0.950200  1.0  0.0969
  H  H29  1  0.952000  0.873200  0.888000  1.0  0.0952
  H  H30  1  0.752600  0.882900  0.735900  1.0  0.124
  H  H31  1  0.694500  0.897300  0.639300  1.0  0.0791
  H  H32  1  0.371200  0.033300  0.704500  1.0  0.0689
  H  H33  1  0.415100  0.021300  0.803900  1.0  0.1266
  H  H34  1  0.188900  0.986300  0.043300  1.0  0.0635
  H  H35  1  0.256400  0.975700  0.970100  1.0  0.0606
  H  H36  1  0.266600  0.917500  0.017100  1.0  0.0555
  H  H37  1  0.506600  0.737100  0.156900  1.0  0.0999
  H  H38  1  0.586100  0.700500  0.208100  1.0  0.0596
  H  H39  1  0.674500  0.715600  0.140800  1.0  0.074
  H  H40  1  0.804500  0.636200  0.185200  1.0  0.106
  H  H41  1  0.974200  0.544900  0.194300  1.0  0.0983
  H  H42  1  0.951500  0.450200  0.162200  1.0  0.0969
  H  H43  1  0.825200  0.388000  0.126800  1.0  0.0965
  H  H44  1  0.635500  0.235900  0.117100  1.0  0.1245
  H  H45  1  0.591800  0.139300  0.102700  1.0  0.0807
  H  H46  1  0.404500  0.204500  0.966700  1.0  0.0702
  H  H47  1  0.436400  0.303900  0.978700  1.0  0.1258
  H  H48  1  0.175200  0.543300  0.013700  1.0  0.064
  H  H49  1  0.232100  0.470100  0.024300  1.0  0.0631
  H  H50  1  0.184100  0.517100  0.082500  1.0  0.0567
  H  H51  1  0.900600  0.762900  0.343100  1.0  0.0971
  H  H52  1  0.994700  0.799500  0.291900  1.0  0.0639
  H  H53  1  0.030900  0.784400  0.359200  1.0  0.0755
  H  H54  1  0.125900  0.863800  0.314800  1.0  0.1062
  H  H55  1  0.213400  0.955100  0.305700  1.0  0.1025
  H  H56  1  0.063900  0.049800  0.337800  1.0  0.0971
  H  H57  1  0.840000  0.112000  0.373200  1.0  0.0961
  H  H58  1  0.488500  0.264100  0.382900  1.0  0.1244
  H  H59  1  0.333800  0.360700  0.397300  1.0  0.0791
  H  H60  1  0.075700  0.295500  0.533300  1.0  0.0701
  H  H61  1  0.219000  0.196100  0.521300  1.0  0.1266
  H  H62  1  0.232200  0.956700  0.486300  1.0  0.0638
  H  H63  1  0.226500  0.029900  0.475700  1.0  0.0639
  H  H64  1  0.283700  0.982900  0.417500  1.0  0.0577
  H  H65  1  0.756300  0.343100  0.737100  1.0  0.0983
  H  H66  1  0.713400  0.291900  0.700500  1.0  0.0561
  H  H67  1  0.609900  0.359200  0.715600  1.0  0.0728
  H  H68  1  0.559300  0.314800  0.636200  1.0  0.1059
  H  H69  1  0.480900  0.305700  0.544900  1.0  0.0977
  H  H70  1  0.598300  0.337800  0.450200  1.0  0.0962
  H  H71  1  0.786800  0.373200  0.388000  1.0  0.0965
  H  H72  1  0.128600  0.382900  0.235900  1.0  0.1241
  H  H73  1  0.268900  0.397300  0.139300  1.0  0.0793
  H  H74  1  0.391000  0.533300  0.204500  1.0  0.0706
  H  H75  1  0.259700  0.521300  0.303900  1.0  0.1276
  H  H76  1  0.281500  0.486300  0.543300  1.0  0.0645
  H  H77  1  0.297800  0.475700  0.470100  1.0  0.0622
  H  H78  1  0.298800  0.417500  0.517100  1.0  0.0544
  H  H79  1  0.336500  0.156900  0.762900  1.0  0.0933
  H  H80  1  0.205800  0.208100  0.799500  1.0  0.0628
  H  H81  1  0.184700  0.140800  0.784400  1.0  0.0756
  H  H82  1  0.010300  0.185200  0.863800  1.0  0.1057
  H  H83  1  0.831500  0.194300  0.955100  1.0  0.0995
  H  H84  1  0.886300  0.162200  0.049800  1.0  0.0958
  H  H85  1  0.048000  0.126800  0.112000  1.0  0.0972
  H  H86  1  0.247400  0.117100  0.264100  1.0  0.1254
  H  H87  1  0.305500  0.102700  0.360700  1.0  0.0788
  H  H88  1  0.628800  0.966700  0.295500  1.0  0.0706
  H  H89  1  0.584900  0.978700  0.196100  1.0  0.1267
  H  H90  1  0.811100  0.013700  0.956700  1.0  0.0665
  H  H91  1  0.743600  0.024300  0.029900  1.0  0.0612
  H  H92  1  0.733400  0.082500  0.982900  1.0  0.0549
  H  H93  1  0.493400  0.262900  0.843100  1.0  0.0983
  H  H94  1  0.413900  0.299500  0.791900  1.0  0.0611
  H  H95  1  0.325500  0.284400  0.859200  1.0  0.0735
  H  H96  1  0.195500  0.363800  0.814800  1.0  0.1044
  H  H97  1  0.025800  0.455100  0.805700  1.0  0.0995
  H  H98  1  0.048500  0.549800  0.837800  1.0  0.0972
  H  H99  1  0.174800  0.612000  0.873200  1.0  0.0958
  H  H100  1  0.364500  0.764100  0.882900  1.0  0.1249
  H  H101  1  0.408200  0.860700  0.897300  1.0  0.0801
  H  H102  1  0.595500  0.795500  0.033300  1.0  0.0721
  H  H103  1  0.563600  0.696100  0.021300  1.0  0.1261
  H  H104  1  0.824800  0.456700  0.986300  1.0  0.0634
  H  H105  1  0.767900  0.529900  0.975700  1.0  0.0651
  H  H106  1  0.815900  0.482900  0.917500  1.0  0.0558
  H  H107  1  0.099400  0.237100  0.656900  1.0  0.0983
  H  H108  1  0.005300  0.200500  0.708100  1.0  0.0598
  H  H109  1  0.969100  0.215600  0.640800  1.0  0.0764
  H  H110  1  0.874100  0.136200  0.685200  1.0  0.1063
  H  H111  1  0.786600  0.044900  0.694300  1.0  0.0964
  H  H112  1  0.936100  0.950200  0.662200  1.0  0.0966
  H  H113  1  0.160000  0.888000  0.626800  1.0  0.0953
  H  H114  1  0.511500  0.735900  0.617100  1.0  0.1246
  H  H115  1  0.666200  0.639300  0.602700  1.0  0.079
  H  H116  1  0.924300  0.704500  0.466700  1.0  0.0685
  H  H117  1  0.781000  0.803900  0.478700  1.0  0.1264
  H  H118  1  0.767800  0.043300  0.513700  1.0  0.0643
  H  H119  1  0.773500  0.970100  0.524300  1.0  0.0639
  H  H120  1  0.716300  0.017100  0.582500  1.0  0.0552
  C  C121  1  0.291400  0.663380  0.295620  1.0  -0.0164
  C  C122  1  0.277250  0.647150  0.404750  1.0  0.1438
  C  C123  1  0.392150  0.671790  0.402710  1.0  -0.2228
  C  C124  1  0.438950  0.677350  0.457150  1.0  -0.1019
  C  C125  1  0.369730  0.658470  0.512870  1.0  -0.0974
  C  C126  1  0.250240  0.633320  0.516400  1.0  -0.1797
  C  C127  1  0.203810  0.625400  0.462380  1.0  0.2615
  C  C128  1  0.177720  0.618640  0.577320  1.0  0.1555
  C  C129  1  0.901310  0.561140  0.655640  1.0  0.4757
  C  C130  1  0.819040  0.550390  0.719130  1.0  0.0418
  C  C131  1  0.816560  0.586340  0.769140  1.0  -0.174
  C  C132  1  0.733260  0.577150  0.826730  1.0  0.1511
  C  C133  1  0.661690  0.498350  0.788670  1.0  0.1606
  C  C134  1  0.740150  0.504800  0.729300  1.0  -0.1779
  C  C135  1  0.741400  0.537910  0.487690  1.0  0.0343
  C  C136  1  0.750400  0.836620  0.204380  1.0  -0.0142
  C  C137  1  0.829150  0.852850  0.095250  1.0  0.1443
  C  C138  1  0.966650  0.828210  0.097290  1.0  -0.2226
  C  C139  1  0.073450  0.822650  0.042850  1.0  -0.1022
  C  C140  1  0.041070  0.841530  0.987130  1.0  -0.098
  C  C141  1  0.899960  0.866680  0.983600  1.0  -0.1806
  C  C142  1  0.791590  0.874600  0.037620  1.0  0.2615
  C  C143  1  0.873680  0.881360  0.922680  1.0  0.1521
  C  C144  1  0.618090  0.938860  0.844360  1.0  0.4749
  C  C145  1  0.588560  0.949610  0.780870  1.0  0.0436
  C  C146  1  0.672040  0.913660  0.730860  1.0  -0.175
  C  C147  1  0.637140  0.922850  0.673270  1.0  0.1516
  C  C148  1  0.448710  0.001650  0.711330  1.0  0.1617
  C  C149  1  0.474250  0.995200  0.770700  1.0  -0.1739
  C  C150  1  0.267000  0.962090  0.012310  1.0  0.0344
  C  C151  1  0.587020  0.704380  0.163380  1.0  -0.0153
  C  C152  1  0.682000  0.595250  0.147150  1.0  0.1455
  C  C153  1  0.794860  0.597290  0.171790  1.0  -0.2229
  C  C154  1  0.896100  0.542850  0.177350  1.0  -0.1009
  C  C155  1  0.882600  0.487130  0.158470  1.0  -0.0973
  C  C156  1  0.766640  0.483600  0.133320  1.0  -0.1799
  C  C157  1  0.666190  0.537620  0.125400  1.0  0.2602
  C  C158  1  0.755040  0.422680  0.118640  1.0  0.1531
  C  C159  1  0.556950  0.344360  0.061140  1.0  0.4759
  C  C160  1  0.538170  0.280870  0.050390  1.0  0.0404
  C  C161  1  0.585700  0.230860  0.086340  1.0  -0.1693
  C  C162  1  0.559990  0.173270  0.077150  1.0  0.1538
  C  C163  1  0.450360  0.211330  0.998350  1.0  0.1583
  C  C164  1  0.469450  0.270700  0.004800  1.0  -0.1748
  C  C165  1  0.229090  0.512310  0.037910  1.0  0.0355
  C  C166  1  0.954780  0.795620  0.336620  1.0  -0.0151
  C  C167  1  0.924400  0.904750  0.352850  1.0  0.1439
  C  C168  1  0.063940  0.902710  0.328210  1.0  -0.2225
  C  C169  1  0.116300  0.957150  0.322650  1.0  -0.0971
  C  C170  1  0.028200  0.012870  0.341530  1.0  -0.098
  C  C171  1  0.883560  0.016400  0.366680  1.0  -0.1793
  C  C172  1  0.829210  0.962380  0.374600  1.0  0.261
  C  C173  1  0.796360  0.077320  0.381360  1.0  0.1514
  C  C174  1  0.462450  0.155640  0.438860  1.0  0.4756
  C  C175  1  0.369430  0.219130  0.449610  1.0  0.0408
  C  C176  1  0.402900  0.269140  0.413660  1.0  -0.1711
  C  C177  1  0.310410  0.326730  0.422850  1.0  0.1522
  C  C178  1  0.160040  0.288670  0.501650  1.0  0.16
  C  C179  1  0.244950  0.229300  0.495200  1.0  -0.1755
  C  C180  1  0.279310  0.987690  0.462090  1.0  0.036
  C  C181  1  0.708600  0.336620  0.704380  1.0  -0.0151
  C  C182  1  0.722750  0.352850  0.595250  1.0  0.1458
  C  C183  1  0.607850  0.328210  0.597290  1.0  -0.2245
  C  C184  1  0.561050  0.322650  0.542850  1.0  -0.1085
  C  C185  1  0.630270  0.341530  0.487130  1.0  -0.0983
  C  C186  1  0.749760  0.366680  0.483600  1.0  -0.1814
  C  C187  1  0.796190  0.374600  0.537620  1.0  0.2617
  C  C188  1  0.822280  0.381360  0.422680  1.0  0.1532
  C  C189  1  0.098690  0.438860  0.344360  1.0  0.4767
  C  C190  1  0.180960  0.449610  0.280870  1.0  0.0412
  C  C191  1  0.183440  0.413660  0.230860  1.0  -0.1741
  C  C192  1  0.266740  0.422850  0.173270  1.0  0.151
  C  C193  1  0.338310  0.501650  0.211330  1.0  0.1607
  C  C194  1  0.259850  0.495200  0.270700  1.0  -0.1763
  C  C195  1  0.258600  0.462090  0.512310  1.0  0.0348
  C  C196  1  0.249600  0.163380  0.795620  1.0  -0.0061
  C  C197  1  0.170850  0.147150  0.904750  1.0  0.1439
  C  C198  1  0.033350  0.171790  0.902710  1.0  -0.2225
  C  C199  1  0.926550  0.177350  0.957150  1.0  -0.1024
  C  C200  1  0.958930  0.158470  0.012870  1.0  -0.0975
  C  C201  1  0.100040  0.133320  0.016400  1.0  -0.1793
  C  C202  1  0.208410  0.125400  0.962380  1.0  0.2681
  C  C203  1  0.126320  0.118640  0.077320  1.0  0.1548
  C  C204  1  0.381910  0.061140  0.155640  1.0  0.4755
  C  C205  1  0.411440  0.050390  0.219130  1.0  0.0444
  C  C206  1  0.327960  0.086340  0.269140  1.0  -0.1789
  C  C207  1  0.362860  0.077150  0.326730  1.0  0.1519
  C  C208  1  0.551290  0.998350  0.288670  1.0  0.1609
  C  C209  1  0.525750  0.004800  0.229300  1.0  -0.1758
  C  C210  1  0.733000  0.037910  0.987690  1.0  0.0338
  C  C211  1  0.412980  0.295620  0.836620  1.0  -0.0079
  C  C212  1  0.318000  0.404750  0.852850  1.0  0.1471
  C  C213  1  0.205140  0.402710  0.828210  1.0  -0.2242
  C  C214  1  0.103900  0.457150  0.822650  1.0  -0.1014
  C  C215  1  0.117400  0.512870  0.841530  1.0  -0.0981
  C  C216  1  0.233360  0.516400  0.866680  1.0  -0.1801
  C  C217  1  0.333810  0.462380  0.874600  1.0  0.2635
  C  C218  1  0.244960  0.577320  0.881360  1.0  0.1513
  C  C219  1  0.443050  0.655640  0.938860  1.0  0.475
  C  C220  1  0.461830  0.719130  0.949610  1.0  0.041
  C  C221  1  0.414300  0.769140  0.913660  1.0  -0.1695
  C  C222  1  0.440010  0.826730  0.922850  1.0  0.1525
  C  C223  1  0.549640  0.788670  0.001650  1.0  0.1587
  C  C224  1  0.530550  0.729300  0.995200  1.0  -0.1755
  C  C225  1  0.770910  0.487690  0.962090  1.0  0.0362
  C  C226  1  0.045220  0.204380  0.663380  1.0  -0.0071
  C  C227  1  0.075600  0.095250  0.647150  1.0  0.1449
  C  C228  1  0.936060  0.097290  0.671790  1.0  -0.224
  C  C229  1  0.883700  0.042850  0.677350  1.0  -0.1104
  C  C230  1  0.971800  0.987130  0.658470  1.0  -0.0971
  C  C231  1  0.116440  0.983600  0.633320  1.0  -0.1791
  C  C232  1  0.170790  0.037620  0.625400  1.0  0.2699
  C  C233  1  0.203640  0.922680  0.618640  1.0  0.1536
  C  C234  1  0.537550  0.844360  0.561140  1.0  0.4753
  C  C235  1  0.630570  0.780870  0.550390  1.0  0.0403
  C  C236  1  0.597100  0.730860  0.586340  1.0  -0.1787
  C  C237  1  0.689590  0.673270  0.577150  1.0  0.1528
  C  C238  1  0.839960  0.711330  0.498350  1.0  0.1599
  C  C239  1  0.755050  0.770700  0.504800  1.0  -0.175
  C  C240  1  0.720690  0.012310  0.537910  1.0  0.0349
  N  N241  1  0.067960  0.595310  0.588770  1.0  -0.1285
  N  N242  1  0.006770  0.586920  0.652540  1.0  -0.4347
  N  N243  1  0.655450  0.534070  0.837230  1.0  -0.3424
  N  N244  1  0.752040  0.904690  0.911230  1.0  -0.1307
  N  N245  1  0.746230  0.913080  0.847460  1.0  -0.4368
  N  N246  1  0.526750  0.965930  0.662770  1.0  -0.3431
  N  N247  1  0.656730  0.411230  0.095310  1.0  -0.1284
  N  N248  1  0.659310  0.347460  0.086920  1.0  -0.4368
  N  N249  1  0.492680  0.162770  0.034070  1.0  -0.3426
  N  N250  1  0.663270  0.088770  0.404690  1.0  -0.1308
  N  N251  1  0.593690  0.152540  0.413080  1.0  -0.4407
  N  N252  1  0.189520  0.337230  0.465930  1.0  -0.342
  N  N253  1  0.932040  0.404690  0.411230  1.0  -0.1262
  N  N254  1  0.993230  0.413080  0.347460  1.0  -0.4364
  N  N255  1  0.344550  0.465930  0.162770  1.0  -0.3433
  N  N256  1  0.247960  0.095310  0.088770  1.0  -0.1239
  N  N257  1  0.253770  0.086920  0.152540  1.0  -0.4372
  N  N258  1  0.473250  0.034070  0.337230  1.0  -0.3421
  N  N259  1  0.343270  0.588770  0.904690  1.0  -0.1251
  N  N260  1  0.340690  0.652540  0.913080  1.0  -0.4375
  N  N261  1  0.507320  0.837230  0.965930  1.0  -0.3422
  N  N262  1  0.336730  0.911230  0.595310  1.0  -0.1248
  N  N263  1  0.406310  0.847460  0.586920  1.0  -0.4385
  N  N264  1  0.810480  0.662770  0.534070  1.0  -0.3418
  O  O265  1  0.224290  0.640200  0.353820  1.0  -0.2451
  O  O266  1  0.096080  0.600350  0.461690  1.0  -0.4878
  O  O267  1  0.861710  0.544410  0.607570  1.0  -0.5186
  O  O268  1  0.888610  0.528110  0.478470  1.0  -0.5384
  O  O269  1  0.718310  0.859800  0.146180  1.0  -0.2443
  O  O270  1  0.658120  0.899650  0.038310  1.0  -0.4881
  O  O271  1  0.513690  0.955590  0.892430  1.0  -0.5193
  O  O272  1  0.395190  0.971890  0.021530  1.0  -0.539
  O  O273  1  0.578110  0.646180  0.140200  1.0  -0.2457
  O  O274  1  0.557770  0.538310  0.100350  1.0  -0.4873
  O  O275  1  0.469280  0.392430  0.044410  1.0  -0.5203
  O  O276  1  0.367080  0.521530  0.028110  1.0  -0.5411
  O  O277  1  0.864490  0.853820  0.359800  1.0  -0.2443
  O  O278  1  0.696430  0.961690  0.399650  1.0  -0.4881
  O  O279  1  0.406120  0.107570  0.455590  1.0  -0.5245
  O  O280  1  0.416720  0.978470  0.471890  1.0  -0.5412
  O  O281  1  0.775710  0.359800  0.646180  1.0  -0.2445
  O  O282  1  0.903920  0.399650  0.538310  1.0  -0.4854
  O  O283  1  0.138290  0.455590  0.392430  1.0  -0.5214
  O  O284  1  0.111390  0.471890  0.521530  1.0  -0.5361
  O  O285  1  0.281690  0.140200  0.853820  1.0  -0.2437
  O  O286  1  0.341880  0.100350  0.961690  1.0  -0.485
  O  O287  1  0.486310  0.044410  0.107570  1.0  -0.5182
  O  O288  1  0.604810  0.028110  0.978470  1.0  -0.538
  O  O289  1  0.421890  0.353820  0.859800  1.0  -0.2447
  O  O290  1  0.442230  0.461690  0.899650  1.0  -0.4864
  O  O291  1  0.530720  0.607570  0.955590  1.0  -0.5225
  O  O292  1  0.632920  0.478470  0.971890  1.0  -0.5392
  O  O293  1  0.135510  0.146180  0.640200  1.0  -0.2433
  O  O294  1  0.303570  0.038310  0.600350  1.0  -0.483
  O  O295  1  0.593880  0.892430  0.544410  1.0  -0.5192
  O  O296  1  0.583280  0.021530  0.528110  1.0  -0.5386
