# generated using pymatgen
data_Co3H32C36(NO8)2
_symmetry_space_group_name_H-M   'P 1'
_cell_length_a   9.85100000
_cell_length_b   17.32730000
_cell_length_c   17.73410000
_cell_angle_alpha   98.94670000
_cell_angle_beta   90.00000000
_cell_angle_gamma   106.51500000
_symmetry_Int_Tables_number   1
_chemical_formula_structural   Co3H32C36(NO8)2
_chemical_formula_sum   'Co6 H64 C72 N4 O32'
_cell_volume   2863.74084786
_cell_formula_units_Z   2
loop_
 _symmetry_equiv_pos_site_id
 _symmetry_equiv_pos_as_xyz
  1  'x, y, z'
loop_
 _atom_site_type_symbol
 _atom_site_label
 _atom_site_symmetry_multiplicity
 _atom_site_fract_x
 _atom_site_fract_y
 _atom_site_fract_z
 _atom_site_occupancy
 _atom_site_charge
  Co  Co1  1  0.671530  0.701300  0.034400  1.0  1.1065
  Co  Co2  1  0.970230  0.298700  0.465600  1.0  1.1058
  Co  Co3  1  0.328470  0.298700  0.965600  1.0  1.1078
  Co  Co4  1  0.029770  0.701300  0.534400  1.0  1.108
  Co  Co5  1  0.500000  0.500000  0.000000  1.0  1.1452
  Co  Co6  1  0.000000  0.500000  0.500000  1.0  1.1452
  H  H7  1  0.374800  0.504000  0.229600  1.0  0.1138
  H  H8  1  0.266900  0.514000  0.344500  1.0  0.0887
  H  H9  1  0.315800  0.750400  0.343200  1.0  0.0964
  H  H10  1  0.428300  0.741800  0.229900  1.0  0.1051
  H  H11  1  0.049300  0.598400  0.108700  1.0  0.1096
  H  H12  1  0.801300  0.481200  0.921500  1.0  0.0985
  H  H13  1  0.050200  0.889000  0.926700  1.0  0.1066
  H  H14  1  0.819800  0.978000  0.085500  1.0  0.1184
  H  H15  1  0.870800  0.496000  0.270400  1.0  0.1136
  H  H16  1  0.752900  0.486000  0.155500  1.0  0.0893
  H  H17  1  0.565400  0.249600  0.156800  1.0  0.0968
  H  H18  1  0.686500  0.258200  0.270100  1.0  0.1052
  H  H19  1  0.450900  0.401600  0.391300  1.0  0.1092
  H  H20  1  0.320100  0.518800  0.578500  1.0  0.0983
  H  H21  1  0.161200  0.111000  0.573300  1.0  0.1066
  H  H22  1  0.841800  0.022000  0.414500  1.0  0.1191
  H  H23  1  0.625200  0.496000  0.770400  1.0  0.114
  H  H24  1  0.733100  0.486000  0.655500  1.0  0.0889
  H  H25  1  0.684200  0.249600  0.656800  1.0  0.0968
  H  H26  1  0.571700  0.258200  0.770100  1.0  0.1051
  H  H27  1  0.950700  0.401600  0.891300  1.0  0.1093
  H  H28  1  0.198700  0.518800  0.078500  1.0  0.0987
  H  H29  1  0.949800  0.111000  0.073300  1.0  0.1065
  H  H30  1  0.180200  0.022000  0.914500  1.0  0.1197
  H  H31  1  0.129200  0.504000  0.729600  1.0  0.1137
  H  H32  1  0.247100  0.514000  0.844500  1.0  0.0885
  H  H33  1  0.434600  0.750400  0.843200  1.0  0.0963
  H  H34  1  0.313500  0.741800  0.729900  1.0  0.1051
  H  H35  1  0.549100  0.598400  0.608700  1.0  0.1096
  H  H36  1  0.679900  0.481200  0.421500  1.0  0.0986
  H  H37  1  0.838800  0.889000  0.426700  1.0  0.1064
  H  H38  1  0.158200  0.978000  0.585500  1.0  0.1196
  H  H39  1  0.476000  0.963400  0.302500  1.0  0.1866
  H  H40  1  0.416600  0.875400  0.290700  1.0  0.2251
  H  H41  1  0.654300  0.908800  0.276400  1.0  0.1015
  H  H42  1  0.607500  0.863800  0.346400  1.0  0.1026
  H  H43  1  0.671800  0.959000  0.359100  1.0  0.1318
  H  H44  1  0.309800  0.929200  0.389200  1.0  0.1048
  H  H45  1  0.456300  0.970000  0.433800  1.0  0.0991
  H  H46  1  0.392100  0.875000  0.421100  1.0  0.102
  H  H47  1  0.512600  0.036600  0.197500  1.0  0.181
  H  H48  1  0.541200  0.124600  0.209300  1.0  0.2272
  H  H49  1  0.745500  0.091200  0.223600  1.0  0.1002
  H  H50  1  0.743700  0.136200  0.153600  1.0  0.0996
  H  H51  1  0.712800  0.041000  0.140900  1.0  0.1316
  H  H52  1  0.380600  0.070800  0.110800  1.0  0.1052
  H  H53  1  0.486300  0.030000  0.066200  1.0  0.1009
  H  H54  1  0.517100  0.125000  0.078900  1.0  0.1021
  H  H55  1  0.524000  0.036600  0.697500  1.0  0.1819
  H  H56  1  0.583400  0.124600  0.709300  1.0  0.2286
  H  H57  1  0.345700  0.091200  0.723600  1.0  0.1009
  H  H58  1  0.392500  0.136200  0.653600  1.0  0.1005
  H  H59  1  0.328200  0.041000  0.640900  1.0  0.1313
  H  H60  1  0.690200  0.070800  0.610800  1.0  0.1036
  H  H61  1  0.543700  0.030000  0.566200  1.0  0.1014
  H  H62  1  0.607900  0.125000  0.578900  1.0  0.1026
  H  H63  1  0.487400  0.963400  0.802500  1.0  0.1868
  H  H64  1  0.458800  0.875400  0.790700  1.0  0.2259
  H  H65  1  0.254500  0.908800  0.776400  1.0  0.0996
  H  H66  1  0.256300  0.863800  0.846400  1.0  0.1031
  H  H67  1  0.287200  0.959000  0.859100  1.0  0.1323
  H  H68  1  0.619400  0.929200  0.889200  1.0  0.1044
  H  H69  1  0.513700  0.970000  0.933800  1.0  0.0994
  H  H70  1  0.482900  0.875000  0.921100  1.0  0.1024
  C  C71  1  0.414500  0.622400  0.218300  1.0  -0.1575
  C  C72  1  0.364200  0.553800  0.252600  1.0  -0.0491
  C  C73  1  0.298200  0.559800  0.321100  1.0  -0.0147
  C  C74  1  0.278100  0.632200  0.355100  1.0  -0.14
  C  C75  1  0.327900  0.700800  0.320500  1.0  -0.0606
  C  C76  1  0.395300  0.695600  0.252700  1.0  -0.0444
  C  C77  1  0.487800  0.616800  0.144900  1.0  0.7107
  C  C78  1  0.199000  0.636600  0.427200  1.0  0.7033
  C  C79  1  0.029900  0.559000  0.064900  1.0  -0.0358
  C  C80  1  0.910900  0.549000  0.017800  1.0  -0.1484
  C  C81  1  0.881300  0.488800  0.952800  1.0  -0.0326
  C  C82  1  0.817900  0.602600  0.035800  1.0  0.6645
  C  C83  1  0.029900  0.933400  0.956100  1.0  -0.0399
  C  C84  1  0.922100  0.921200  0.007400  1.0  -0.1183
  C  C85  1  0.891900  0.986600  0.051200  1.0  -0.0969
  C  C86  1  0.838100  0.836000  0.014500  1.0  0.6767
  C  C87  1  0.792100  0.377600  0.281700  1.0  -0.1582
  C  C88  1  0.810400  0.446200  0.247400  1.0  -0.0491
  C  C89  1  0.738400  0.440200  0.178900  1.0  -0.0144
  C  C90  1  0.645900  0.367800  0.144900  1.0  -0.1404
  C  C91  1  0.627100  0.299200  0.179500  1.0  -0.0611
  C  C92  1  0.699700  0.304400  0.247300  1.0  -0.0452
  C  C93  1  0.871000  0.383200  0.355100  1.0  0.7108
  C  C94  1  0.562400  0.363400  0.072800  1.0  0.7033
  C  C95  1  0.470900  0.441000  0.435100  1.0  -0.0361
  C  C96  1  0.361900  0.451000  0.482200  1.0  -0.1507
  C  C97  1  0.392500  0.511200  0.547200  1.0  -0.0344
  C  C98  1  0.215300  0.397400  0.464200  1.0  0.6646
  C  C99  1  0.096500  0.066600  0.543900  1.0  -0.0409
  C  C100  1  0.000900  0.078800  0.492600  1.0  -0.1183
  C  C101  1  0.905300  0.013400  0.448800  1.0  -0.0952
  C  C102  1  0.002100  0.164000  0.485500  1.0  0.6766
  C  C103  1  0.585500  0.377600  0.781700  1.0  -0.1581
  C  C104  1  0.635800  0.446200  0.747400  1.0  -0.0493
  C  C105  1  0.701800  0.440200  0.678900  1.0  -0.0142
  C  C106  1  0.721900  0.367800  0.644900  1.0  -0.1399
  C  C107  1  0.672100  0.299200  0.679500  1.0  -0.0606
  C  C108  1  0.604700  0.304400  0.747300  1.0  -0.0453
  C  C109  1  0.512200  0.383200  0.855100  1.0  0.7105
  C  C110  1  0.801000  0.363400  0.572800  1.0  0.7033
  C  C111  1  0.970100  0.441000  0.935100  1.0  -0.0365
  C  C112  1  0.089100  0.451000  0.982200  1.0  -0.1492
  C  C113  1  0.118700  0.511200  0.047200  1.0  -0.0349
  C  C114  1  0.182100  0.397400  0.964200  1.0  0.6647
  C  C115  1  0.970100  0.066600  0.043900  1.0  -0.0395
  C  C116  1  0.077900  0.078800  0.992600  1.0  -0.1184
  C  C117  1  0.108100  0.013400  0.948800  1.0  -0.0935
  C  C118  1  0.161900  0.164000  0.985500  1.0  0.6759
  C  C119  1  0.207900  0.622400  0.718300  1.0  -0.158
  C  C120  1  0.189600  0.553800  0.752600  1.0  -0.0489
  C  C121  1  0.261600  0.559800  0.821100  1.0  -0.0146
  C  C122  1  0.354100  0.632200  0.855100  1.0  -0.1397
  C  C123  1  0.372900  0.700800  0.820500  1.0  -0.0606
  C  C124  1  0.300300  0.695600  0.752700  1.0  -0.0445
  C  C125  1  0.129000  0.616800  0.644900  1.0  0.7109
  C  C126  1  0.437600  0.636600  0.927200  1.0  0.7037
  C  C127  1  0.529100  0.559000  0.564900  1.0  -0.0364
  C  C128  1  0.638100  0.549000  0.517800  1.0  -0.1479
  C  C129  1  0.607500  0.488800  0.452800  1.0  -0.0333
  C  C130  1  0.784700  0.602600  0.535800  1.0  0.6651
  C  C131  1  0.903500  0.933400  0.456100  1.0  -0.0383
  C  C132  1  0.999100  0.921200  0.507400  1.0  -0.1184
  C  C133  1  0.094700  0.986600  0.551200  1.0  -0.0946
  C  C134  1  0.997900  0.836000  0.514500  1.0  0.6759
  C  C135  1  0.613200  0.912400  0.325000  1.0  -0.2298
  C  C136  1  0.401700  0.923400  0.399000  1.0  -0.2234
  C  C137  1  0.700800  0.087600  0.175000  1.0  -0.2302
  C  C138  1  0.478300  0.076600  0.101000  1.0  -0.2249
  C  C139  1  0.386800  0.087600  0.675000  1.0  -0.2318
  C  C140  1  0.598300  0.076600  0.601000  1.0  -0.2243
  C  C141  1  0.299200  0.912400  0.825000  1.0  -0.2322
  C  C142  1  0.521700  0.923400  0.899000  1.0  -0.2228
  N  N143  1  0.469300  0.918600  0.323300  1.0  -0.0914
  N  N144  1  0.550700  0.081400  0.176700  1.0  -0.0932
  N  N145  1  0.530700  0.081400  0.676700  1.0  -0.0941
  N  N146  1  0.449300  0.918600  0.823300  1.0  -0.0927
  O  O147  1  0.549200  0.683600  0.122500  1.0  -0.6097
  O  O148  1  0.484510  0.547020  0.111400  1.0  -0.6075
  O  O149  1  0.162200  0.700000  0.448100  1.0  -0.586
  O  O150  1  0.174000  0.575600  0.460800  1.0  -0.6164
  O  O151  1  0.849100  0.661800  0.088500  1.0  -0.5963
  O  O152  1  0.705530  0.589860  0.991900  1.0  -0.6706
  O  O153  1  0.848180  0.776960  0.967200  1.0  -0.5804
  O  O154  1  0.753770  0.825140  0.068300  1.0  -0.5719
  O  O155  1  0.865600  0.316400  0.377500  1.0  -0.6097
  O  O156  1  0.937490  0.452980  0.388600  1.0  -0.6076
  O  O157  1  0.462200  0.300000  0.051900  1.0  -0.5854
  O  O158  1  0.598400  0.424400  0.039200  1.0  -0.6171
  O  O159  1  0.187300  0.338200  0.411500  1.0  -0.5951
  O  O160  1  0.115670  0.410140  0.508100  1.0  -0.67
  O  O161  1  0.071220  0.223040  0.532800  1.0  -0.5789
  O  O162  1  0.928630  0.174860  0.431700  1.0  -0.571
  O  O163  1  0.450800  0.316400  0.877500  1.0  -0.6088
  O  O164  1  0.515490  0.452980  0.888600  1.0  -0.6074
  O  O165  1  0.837800  0.300000  0.551900  1.0  -0.5861
  O  O166  1  0.826000  0.424400  0.539200  1.0  -0.6178
  O  O167  1  0.150900  0.338200  0.911500  1.0  -0.5951
  O  O168  1  0.294470  0.410140  0.008100  1.0  -0.6703
  O  O169  1  0.151820  0.223040  0.032800  1.0  -0.5799
  O  O170  1  0.246230  0.174860  0.931700  1.0  -0.5715
  O  O171  1  0.134400  0.683600  0.622500  1.0  -0.6085
  O  O172  1  0.062510  0.547020  0.611400  1.0  -0.6075
  O  O173  1  0.537800  0.700000  0.948100  1.0  -0.5868
  O  O174  1  0.401600  0.575600  0.960800  1.0  -0.617
  O  O175  1  0.812700  0.661800  0.588500  1.0  -0.596
  O  O176  1  0.884330  0.589860  0.491900  1.0  -0.6709
  O  O177  1  0.928780  0.776960  0.467200  1.0  -0.5803
  O  O178  1  0.071370  0.825140  0.568300  1.0  -0.5718
