# generated using pymatgen
data_YbH6(C2O)6
_symmetry_space_group_name_H-M   'P 1'
_cell_length_a   18.29500000
_cell_length_b   10.84820000
_cell_length_c   17.39840000
_cell_angle_alpha   90.00000000
_cell_angle_beta   101.39500000
_cell_angle_gamma   90.00000000
_symmetry_Int_Tables_number   1
_chemical_formula_structural   YbH6(C2O)6
_chemical_formula_sum   'Yb8 H48 C96 O48'
_cell_volume   3384.95797192
_cell_formula_units_Z   8
loop_
 _symmetry_equiv_pos_site_id
 _symmetry_equiv_pos_as_xyz
  1  'x, y, z'
loop_
 _atom_site_type_symbol
 _atom_site_label
 _atom_site_symmetry_multiplicity
 _atom_site_fract_x
 _atom_site_fract_y
 _atom_site_fract_z
 _atom_site_occupancy
 _atom_site_charge
  Yb  Yb1  1  0.488980  0.401590  0.102040  1.0  1.4907
  Yb  Yb2  1  0.988980  0.901590  0.102040  1.0  1.4907
  Yb  Yb3  1  0.511020  0.401590  0.397960  1.0  1.4903
  Yb  Yb4  1  0.011020  0.901590  0.397960  1.0  1.4975
  Yb  Yb5  1  0.511020  0.598410  0.897960  1.0  1.4887
  Yb  Yb6  1  0.011020  0.098410  0.897960  1.0  1.4887
  Yb  Yb7  1  0.488980  0.598410  0.602040  1.0  1.4891
  Yb  Yb8  1  0.988980  0.098410  0.602040  1.0  1.4891
  H  H9  1  0.699600  0.325800  0.874500  1.0  0.1227
  H  H10  1  0.693300  0.789400  0.037400  1.0  0.1192
  H  H11  1  0.697900  0.559700  0.223000  1.0  0.1158
  H  H12  1  0.810900  0.645800  0.285300  1.0  0.1195
  H  H13  1  0.805200  0.877900  0.100900  1.0  0.1054
  H  H14  1  0.682000  0.263600  0.099900  1.0  0.1146
  H  H15  1  0.199600  0.825800  0.874500  1.0  0.1227
  H  H16  1  0.193300  0.289400  0.037400  1.0  0.1192
  H  H17  1  0.197900  0.059700  0.223000  1.0  0.1158
  H  H18  1  0.310900  0.145800  0.285300  1.0  0.1195
  H  H19  1  0.305200  0.377900  0.100900  1.0  0.1054
  H  H20  1  0.182000  0.763600  0.099900  1.0  0.1146
  H  H21  1  0.300400  0.325800  0.625500  1.0  0.1234
  H  H22  1  0.306700  0.789400  0.462600  1.0  0.1194
  H  H23  1  0.302100  0.559700  0.277000  1.0  0.1158
  H  H24  1  0.189100  0.645800  0.214700  1.0  0.1196
  H  H25  1  0.194800  0.877900  0.399100  1.0  0.1055
  H  H26  1  0.318000  0.263600  0.400100  1.0  0.114
  H  H27  1  0.800400  0.825800  0.625500  1.0  0.1234
  H  H28  1  0.806700  0.289400  0.462600  1.0  0.1194
  H  H29  1  0.802100  0.059700  0.277000  1.0  0.1158
  H  H30  1  0.689100  0.145800  0.214700  1.0  0.1196
  H  H31  1  0.694800  0.377900  0.399100  1.0  0.1055
  H  H32  1  0.818000  0.763600  0.400100  1.0  0.114
  H  H33  1  0.300400  0.674200  0.125500  1.0  0.1233
  H  H34  1  0.306700  0.210600  0.962600  1.0  0.1194
  H  H35  1  0.302100  0.440300  0.777000  1.0  0.1153
  H  H36  1  0.189100  0.354200  0.714700  1.0  0.1197
  H  H37  1  0.194800  0.122100  0.899100  1.0  0.1058
  H  H38  1  0.318000  0.736400  0.900100  1.0  0.1141
  H  H39  1  0.800400  0.174200  0.125500  1.0  0.1233
  H  H40  1  0.806700  0.710600  0.962600  1.0  0.1194
  H  H41  1  0.802100  0.940300  0.777000  1.0  0.1153
  H  H42  1  0.689100  0.854200  0.714700  1.0  0.1197
  H  H43  1  0.694800  0.622100  0.899100  1.0  0.1058
  H  H44  1  0.818000  0.236400  0.900100  1.0  0.1141
  H  H45  1  0.699600  0.674200  0.374500  1.0  0.1229
  H  H46  1  0.693300  0.210600  0.537400  1.0  0.1191
  H  H47  1  0.697900  0.440300  0.723000  1.0  0.1156
  H  H48  1  0.810900  0.354200  0.785300  1.0  0.1195
  H  H49  1  0.805200  0.122100  0.600900  1.0  0.1054
  H  H50  1  0.682000  0.736400  0.599900  1.0  0.1142
  H  H51  1  0.199600  0.174200  0.374500  1.0  0.1229
  H  H52  1  0.193300  0.710600  0.537400  1.0  0.1191
  H  H53  1  0.197900  0.940300  0.723000  1.0  0.1156
  H  H54  1  0.310900  0.854200  0.785300  1.0  0.1195
  H  H55  1  0.305200  0.622100  0.600900  1.0  0.1054
  H  H56  1  0.182000  0.236400  0.599900  1.0  0.1142
  C  C57  1  0.613400  0.607800  0.083000  1.0  0.7722
  C  C58  1  0.819800  0.769900  0.199000  1.0  -0.1125
  C  C59  1  0.603300  0.360000  0.970400  1.0  0.7715
  C  C60  1  0.891900  0.827300  0.238500  1.0  0.7358
  C  C61  1  0.720000  0.295000  0.925400  1.0  -0.0242
  C  C62  1  0.684900  0.666100  0.124000  1.0  -0.1126
  C  C63  1  0.717100  0.760700  0.087700  1.0  -0.0125
  C  C64  1  0.720000  0.623700  0.198100  1.0  -0.033
  C  C65  1  0.679400  0.302700  0.985300  1.0  -0.1032
  C  C66  1  0.787000  0.675100  0.235100  1.0  -0.0259
  C  C67  1  0.783700  0.812600  0.125300  1.0  -0.0136
  C  C68  1  0.709700  0.257900  0.059300  1.0  -0.0213
  C  C69  1  0.113400  0.107800  0.083000  1.0  0.7722
  C  C70  1  0.319800  0.269900  0.199000  1.0  -0.1125
  C  C71  1  0.103300  0.860000  0.970400  1.0  0.7715
  C  C72  1  0.391900  0.327300  0.238500  1.0  0.7358
  C  C73  1  0.220000  0.795000  0.925400  1.0  -0.0242
  C  C74  1  0.184900  0.166100  0.124000  1.0  -0.1126
  C  C75  1  0.217100  0.260700  0.087700  1.0  -0.0125
  C  C76  1  0.220000  0.123700  0.198100  1.0  -0.033
  C  C77  1  0.179400  0.802700  0.985300  1.0  -0.1032
  C  C78  1  0.287000  0.175100  0.235100  1.0  -0.0259
  C  C79  1  0.283700  0.312600  0.125300  1.0  -0.0136
  C  C80  1  0.209700  0.757900  0.059300  1.0  -0.0213
  C  C81  1  0.386600  0.607800  0.417000  1.0  0.7717
  C  C82  1  0.180200  0.769900  0.301000  1.0  -0.1129
  C  C83  1  0.396700  0.360000  0.529600  1.0  0.7726
  C  C84  1  0.108100  0.827300  0.261500  1.0  0.7371
  C  C85  1  0.280000  0.295000  0.574600  1.0  -0.026
  C  C86  1  0.315100  0.666100  0.376000  1.0  -0.1128
  C  C87  1  0.282900  0.760700  0.412300  1.0  -0.0123
  C  C88  1  0.280000  0.623700  0.301900  1.0  -0.0332
  C  C89  1  0.320600  0.302700  0.514700  1.0  -0.1023
  C  C90  1  0.213000  0.675100  0.264900  1.0  -0.0269
  C  C91  1  0.216300  0.812600  0.374700  1.0  -0.0137
  C  C92  1  0.290300  0.257900  0.440700  1.0  -0.0211
  C  C93  1  0.886600  0.107800  0.417000  1.0  0.7717
  C  C94  1  0.680200  0.269900  0.301000  1.0  -0.1129
  C  C95  1  0.896700  0.860000  0.529600  1.0  0.7726
  C  C96  1  0.608100  0.327300  0.261500  1.0  0.7371
  C  C97  1  0.780000  0.795000  0.574600  1.0  -0.026
  C  C98  1  0.815100  0.166100  0.376000  1.0  -0.1128
  C  C99  1  0.782900  0.260700  0.412300  1.0  -0.0123
  C  C100  1  0.780000  0.123700  0.301900  1.0  -0.0332
  C  C101  1  0.820600  0.802700  0.514700  1.0  -0.1023
  C  C102  1  0.713000  0.175100  0.264900  1.0  -0.0269
  C  C103  1  0.716300  0.312600  0.374700  1.0  -0.0137
  C  C104  1  0.790300  0.757900  0.440700  1.0  -0.0211
  C  C105  1  0.386600  0.392200  0.917000  1.0  0.7714
  C  C106  1  0.180200  0.230100  0.801000  1.0  -0.1121
  C  C107  1  0.396700  0.640000  0.029600  1.0  0.7733
  C  C108  1  0.108100  0.172700  0.761500  1.0  0.7371
  C  C109  1  0.280000  0.705000  0.074600  1.0  -0.0261
  C  C110  1  0.315100  0.333900  0.876000  1.0  -0.1131
  C  C111  1  0.282900  0.239300  0.912300  1.0  -0.0119
  C  C112  1  0.280000  0.376300  0.801900  1.0  -0.0328
  C  C113  1  0.320600  0.697300  0.014700  1.0  -0.102
  C  C114  1  0.213000  0.324900  0.764900  1.0  -0.0269
  C  C115  1  0.216300  0.187400  0.874700  1.0  -0.0134
  C  C116  1  0.290300  0.742100  0.940700  1.0  -0.0215
  C  C117  1  0.886600  0.892200  0.917000  1.0  0.7714
  C  C118  1  0.680200  0.730100  0.801000  1.0  -0.1121
  C  C119  1  0.896700  0.140000  0.029600  1.0  0.7733
  C  C120  1  0.608100  0.672700  0.761500  1.0  0.7371
  C  C121  1  0.780000  0.205000  0.074600  1.0  -0.0261
  C  C122  1  0.815100  0.833900  0.876000  1.0  -0.1131
  C  C123  1  0.782900  0.739300  0.912300  1.0  -0.0119
  C  C124  1  0.780000  0.876300  0.801900  1.0  -0.0328
  C  C125  1  0.820600  0.197300  0.014700  1.0  -0.102
  C  C126  1  0.713000  0.824900  0.764900  1.0  -0.0269
  C  C127  1  0.716300  0.687400  0.874700  1.0  -0.0134
  C  C128  1  0.790300  0.242100  0.940700  1.0  -0.0215
  C  C129  1  0.613400  0.392200  0.583000  1.0  0.7721
  C  C130  1  0.819800  0.230100  0.699000  1.0  -0.1119
  C  C131  1  0.603300  0.640000  0.470400  1.0  0.7726
  C  C132  1  0.891900  0.172700  0.738500  1.0  0.7364
  C  C133  1  0.720000  0.705000  0.425400  1.0  -0.0244
  C  C134  1  0.684900  0.333900  0.624000  1.0  -0.1133
  C  C135  1  0.717100  0.239300  0.587700  1.0  -0.0128
  C  C136  1  0.720000  0.376300  0.698100  1.0  -0.0331
  C  C137  1  0.679400  0.697300  0.485300  1.0  -0.1026
  C  C138  1  0.787000  0.324900  0.735100  1.0  -0.0269
  C  C139  1  0.783700  0.187400  0.625300  1.0  -0.0132
  C  C140  1  0.709700  0.742100  0.559300  1.0  -0.022
  C  C141  1  0.113400  0.892200  0.583000  1.0  0.7721
  C  C142  1  0.319800  0.730100  0.699000  1.0  -0.1119
  C  C143  1  0.103300  0.140000  0.470400  1.0  0.7726
  C  C144  1  0.391900  0.672700  0.738500  1.0  0.7364
  C  C145  1  0.220000  0.205000  0.425400  1.0  -0.0244
  C  C146  1  0.184900  0.833900  0.624000  1.0  -0.1133
  C  C147  1  0.217100  0.739300  0.587700  1.0  -0.0128
  C  C148  1  0.220000  0.876300  0.698100  1.0  -0.0331
  C  C149  1  0.179400  0.197300  0.485300  1.0  -0.1026
  C  C150  1  0.287000  0.824900  0.735100  1.0  -0.0269
  C  C151  1  0.283700  0.687400  0.625300  1.0  -0.0132
  C  C152  1  0.209700  0.242100  0.559300  1.0  -0.022
  O  O153  1  0.563200  0.342900  0.021200  1.0  -0.706
  O  O154  1  0.583400  0.423000  0.908700  1.0  -0.6161
  O  O155  1  0.575700  0.549400  0.125100  1.0  -0.6552
  O  O156  1  0.925900  0.893800  0.197200  1.0  -0.7046
  O  O157  1  0.915000  0.808500  0.310400  1.0  -0.6324
  O  O158  1  0.596600  0.619700  0.009900  1.0  -0.6956
  O  O159  1  0.063200  0.842900  0.021200  1.0  -0.706
  O  O160  1  0.083400  0.923000  0.908700  1.0  -0.6161
  O  O161  1  0.075700  0.049400  0.125100  1.0  -0.6552
  O  O162  1  0.425900  0.393800  0.197200  1.0  -0.7046
  O  O163  1  0.415000  0.308500  0.310400  1.0  -0.6324
  O  O164  1  0.096600  0.119700  0.009900  1.0  -0.6956
  O  O165  1  0.436800  0.342900  0.478800  1.0  -0.7058
  O  O166  1  0.416600  0.423000  0.591300  1.0  -0.6153
  O  O167  1  0.424300  0.549400  0.374900  1.0  -0.6538
  O  O168  1  0.074100  0.893800  0.302800  1.0  -0.7034
  O  O169  1  0.085000  0.808500  0.189600  1.0  -0.6327
  O  O170  1  0.403400  0.619700  0.490100  1.0  -0.6943
  O  O171  1  0.936800  0.842900  0.478800  1.0  -0.7058
  O  O172  1  0.916600  0.923000  0.591300  1.0  -0.6153
  O  O173  1  0.924300  0.049400  0.374900  1.0  -0.6538
  O  O174  1  0.574100  0.393800  0.302800  1.0  -0.7034
  O  O175  1  0.585000  0.308500  0.189600  1.0  -0.6327
  O  O176  1  0.903400  0.119700  0.490100  1.0  -0.6943
  O  O177  1  0.436800  0.657100  0.978800  1.0  -0.7059
  O  O178  1  0.416600  0.577000  0.091300  1.0  -0.6168
  O  O179  1  0.424300  0.450600  0.874900  1.0  -0.6539
  O  O180  1  0.074100  0.106200  0.802800  1.0  -0.7046
  O  O181  1  0.085000  0.191500  0.689600  1.0  -0.6334
  O  O182  1  0.403400  0.380300  0.990100  1.0  -0.6954
  O  O183  1  0.936800  0.157100  0.978800  1.0  -0.7059
  O  O184  1  0.916600  0.077000  0.091300  1.0  -0.6168
  O  O185  1  0.924300  0.950600  0.874900  1.0  -0.6539
  O  O186  1  0.574100  0.606200  0.802800  1.0  -0.7046
  O  O187  1  0.585000  0.691500  0.689600  1.0  -0.6334
  O  O188  1  0.903400  0.880300  0.990100  1.0  -0.6954
  O  O189  1  0.563200  0.657100  0.521200  1.0  -0.7059
  O  O190  1  0.583400  0.577000  0.408700  1.0  -0.6172
  O  O191  1  0.575700  0.450600  0.625100  1.0  -0.6542
  O  O192  1  0.925900  0.106200  0.697200  1.0  -0.7036
  O  O193  1  0.915000  0.191500  0.810400  1.0  -0.6332
  O  O194  1  0.596600  0.380300  0.509900  1.0  -0.696
  O  O195  1  0.063200  0.157100  0.521200  1.0  -0.7059
  O  O196  1  0.083400  0.077000  0.408700  1.0  -0.6172
  O  O197  1  0.075700  0.950600  0.625100  1.0  -0.6542
  O  O198  1  0.425900  0.606200  0.697200  1.0  -0.7036
  O  O199  1  0.415000  0.691500  0.810400  1.0  -0.6332
  O  O200  1  0.096600  0.880300  0.509900  1.0  -0.696
