# generated using pymatgen
data_GdCoH2C8(NO5)2
_symmetry_space_group_name_H-M   'P 1'
_cell_length_a   22.14900000
_cell_length_b   9.77900000
_cell_length_c   19.37600000
_cell_angle_alpha   90.00000000
_cell_angle_beta   119.16100000
_cell_angle_gamma   90.00000000
_symmetry_Int_Tables_number   1
_chemical_formula_structural   GdCoH2C8(NO5)2
_chemical_formula_sum   'Gd8 Co8 H16 C64 N16 O80'
_cell_volume   3664.82510756
_cell_formula_units_Z   8
loop_
 _symmetry_equiv_pos_site_id
 _symmetry_equiv_pos_as_xyz
  1  'x, y, z'
loop_
 _atom_site_type_symbol
 _atom_site_label
 _atom_site_symmetry_multiplicity
 _atom_site_fract_x
 _atom_site_fract_y
 _atom_site_fract_z
 _atom_site_occupancy
 _atom_site_charge
  Gd  Gd1  1  0.011060  0.308530  0.455700  1.0  2.0684
  Gd  Gd2  1  0.511060  0.808530  0.455700  1.0  2.0684
  Gd  Gd3  1  0.988940  0.308530  0.044300  1.0  2.062
  Gd  Gd4  1  0.488940  0.808530  0.044300  1.0  2.062
  Gd  Gd5  1  0.988940  0.691470  0.544300  1.0  2.0618
  Gd  Gd6  1  0.488940  0.191470  0.544300  1.0  2.0618
  Gd  Gd7  1  0.011060  0.691470  0.955700  1.0  2.0681
  Gd  Gd8  1  0.511060  0.191470  0.955700  1.0  2.0681
  Co  Co9  1  0.819750  0.371060  0.205020  1.0  0.907
  Co  Co10  1  0.319750  0.871060  0.205020  1.0  0.907
  Co  Co11  1  0.180250  0.371060  0.294980  1.0  0.9078
  Co  Co12  1  0.680250  0.871060  0.294980  1.0  0.9078
  Co  Co13  1  0.180250  0.628940  0.794980  1.0  0.9076
  Co  Co14  1  0.680250  0.128940  0.794980  1.0  0.9076
  Co  Co15  1  0.819750  0.628940  0.705020  1.0  0.9071
  Co  Co16  1  0.319750  0.128940  0.705020  1.0  0.9071
  H  H17  1  0.894000  0.666000  0.483000  1.0  0.3656
  H  H18  1  0.693100  0.626500  0.165900  1.0  0.1075
  H  H19  1  0.394000  0.166000  0.483000  1.0  0.3656
  H  H20  1  0.193100  0.126500  0.165900  1.0  0.1075
  H  H21  1  0.106000  0.666000  0.017000  1.0  0.3649
  H  H22  1  0.306900  0.626500  0.334100  1.0  0.1079
  H  H23  1  0.606000  0.166000  0.017000  1.0  0.3649
  H  H24  1  0.806900  0.126500  0.334100  1.0  0.1079
  H  H25  1  0.106000  0.334000  0.517000  1.0  0.3649
  H  H26  1  0.306900  0.373500  0.834100  1.0  0.108
  H  H27  1  0.606000  0.834000  0.517000  1.0  0.3649
  H  H28  1  0.806900  0.873500  0.834100  1.0  0.108
  H  H29  1  0.894000  0.334000  0.983000  1.0  0.3649
  H  H30  1  0.693100  0.373500  0.665900  1.0  0.1075
  H  H31  1  0.394000  0.834000  0.983000  1.0  0.3649
  H  H32  1  0.193100  0.873500  0.665900  1.0  0.1075
  C  C33  1  0.895100  0.500000  0.364100  1.0  0.7018
  C  C34  1  0.829300  0.578800  0.320600  1.0  -0.0106
  C  C35  1  0.797400  0.684900  0.341100  1.0  -0.0472
  C  C36  1  0.730300  0.628100  0.216900  1.0  0.3386
  C  C37  1  0.814600  0.758900  0.416700  1.0  0.6929
  C  C38  1  0.918900  0.272900  0.156500  1.0  0.5938
  C  C39  1  0.910200  0.432600  0.137500  1.0  0.552
  C  C40  1  0.028100  0.014400  0.545400  1.0  0.6218
  C  C41  1  0.395100  0.000000  0.364100  1.0  0.7018
  C  C42  1  0.329300  0.078800  0.320600  1.0  -0.0106
  C  C43  1  0.297400  0.184900  0.341100  1.0  -0.0472
  C  C44  1  0.230300  0.128100  0.216900  1.0  0.3386
  C  C45  1  0.314600  0.258900  0.416700  1.0  0.6929
  C  C46  1  0.418900  0.772900  0.156500  1.0  0.5938
  C  C47  1  0.410200  0.932600  0.137500  1.0  0.552
  C  C48  1  0.528100  0.514400  0.545400  1.0  0.6218
  C  C49  1  0.104900  0.500000  0.135900  1.0  0.7027
  C  C50  1  0.170700  0.578800  0.179400  1.0  -0.0119
  C  C51  1  0.202600  0.684900  0.158900  1.0  -0.0467
  C  C52  1  0.269700  0.628100  0.283100  1.0  0.3403
  C  C53  1  0.185400  0.758900  0.083300  1.0  0.6903
  C  C54  1  0.081100  0.272900  0.343500  1.0  0.5935
  C  C55  1  0.089800  0.432600  0.362500  1.0  0.5507
  C  C56  1  0.971900  0.014400  0.954600  1.0  0.622
  C  C57  1  0.604900  0.000000  0.135900  1.0  0.7027
  C  C58  1  0.670700  0.078800  0.179400  1.0  -0.0119
  C  C59  1  0.702600  0.184900  0.158900  1.0  -0.0467
  C  C60  1  0.769700  0.128100  0.283100  1.0  0.3403
  C  C61  1  0.685400  0.258900  0.083300  1.0  0.6903
  C  C62  1  0.581100  0.772900  0.343500  1.0  0.5935
  C  C63  1  0.589800  0.932600  0.362500  1.0  0.5507
  C  C64  1  0.471900  0.514400  0.954600  1.0  0.622
  C  C65  1  0.104900  0.500000  0.635900  1.0  0.7024
  C  C66  1  0.170700  0.421200  0.679400  1.0  -0.0119
  C  C67  1  0.202600  0.315100  0.658900  1.0  -0.0469
  C  C68  1  0.269700  0.371900  0.783100  1.0  0.3403
  C  C69  1  0.185400  0.241100  0.583300  1.0  0.6905
  C  C70  1  0.081100  0.727100  0.843500  1.0  0.5929
  C  C71  1  0.089800  0.567400  0.862500  1.0  0.5506
  C  C72  1  0.971900  0.985600  0.454600  1.0  0.6264
  C  C73  1  0.604900  0.000000  0.635900  1.0  0.7024
  C  C74  1  0.670700  0.921200  0.679400  1.0  -0.0119
  C  C75  1  0.702600  0.815100  0.658900  1.0  -0.0469
  C  C76  1  0.769700  0.871900  0.783100  1.0  0.3403
  C  C77  1  0.685400  0.741100  0.583300  1.0  0.6905
  C  C78  1  0.581100  0.227100  0.843500  1.0  0.5929
  C  C79  1  0.589800  0.067400  0.862500  1.0  0.5506
  C  C80  1  0.471900  0.485600  0.454600  1.0  0.6264
  C  C81  1  0.895100  0.500000  0.864100  1.0  0.7017
  C  C82  1  0.829300  0.421200  0.820600  1.0  -0.0104
  C  C83  1  0.797400  0.315100  0.841100  1.0  -0.0473
  C  C84  1  0.730300  0.371900  0.716900  1.0  0.3386
  C  C85  1  0.814600  0.241100  0.916700  1.0  0.6935
  C  C86  1  0.918900  0.727100  0.656500  1.0  0.5924
  C  C87  1  0.910200  0.567400  0.637500  1.0  0.5513
  C  C88  1  0.028100  0.985600  0.045400  1.0  0.6263
  C  C89  1  0.395100  0.000000  0.864100  1.0  0.7017
  C  C90  1  0.329300  0.921200  0.820600  1.0  -0.0104
  C  C91  1  0.297400  0.815100  0.841100  1.0  -0.0473
  C  C92  1  0.230300  0.871900  0.716900  1.0  0.3386
  C  C93  1  0.314600  0.741100  0.916700  1.0  0.6935
  C  C94  1  0.418900  0.227100  0.656500  1.0  0.5924
  C  C95  1  0.410200  0.067400  0.637500  1.0  0.5513
  C  C96  1  0.528100  0.485600  0.045400  1.0  0.6263
  N  N97  1  0.785800  0.542700  0.241900  1.0  -0.4363
  N  N98  1  0.734400  0.716300  0.273900  1.0  -0.4695
  N  N99  1  0.285800  0.042700  0.241900  1.0  -0.4363
  N  N100  1  0.234400  0.216300  0.273900  1.0  -0.4695
  N  N101  1  0.214200  0.542700  0.258100  1.0  -0.4345
  N  N102  1  0.265600  0.716300  0.226100  1.0  -0.4698
  N  N103  1  0.714200  0.042700  0.258100  1.0  -0.4345
  N  N104  1  0.765600  0.216300  0.226100  1.0  -0.4698
  N  N105  1  0.214200  0.457300  0.758100  1.0  -0.4343
  N  N106  1  0.265600  0.283700  0.726100  1.0  -0.4696
  N  N107  1  0.714200  0.957300  0.758100  1.0  -0.4343
  N  N108  1  0.765600  0.783700  0.726100  1.0  -0.4696
  N  N109  1  0.785800  0.457300  0.741900  1.0  -0.4357
  N  N110  1  0.734400  0.283700  0.773900  1.0  -0.4702
  N  N111  1  0.285800  0.957300  0.741900  1.0  -0.4357
  N  N112  1  0.234400  0.783700  0.773900  1.0  -0.4702
  O  O113  1  0.901900  0.391500  0.330600  1.0  -0.627
  O  O114  1  0.943600  0.535200  0.433200  1.0  -0.6954
  O  O115  1  0.772100  0.856100  0.410000  1.0  -0.5829
  O  O116  1  0.865400  0.725200  0.481500  1.0  -0.5589
  O  O117  1  0.872600  0.498400  0.158300  1.0  -0.5241
  O  O118  1  0.881700  0.225100  0.184100  1.0  -0.5409
  O  O119  1  0.960800  0.209400  0.142700  1.0  -0.5816
  O  O120  1  0.942400  0.478200  0.101100  1.0  -0.6866
  O  O121  1  0.046900  0.912000  0.590900  1.0  -0.5959
  O  O122  1  0.049200  0.134900  0.562600  1.0  -0.5949
  O  O123  1  0.401900  0.891500  0.330600  1.0  -0.627
  O  O124  1  0.443600  0.035200  0.433200  1.0  -0.6954
  O  O125  1  0.272100  0.356100  0.410000  1.0  -0.5829
  O  O126  1  0.365400  0.225200  0.481500  1.0  -0.5589
  O  O127  1  0.372600  0.998400  0.158300  1.0  -0.5241
  O  O128  1  0.381700  0.725100  0.184100  1.0  -0.5409
  O  O129  1  0.460800  0.709400  0.142700  1.0  -0.5816
  O  O130  1  0.442400  0.978200  0.101100  1.0  -0.6866
  O  O131  1  0.546900  0.412000  0.590900  1.0  -0.5959
  O  O132  1  0.549200  0.634900  0.562600  1.0  -0.5949
  O  O133  1  0.098100  0.391500  0.169400  1.0  -0.627
  O  O134  1  0.056400  0.535200  0.066800  1.0  -0.6957
  O  O135  1  0.227900  0.856100  0.090000  1.0  -0.5827
  O  O136  1  0.134600  0.725200  0.018500  1.0  -0.5591
  O  O137  1  0.127400  0.498400  0.341700  1.0  -0.5219
  O  O138  1  0.118300  0.225100  0.315900  1.0  -0.5401
  O  O139  1  0.039200  0.209400  0.357300  1.0  -0.5815
  O  O140  1  0.057600  0.478200  0.398900  1.0  -0.6858
  O  O141  1  0.953100  0.912000  0.909100  1.0  -0.5946
  O  O142  1  0.950800  0.134900  0.937400  1.0  -0.5932
  O  O143  1  0.598100  0.891500  0.169400  1.0  -0.627
  O  O144  1  0.556400  0.035200  0.066800  1.0  -0.6957
  O  O145  1  0.727900  0.356100  0.090000  1.0  -0.5827
  O  O146  1  0.634600  0.225200  0.018500  1.0  -0.5591
  O  O147  1  0.627400  0.998400  0.341700  1.0  -0.5219
  O  O148  1  0.618300  0.725100  0.315900  1.0  -0.5401
  O  O149  1  0.539200  0.709400  0.357300  1.0  -0.5815
  O  O150  1  0.557600  0.978200  0.398900  1.0  -0.6858
  O  O151  1  0.453100  0.412000  0.909100  1.0  -0.5946
  O  O152  1  0.450800  0.634900  0.937400  1.0  -0.5932
  O  O153  1  0.098100  0.608500  0.669400  1.0  -0.6281
  O  O154  1  0.056400  0.464800  0.566800  1.0  -0.696
  O  O155  1  0.227900  0.143900  0.590000  1.0  -0.5845
  O  O156  1  0.134600  0.274800  0.518500  1.0  -0.5596
  O  O157  1  0.127400  0.501600  0.841700  1.0  -0.5211
  O  O158  1  0.118300  0.774900  0.815900  1.0  -0.5396
  O  O159  1  0.039200  0.790600  0.857300  1.0  -0.5814
  O  O160  1  0.057600  0.521800  0.898900  1.0  -0.6856
  O  O161  1  0.953100  0.088000  0.409100  1.0  -0.5944
  O  O162  1  0.950800  0.865100  0.437400  1.0  -0.5913
  O  O163  1  0.598100  0.108500  0.669400  1.0  -0.6281
  O  O164  1  0.556400  0.964800  0.566800  1.0  -0.696
  O  O165  1  0.727900  0.643900  0.590000  1.0  -0.5845
  O  O166  1  0.634600  0.774800  0.518500  1.0  -0.5596
  O  O167  1  0.627400  0.001600  0.841700  1.0  -0.5211
  O  O168  1  0.618300  0.274900  0.815900  1.0  -0.5396
  O  O169  1  0.539200  0.290600  0.857300  1.0  -0.5814
  O  O170  1  0.557600  0.021800  0.898900  1.0  -0.6856
  O  O171  1  0.453100  0.588000  0.409100  1.0  -0.5944
  O  O172  1  0.450800  0.365100  0.437400  1.0  -0.5913
  O  O173  1  0.901900  0.608500  0.830600  1.0  -0.6274
  O  O174  1  0.943600  0.464800  0.933200  1.0  -0.6955
  O  O175  1  0.772100  0.143900  0.910000  1.0  -0.5851
  O  O176  1  0.865400  0.274800  0.981500  1.0  -0.5583
  O  O177  1  0.872600  0.501600  0.658300  1.0  -0.5247
  O  O178  1  0.881700  0.774900  0.684100  1.0  -0.538
  O  O179  1  0.960800  0.790600  0.642700  1.0  -0.5814
  O  O180  1  0.942400  0.521800  0.601100  1.0  -0.6858
  O  O181  1  0.046900  0.088000  0.090900  1.0  -0.595
  O  O182  1  0.049200  0.865100  0.062600  1.0  -0.5929
  O  O183  1  0.401900  0.108500  0.830600  1.0  -0.6274
  O  O184  1  0.443600  0.964800  0.933200  1.0  -0.6955
  O  O185  1  0.272100  0.643900  0.910000  1.0  -0.5851
  O  O186  1  0.365400  0.774800  0.981500  1.0  -0.5583
  O  O187  1  0.372600  0.001600  0.658300  1.0  -0.5247
  O  O188  1  0.381700  0.274900  0.684100  1.0  -0.538
  O  O189  1  0.460800  0.290600  0.642700  1.0  -0.5814
  O  O190  1  0.442400  0.021800  0.601100  1.0  -0.6858
  O  O191  1  0.546900  0.588000  0.090900  1.0  -0.595
  O  O192  1  0.549200  0.365100  0.062600  1.0  -0.5929
