# generated using pymatgen
data_Co3H9C24N3O13
_symmetry_space_group_name_H-M   'P 1'
_cell_length_a   22.29730000
_cell_length_b   22.29730000
_cell_length_c   22.29730000
_cell_angle_alpha   90.00000000
_cell_angle_beta   90.00000000
_cell_angle_gamma   90.00000000
_symmetry_Int_Tables_number   1
_chemical_formula_structural   Co3H9C24N3O13
_chemical_formula_sum   'Co24 H72 C192 N24 O104'
_cell_volume   11085.53943868
_cell_formula_units_Z   8
loop_
 _symmetry_equiv_pos_site_id
 _symmetry_equiv_pos_as_xyz
  1  'x, y, z'
loop_
 _atom_site_type_symbol
 _atom_site_label
 _atom_site_symmetry_multiplicity
 _atom_site_fract_x
 _atom_site_fract_y
 _atom_site_fract_z
 _atom_site_occupancy
 _atom_site_charge
  Co  Co1  1  0.323140  0.260140  0.808230  1.0  1.0577
  Co  Co2  1  0.676860  0.739860  0.808230  1.0  1.0585
  Co  Co3  1  0.676860  0.260140  0.191770  1.0  1.0587
  Co  Co4  1  0.323140  0.739860  0.191770  1.0  1.0563
  Co  Co5  1  0.808230  0.323140  0.260140  1.0  1.0589
  Co  Co6  1  0.808230  0.676860  0.739860  1.0  1.0544
  Co  Co7  1  0.191770  0.676860  0.260140  1.0  1.0577
  Co  Co8  1  0.191770  0.323140  0.739860  1.0  1.0596
  Co  Co9  1  0.260140  0.808230  0.323140  1.0  1.0584
  Co  Co10  1  0.739860  0.808230  0.676860  1.0  1.0575
  Co  Co11  1  0.260140  0.191770  0.676860  1.0  1.0554
  Co  Co12  1  0.739860  0.191770  0.323140  1.0  1.0558
  Co  Co13  1  0.760140  0.823140  0.308230  1.0  1.0583
  Co  Co14  1  0.239860  0.176860  0.308230  1.0  1.0558
  Co  Co15  1  0.760140  0.176860  0.691770  1.0  1.0551
  Co  Co16  1  0.239860  0.823140  0.691770  1.0  1.0574
  Co  Co17  1  0.823140  0.308230  0.760140  1.0  1.0588
  Co  Co18  1  0.176860  0.308230  0.239860  1.0  1.0597
  Co  Co19  1  0.176860  0.691770  0.760140  1.0  1.0578
  Co  Co20  1  0.823140  0.691770  0.239860  1.0  1.0543
  Co  Co21  1  0.308230  0.760140  0.823140  1.0  1.0577
  Co  Co22  1  0.308230  0.239860  0.176860  1.0  1.0565
  Co  Co23  1  0.691770  0.760140  0.176860  1.0  1.0587
  Co  Co24  1  0.691770  0.239860  0.823140  1.0  1.0585
  H  H25  1  0.242100  0.281400  0.991800  1.0  0.1395
  H  H26  1  0.091800  0.298700  0.894800  1.0  0.1572
  H  H27  1  0.083800  0.288500  0.074600  1.0  0.1419
  H  H28  1  0.757900  0.718600  0.991800  1.0  0.1396
  H  H29  1  0.908200  0.701300  0.894800  1.0  0.1567
  H  H30  1  0.916200  0.711500  0.074600  1.0  0.1421
  H  H31  1  0.757900  0.281400  0.008200  1.0  0.1401
  H  H32  1  0.908200  0.298700  0.105200  1.0  0.1562
  H  H33  1  0.916200  0.288500  0.925400  1.0  0.1418
  H  H34  1  0.242100  0.718600  0.008200  1.0  0.1398
  H  H35  1  0.091800  0.701300  0.105200  1.0  0.1568
  H  H36  1  0.083800  0.711500  0.925400  1.0  0.1417
  H  H37  1  0.991800  0.242100  0.281400  1.0  0.1405
  H  H38  1  0.894800  0.091800  0.298700  1.0  0.1567
  H  H39  1  0.074600  0.083800  0.288500  1.0  0.1409
  H  H40  1  0.991800  0.757900  0.718600  1.0  0.1411
  H  H41  1  0.894800  0.908200  0.701300  1.0  0.1566
  H  H42  1  0.074600  0.916200  0.711500  1.0  0.1415
  H  H43  1  0.008200  0.757900  0.281400  1.0  0.1411
  H  H44  1  0.105200  0.908200  0.298700  1.0  0.1562
  H  H45  1  0.925400  0.916200  0.288500  1.0  0.1409
  H  H46  1  0.008200  0.242100  0.718600  1.0  0.1404
  H  H47  1  0.105200  0.091800  0.701300  1.0  0.1555
  H  H48  1  0.925400  0.083800  0.711500  1.0  0.141
  H  H49  1  0.281400  0.991800  0.242100  1.0  0.1403
  H  H50  1  0.298700  0.894800  0.091800  1.0  0.1558
  H  H51  1  0.288500  0.074600  0.083800  1.0  0.1409
  H  H52  1  0.718600  0.991800  0.757900  1.0  0.1405
  H  H53  1  0.701300  0.894800  0.908200  1.0  0.156
  H  H54  1  0.711500  0.074600  0.916200  1.0  0.1415
  H  H55  1  0.281400  0.008200  0.757900  1.0  0.1405
  H  H56  1  0.298700  0.105200  0.908200  1.0  0.1564
  H  H57  1  0.288500  0.925400  0.916200  1.0  0.141
  H  H58  1  0.718600  0.008200  0.242100  1.0  0.1405
  H  H59  1  0.701300  0.105200  0.091800  1.0  0.1564
  H  H60  1  0.711500  0.925400  0.083800  1.0  0.1409
  H  H61  1  0.781400  0.742100  0.491800  1.0  0.1403
  H  H62  1  0.798700  0.591800  0.394800  1.0  0.1571
  H  H63  1  0.788500  0.583800  0.574600  1.0  0.1418
  H  H64  1  0.218600  0.257900  0.491800  1.0  0.141
  H  H65  1  0.201300  0.408200  0.394800  1.0  0.1572
  H  H66  1  0.211500  0.416200  0.574600  1.0  0.1425
  H  H67  1  0.781400  0.257900  0.508200  1.0  0.1413
  H  H68  1  0.798700  0.408200  0.605200  1.0  0.157
  H  H69  1  0.788500  0.416200  0.425400  1.0  0.1418
  H  H70  1  0.218600  0.742100  0.508200  1.0  0.1405
  H  H71  1  0.201300  0.591800  0.605200  1.0  0.1569
  H  H72  1  0.211500  0.583800  0.425400  1.0  0.1419
  H  H73  1  0.742100  0.491800  0.781400  1.0  0.1397
  H  H74  1  0.591800  0.394800  0.798700  1.0  0.1559
  H  H75  1  0.583800  0.574600  0.788500  1.0  0.1413
  H  H76  1  0.257900  0.491800  0.218600  1.0  0.1397
  H  H77  1  0.408200  0.394800  0.201300  1.0  0.1552
  H  H78  1  0.416200  0.574600  0.211500  1.0  0.1413
  H  H79  1  0.257900  0.508200  0.781400  1.0  0.14
  H  H80  1  0.408200  0.605200  0.798700  1.0  0.1559
  H  H81  1  0.416200  0.425400  0.788500  1.0  0.1414
  H  H82  1  0.742100  0.508200  0.218600  1.0  0.1393
  H  H83  1  0.591800  0.605200  0.201300  1.0  0.1562
  H  H84  1  0.583800  0.425400  0.211500  1.0  0.1408
  H  H85  1  0.491800  0.781400  0.742100  1.0  0.1405
  H  H86  1  0.394800  0.798700  0.591800  1.0  0.1565
  H  H87  1  0.574600  0.788500  0.583800  1.0  0.1409
  H  H88  1  0.491800  0.218600  0.257900  1.0  0.1407
  H  H89  1  0.394800  0.201300  0.408200  1.0  0.1563
  H  H90  1  0.574600  0.211500  0.416200  1.0  0.1413
  H  H91  1  0.508200  0.781400  0.257900  1.0  0.1404
  H  H92  1  0.605200  0.798700  0.408200  1.0  0.1558
  H  H93  1  0.425400  0.788500  0.416200  1.0  0.1405
  H  H94  1  0.508200  0.218600  0.742100  1.0  0.1403
  H  H95  1  0.605200  0.201300  0.591800  1.0  0.1557
  H  H96  1  0.425400  0.211500  0.583800  1.0  0.1407
  C  C97  1  0.200600  0.285320  0.989830  1.0  0.0397
  C  C98  1  0.172990  0.290980  0.934440  1.0  -0.1332
  C  C99  1  0.196630  0.279210  0.104430  1.0  0.7905
  C  C100  1  0.206900  0.292160  0.875990  1.0  0.7588
  C  C101  1  0.077840  0.294200  0.984460  1.0  0.0688
  C  C102  1  0.111040  0.295210  0.931640  1.0  -0.0414
  C  C103  1  0.106350  0.289260  0.039470  1.0  0.0302
  C  C104  1  0.167470  0.285440  0.042270  1.0  -0.1435
  C  C105  1  0.799400  0.714680  0.989830  1.0  0.0375
  C  C106  1  0.827010  0.709020  0.934440  1.0  -0.1326
  C  C107  1  0.803370  0.720790  0.104430  1.0  0.7902
  C  C108  1  0.793100  0.707840  0.875990  1.0  0.7585
  C  C109  1  0.922160  0.705800  0.984460  1.0  0.0698
  C  C110  1  0.888960  0.704790  0.931640  1.0  -0.0416
  C  C111  1  0.893650  0.710740  0.039470  1.0  0.0297
  C  C112  1  0.832530  0.714560  0.042270  1.0  -0.1434
  C  C113  1  0.799400  0.285320  0.010170  1.0  0.0375
  C  C114  1  0.827010  0.290980  0.065560  1.0  -0.1326
  C  C115  1  0.803370  0.279210  0.895570  1.0  0.7903
  C  C116  1  0.793100  0.292160  0.124010  1.0  0.7587
  C  C117  1  0.922160  0.294200  0.015540  1.0  0.07
  C  C118  1  0.888960  0.295210  0.068360  1.0  -0.0413
  C  C119  1  0.893650  0.289260  0.960530  1.0  0.0286
  C  C120  1  0.832530  0.285440  0.957730  1.0  -0.1438
  C  C121  1  0.200600  0.714680  0.010170  1.0  0.0395
  C  C122  1  0.172990  0.709020  0.065560  1.0  -0.1326
  C  C123  1  0.196630  0.720790  0.895570  1.0  0.7903
  C  C124  1  0.206900  0.707840  0.124010  1.0  0.76
  C  C125  1  0.077840  0.705800  0.015540  1.0  0.0692
  C  C126  1  0.111040  0.704790  0.068360  1.0  -0.0423
  C  C127  1  0.106350  0.710740  0.960530  1.0  0.0287
  C  C128  1  0.167470  0.714560  0.957730  1.0  -0.1439
  C  C129  1  0.989830  0.200600  0.285320  1.0  0.0397
  C  C130  1  0.934440  0.172990  0.290980  1.0  -0.1308
  C  C131  1  0.104430  0.196630  0.279210  1.0  0.7867
  C  C132  1  0.875990  0.206900  0.292160  1.0  0.7553
  C  C133  1  0.984460  0.077840  0.294200  1.0  0.0688
  C  C134  1  0.931640  0.111040  0.295210  1.0  -0.0382
  C  C135  1  0.039470  0.106350  0.289260  1.0  0.0288
  C  C136  1  0.042270  0.167470  0.285440  1.0  -0.1429
  C  C137  1  0.989830  0.799400  0.714680  1.0  0.0407
  C  C138  1  0.934440  0.827010  0.709020  1.0  -0.1315
  C  C139  1  0.104430  0.803370  0.720790  1.0  0.7867
  C  C140  1  0.875990  0.793100  0.707840  1.0  0.755
  C  C141  1  0.984460  0.922160  0.705800  1.0  0.071
  C  C142  1  0.931640  0.888960  0.704790  1.0  -0.0388
  C  C143  1  0.039470  0.893650  0.710740  1.0  0.0293
  C  C144  1  0.042270  0.832530  0.714560  1.0  -0.1425
  C  C145  1  0.010170  0.799400  0.285320  1.0  0.041
  C  C146  1  0.065560  0.827010  0.290980  1.0  -0.1313
  C  C147  1  0.895570  0.803370  0.279210  1.0  0.7871
  C  C148  1  0.124010  0.793100  0.292160  1.0  0.7544
  C  C149  1  0.015540  0.922160  0.294200  1.0  0.0714
  C  C150  1  0.068360  0.888960  0.295210  1.0  -0.036
  C  C151  1  0.960530  0.893650  0.289260  1.0  0.0303
  C  C152  1  0.957730  0.832530  0.285440  1.0  -0.1428
  C  C153  1  0.010170  0.200600  0.714680  1.0  0.04
  C  C154  1  0.065560  0.172990  0.709020  1.0  -0.1312
  C  C155  1  0.895570  0.196630  0.720790  1.0  0.7874
  C  C156  1  0.124010  0.206900  0.707840  1.0  0.754
  C  C157  1  0.015540  0.077840  0.705800  1.0  0.0694
  C  C158  1  0.068360  0.111040  0.704790  1.0  -0.0365
  C  C159  1  0.960530  0.106350  0.710740  1.0  0.0305
  C  C160  1  0.957730  0.167470  0.714560  1.0  -0.1429
  C  C161  1  0.285320  0.989830  0.200600  1.0  0.0418
  C  C162  1  0.290980  0.934440  0.172990  1.0  -0.1318
  C  C163  1  0.279210  0.104430  0.196630  1.0  0.7886
  C  C164  1  0.292160  0.875990  0.206900  1.0  0.7566
  C  C165  1  0.294200  0.984460  0.077840  1.0  0.0692
  C  C166  1  0.295210  0.931640  0.111040  1.0  -0.0367
  C  C167  1  0.289260  0.039470  0.106350  1.0  0.0295
  C  C168  1  0.285440  0.042270  0.167470  1.0  -0.1433
  C  C169  1  0.714680  0.989830  0.799400  1.0  0.0404
  C  C170  1  0.709020  0.934440  0.827010  1.0  -0.1324
  C  C171  1  0.720790  0.104430  0.803370  1.0  0.7891
  C  C172  1  0.707840  0.875990  0.793100  1.0  0.7561
  C  C173  1  0.705800  0.984460  0.922160  1.0  0.0679
  C  C174  1  0.704790  0.931640  0.888960  1.0  -0.0359
  C  C175  1  0.710740  0.039470  0.893650  1.0  0.0296
  C  C176  1  0.714560  0.042270  0.832530  1.0  -0.1428
  C  C177  1  0.285320  0.010170  0.799400  1.0  0.0406
  C  C178  1  0.290980  0.065560  0.827010  1.0  -0.1318
  C  C179  1  0.279210  0.895570  0.803370  1.0  0.7885
  C  C180  1  0.292160  0.124010  0.793100  1.0  0.7568
  C  C181  1  0.294200  0.015540  0.922160  1.0  0.0681
  C  C182  1  0.295210  0.068360  0.888960  1.0  -0.0356
  C  C183  1  0.289260  0.960530  0.893650  1.0  0.0299
  C  C184  1  0.285440  0.957730  0.832530  1.0  -0.1429
  C  C185  1  0.714680  0.010170  0.200600  1.0  0.0421
  C  C186  1  0.709020  0.065560  0.172990  1.0  -0.1317
  C  C187  1  0.720790  0.895570  0.196630  1.0  0.7893
  C  C188  1  0.707840  0.124010  0.206900  1.0  0.7567
  C  C189  1  0.705800  0.015540  0.077840  1.0  0.0703
  C  C190  1  0.704790  0.068360  0.111040  1.0  -0.0376
  C  C191  1  0.710740  0.960530  0.106350  1.0  0.0291
  C  C192  1  0.714560  0.957730  0.167470  1.0  -0.1431
  C  C193  1  0.785320  0.700600  0.489830  1.0  0.0394
  C  C194  1  0.790980  0.672990  0.434440  1.0  -0.1323
  C  C195  1  0.779210  0.696630  0.604430  1.0  0.7892
  C  C196  1  0.792160  0.706900  0.375990  1.0  0.7576
  C  C197  1  0.794200  0.577840  0.484460  1.0  0.0688
  C  C198  1  0.795210  0.611040  0.431640  1.0  -0.041
  C  C199  1  0.789260  0.606350  0.539470  1.0  0.0315
  C  C200  1  0.785440  0.667470  0.542270  1.0  -0.1436
  C  C201  1  0.214680  0.299400  0.489830  1.0  0.0409
  C  C202  1  0.209020  0.327010  0.434440  1.0  -0.133
  C  C203  1  0.220790  0.303370  0.604430  1.0  0.7901
  C  C204  1  0.207840  0.293100  0.375990  1.0  0.757
  C  C205  1  0.205800  0.422160  0.484460  1.0  0.0712
  C  C206  1  0.204790  0.388960  0.431640  1.0  -0.0403
  C  C207  1  0.210740  0.393650  0.539470  1.0  0.0314
  C  C208  1  0.214560  0.332530  0.542270  1.0  -0.143
  C  C209  1  0.785320  0.299400  0.510170  1.0  0.0406
  C  C210  1  0.790980  0.327010  0.565560  1.0  -0.1324
  C  C211  1  0.779210  0.303370  0.395570  1.0  0.7893
  C  C212  1  0.792160  0.293100  0.624010  1.0  0.7579
  C  C213  1  0.794200  0.422160  0.515540  1.0  0.0715
  C  C214  1  0.795210  0.388960  0.568360  1.0  -0.0404
  C  C215  1  0.789260  0.393650  0.460530  1.0  0.0303
  C  C216  1  0.785440  0.332530  0.457730  1.0  -0.144
  C  C217  1  0.214680  0.700600  0.510170  1.0  0.04
  C  C218  1  0.209020  0.672990  0.565560  1.0  -0.1325
  C  C219  1  0.220790  0.696630  0.395570  1.0  0.7901
  C  C220  1  0.207840  0.706900  0.624010  1.0  0.7573
  C  C221  1  0.205800  0.577840  0.515540  1.0  0.0693
  C  C222  1  0.204790  0.611040  0.568360  1.0  -0.0411
  C  C223  1  0.210740  0.606350  0.460530  1.0  0.0294
  C  C224  1  0.214560  0.667470  0.457730  1.0  -0.1438
  C  C225  1  0.700600  0.489830  0.785320  1.0  0.0398
  C  C226  1  0.672990  0.434440  0.790980  1.0  -0.1311
  C  C227  1  0.696630  0.604430  0.779210  1.0  0.7889
  C  C228  1  0.706900  0.375990  0.792160  1.0  0.7576
  C  C229  1  0.577840  0.484460  0.794200  1.0  0.0687
  C  C230  1  0.611040  0.431640  0.795210  1.0  -0.0383
  C  C231  1  0.606350  0.539470  0.789260  1.0  0.0298
  C  C232  1  0.667470  0.542270  0.785440  1.0  -0.1428
  C  C233  1  0.299400  0.489830  0.214680  1.0  0.0376
  C  C234  1  0.327010  0.434440  0.209020  1.0  -0.1313
  C  C235  1  0.303370  0.604430  0.220790  1.0  0.789
  C  C236  1  0.293100  0.375990  0.207840  1.0  0.7566
  C  C237  1  0.422160  0.484460  0.205800  1.0  0.0699
  C  C238  1  0.388960  0.431640  0.204790  1.0  -0.0377
  C  C239  1  0.393650  0.539470  0.210740  1.0  0.0303
  C  C240  1  0.332530  0.542270  0.214560  1.0  -0.1426
  C  C241  1  0.299400  0.510170  0.785320  1.0  0.0378
  C  C242  1  0.327010  0.565560  0.790980  1.0  -0.1308
  C  C243  1  0.303370  0.395570  0.779210  1.0  0.7889
  C  C244  1  0.293100  0.624010  0.792160  1.0  0.7571
  C  C245  1  0.422160  0.515540  0.794200  1.0  0.0702
  C  C246  1  0.388960  0.568360  0.795210  1.0  -0.0389
  C  C247  1  0.393650  0.460530  0.789260  1.0  0.03
  C  C248  1  0.332530  0.457730  0.785440  1.0  -0.1427
  C  C249  1  0.700600  0.510170  0.214680  1.0  0.0397
  C  C250  1  0.672990  0.565560  0.209020  1.0  -0.131
  C  C251  1  0.696630  0.395570  0.220790  1.0  0.7891
  C  C252  1  0.706900  0.624010  0.207840  1.0  0.7576
  C  C253  1  0.577840  0.515540  0.205800  1.0  0.0697
  C  C254  1  0.611040  0.568360  0.204790  1.0  -0.0386
  C  C255  1  0.606350  0.460530  0.210740  1.0  0.0304
  C  C256  1  0.667470  0.457730  0.214560  1.0  -0.1423
  C  C257  1  0.489830  0.785320  0.700600  1.0  0.0421
  C  C258  1  0.434440  0.790980  0.672990  1.0  -0.132
  C  C259  1  0.604430  0.779210  0.696630  1.0  0.7872
  C  C260  1  0.375990  0.792160  0.706900  1.0  0.7558
  C  C261  1  0.484460  0.794200  0.577840  1.0  0.0696
  C  C262  1  0.431640  0.795210  0.611040  1.0  -0.0378
  C  C263  1  0.539470  0.789260  0.606350  1.0  0.0274
  C  C264  1  0.542270  0.785440  0.667470  1.0  -0.1435
  C  C265  1  0.489830  0.214680  0.299400  1.0  0.0404
  C  C266  1  0.434440  0.209020  0.327010  1.0  -0.1323
  C  C267  1  0.604430  0.220790  0.303370  1.0  0.7873
  C  C268  1  0.375990  0.207840  0.293100  1.0  0.7561
  C  C269  1  0.484460  0.205800  0.422160  1.0  0.0678
  C  C270  1  0.431640  0.204790  0.388960  1.0  -0.0373
  C  C271  1  0.539470  0.210740  0.393650  1.0  0.0273
  C  C272  1  0.542270  0.214560  0.332530  1.0  -0.1428
  C  C273  1  0.510170  0.785320  0.299400  1.0  0.0409
  C  C274  1  0.565560  0.790980  0.327010  1.0  -0.1328
  C  C275  1  0.395570  0.779210  0.303370  1.0  0.7877
  C  C276  1  0.624010  0.792160  0.293100  1.0  0.7549
  C  C277  1  0.515540  0.794200  0.422160  1.0  0.0678
  C  C278  1  0.568360  0.795210  0.388960  1.0  -0.0341
  C  C279  1  0.460530  0.789260  0.393650  1.0  0.0288
  C  C280  1  0.457730  0.785440  0.332530  1.0  -0.1428
  C  C281  1  0.510170  0.214680  0.700600  1.0  0.0419
  C  C282  1  0.565560  0.209020  0.672990  1.0  -0.1322
  C  C283  1  0.395570  0.220790  0.696630  1.0  0.788
  C  C284  1  0.624010  0.207840  0.706900  1.0  0.7558
  C  C285  1  0.515540  0.205800  0.577840  1.0  0.0696
  C  C286  1  0.568360  0.204790  0.611040  1.0  -0.0359
  C  C287  1  0.460530  0.210740  0.606350  1.0  0.0282
  C  C288  1  0.457730  0.214560  0.667470  1.0  -0.1433
  N  N289  1  0.013570  0.296110  0.977010  1.0  -0.1192
  N  N290  1  0.986430  0.703890  0.977010  1.0  -0.12
  N  N291  1  0.986430  0.296110  0.022990  1.0  -0.1205
  N  N292  1  0.013570  0.703890  0.022990  1.0  -0.1204
  N  N293  1  0.977010  0.013570  0.296110  1.0  -0.1182
  N  N294  1  0.977010  0.986430  0.703890  1.0  -0.1181
  N  N295  1  0.022990  0.986430  0.296110  1.0  -0.1186
  N  N296  1  0.022990  0.013570  0.703890  1.0  -0.1184
  N  N297  1  0.296110  0.977010  0.013570  1.0  -0.1182
  N  N298  1  0.703890  0.977010  0.986430  1.0  -0.1179
  N  N299  1  0.296110  0.022990  0.986430  1.0  -0.1194
  N  N300  1  0.703890  0.022990  0.013570  1.0  -0.1197
  N  N301  1  0.796110  0.513570  0.477010  1.0  -0.1209
  N  N302  1  0.203890  0.486430  0.477010  1.0  -0.1206
  N  N303  1  0.796110  0.486430  0.522990  1.0  -0.1218
  N  N304  1  0.203890  0.513570  0.522990  1.0  -0.1212
  N  N305  1  0.513570  0.477010  0.796110  1.0  -0.1169
  N  N306  1  0.486430  0.477010  0.203890  1.0  -0.1171
  N  N307  1  0.486430  0.522990  0.796110  1.0  -0.1187
  N  N308  1  0.513570  0.522990  0.203890  1.0  -0.1182
  N  N309  1  0.477010  0.796110  0.513570  1.0  -0.1178
  N  N310  1  0.477010  0.203890  0.486430  1.0  -0.1179
  N  N311  1  0.522990  0.796110  0.486430  1.0  -0.1179
  N  N312  1  0.522990  0.203890  0.513570  1.0  -0.1183
  O  O313  1  0.176270  0.304010  0.829980  1.0  -0.5986
  O  O314  1  0.162960  0.291470  0.147590  1.0  -0.6018
  O  O315  1  0.249700  0.262940  0.105350  1.0  -0.6048
  O  O316  1  0.261710  0.280750  0.878420  1.0  -0.608
  O  O317  1  0.823730  0.695990  0.829980  1.0  -0.6013
  O  O318  1  0.837040  0.708530  0.147590  1.0  -0.6028
  O  O319  1  0.750300  0.737060  0.105350  1.0  -0.6052
  O  O320  1  0.738290  0.719250  0.878420  1.0  -0.6074
  O  O321  1  0.823730  0.304010  0.170020  1.0  -0.6008
  O  O322  1  0.837040  0.291470  0.852410  1.0  -0.6028
  O  O323  1  0.750300  0.262940  0.894650  1.0  -0.6053
  O  O324  1  0.738290  0.280750  0.121580  1.0  -0.6077
  O  O325  1  0.176270  0.695990  0.170020  1.0  -0.5996
  O  O326  1  0.162960  0.708530  0.852410  1.0  -0.6017
  O  O327  1  0.249700  0.737060  0.894650  1.0  -0.6052
  O  O328  1  0.261710  0.719250  0.121580  1.0  -0.6075
  O  O329  1  0.829980  0.176270  0.304010  1.0  -0.6008
  O  O330  1  0.147590  0.162960  0.291470  1.0  -0.6044
  O  O331  1  0.105350  0.249700  0.262940  1.0  -0.6064
  O  O332  1  0.878420  0.261710  0.280750  1.0  -0.6056
  O  O333  1  0.829980  0.823730  0.695990  1.0  -0.6006
  O  O334  1  0.147590  0.837040  0.708530  1.0  -0.6032
  O  O335  1  0.105350  0.750300  0.737060  1.0  -0.606
  O  O336  1  0.878420  0.738290  0.719250  1.0  -0.607
  O  O337  1  0.170020  0.823730  0.304010  1.0  -0.6008
  O  O338  1  0.852410  0.837040  0.291470  1.0  -0.6028
  O  O339  1  0.894650  0.750300  0.262940  1.0  -0.6063
  O  O340  1  0.121580  0.738290  0.280750  1.0  -0.6077
  O  O341  1  0.170020  0.176270  0.695990  1.0  -0.6005
  O  O342  1  0.852410  0.162960  0.708530  1.0  -0.6028
  O  O343  1  0.894650  0.249700  0.737060  1.0  -0.6055
  O  O344  1  0.121580  0.261710  0.719250  1.0  -0.6072
  O  O345  1  0.304010  0.829980  0.176270  1.0  -0.6009
  O  O346  1  0.291470  0.147590  0.162960  1.0  -0.6044
  O  O347  1  0.262940  0.105350  0.249700  1.0  -0.6024
  O  O348  1  0.280750  0.878420  0.261710  1.0  -0.6046
  O  O349  1  0.695990  0.829980  0.823730  1.0  -0.6002
  O  O350  1  0.708530  0.147590  0.837040  1.0  -0.6055
  O  O351  1  0.737060  0.105350  0.750300  1.0  -0.6036
  O  O352  1  0.719250  0.878420  0.738290  1.0  -0.6038
  O  O353  1  0.304010  0.170020  0.823730  1.0  -0.6005
  O  O354  1  0.291470  0.852410  0.837040  1.0  -0.606
  O  O355  1  0.262940  0.894650  0.750300  1.0  -0.6038
  O  O356  1  0.280750  0.121580  0.738290  1.0  -0.6041
  O  O357  1  0.695990  0.170020  0.176270  1.0  -0.6008
  O  O358  1  0.708530  0.852410  0.162960  1.0  -0.6046
  O  O359  1  0.737060  0.894650  0.249700  1.0  -0.6021
  O  O360  1  0.719250  0.121580  0.261710  1.0  -0.6051
  O  O361  1  0.804010  0.676270  0.329980  1.0  -0.6015
  O  O362  1  0.791470  0.662960  0.647590  1.0  -0.6048
  O  O363  1  0.762940  0.749700  0.605350  1.0  -0.603
  O  O364  1  0.780750  0.761710  0.378420  1.0  -0.6049
  O  O365  1  0.195990  0.323730  0.329980  1.0  -0.6014
  O  O366  1  0.208530  0.337040  0.647590  1.0  -0.6033
  O  O367  1  0.237060  0.250300  0.605350  1.0  -0.6035
  O  O368  1  0.219250  0.238290  0.378420  1.0  -0.6055
  O  O369  1  0.804010  0.323730  0.670020  1.0  -0.6018
  O  O370  1  0.791470  0.337040  0.352410  1.0  -0.6037
  O  O371  1  0.762940  0.250300  0.394650  1.0  -0.6032
  O  O372  1  0.780750  0.238290  0.621580  1.0  -0.6061
  O  O373  1  0.195990  0.676270  0.670020  1.0  -0.6006
  O  O374  1  0.208530  0.662960  0.352410  1.0  -0.6045
  O  O375  1  0.237060  0.749700  0.394650  1.0  -0.6028
  O  O376  1  0.219250  0.761710  0.621580  1.0  -0.6051
  O  O377  1  0.676270  0.329980  0.804010  1.0  -0.6001
  O  O378  1  0.662960  0.647590  0.791470  1.0  -0.6043
  O  O379  1  0.749700  0.605350  0.762940  1.0  -0.605
  O  O380  1  0.761710  0.378420  0.780750  1.0  -0.6074
  O  O381  1  0.323730  0.329980  0.195990  1.0  -0.6015
  O  O382  1  0.337040  0.647590  0.208530  1.0  -0.6047
  O  O383  1  0.250300  0.605350  0.237060  1.0  -0.6049
  O  O384  1  0.238290  0.378420  0.219250  1.0  -0.6073
  O  O385  1  0.323730  0.670020  0.804010  1.0  -0.6015
  O  O386  1  0.337040  0.352410  0.791470  1.0  -0.6058
  O  O387  1  0.250300  0.394650  0.762940  1.0  -0.6046
  O  O388  1  0.238290  0.621580  0.780750  1.0  -0.6081
  O  O389  1  0.676270  0.670020  0.195990  1.0  -0.6002
  O  O390  1  0.662960  0.352410  0.208530  1.0  -0.604
  O  O391  1  0.749700  0.394650  0.237060  1.0  -0.6052
  O  O392  1  0.761710  0.621580  0.219250  1.0  -0.6084
  O  O393  1  0.329980  0.804010  0.676270  1.0  -0.5987
  O  O394  1  0.647590  0.791470  0.662960  1.0  -0.6016
  O  O395  1  0.605350  0.762940  0.749700  1.0  -0.6054
  O  O396  1  0.378420  0.780750  0.761710  1.0  -0.6054
  O  O397  1  0.329980  0.195990  0.323730  1.0  -0.5994
  O  O398  1  0.647590  0.208530  0.337040  1.0  -0.6025
  O  O399  1  0.605350  0.237060  0.250300  1.0  -0.607
  O  O400  1  0.378420  0.219250  0.238290  1.0  -0.6039
  O  O401  1  0.670020  0.804010  0.323730  1.0  -0.5988
  O  O402  1  0.352410  0.791470  0.337040  1.0  -0.6012
  O  O403  1  0.394650  0.762940  0.250300  1.0  -0.6063
  O  O404  1  0.621580  0.780750  0.238290  1.0  -0.6055
  O  O405  1  0.670020  0.195990  0.676270  1.0  -0.5994
  O  O406  1  0.352410  0.208530  0.662960  1.0  -0.601
  O  O407  1  0.394650  0.237060  0.749700  1.0  -0.6045
  O  O408  1  0.621580  0.219250  0.761710  1.0  -0.607
  O  O409  1  0.263550  0.263550  0.736450  1.0  -0.9975
  O  O410  1  0.736450  0.736450  0.736450  1.0  -0.9976
  O  O411  1  0.736450  0.263550  0.263550  1.0  -0.997
  O  O412  1  0.263550  0.736450  0.263550  1.0  -0.9984
  O  O413  1  0.763550  0.763550  0.236450  1.0  -0.9975
  O  O414  1  0.236450  0.236450  0.236450  1.0  -0.9976
  O  O415  1  0.763550  0.236450  0.763550  1.0  -0.9984
  O  O416  1  0.236450  0.763550  0.763550  1.0  -0.997
