# generated using pymatgen
data_Mg3H9C24N3O13
_symmetry_space_group_name_H-M   'P 1'
_cell_length_a   22.30510000
_cell_length_b   22.30510000
_cell_length_c   22.30510000
_cell_angle_alpha   90.00000000
_cell_angle_beta   90.00000000
_cell_angle_gamma   90.00000000
_symmetry_Int_Tables_number   1
_chemical_formula_structural   Mg3H9C24N3O13
_chemical_formula_sum   'Mg24 H72 C192 N24 O104'
_cell_volume   11097.17727720
_cell_formula_units_Z   8
loop_
 _symmetry_equiv_pos_site_id
 _symmetry_equiv_pos_as_xyz
  1  'x, y, z'
loop_
 _atom_site_type_symbol
 _atom_site_label
 _atom_site_symmetry_multiplicity
 _atom_site_fract_x
 _atom_site_fract_y
 _atom_site_fract_z
 _atom_site_occupancy
 _atom_site_charge
  Mg  Mg1  1  0.176770  0.240630  0.690840  1.0  1.5952
  Mg  Mg2  1  0.823230  0.759370  0.690840  1.0  1.5944
  Mg  Mg3  1  0.823230  0.240630  0.309160  1.0  1.5954
  Mg  Mg4  1  0.176770  0.759370  0.309160  1.0  1.5945
  Mg  Mg5  1  0.690840  0.176770  0.240630  1.0  1.5956
  Mg  Mg6  1  0.690840  0.823230  0.759370  1.0  1.5964
  Mg  Mg7  1  0.309160  0.823230  0.240630  1.0  1.5964
  Mg  Mg8  1  0.309160  0.176770  0.759370  1.0  1.5944
  Mg  Mg9  1  0.240630  0.690840  0.176770  1.0  1.5944
  Mg  Mg10  1  0.759370  0.690840  0.823230  1.0  1.5946
  Mg  Mg11  1  0.240630  0.309160  0.823230  1.0  1.5949
  Mg  Mg12  1  0.759370  0.309160  0.176770  1.0  1.5943
  Mg  Mg13  1  0.740630  0.676770  0.190840  1.0  1.5934
  Mg  Mg14  1  0.259370  0.323230  0.190840  1.0  1.5943
  Mg  Mg15  1  0.740630  0.323230  0.809160  1.0  1.5949
  Mg  Mg16  1  0.259370  0.676770  0.809160  1.0  1.5935
  Mg  Mg17  1  0.676770  0.190840  0.740630  1.0  1.5961
  Mg  Mg18  1  0.323230  0.190840  0.259370  1.0  1.5952
  Mg  Mg19  1  0.323230  0.809160  0.740630  1.0  1.5961
  Mg  Mg20  1  0.676770  0.809160  0.259370  1.0  1.5962
  Mg  Mg21  1  0.190840  0.740630  0.676770  1.0  1.5955
  Mg  Mg22  1  0.190840  0.259370  0.323230  1.0  1.5947
  Mg  Mg23  1  0.809160  0.740630  0.323230  1.0  1.5956
  Mg  Mg24  1  0.809160  0.259370  0.676770  1.0  1.5946
  H  H25  1  0.257700  0.219800  0.508400  1.0  0.1031
  H  H26  1  0.408500  0.202800  0.603200  1.0  0.1127
  H  H27  1  0.416600  0.210900  0.425700  1.0  0.0999
  H  H28  1  0.742300  0.780200  0.508400  1.0  0.1036
  H  H29  1  0.591500  0.797200  0.603200  1.0  0.1128
  H  H30  1  0.583400  0.789100  0.425700  1.0  0.0995
  H  H31  1  0.742300  0.219800  0.491600  1.0  0.103
  H  H32  1  0.591500  0.202800  0.396800  1.0  0.1132
  H  H33  1  0.583400  0.210900  0.574300  1.0  0.1
  H  H34  1  0.257700  0.780200  0.491600  1.0  0.103
  H  H35  1  0.408500  0.797200  0.396800  1.0  0.1131
  H  H36  1  0.416600  0.789100  0.574300  1.0  0.1003
  H  H37  1  0.508400  0.257700  0.219800  1.0  0.1041
  H  H38  1  0.603200  0.408500  0.202800  1.0  0.1121
  H  H39  1  0.425700  0.416600  0.210900  1.0  0.0985
  H  H40  1  0.508400  0.742300  0.780200  1.0  0.103
  H  H41  1  0.603200  0.591500  0.797200  1.0  0.1122
  H  H42  1  0.425700  0.583400  0.789100  1.0  0.0984
  H  H43  1  0.491600  0.742300  0.219800  1.0  0.1033
  H  H44  1  0.396800  0.591500  0.202800  1.0  0.1126
  H  H45  1  0.574300  0.583400  0.210900  1.0  0.0989
  H  H46  1  0.491600  0.257700  0.780200  1.0  0.1041
  H  H47  1  0.396800  0.408500  0.797200  1.0  0.113
  H  H48  1  0.574300  0.416600  0.789100  1.0  0.0987
  H  H49  1  0.219800  0.508400  0.257700  1.0  0.1027
  H  H50  1  0.202800  0.603200  0.408500  1.0  0.1123
  H  H51  1  0.210900  0.425700  0.416600  1.0  0.0993
  H  H52  1  0.780200  0.508400  0.742300  1.0  0.1031
  H  H53  1  0.797200  0.603200  0.591500  1.0  0.1124
  H  H54  1  0.789100  0.425700  0.583400  1.0  0.0989
  H  H55  1  0.219800  0.491600  0.742300  1.0  0.1033
  H  H56  1  0.202800  0.396800  0.591500  1.0  0.1124
  H  H57  1  0.210900  0.574300  0.583400  1.0  0.0987
  H  H58  1  0.780200  0.491600  0.257700  1.0  0.103
  H  H59  1  0.797200  0.396800  0.408500  1.0  0.1121
  H  H60  1  0.789100  0.574300  0.416600  1.0  0.0986
  H  H61  1  0.719800  0.757700  0.008400  1.0  0.104
  H  H62  1  0.702800  0.908500  0.103200  1.0  0.1131
  H  H63  1  0.710900  0.916600  0.925700  1.0  0.0997
  H  H64  1  0.280200  0.242300  0.008400  1.0  0.1031
  H  H65  1  0.297200  0.091500  0.103200  1.0  0.1128
  H  H66  1  0.289100  0.083400  0.925700  1.0  0.0997
  H  H67  1  0.719800  0.242300  0.991600  1.0  0.1028
  H  H68  1  0.702800  0.091500  0.896800  1.0  0.1138
  H  H69  1  0.710900  0.083400  0.074300  1.0  0.1001
  H  H70  1  0.280200  0.757700  0.991600  1.0  0.1037
  H  H71  1  0.297200  0.908500  0.896800  1.0  0.113
  H  H72  1  0.289100  0.916600  0.074300  1.0  0.1
  H  H73  1  0.757700  0.008400  0.719800  1.0  0.1031
  H  H74  1  0.908500  0.103200  0.702800  1.0  0.1118
  H  H75  1  0.916600  0.925700  0.710900  1.0  0.0995
  H  H76  1  0.242300  0.008400  0.280200  1.0  0.1033
  H  H77  1  0.091500  0.103200  0.297200  1.0  0.1129
  H  H78  1  0.083400  0.925700  0.289100  1.0  0.0986
  H  H79  1  0.242300  0.991600  0.719800  1.0  0.103
  H  H80  1  0.091500  0.896800  0.702800  1.0  0.1118
  H  H81  1  0.083400  0.074300  0.710900  1.0  0.0986
  H  H82  1  0.757700  0.991600  0.280200  1.0  0.1028
  H  H83  1  0.908500  0.896800  0.297200  1.0  0.112
  H  H84  1  0.916600  0.074300  0.289100  1.0  0.0986
  H  H85  1  0.008400  0.719800  0.757700  1.0  0.1031
  H  H86  1  0.103200  0.702800  0.908500  1.0  0.1121
  H  H87  1  0.925700  0.710900  0.916600  1.0  0.0986
  H  H88  1  0.008400  0.280200  0.242300  1.0  0.1033
  H  H89  1  0.103200  0.297200  0.091500  1.0  0.1121
  H  H90  1  0.925700  0.289100  0.083400  1.0  0.0984
  H  H91  1  0.991600  0.719800  0.242300  1.0  0.1034
  H  H92  1  0.896800  0.702800  0.091500  1.0  0.1127
  H  H93  1  0.074300  0.710900  0.083400  1.0  0.0988
  H  H94  1  0.991600  0.280200  0.757700  1.0  0.1031
  H  H95  1  0.896800  0.297200  0.908500  1.0  0.1124
  H  H96  1  0.074300  0.289100  0.916600  1.0  0.099
  C  C97  1  0.332570  0.216000  0.456700  1.0  -0.1542
  C  C98  1  0.299160  0.215890  0.510220  1.0  0.0104
  C  C99  1  0.326500  0.210160  0.565180  1.0  -0.1714
  C  C100  1  0.388910  0.207200  0.566620  1.0  -0.0283
  C  C101  1  0.421660  0.210700  0.515190  1.0  0.0813
  C  C102  1  0.393750  0.212300  0.460570  1.0  -0.022
  C  C103  1  0.292500  0.208810  0.622960  1.0  0.72
  C  C104  1  0.303080  0.221550  0.395150  1.0  0.7508
  C  C105  1  0.667430  0.784000  0.456700  1.0  -0.1547
  C  C106  1  0.700840  0.784110  0.510220  1.0  0.0125
  C  C107  1  0.673500  0.789840  0.565180  1.0  -0.1717
  C  C108  1  0.611090  0.792800  0.566620  1.0  -0.0286
  C  C109  1  0.578340  0.789300  0.515190  1.0  0.0811
  C  C110  1  0.606250  0.787700  0.460570  1.0  -0.0214
  C  C111  1  0.707500  0.791190  0.622960  1.0  0.7201
  C  C112  1  0.696920  0.778450  0.395150  1.0  0.7503
  C  C113  1  0.667430  0.216000  0.543300  1.0  -0.1552
  C  C114  1  0.700840  0.215890  0.489780  1.0  0.0122
  C  C115  1  0.673500  0.210160  0.434820  1.0  -0.1717
  C  C116  1  0.611090  0.207200  0.433380  1.0  -0.0292
  C  C117  1  0.578340  0.210700  0.484810  1.0  0.0816
  C  C118  1  0.606250  0.212300  0.539430  1.0  -0.0221
  C  C119  1  0.707500  0.208810  0.377040  1.0  0.72
  C  C120  1  0.696920  0.221550  0.604850  1.0  0.7515
  C  C121  1  0.332570  0.784000  0.543300  1.0  -0.1546
  C  C122  1  0.299160  0.784110  0.489780  1.0  0.0104
  C  C123  1  0.326500  0.789840  0.434820  1.0  -0.1714
  C  C124  1  0.388910  0.792800  0.433380  1.0  -0.0292
  C  C125  1  0.421660  0.789300  0.484810  1.0  0.0819
  C  C126  1  0.393750  0.787700  0.539430  1.0  -0.0224
  C  C127  1  0.292500  0.791190  0.377040  1.0  0.7196
  C  C128  1  0.303080  0.778450  0.604850  1.0  0.7511
  C  C129  1  0.456700  0.332570  0.216000  1.0  -0.154
  C  C130  1  0.510220  0.299160  0.215890  1.0  0.0124
  C  C131  1  0.565180  0.326500  0.210160  1.0  -0.1709
  C  C132  1  0.566620  0.388910  0.207200  1.0  -0.0283
  C  C133  1  0.515190  0.421660  0.210700  1.0  0.0814
  C  C134  1  0.460570  0.393750  0.212300  1.0  -0.0199
  C  C135  1  0.622960  0.292500  0.208810  1.0  0.716
  C  C136  1  0.395150  0.303080  0.221550  1.0  0.7483
  C  C137  1  0.456700  0.667430  0.784000  1.0  -0.1535
  C  C138  1  0.510220  0.700840  0.784110  1.0  0.0099
  C  C139  1  0.565180  0.673500  0.789840  1.0  -0.1712
  C  C140  1  0.566620  0.611090  0.792800  1.0  -0.0282
  C  C141  1  0.515190  0.578340  0.789300  1.0  0.0809
  C  C142  1  0.460570  0.606250  0.787700  1.0  -0.0196
  C  C143  1  0.622960  0.707500  0.791190  1.0  0.7164
  C  C144  1  0.395150  0.696920  0.778450  1.0  0.7483
  C  C145  1  0.543300  0.667430  0.216000  1.0  -0.1548
  C  C146  1  0.489780  0.700840  0.215890  1.0  0.0106
  C  C147  1  0.434820  0.673500  0.210160  1.0  -0.1701
  C  C148  1  0.433380  0.611090  0.207200  1.0  -0.0271
  C  C149  1  0.484810  0.578340  0.210700  1.0  0.0812
  C  C150  1  0.539430  0.606250  0.212300  1.0  -0.0218
  C  C151  1  0.377040  0.707500  0.208810  1.0  0.7175
  C  C152  1  0.604850  0.696920  0.221550  1.0  0.7476
  C  C153  1  0.543300  0.332570  0.784000  1.0  -0.1545
  C  C154  1  0.489780  0.299160  0.784110  1.0  0.013
  C  C155  1  0.434820  0.326500  0.789840  1.0  -0.1703
  C  C156  1  0.433380  0.388910  0.792800  1.0  -0.0275
  C  C157  1  0.484810  0.421660  0.789300  1.0  0.0819
  C  C158  1  0.539430  0.393750  0.787700  1.0  -0.0219
  C  C159  1  0.377040  0.292500  0.791190  1.0  0.7174
  C  C160  1  0.604850  0.303080  0.778450  1.0  0.7473
  C  C161  1  0.216000  0.456700  0.332570  1.0  -0.1543
  C  C162  1  0.215890  0.510220  0.299160  1.0  0.0122
  C  C163  1  0.210160  0.565180  0.326500  1.0  -0.1708
  C  C164  1  0.207200  0.566620  0.388910  1.0  -0.0271
  C  C165  1  0.210700  0.515190  0.421660  1.0  0.0797
  C  C166  1  0.212300  0.460570  0.393750  1.0  -0.0213
  C  C167  1  0.208810  0.622960  0.292500  1.0  0.7182
  C  C168  1  0.221550  0.395150  0.303080  1.0  0.75
  C  C169  1  0.784000  0.456700  0.667430  1.0  -0.1545
  C  C170  1  0.784110  0.510220  0.700840  1.0  0.013
  C  C171  1  0.789840  0.565180  0.673500  1.0  -0.1702
  C  C172  1  0.792800  0.566620  0.611090  1.0  -0.0283
  C  C173  1  0.789300  0.515190  0.578340  1.0  0.0814
  C  C174  1  0.787700  0.460570  0.606250  1.0  -0.0211
  C  C175  1  0.791190  0.622960  0.707500  1.0  0.7185
  C  C176  1  0.778450  0.395150  0.696920  1.0  0.7495
  C  C177  1  0.216000  0.543300  0.667430  1.0  -0.1541
  C  C178  1  0.215890  0.489780  0.700840  1.0  0.0133
  C  C179  1  0.210160  0.434820  0.673500  1.0  -0.1714
  C  C180  1  0.207200  0.433380  0.611090  1.0  -0.028
  C  C181  1  0.210700  0.484810  0.578340  1.0  0.0812
  C  C182  1  0.212300  0.539430  0.606250  1.0  -0.0214
  C  C183  1  0.208810  0.377040  0.707500  1.0  0.7178
  C  C184  1  0.221550  0.604850  0.696920  1.0  0.7505
  C  C185  1  0.784000  0.543300  0.332570  1.0  -0.1541
  C  C186  1  0.784110  0.489780  0.299160  1.0  0.0118
  C  C187  1  0.789840  0.434820  0.326500  1.0  -0.1703
  C  C188  1  0.792800  0.433380  0.388910  1.0  -0.0274
  C  C189  1  0.789300  0.484810  0.421660  1.0  0.0804
  C  C190  1  0.787700  0.539430  0.393750  1.0  -0.0216
  C  C191  1  0.791190  0.377040  0.292500  1.0  0.718
  C  C192  1  0.778450  0.604850  0.303080  1.0  0.7494
  C  C193  1  0.716000  0.832570  0.956700  1.0  -0.1546
  C  C194  1  0.715890  0.799160  0.010220  1.0  0.0133
  C  C195  1  0.710160  0.826500  0.065180  1.0  -0.1715
  C  C196  1  0.707200  0.888910  0.066620  1.0  -0.0286
  C  C197  1  0.710700  0.921660  0.015190  1.0  0.0814
  C  C198  1  0.712300  0.893750  0.960570  1.0  -0.0205
  C  C199  1  0.708810  0.792500  0.122960  1.0  0.7185
  C  C200  1  0.721550  0.803080  0.895150  1.0  0.7501
  C  C201  1  0.284000  0.167430  0.956700  1.0  -0.1544
  C  C202  1  0.284110  0.200840  0.010220  1.0  0.0104
  C  C203  1  0.289840  0.173500  0.065180  1.0  -0.1708
  C  C204  1  0.292800  0.111090  0.066620  1.0  -0.0283
  C  C205  1  0.289300  0.078340  0.015190  1.0  0.0809
  C  C206  1  0.287700  0.106250  0.960570  1.0  -0.0208
  C  C207  1  0.291190  0.207500  0.122960  1.0  0.7192
  C  C208  1  0.278450  0.196920  0.895150  1.0  0.7495
  C  C209  1  0.716000  0.167430  0.043300  1.0  -0.1548
  C  C210  1  0.715890  0.200840  0.989780  1.0  0.0106
  C  C211  1  0.710160  0.173500  0.934820  1.0  -0.1716
  C  C212  1  0.707200  0.111090  0.933380  1.0  -0.0295
  C  C213  1  0.710700  0.078340  0.984810  1.0  0.0812
  C  C214  1  0.712300  0.106250  0.039430  1.0  -0.0209
  C  C215  1  0.708810  0.207500  0.877040  1.0  0.7186
  C  C216  1  0.721550  0.196920  0.104850  1.0  0.751
  C  C217  1  0.284000  0.832570  0.043300  1.0  -0.1549
  C  C218  1  0.284110  0.799160  0.989780  1.0  0.0125
  C  C219  1  0.289840  0.826500  0.934820  1.0  -0.1711
  C  C220  1  0.292800  0.888910  0.933380  1.0  -0.0295
  C  C221  1  0.289300  0.921660  0.984810  1.0  0.0821
  C  C222  1  0.287700  0.893750  0.039430  1.0  -0.0212
  C  C223  1  0.291190  0.792500  0.877040  1.0  0.7188
  C  C224  1  0.278450  0.803080  0.104850  1.0  0.7498
  C  C225  1  0.832570  0.956700  0.716000  1.0  -0.154
  C  C226  1  0.799160  0.010220  0.715890  1.0  0.0104
  C  C227  1  0.826500  0.065180  0.710160  1.0  -0.1707
  C  C228  1  0.888910  0.066620  0.707200  1.0  -0.0274
  C  C229  1  0.921660  0.015190  0.710700  1.0  0.0812
  C  C230  1  0.893750  0.960570  0.712300  1.0  -0.0207
  C  C231  1  0.792500  0.122960  0.708810  1.0  0.7179
  C  C232  1  0.803080  0.895150  0.721550  1.0  0.7504
  C  C233  1  0.167430  0.956700  0.284000  1.0  -0.154
  C  C234  1  0.200840  0.010220  0.284110  1.0  0.0119
  C  C235  1  0.173500  0.065180  0.289840  1.0  -0.171
  C  C236  1  0.111090  0.066620  0.292800  1.0  -0.0272
  C  C237  1  0.078340  0.015190  0.289300  1.0  0.0811
  C  C238  1  0.106250  0.960570  0.287700  1.0  -0.0206
  C  C239  1  0.207500  0.122960  0.291190  1.0  0.7183
  C  C240  1  0.196920  0.895150  0.278450  1.0  0.7499
  C  C241  1  0.167430  0.043300  0.716000  1.0  -0.1543
  C  C242  1  0.200840  0.989780  0.715890  1.0  0.0123
  C  C243  1  0.173500  0.934820  0.710160  1.0  -0.1709
  C  C244  1  0.111090  0.933380  0.707200  1.0  -0.0274
  C  C245  1  0.078340  0.984810  0.710700  1.0  0.0813
  C  C246  1  0.106250  0.039430  0.712300  1.0  -0.0208
  C  C247  1  0.207500  0.877040  0.708810  1.0  0.7178
  C  C248  1  0.196920  0.104850  0.721550  1.0  0.7503
  C  C249  1  0.832570  0.043300  0.284000  1.0  -0.1532
  C  C250  1  0.799160  0.989780  0.284110  1.0  0.0101
  C  C251  1  0.826500  0.934820  0.289840  1.0  -0.171
  C  C252  1  0.888910  0.933380  0.292800  1.0  -0.0273
  C  C253  1  0.921660  0.984810  0.289300  1.0  0.0819
  C  C254  1  0.893750  0.039430  0.287700  1.0  -0.0215
  C  C255  1  0.792500  0.877040  0.291190  1.0  0.7176
  C  C256  1  0.803080  0.104850  0.278450  1.0  0.7505
  C  C257  1  0.956700  0.716000  0.832570  1.0  -0.1542
  C  C258  1  0.010220  0.715890  0.799160  1.0  0.0121
  C  C259  1  0.065180  0.710160  0.826500  1.0  -0.171
  C  C260  1  0.066620  0.707200  0.888910  1.0  -0.0284
  C  C261  1  0.015190  0.710700  0.921660  1.0  0.0799
  C  C262  1  0.960570  0.712300  0.893750  1.0  -0.0217
  C  C263  1  0.122960  0.708810  0.792500  1.0  0.7181
  C  C264  1  0.895150  0.721550  0.803080  1.0  0.7484
  C  C265  1  0.956700  0.284000  0.167430  1.0  -0.1543
  C  C266  1  0.010220  0.284110  0.200840  1.0  0.0131
  C  C267  1  0.065180  0.289840  0.173500  1.0  -0.1713
  C  C268  1  0.066620  0.292800  0.111090  1.0  -0.0291
  C  C269  1  0.015190  0.289300  0.078340  1.0  0.081
  C  C270  1  0.960570  0.287700  0.106250  1.0  -0.0213
  C  C271  1  0.122960  0.291190  0.207500  1.0  0.7178
  C  C272  1  0.895150  0.278450  0.196920  1.0  0.7487
  C  C273  1  0.043300  0.716000  0.167430  1.0  -0.1552
  C  C274  1  0.989780  0.715890  0.200840  1.0  0.0137
  C  C275  1  0.934820  0.710160  0.173500  1.0  -0.1703
  C  C276  1  0.933380  0.707200  0.111090  1.0  -0.0284
  C  C277  1  0.984810  0.710700  0.078340  1.0  0.0816
  C  C278  1  0.039430  0.712300  0.106250  1.0  -0.023
  C  C279  1  0.877040  0.708810  0.207500  1.0  0.7191
  C  C280  1  0.104850  0.721550  0.196920  1.0  0.7479
  C  C281  1  0.043300  0.284000  0.832570  1.0  -0.1548
  C  C282  1  0.989780  0.284110  0.799160  1.0  0.0123
  C  C283  1  0.934820  0.289840  0.826500  1.0  -0.1702
  C  C284  1  0.933380  0.292800  0.888910  1.0  -0.0278
  C  C285  1  0.984810  0.289300  0.921660  1.0  0.0803
  C  C286  1  0.039430  0.287700  0.893750  1.0  -0.0234
  C  C287  1  0.877040  0.291190  0.792500  1.0  0.719
  C  C288  1  0.104850  0.278450  0.803080  1.0  0.7476
  N  N289  1  0.486470  0.206500  0.522480  1.0  -0.1624
  N  N290  1  0.513530  0.793500  0.522480  1.0  -0.1628
  N  N291  1  0.513530  0.206500  0.477520  1.0  -0.1648
  N  N292  1  0.486470  0.793500  0.477520  1.0  -0.164
  N  N293  1  0.522480  0.486470  0.206500  1.0  -0.1594
  N  N294  1  0.522480  0.513530  0.793500  1.0  -0.16
  N  N295  1  0.477520  0.513530  0.206500  1.0  -0.1598
  N  N296  1  0.477520  0.486470  0.793500  1.0  -0.1589
  N  N297  1  0.206500  0.522480  0.486470  1.0  -0.1606
  N  N298  1  0.793500  0.522480  0.513530  1.0  -0.1612
  N  N299  1  0.206500  0.477520  0.513530  1.0  -0.16
  N  N300  1  0.793500  0.477520  0.486470  1.0  -0.1593
  N  N301  1  0.706500  0.986470  0.022480  1.0  -0.1624
  N  N302  1  0.293500  0.013530  0.022480  1.0  -0.163
  N  N303  1  0.706500  0.013530  0.977520  1.0  -0.1651
  N  N304  1  0.293500  0.986470  0.977520  1.0  -0.1642
  N  N305  1  0.986470  0.022480  0.706500  1.0  -0.1601
  N  N306  1  0.013530  0.022480  0.293500  1.0  -0.1604
  N  N307  1  0.013530  0.977520  0.706500  1.0  -0.1591
  N  N308  1  0.986470  0.977520  0.293500  1.0  -0.1585
  N  N309  1  0.022480  0.706500  0.986470  1.0  -0.1595
  N  N310  1  0.022480  0.293500  0.013530  1.0  -0.1598
  N  N311  1  0.977520  0.706500  0.013530  1.0  -0.1601
  N  N312  1  0.977520  0.293500  0.986470  1.0  -0.1593
  O  O313  1  0.250190  0.239380  0.393440  1.0  -0.647
  O  O314  1  0.335950  0.207500  0.351910  1.0  -0.646
  O  O315  1  0.322530  0.194170  0.669200  1.0  -0.6477
  O  O316  1  0.238300  0.223190  0.621590  1.0  -0.6523
  O  O317  1  0.749810  0.760620  0.393440  1.0  -0.6476
  O  O318  1  0.664050  0.792500  0.351910  1.0  -0.6457
  O  O319  1  0.677470  0.805830  0.669200  1.0  -0.6459
  O  O320  1  0.761700  0.776810  0.621590  1.0  -0.6517
  O  O321  1  0.749810  0.239380  0.606560  1.0  -0.6478
  O  O322  1  0.664050  0.207500  0.648090  1.0  -0.6444
  O  O323  1  0.677470  0.194170  0.330800  1.0  -0.6454
  O  O324  1  0.761700  0.223190  0.378410  1.0  -0.6523
  O  O325  1  0.250190  0.760620  0.606560  1.0  -0.6473
  O  O326  1  0.335950  0.792500  0.648090  1.0  -0.6452
  O  O327  1  0.322530  0.805830  0.330800  1.0  -0.6467
  O  O328  1  0.238300  0.776810  0.378410  1.0  -0.6524
  O  O329  1  0.393440  0.250190  0.239380  1.0  -0.6479
  O  O330  1  0.351910  0.335950  0.207500  1.0  -0.6449
  O  O331  1  0.669200  0.322530  0.194170  1.0  -0.6471
  O  O332  1  0.621590  0.238300  0.223190  1.0  -0.6531
  O  O333  1  0.393440  0.749810  0.760620  1.0  -0.6467
  O  O334  1  0.351910  0.664050  0.792500  1.0  -0.6455
  O  O335  1  0.669200  0.677470  0.805830  1.0  -0.6462
  O  O336  1  0.621590  0.761700  0.776810  1.0  -0.6536
  O  O337  1  0.606560  0.749810  0.239380  1.0  -0.6472
  O  O338  1  0.648090  0.664050  0.207500  1.0  -0.6456
  O  O339  1  0.330800  0.677470  0.194170  1.0  -0.6463
  O  O340  1  0.378410  0.761700  0.223190  1.0  -0.6522
  O  O341  1  0.606560  0.250190  0.760620  1.0  -0.6469
  O  O342  1  0.648090  0.335950  0.792500  1.0  -0.646
  O  O343  1  0.330800  0.322530  0.805830  1.0  -0.6461
  O  O344  1  0.378410  0.238300  0.776810  1.0  -0.6521
  O  O345  1  0.239380  0.393440  0.250190  1.0  -0.6452
  O  O346  1  0.207500  0.351910  0.335950  1.0  -0.648
  O  O347  1  0.194170  0.669200  0.322530  1.0  -0.6462
  O  O348  1  0.223190  0.621590  0.238300  1.0  -0.6519
  O  O349  1  0.760620  0.393440  0.749810  1.0  -0.6456
  O  O350  1  0.792500  0.351910  0.664050  1.0  -0.6463
  O  O351  1  0.805830  0.669200  0.677470  1.0  -0.6469
  O  O352  1  0.776810  0.621590  0.761700  1.0  -0.6537
  O  O353  1  0.239380  0.606560  0.749810  1.0  -0.6456
  O  O354  1  0.207500  0.648090  0.664050  1.0  -0.6466
  O  O355  1  0.194170  0.330800  0.677470  1.0  -0.6451
  O  O356  1  0.223190  0.378410  0.761700  1.0  -0.6525
  O  O357  1  0.760620  0.606560  0.250190  1.0  -0.645
  O  O358  1  0.792500  0.648090  0.335950  1.0  -0.6472
  O  O359  1  0.805830  0.330800  0.322530  1.0  -0.6459
  O  O360  1  0.776810  0.378410  0.238300  1.0  -0.6527
  O  O361  1  0.739380  0.750190  0.893440  1.0  -0.645
  O  O362  1  0.707500  0.835950  0.851910  1.0  -0.6465
  O  O363  1  0.694170  0.822530  0.169200  1.0  -0.6475
  O  O364  1  0.723190  0.738300  0.121590  1.0  -0.6509
  O  O365  1  0.260620  0.249810  0.893440  1.0  -0.6443
  O  O366  1  0.292500  0.164050  0.851910  1.0  -0.6471
  O  O367  1  0.305830  0.177470  0.169200  1.0  -0.648
  O  O368  1  0.276810  0.261700  0.121590  1.0  -0.6521
  O  O369  1  0.739380  0.249810  0.106560  1.0  -0.645
  O  O370  1  0.707500  0.164050  0.148090  1.0  -0.6462
  O  O371  1  0.694170  0.177470  0.830800  1.0  -0.6464
  O  O372  1  0.723190  0.261700  0.878410  1.0  -0.6509
  O  O373  1  0.260620  0.750190  0.106560  1.0  -0.6451
  O  O374  1  0.292500  0.835950  0.148090  1.0  -0.6457
  O  O375  1  0.305830  0.822530  0.830800  1.0  -0.6474
  O  O376  1  0.276810  0.738300  0.878410  1.0  -0.6518
  O  O377  1  0.750190  0.893440  0.739380  1.0  -0.6469
  O  O378  1  0.835950  0.851910  0.707500  1.0  -0.6473
  O  O379  1  0.822530  0.169200  0.694170  1.0  -0.6477
  O  O380  1  0.738300  0.121590  0.723190  1.0  -0.653
  O  O381  1  0.249810  0.893440  0.260620  1.0  -0.6471
  O  O382  1  0.164050  0.851910  0.292500  1.0  -0.6475
  O  O383  1  0.177470  0.169200  0.305830  1.0  -0.646
  O  O384  1  0.261700  0.121590  0.276810  1.0  -0.6526
  O  O385  1  0.249810  0.106560  0.739380  1.0  -0.6474
  O  O386  1  0.164050  0.148090  0.707500  1.0  -0.6478
  O  O387  1  0.177470  0.830800  0.694170  1.0  -0.645
  O  O388  1  0.261700  0.878410  0.723190  1.0  -0.6526
  O  O389  1  0.750190  0.106560  0.260620  1.0  -0.6466
  O  O390  1  0.835950  0.148090  0.292500  1.0  -0.6482
  O  O391  1  0.822530  0.830800  0.305830  1.0  -0.647
  O  O392  1  0.738300  0.878410  0.276810  1.0  -0.6523
  O  O393  1  0.893440  0.739380  0.750190  1.0  -0.648
  O  O394  1  0.851910  0.707500  0.835950  1.0  -0.6435
  O  O395  1  0.169200  0.694170  0.822530  1.0  -0.645
  O  O396  1  0.121590  0.723190  0.738300  1.0  -0.6535
  O  O397  1  0.893440  0.260620  0.249810  1.0  -0.648
  O  O398  1  0.851910  0.292500  0.164050  1.0  -0.6435
  O  O399  1  0.169200  0.305830  0.177470  1.0  -0.6452
  O  O400  1  0.121590  0.276810  0.261700  1.0  -0.6547
  O  O401  1  0.106560  0.739380  0.249810  1.0  -0.6487
  O  O402  1  0.148090  0.707500  0.164050  1.0  -0.6438
  O  O403  1  0.830800  0.694170  0.177470  1.0  -0.6447
  O  O404  1  0.878410  0.723190  0.261700  1.0  -0.653
  O  O405  1  0.106560  0.260620  0.750190  1.0  -0.6475
  O  O406  1  0.148090  0.292500  0.835950  1.0  -0.6444
  O  O407  1  0.830800  0.305830  0.822530  1.0  -0.6441
  O  O408  1  0.878410  0.276810  0.738300  1.0  -0.6528
  O  O409  1  0.238060  0.238060  0.761940  1.0  -1.0313
  O  O410  1  0.761940  0.761940  0.761940  1.0  -1.0307
  O  O411  1  0.761940  0.238060  0.238060  1.0  -1.031
  O  O412  1  0.238060  0.761940  0.238060  1.0  -1.0306
  O  O413  1  0.738060  0.738060  0.261940  1.0  -1.0313
  O  O414  1  0.261940  0.261940  0.261940  1.0  -1.0307
  O  O415  1  0.738060  0.261940  0.738060  1.0  -1.0306
  O  O416  1  0.261940  0.738060  0.738060  1.0  -1.031
