# generated using pymatgen
data_Mn3H9C24N3O13
_symmetry_space_group_name_H-M   'P 1'
_cell_length_a   22.47040000
_cell_length_b   22.47040000
_cell_length_c   22.47040000
_cell_angle_alpha   90.00000000
_cell_angle_beta   90.00000000
_cell_angle_gamma   90.00000000
_symmetry_Int_Tables_number   1
_chemical_formula_structural   Mn3H9C24N3O13
_chemical_formula_sum   'Mn24 H72 C192 N24 O104'
_cell_volume   11345.72911487
_cell_formula_units_Z   8
loop_
 _symmetry_equiv_pos_site_id
 _symmetry_equiv_pos_as_xyz
  1  'x, y, z'
loop_
 _atom_site_type_symbol
 _atom_site_label
 _atom_site_symmetry_multiplicity
 _atom_site_fract_x
 _atom_site_fract_y
 _atom_site_fract_z
 _atom_site_occupancy
 _atom_site_charge
  Mn  Mn1  1  0.176350  0.310400  0.240860  1.0  1.147
  Mn  Mn2  1  0.823650  0.689600  0.240860  1.0  1.1463
  Mn  Mn3  1  0.823650  0.310400  0.759140  1.0  1.1467
  Mn  Mn4  1  0.176350  0.689600  0.759140  1.0  1.1472
  Mn  Mn5  1  0.240860  0.176350  0.310400  1.0  1.145
  Mn  Mn6  1  0.240860  0.823650  0.689600  1.0  1.1456
  Mn  Mn7  1  0.759140  0.823650  0.310400  1.0  1.1463
  Mn  Mn8  1  0.759140  0.176350  0.689600  1.0  1.1463
  Mn  Mn9  1  0.310400  0.240860  0.176350  1.0  1.1466
  Mn  Mn10  1  0.689600  0.240860  0.823650  1.0  1.1465
  Mn  Mn11  1  0.310400  0.759140  0.823650  1.0  1.1469
  Mn  Mn12  1  0.689600  0.759140  0.176350  1.0  1.1476
  Mn  Mn13  1  0.810400  0.676350  0.740860  1.0  1.1462
  Mn  Mn14  1  0.189600  0.323650  0.740860  1.0  1.1473
  Mn  Mn15  1  0.810400  0.323650  0.259140  1.0  1.1468
  Mn  Mn16  1  0.189600  0.676350  0.259140  1.0  1.1472
  Mn  Mn17  1  0.676350  0.740860  0.810400  1.0  1.1461
  Mn  Mn18  1  0.323650  0.740860  0.189600  1.0  1.1467
  Mn  Mn19  1  0.323650  0.259140  0.810400  1.0  1.1467
  Mn  Mn20  1  0.676350  0.259140  0.189600  1.0  1.1475
  Mn  Mn21  1  0.740860  0.810400  0.676350  1.0  1.1455
  Mn  Mn22  1  0.740860  0.189600  0.323650  1.0  1.1454
  Mn  Mn23  1  0.259140  0.810400  0.323650  1.0  1.1464
  Mn  Mn24  1  0.259140  0.189600  0.676350  1.0  1.1468
  H  H25  1  0.240700  0.281200  0.992900  1.0  0.1307
  H  H26  1  0.083500  0.281600  0.074100  1.0  0.1293
  H  H27  1  0.091500  0.288800  0.896100  1.0  0.1501
  H  H28  1  0.759300  0.718800  0.992900  1.0  0.1308
  H  H29  1  0.916500  0.718400  0.074100  1.0  0.1295
  H  H30  1  0.908500  0.711200  0.896100  1.0  0.1496
  H  H31  1  0.759300  0.281200  0.007100  1.0  0.1315
  H  H32  1  0.916500  0.281600  0.925900  1.0  0.129
  H  H33  1  0.908500  0.288800  0.103900  1.0  0.1491
  H  H34  1  0.240700  0.718800  0.007100  1.0  0.131
  H  H35  1  0.083500  0.718400  0.925900  1.0  0.1292
  H  H36  1  0.091500  0.711200  0.103900  1.0  0.1495
  H  H37  1  0.992900  0.240700  0.281200  1.0  0.1323
  H  H38  1  0.074100  0.083500  0.281600  1.0  0.1284
  H  H39  1  0.896100  0.091500  0.288800  1.0  0.1495
  H  H40  1  0.992900  0.759300  0.718800  1.0  0.1323
  H  H41  1  0.074100  0.916500  0.718400  1.0  0.1289
  H  H42  1  0.896100  0.908500  0.711200  1.0  0.1494
  H  H43  1  0.007100  0.759300  0.281200  1.0  0.1327
  H  H44  1  0.925900  0.916500  0.281600  1.0  0.1282
  H  H45  1  0.103900  0.908500  0.288800  1.0  0.1485
  H  H46  1  0.007100  0.240700  0.718800  1.0  0.1324
  H  H47  1  0.925900  0.083500  0.718400  1.0  0.1283
  H  H48  1  0.103900  0.091500  0.711200  1.0  0.1484
  H  H49  1  0.281200  0.992900  0.240700  1.0  0.1318
  H  H50  1  0.281600  0.074100  0.083500  1.0  0.1283
  H  H51  1  0.288800  0.896100  0.091500  1.0  0.1485
  H  H52  1  0.718800  0.992900  0.759300  1.0  0.1312
  H  H53  1  0.718400  0.074100  0.916500  1.0  0.1287
  H  H54  1  0.711200  0.896100  0.908500  1.0  0.1489
  H  H55  1  0.281200  0.007100  0.759300  1.0  0.1313
  H  H56  1  0.281600  0.925900  0.916500  1.0  0.1285
  H  H57  1  0.288800  0.103900  0.908500  1.0  0.149
  H  H58  1  0.718800  0.007100  0.240700  1.0  0.1321
  H  H59  1  0.718400  0.925900  0.083500  1.0  0.1283
  H  H60  1  0.711200  0.103900  0.091500  1.0  0.1491
  H  H61  1  0.781200  0.740700  0.492900  1.0  0.1317
  H  H62  1  0.781600  0.583500  0.574100  1.0  0.1293
  H  H63  1  0.788800  0.591500  0.396100  1.0  0.1501
  H  H64  1  0.218800  0.259300  0.492900  1.0  0.1319
  H  H65  1  0.218400  0.416500  0.574100  1.0  0.1297
  H  H66  1  0.211200  0.408500  0.396100  1.0  0.1501
  H  H67  1  0.781200  0.259300  0.507100  1.0  0.1321
  H  H68  1  0.781600  0.416500  0.425900  1.0  0.1292
  H  H69  1  0.788800  0.408500  0.603900  1.0  0.1496
  H  H70  1  0.218800  0.740700  0.507100  1.0  0.1319
  H  H71  1  0.218400  0.583500  0.425900  1.0  0.1293
  H  H72  1  0.211200  0.591500  0.603900  1.0  0.1497
  H  H73  1  0.740700  0.492900  0.781200  1.0  0.1309
  H  H74  1  0.583500  0.574100  0.781600  1.0  0.1284
  H  H75  1  0.591500  0.396100  0.788800  1.0  0.1487
  H  H76  1  0.259300  0.492900  0.218800  1.0  0.131
  H  H77  1  0.416500  0.574100  0.218400  1.0  0.1284
  H  H78  1  0.408500  0.396100  0.211200  1.0  0.1482
  H  H79  1  0.259300  0.507100  0.781200  1.0  0.1314
  H  H80  1  0.416500  0.425900  0.781600  1.0  0.1283
  H  H81  1  0.408500  0.603900  0.788800  1.0  0.1484
  H  H82  1  0.740700  0.507100  0.218800  1.0  0.1306
  H  H83  1  0.583500  0.425900  0.218400  1.0  0.1281
  H  H84  1  0.591500  0.603900  0.211200  1.0  0.1492
  H  H85  1  0.492900  0.781200  0.740700  1.0  0.1323
  H  H86  1  0.574100  0.781600  0.583500  1.0  0.1284
  H  H87  1  0.396100  0.788800  0.591500  1.0  0.1493
  H  H88  1  0.492900  0.218800  0.259300  1.0  0.1316
  H  H89  1  0.574100  0.218400  0.416500  1.0  0.1289
  H  H90  1  0.396100  0.211200  0.408500  1.0  0.149
  H  H91  1  0.507100  0.781200  0.259300  1.0  0.1318
  H  H92  1  0.425900  0.781600  0.416500  1.0  0.1281
  H  H93  1  0.603900  0.788800  0.408500  1.0  0.1485
  H  H94  1  0.507100  0.218800  0.740700  1.0  0.132
  H  H95  1  0.425900  0.218400  0.583500  1.0  0.1282
  H  H96  1  0.603900  0.211200  0.591500  1.0  0.1483
  C  C97  1  0.206050  0.290900  0.878300  1.0  0.7495
  C  C98  1  0.195780  0.278950  0.104610  1.0  0.7801
  C  C99  1  0.166080  0.281100  0.042650  1.0  -0.1226
  C  C100  1  0.199370  0.282910  0.990680  1.0  0.0402
  C  C101  1  0.172260  0.287220  0.935680  1.0  -0.1396
  C  C102  1  0.105830  0.282100  0.039290  1.0  0.0343
  C  C103  1  0.110520  0.286900  0.932780  1.0  -0.0647
  C  C104  1  0.077020  0.283800  0.985040  1.0  0.1241
  C  C105  1  0.793950  0.709100  0.878300  1.0  0.7496
  C  C106  1  0.804220  0.721050  0.104610  1.0  0.7794
  C  C107  1  0.833920  0.718900  0.042650  1.0  -0.1222
  C  C108  1  0.800630  0.717090  0.990680  1.0  0.0394
  C  C109  1  0.827740  0.712780  0.935680  1.0  -0.1402
  C  C110  1  0.894170  0.717900  0.039290  1.0  0.0336
  C  C111  1  0.889480  0.713100  0.932780  1.0  -0.0648
  C  C112  1  0.922980  0.716200  0.985040  1.0  0.1249
  C  C113  1  0.793950  0.290900  0.121700  1.0  0.7489
  C  C114  1  0.804220  0.278950  0.895390  1.0  0.7789
  C  C115  1  0.833920  0.281100  0.957350  1.0  -0.1218
  C  C116  1  0.800630  0.282910  0.009320  1.0  0.0395
  C  C117  1  0.827740  0.287220  0.064320  1.0  -0.1399
  C  C118  1  0.894170  0.282100  0.960710  1.0  0.0331
  C  C119  1  0.889480  0.286900  0.067220  1.0  -0.0644
  C  C120  1  0.922980  0.283800  0.014960  1.0  0.131
  C  C121  1  0.206050  0.709100  0.121700  1.0  0.7497
  C  C122  1  0.195780  0.721050  0.895390  1.0  0.7791
  C  C123  1  0.166080  0.718900  0.957350  1.0  -0.1222
  C  C124  1  0.199370  0.717090  0.009320  1.0  0.0399
  C  C125  1  0.172260  0.712780  0.064320  1.0  -0.1394
  C  C126  1  0.105830  0.717900  0.960710  1.0  0.0339
  C  C127  1  0.110520  0.713100  0.067220  1.0  -0.0644
  C  C128  1  0.077020  0.716200  0.014960  1.0  0.1304
  C  C129  1  0.878300  0.206050  0.290900  1.0  0.7473
  C  C130  1  0.104610  0.195780  0.278950  1.0  0.7764
  C  C131  1  0.042650  0.166080  0.281100  1.0  -0.1225
  C  C132  1  0.990680  0.199370  0.282910  1.0  0.0395
  C  C133  1  0.935680  0.172260  0.287220  1.0  -0.1383
  C  C134  1  0.039290  0.105830  0.282100  1.0  0.0331
  C  C135  1  0.932780  0.110520  0.286900  1.0  -0.0621
  C  C136  1  0.985040  0.077020  0.283800  1.0  0.1228
  C  C137  1  0.878300  0.793950  0.709100  1.0  0.7474
  C  C138  1  0.104610  0.804220  0.721050  1.0  0.7759
  C  C139  1  0.042650  0.833920  0.718900  1.0  -0.1217
  C  C140  1  0.990680  0.800630  0.717090  1.0  0.0413
  C  C141  1  0.935680  0.827740  0.712780  1.0  -0.1384
  C  C142  1  0.039290  0.894170  0.717900  1.0  0.0338
  C  C143  1  0.932780  0.889480  0.713100  1.0  -0.0631
  C  C144  1  0.985040  0.922980  0.716200  1.0  0.1236
  C  C145  1  0.121700  0.793950  0.290900  1.0  0.746
  C  C146  1  0.895390  0.804220  0.278950  1.0  0.7772
  C  C147  1  0.957350  0.833920  0.281100  1.0  -0.1219
  C  C148  1  0.009320  0.800630  0.282910  1.0  0.0414
  C  C149  1  0.064320  0.827740  0.287220  1.0  -0.1377
  C  C150  1  0.960710  0.894170  0.282100  1.0  0.0358
  C  C151  1  0.067220  0.889480  0.286900  1.0  -0.0602
  C  C152  1  0.014960  0.922980  0.283800  1.0  0.1296
  C  C153  1  0.121700  0.206050  0.709100  1.0  0.7454
  C  C154  1  0.895390  0.195780  0.721050  1.0  0.7767
  C  C155  1  0.957350  0.166080  0.718900  1.0  -0.1219
  C  C156  1  0.009320  0.199370  0.717090  1.0  0.04
  C  C157  1  0.064320  0.172260  0.712780  1.0  -0.1379
  C  C158  1  0.960710  0.105830  0.717900  1.0  0.0357
  C  C159  1  0.067220  0.110520  0.713100  1.0  -0.0603
  C  C160  1  0.014960  0.077020  0.716200  1.0  0.1292
  C  C161  1  0.290900  0.878300  0.206050  1.0  0.7483
  C  C162  1  0.278950  0.104610  0.195780  1.0  0.7772
  C  C163  1  0.281100  0.042650  0.166080  1.0  -0.122
  C  C164  1  0.282910  0.990680  0.199370  1.0  0.0431
  C  C165  1  0.287220  0.935680  0.172260  1.0  -0.1384
  C  C166  1  0.282100  0.039290  0.105830  1.0  0.0332
  C  C167  1  0.286900  0.932780  0.110520  1.0  -0.0613
  C  C168  1  0.283800  0.985040  0.077020  1.0  0.1235
  C  C169  1  0.709100  0.878300  0.793950  1.0  0.7474
  C  C170  1  0.721050  0.104610  0.804220  1.0  0.7776
  C  C171  1  0.718900  0.042650  0.833920  1.0  -0.122
  C  C172  1  0.717090  0.990680  0.800630  1.0  0.0408
  C  C173  1  0.712780  0.935680  0.827740  1.0  -0.1393
  C  C174  1  0.717900  0.039290  0.894170  1.0  0.0332
  C  C175  1  0.713100  0.932780  0.889480  1.0  -0.0597
  C  C176  1  0.716200  0.985040  0.922980  1.0  0.1227
  C  C177  1  0.290900  0.121700  0.793950  1.0  0.7487
  C  C178  1  0.278950  0.895390  0.804220  1.0  0.7771
  C  C179  1  0.281100  0.957350  0.833920  1.0  -0.1223
  C  C180  1  0.282910  0.009320  0.800630  1.0  0.0404
  C  C181  1  0.287220  0.064320  0.827740  1.0  -0.1383
  C  C182  1  0.282100  0.960710  0.894170  1.0  0.0337
  C  C183  1  0.286900  0.067220  0.889480  1.0  -0.0603
  C  C184  1  0.283800  0.014960  0.922980  1.0  0.1282
  C  C185  1  0.709100  0.121700  0.206050  1.0  0.7474
  C  C186  1  0.721050  0.895390  0.195780  1.0  0.7769
  C  C187  1  0.718900  0.957350  0.166080  1.0  -0.1222
  C  C188  1  0.717090  0.009320  0.199370  1.0  0.0432
  C  C189  1  0.712780  0.064320  0.172260  1.0  -0.1389
  C  C190  1  0.717900  0.960710  0.105830  1.0  0.0338
  C  C191  1  0.713100  0.067220  0.110520  1.0  -0.0622
  C  C192  1  0.716200  0.014960  0.077020  1.0  0.1299
  C  C193  1  0.790900  0.706050  0.378300  1.0  0.7492
  C  C194  1  0.778950  0.695780  0.604610  1.0  0.7783
  C  C195  1  0.781100  0.666080  0.542650  1.0  -0.1224
  C  C196  1  0.782910  0.699370  0.490680  1.0  0.0394
  C  C197  1  0.787220  0.672260  0.435680  1.0  -0.1396
  C  C198  1  0.782100  0.605830  0.539290  1.0  0.0347
  C  C199  1  0.786900  0.610520  0.432780  1.0  -0.0652
  C  C200  1  0.783800  0.577020  0.485040  1.0  0.1233
  C  C201  1  0.209100  0.293950  0.378300  1.0  0.748
  C  C202  1  0.221050  0.304220  0.604610  1.0  0.7783
  C  C203  1  0.218900  0.333920  0.542650  1.0  -0.1222
  C  C204  1  0.217090  0.300630  0.490680  1.0  0.0418
  C  C205  1  0.212780  0.327740  0.435680  1.0  -0.1399
  C  C206  1  0.217900  0.394170  0.539290  1.0  0.0355
  C  C207  1  0.213100  0.389480  0.432780  1.0  -0.0643
  C  C208  1  0.216200  0.422980  0.485040  1.0  0.1242
  C  C209  1  0.790900  0.293950  0.621700  1.0  0.7492
  C  C210  1  0.778950  0.304220  0.395390  1.0  0.7774
  C  C211  1  0.781100  0.333920  0.457350  1.0  -0.1227
  C  C212  1  0.782910  0.300630  0.509320  1.0  0.0414
  C  C213  1  0.787220  0.327740  0.564320  1.0  -0.1391
  C  C214  1  0.782100  0.394170  0.460710  1.0  0.0352
  C  C215  1  0.786900  0.389480  0.567220  1.0  -0.0641
  C  C216  1  0.783800  0.422980  0.514960  1.0  0.1302
  C  C217  1  0.209100  0.706050  0.621700  1.0  0.7479
  C  C218  1  0.221050  0.695780  0.395390  1.0  0.7777
  C  C219  1  0.218900  0.666080  0.457350  1.0  -0.1217
  C  C220  1  0.217090  0.699370  0.509320  1.0  0.0403
  C  C221  1  0.212780  0.672260  0.564320  1.0  -0.14
  C  C222  1  0.217900  0.605830  0.460710  1.0  0.0342
  C  C223  1  0.213100  0.610520  0.567220  1.0  -0.0638
  C  C224  1  0.216200  0.577020  0.514960  1.0  0.1297
  C  C225  1  0.706050  0.378300  0.790900  1.0  0.7479
  C  C226  1  0.695780  0.604610  0.778950  1.0  0.7779
  C  C227  1  0.666080  0.542650  0.781100  1.0  -0.1222
  C  C228  1  0.699370  0.490680  0.782910  1.0  0.0395
  C  C229  1  0.672260  0.435680  0.787220  1.0  -0.1377
  C  C230  1  0.605830  0.539290  0.782100  1.0  0.0332
  C  C231  1  0.610520  0.432780  0.786900  1.0  -0.0619
  C  C232  1  0.577020  0.485040  0.783800  1.0  0.1241
  C  C233  1  0.293950  0.378300  0.209100  1.0  0.7475
  C  C234  1  0.304220  0.604610  0.221050  1.0  0.7773
  C  C235  1  0.333920  0.542650  0.218900  1.0  -0.1216
  C  C236  1  0.300630  0.490680  0.217090  1.0  0.0392
  C  C237  1  0.327740  0.435680  0.212780  1.0  -0.1385
  C  C238  1  0.394170  0.539290  0.217900  1.0  0.0333
  C  C239  1  0.389480  0.432780  0.213100  1.0  -0.0614
  C  C240  1  0.422980  0.485040  0.216200  1.0  0.1252
  C  C241  1  0.293950  0.621700  0.790900  1.0  0.7478
  C  C242  1  0.304220  0.395390  0.778950  1.0  0.7774
  C  C243  1  0.333920  0.457350  0.781100  1.0  -0.1218
  C  C244  1  0.300630  0.509320  0.782910  1.0  0.0391
  C  C245  1  0.327740  0.564320  0.787220  1.0  -0.1381
  C  C246  1  0.394170  0.460710  0.782100  1.0  0.0335
  C  C247  1  0.389480  0.567220  0.786900  1.0  -0.0631
  C  C248  1  0.422980  0.514960  0.783800  1.0  0.1308
  C  C249  1  0.706050  0.621700  0.209100  1.0  0.7477
  C  C250  1  0.695780  0.395390  0.221050  1.0  0.7773
  C  C251  1  0.666080  0.457350  0.218900  1.0  -0.1215
  C  C252  1  0.699370  0.509320  0.217090  1.0  0.04
  C  C253  1  0.672260  0.564320  0.212780  1.0  -0.1375
  C  C254  1  0.605830  0.460710  0.217900  1.0  0.0342
  C  C255  1  0.610520  0.567220  0.213100  1.0  -0.0622
  C  C256  1  0.577020  0.514960  0.216200  1.0  0.1301
  C  C257  1  0.378300  0.790900  0.706050  1.0  0.7484
  C  C258  1  0.604610  0.778950  0.695780  1.0  0.7769
  C  C259  1  0.542650  0.781100  0.666080  1.0  -0.1227
  C  C260  1  0.490680  0.782910  0.699370  1.0  0.0433
  C  C261  1  0.435680  0.787220  0.672260  1.0  -0.139
  C  C262  1  0.539290  0.782100  0.605830  1.0  0.0324
  C  C263  1  0.432780  0.786900  0.610520  1.0  -0.0623
  C  C264  1  0.485040  0.783800  0.577020  1.0  0.1232
  C  C265  1  0.378300  0.209100  0.293950  1.0  0.7489
  C  C266  1  0.604610  0.221050  0.304220  1.0  0.7773
  C  C267  1  0.542650  0.218900  0.333920  1.0  -0.1221
  C  C268  1  0.490680  0.217090  0.300630  1.0  0.0411
  C  C269  1  0.435680  0.212780  0.327740  1.0  -0.1393
  C  C270  1  0.539290  0.217900  0.394170  1.0  0.0323
  C  C271  1  0.432780  0.213100  0.389480  1.0  -0.0609
  C  C272  1  0.485040  0.216200  0.422980  1.0  0.122
  C  C273  1  0.621700  0.790900  0.293950  1.0  0.7471
  C  C274  1  0.395390  0.778950  0.304220  1.0  0.7782
  C  C275  1  0.457350  0.781100  0.333920  1.0  -0.1219
  C  C276  1  0.509320  0.782910  0.300630  1.0  0.0409
  C  C277  1  0.564320  0.787220  0.327740  1.0  -0.1386
  C  C278  1  0.460710  0.782100  0.394170  1.0  0.0347
  C  C279  1  0.567220  0.786900  0.389480  1.0  -0.0585
  C  C280  1  0.514960  0.783800  0.422980  1.0  0.128
  C  C281  1  0.621700  0.209100  0.706050  1.0  0.747
  C  C282  1  0.395390  0.221050  0.695780  1.0  0.778
  C  C283  1  0.457350  0.218900  0.666080  1.0  -0.1221
  C  C284  1  0.509320  0.217090  0.699370  1.0  0.0433
  C  C285  1  0.564320  0.212780  0.672260  1.0  -0.1384
  C  C286  1  0.460710  0.217900  0.605830  1.0  0.0344
  C  C287  1  0.567220  0.213100  0.610520  1.0  -0.0599
  C  C288  1  0.514960  0.216200  0.577020  1.0  0.1293
  N  N289  1  0.013730  0.282900  0.977320  1.0  -0.1383
  N  N290  1  0.986270  0.717100  0.977320  1.0  -0.1391
  N  N291  1  0.986270  0.282900  0.022680  1.0  -0.1391
  N  N292  1  0.013730  0.717100  0.022680  1.0  -0.1384
  N  N293  1  0.977320  0.013730  0.282900  1.0  -0.1378
  N  N294  1  0.977320  0.986270  0.717100  1.0  -0.1376
  N  N295  1  0.022680  0.986270  0.282900  1.0  -0.1389
  N  N296  1  0.022680  0.013730  0.717100  1.0  -0.1387
  N  N297  1  0.282900  0.977320  0.013730  1.0  -0.137
  N  N298  1  0.717100  0.977320  0.986270  1.0  -0.1372
  N  N299  1  0.282900  0.022680  0.986270  1.0  -0.1377
  N  N300  1  0.717100  0.022680  0.013730  1.0  -0.1379
  N  N301  1  0.782900  0.513730  0.477320  1.0  -0.1399
  N  N302  1  0.217100  0.486270  0.477320  1.0  -0.1398
  N  N303  1  0.782900  0.486270  0.522680  1.0  -0.1397
  N  N304  1  0.217100  0.513730  0.522680  1.0  -0.1394
  N  N305  1  0.513730  0.477320  0.782900  1.0  -0.137
  N  N306  1  0.486270  0.477320  0.217100  1.0  -0.1377
  N  N307  1  0.486270  0.522680  0.782900  1.0  -0.1384
  N  N308  1  0.513730  0.522680  0.217100  1.0  -0.1373
  N  N309  1  0.477320  0.782900  0.513730  1.0  -0.1366
  N  N310  1  0.477320  0.217100  0.486270  1.0  -0.1368
  N  N311  1  0.522680  0.782900  0.486270  1.0  -0.1377
  N  N312  1  0.522680  0.217100  0.513730  1.0  -0.1378
  O  O313  1  0.175090  0.300770  0.831910  1.0  -0.6101
  O  O314  1  0.162000  0.288840  0.147260  1.0  -0.6425
  O  O315  1  0.249850  0.266950  0.105130  1.0  -0.6449
  O  O316  1  0.261090  0.282130  0.880580  1.0  -0.6052
  O  O317  1  0.824910  0.699230  0.831910  1.0  -0.6116
  O  O318  1  0.838000  0.711160  0.147260  1.0  -0.6424
  O  O319  1  0.750150  0.733050  0.105130  1.0  -0.6467
  O  O320  1  0.738910  0.717870  0.880580  1.0  -0.6071
  O  O321  1  0.824910  0.300770  0.168090  1.0  -0.6104
  O  O322  1  0.838000  0.288840  0.852740  1.0  -0.6423
  O  O323  1  0.750150  0.266950  0.894870  1.0  -0.6468
  O  O324  1  0.738910  0.282130  0.119420  1.0  -0.6073
  O  O325  1  0.175090  0.699230  0.168090  1.0  -0.6111
  O  O326  1  0.162000  0.711160  0.852740  1.0  -0.6419
  O  O327  1  0.249850  0.733050  0.894870  1.0  -0.645
  O  O328  1  0.261090  0.717870  0.119420  1.0  -0.6053
  O  O329  1  0.831910  0.175090  0.300770  1.0  -0.6103
  O  O330  1  0.147260  0.162000  0.288840  1.0  -0.6431
  O  O331  1  0.105130  0.249850  0.266950  1.0  -0.6444
  O  O332  1  0.880580  0.261090  0.282130  1.0  -0.6011
  O  O333  1  0.831910  0.824910  0.699230  1.0  -0.6096
  O  O334  1  0.147260  0.838000  0.711160  1.0  -0.6426
  O  O335  1  0.105130  0.750150  0.733050  1.0  -0.6452
  O  O336  1  0.880580  0.738910  0.717870  1.0  -0.6039
  O  O337  1  0.168090  0.824910  0.300770  1.0  -0.6099
  O  O338  1  0.852740  0.838000  0.288840  1.0  -0.6414
  O  O339  1  0.894870  0.750150  0.266950  1.0  -0.6448
  O  O340  1  0.119420  0.738910  0.282130  1.0  -0.6057
  O  O341  1  0.168090  0.175090  0.699230  1.0  -0.61
  O  O342  1  0.852740  0.162000  0.711160  1.0  -0.6415
  O  O343  1  0.894870  0.249850  0.733050  1.0  -0.6426
  O  O344  1  0.119420  0.261090  0.717870  1.0  -0.6044
  O  O345  1  0.300770  0.831910  0.175090  1.0  -0.6101
  O  O346  1  0.288840  0.147260  0.162000  1.0  -0.6416
  O  O347  1  0.266950  0.105130  0.249850  1.0  -0.6414
  O  O348  1  0.282130  0.880580  0.261090  1.0  -0.6052
  O  O349  1  0.699230  0.831910  0.824910  1.0  -0.6122
  O  O350  1  0.711160  0.147260  0.838000  1.0  -0.6427
  O  O351  1  0.733050  0.105130  0.750150  1.0  -0.6415
  O  O352  1  0.717870  0.880580  0.738910  1.0  -0.6049
  O  O353  1  0.300770  0.168090  0.824910  1.0  -0.6108
  O  O354  1  0.288840  0.852740  0.838000  1.0  -0.6426
  O  O355  1  0.266950  0.894870  0.750150  1.0  -0.6413
  O  O356  1  0.282130  0.119420  0.738910  1.0  -0.6053
  O  O357  1  0.699230  0.168090  0.175090  1.0  -0.6118
  O  O358  1  0.711160  0.852740  0.162000  1.0  -0.6421
  O  O359  1  0.733050  0.894870  0.249850  1.0  -0.642
  O  O360  1  0.717870  0.119420  0.261090  1.0  -0.6052
  O  O361  1  0.800770  0.675090  0.331910  1.0  -0.6115
  O  O362  1  0.788840  0.662000  0.647260  1.0  -0.6428
  O  O363  1  0.766950  0.749850  0.605130  1.0  -0.6391
  O  O364  1  0.782130  0.761090  0.380580  1.0  -0.6014
  O  O365  1  0.199230  0.324910  0.331910  1.0  -0.6118
  O  O366  1  0.211160  0.338000  0.647260  1.0  -0.6426
  O  O367  1  0.233050  0.250150  0.605130  1.0  -0.6411
  O  O368  1  0.217870  0.238910  0.380580  1.0  -0.6027
  O  O369  1  0.800770  0.324910  0.668090  1.0  -0.6108
  O  O370  1  0.788840  0.338000  0.352740  1.0  -0.6416
  O  O371  1  0.766950  0.250150  0.394870  1.0  -0.6406
  O  O372  1  0.782130  0.238910  0.619420  1.0  -0.6045
  O  O373  1  0.199230  0.675090  0.668090  1.0  -0.6119
  O  O374  1  0.211160  0.662000  0.352740  1.0  -0.643
  O  O375  1  0.233050  0.749850  0.394870  1.0  -0.6394
  O  O376  1  0.217870  0.761090  0.619420  1.0  -0.6019
  O  O377  1  0.675090  0.331910  0.800770  1.0  -0.6114
  O  O378  1  0.662000  0.647260  0.788840  1.0  -0.644
  O  O379  1  0.749850  0.605130  0.766950  1.0  -0.6454
  O  O380  1  0.761090  0.380580  0.782130  1.0  -0.6058
  O  O381  1  0.324910  0.331910  0.199230  1.0  -0.6107
  O  O382  1  0.338000  0.647260  0.211160  1.0  -0.6441
  O  O383  1  0.250150  0.605130  0.233050  1.0  -0.6467
  O  O384  1  0.238910  0.380580  0.217870  1.0  -0.6085
  O  O385  1  0.324910  0.668090  0.800770  1.0  -0.6112
  O  O386  1  0.338000  0.352740  0.788840  1.0  -0.6443
  O  O387  1  0.250150  0.394870  0.766950  1.0  -0.6471
  O  O388  1  0.238910  0.619420  0.782130  1.0  -0.6086
  O  O389  1  0.675090  0.668090  0.199230  1.0  -0.6115
  O  O390  1  0.662000  0.352740  0.211160  1.0  -0.6441
  O  O391  1  0.749850  0.394870  0.233050  1.0  -0.6448
  O  O392  1  0.761090  0.619420  0.217870  1.0  -0.6068
  O  O393  1  0.331910  0.800770  0.675090  1.0  -0.6079
  O  O394  1  0.647260  0.788840  0.662000  1.0  -0.6404
  O  O395  1  0.605130  0.766950  0.749850  1.0  -0.6435
  O  O396  1  0.380580  0.782130  0.761090  1.0  -0.6036
  O  O397  1  0.331910  0.199230  0.324910  1.0  -0.6095
  O  O398  1  0.647260  0.211160  0.338000  1.0  -0.641
  O  O399  1  0.605130  0.233050  0.250150  1.0  -0.6434
  O  O400  1  0.380580  0.217870  0.238910  1.0  -0.6039
  O  O401  1  0.668090  0.800770  0.324910  1.0  -0.6087
  O  O402  1  0.352740  0.788840  0.338000  1.0  -0.6399
  O  O403  1  0.394870  0.766950  0.250150  1.0  -0.6427
  O  O404  1  0.619420  0.782130  0.238910  1.0  -0.606
  O  O405  1  0.668090  0.199230  0.675090  1.0  -0.609
  O  O406  1  0.352740  0.211160  0.662000  1.0  -0.6386
  O  O407  1  0.394870  0.233050  0.749850  1.0  -0.6432
  O  O408  1  0.619420  0.217870  0.761090  1.0  -0.6061
  O  O409  1  0.238170  0.238170  0.238170  1.0  -0.9606
  O  O410  1  0.761830  0.761830  0.238170  1.0  -0.9614
  O  O411  1  0.761830  0.238170  0.761830  1.0  -0.9612
  O  O412  1  0.238170  0.761830  0.761830  1.0  -0.961
  O  O413  1  0.738170  0.738170  0.738170  1.0  -0.9606
  O  O414  1  0.261830  0.261830  0.738170  1.0  -0.9614
  O  O415  1  0.738170  0.261830  0.261830  1.0  -0.961
  O  O416  1  0.261830  0.738170  0.261830  1.0  -0.9612
