# generated using pymatgen
data_Ni3H9C24N3O13
_symmetry_space_group_name_H-M   'P 1'
_cell_length_a   22.11520000
_cell_length_b   22.11520000
_cell_length_c   22.11520000
_cell_angle_alpha   90.00000000
_cell_angle_beta   90.00000000
_cell_angle_gamma   90.00000000
_symmetry_Int_Tables_number   1
_chemical_formula_structural   Ni3H9C24N3O13
_chemical_formula_sum   'Ni24 H72 C192 N24 O104'
_cell_volume   10816.14781746
_cell_formula_units_Z   8
loop_
 _symmetry_equiv_pos_site_id
 _symmetry_equiv_pos_as_xyz
  1  'x, y, z'
loop_
 _atom_site_type_symbol
 _atom_site_label
 _atom_site_symmetry_multiplicity
 _atom_site_fract_x
 _atom_site_fract_y
 _atom_site_fract_z
 _atom_site_occupancy
 _atom_site_charge
  Ni  Ni1  1  0.239450  0.306660  0.177720  1.0  0.9197
  Ni  Ni2  1  0.760550  0.693340  0.177720  1.0  0.9168
  Ni  Ni3  1  0.760550  0.306660  0.822280  1.0  0.9186
  Ni  Ni4  1  0.239450  0.693340  0.822280  1.0  0.9156
  Ni  Ni5  1  0.177720  0.239450  0.306660  1.0  0.9163
  Ni  Ni6  1  0.177720  0.760550  0.693340  1.0  0.9182
  Ni  Ni7  1  0.822280  0.760550  0.306660  1.0  0.9165
  Ni  Ni8  1  0.822280  0.239450  0.693340  1.0  0.9169
  Ni  Ni9  1  0.306660  0.177720  0.239450  1.0  0.917
  Ni  Ni10  1  0.693340  0.177720  0.760550  1.0  0.9179
  Ni  Ni11  1  0.306660  0.822280  0.760550  1.0  0.9203
  Ni  Ni12  1  0.693340  0.822280  0.239450  1.0  0.9205
  Ni  Ni13  1  0.806660  0.739450  0.677720  1.0  0.9177
  Ni  Ni14  1  0.193340  0.260550  0.677720  1.0  0.9185
  Ni  Ni15  1  0.806660  0.260550  0.322280  1.0  0.9169
  Ni  Ni16  1  0.193340  0.739450  0.322280  1.0  0.9169
  Ni  Ni17  1  0.739450  0.677720  0.806660  1.0  0.9153
  Ni  Ni18  1  0.260550  0.677720  0.193340  1.0  0.9162
  Ni  Ni19  1  0.260550  0.322280  0.806660  1.0  0.9183
  Ni  Ni20  1  0.739450  0.322280  0.193340  1.0  0.9194
  Ni  Ni21  1  0.677720  0.806660  0.739450  1.0  0.9205
  Ni  Ni22  1  0.677720  0.193340  0.260550  1.0  0.9181
  Ni  Ni23  1  0.322280  0.806660  0.260550  1.0  0.9198
  Ni  Ni24  1  0.322280  0.193340  0.739450  1.0  0.9166
  H  H25  1  0.198500  0.394200  0.408300  1.0  0.1603
  H  H26  1  0.212000  0.574900  0.415900  1.0  0.1498
  H  H27  1  0.220800  0.491600  0.256000  1.0  0.1507
  H  H28  1  0.801500  0.605800  0.408300  1.0  0.1597
  H  H29  1  0.788000  0.425100  0.415900  1.0  0.1501
  H  H30  1  0.779200  0.508400  0.256000  1.0  0.1507
  H  H31  1  0.801500  0.394200  0.591700  1.0  0.1595
  H  H32  1  0.788000  0.574900  0.584100  1.0  0.1497
  H  H33  1  0.779200  0.491600  0.744000  1.0  0.1506
  H  H34  1  0.198500  0.605800  0.591700  1.0  0.1599
  H  H35  1  0.212000  0.425100  0.584100  1.0  0.1497
  H  H36  1  0.220800  0.508400  0.744000  1.0  0.1509
  H  H37  1  0.408300  0.198500  0.394200  1.0  0.1602
  H  H38  1  0.415900  0.212000  0.574900  1.0  0.1512
  H  H39  1  0.256000  0.220800  0.491600  1.0  0.1502
  H  H40  1  0.408300  0.801500  0.605800  1.0  0.1605
  H  H41  1  0.415900  0.788000  0.425100  1.0  0.1506
  H  H42  1  0.256000  0.779200  0.508400  1.0  0.1507
  H  H43  1  0.591700  0.801500  0.394200  1.0  0.1605
  H  H44  1  0.584100  0.788000  0.574900  1.0  0.1508
  H  H45  1  0.744000  0.779200  0.491600  1.0  0.1509
  H  H46  1  0.591700  0.198500  0.605800  1.0  0.1607
  H  H47  1  0.584100  0.212000  0.425100  1.0  0.1506
  H  H48  1  0.744000  0.220800  0.508400  1.0  0.1513
  H  H49  1  0.394200  0.408300  0.198500  1.0  0.1605
  H  H50  1  0.574900  0.415900  0.212000  1.0  0.1503
  H  H51  1  0.491600  0.256000  0.220800  1.0  0.1514
  H  H52  1  0.605800  0.408300  0.801500  1.0  0.1602
  H  H53  1  0.425100  0.415900  0.788000  1.0  0.1496
  H  H54  1  0.508400  0.256000  0.779200  1.0  0.1513
  H  H55  1  0.394200  0.591700  0.801500  1.0  0.1608
  H  H56  1  0.574900  0.584100  0.788000  1.0  0.15
  H  H57  1  0.491600  0.744000  0.779200  1.0  0.1515
  H  H58  1  0.605800  0.591700  0.198500  1.0  0.1601
  H  H59  1  0.425100  0.584100  0.212000  1.0  0.1495
  H  H60  1  0.508400  0.744000  0.220800  1.0  0.1511
  H  H61  1  0.894200  0.698500  0.908300  1.0  0.1604
  H  H62  1  0.074900  0.712000  0.915900  1.0  0.1504
  H  H63  1  0.991600  0.720800  0.756000  1.0  0.1509
  H  H64  1  0.105800  0.301500  0.908300  1.0  0.1603
  H  H65  1  0.925100  0.288000  0.915900  1.0  0.1494
  H  H66  1  0.008400  0.279200  0.756000  1.0  0.1505
  H  H67  1  0.894200  0.301500  0.091700  1.0  0.1603
  H  H68  1  0.074900  0.288000  0.084100  1.0  0.1497
  H  H69  1  0.991600  0.279200  0.244000  1.0  0.1507
  H  H70  1  0.105800  0.698500  0.091700  1.0  0.1598
  H  H71  1  0.925100  0.712000  0.084100  1.0  0.1495
  H  H72  1  0.008400  0.720800  0.244000  1.0  0.1505
  H  H73  1  0.698500  0.908300  0.894200  1.0  0.1603
  H  H74  1  0.712000  0.915900  0.074900  1.0  0.1507
  H  H75  1  0.720800  0.756000  0.991600  1.0  0.1513
  H  H76  1  0.301500  0.908300  0.105800  1.0  0.1605
  H  H77  1  0.288000  0.915900  0.925100  1.0  0.1502
  H  H78  1  0.279200  0.756000  0.008400  1.0  0.1517
  H  H79  1  0.301500  0.091700  0.894200  1.0  0.1604
  H  H80  1  0.288000  0.084100  0.074900  1.0  0.1508
  H  H81  1  0.279200  0.244000  0.991600  1.0  0.1512
  H  H82  1  0.698500  0.091700  0.105800  1.0  0.1612
  H  H83  1  0.712000  0.084100  0.925100  1.0  0.1501
  H  H84  1  0.720800  0.244000  0.008400  1.0  0.1515
  H  H85  1  0.908300  0.894200  0.698500  1.0  0.1597
  H  H86  1  0.915900  0.074900  0.712000  1.0  0.1502
  H  H87  1  0.756000  0.991600  0.720800  1.0  0.1503
  H  H88  1  0.908300  0.105800  0.301500  1.0  0.1598
  H  H89  1  0.915900  0.925100  0.288000  1.0  0.1506
  H  H90  1  0.756000  0.008400  0.279200  1.0  0.1506
  H  H91  1  0.091700  0.894200  0.301500  1.0  0.1601
  H  H92  1  0.084100  0.074900  0.288000  1.0  0.1501
  H  H93  1  0.244000  0.991600  0.279200  1.0  0.1511
  H  H94  1  0.091700  0.105800  0.698500  1.0  0.1603
  H  H95  1  0.084100  0.925100  0.712000  1.0  0.1499
  H  H96  1  0.244000  0.008400  0.720800  1.0  0.151
  C  C97  1  0.221400  0.604780  0.302590  1.0  0.7726
  C  C98  1  0.207400  0.374070  0.291700  1.0  0.7748
  C  C99  1  0.202400  0.431230  0.388800  1.0  -0.0409
  C  C100  1  0.210000  0.539660  0.393090  1.0  0.0194
  C  C101  1  0.208200  0.433810  0.325900  1.0  -0.1285
  C  C102  1  0.202700  0.484200  0.421460  1.0  0.0859
  C  C103  1  0.214100  0.542360  0.331220  1.0  -0.1225
  C  C104  1  0.215300  0.489780  0.297650  1.0  0.0478
  C  C105  1  0.778600  0.395220  0.302590  1.0  0.7717
  C  C106  1  0.792600  0.625930  0.291700  1.0  0.7762
  C  C107  1  0.797600  0.568770  0.388800  1.0  -0.0419
  C  C108  1  0.790000  0.460340  0.393090  1.0  0.0193
  C  C109  1  0.791800  0.566190  0.325900  1.0  -0.1278
  C  C110  1  0.797300  0.515800  0.421460  1.0  0.0847
  C  C111  1  0.785900  0.457640  0.331220  1.0  -0.1227
  C  C112  1  0.784700  0.510220  0.297650  1.0  0.0478
  C  C113  1  0.778600  0.604780  0.697410  1.0  0.7724
  C  C114  1  0.792600  0.374070  0.708300  1.0  0.7759
  C  C115  1  0.797600  0.431230  0.611200  1.0  -0.0428
  C  C116  1  0.790000  0.539660  0.606910  1.0  0.0199
  C  C117  1  0.791800  0.433810  0.674100  1.0  -0.1274
  C  C118  1  0.797300  0.484200  0.578540  1.0  0.0961
  C  C119  1  0.785900  0.542360  0.668780  1.0  -0.1226
  C  C120  1  0.784700  0.489780  0.702350  1.0  0.0508
  C  C121  1  0.221400  0.395220  0.697410  1.0  0.772
  C  C122  1  0.207400  0.625930  0.708300  1.0  0.7758
  C  C123  1  0.202400  0.568770  0.611200  1.0  -0.0427
  C  C124  1  0.210000  0.460340  0.606910  1.0  0.0201
  C  C125  1  0.208200  0.566190  0.674100  1.0  -0.127
  C  C126  1  0.202700  0.515800  0.578540  1.0  0.097
  C  C127  1  0.214100  0.457640  0.668780  1.0  -0.1218
  C  C128  1  0.215300  0.510220  0.702350  1.0  0.0507
  C  C129  1  0.302590  0.221400  0.604780  1.0  0.7727
  C  C130  1  0.291700  0.207400  0.374070  1.0  0.7774
  C  C131  1  0.388800  0.202400  0.431230  1.0  -0.047
  C  C132  1  0.393090  0.210000  0.539660  1.0  0.0191
  C  C133  1  0.325900  0.208200  0.433810  1.0  -0.1285
  C  C134  1  0.421460  0.202700  0.484200  1.0  0.088
  C  C135  1  0.331220  0.214100  0.542360  1.0  -0.123
  C  C136  1  0.297650  0.215300  0.489780  1.0  0.0442
  C  C137  1  0.302590  0.778600  0.395220  1.0  0.7722
  C  C138  1  0.291700  0.792600  0.625930  1.0  0.777
  C  C139  1  0.388800  0.797600  0.568770  1.0  -0.0463
  C  C140  1  0.393090  0.790000  0.460340  1.0  0.0194
  C  C141  1  0.325900  0.791800  0.566190  1.0  -0.1282
  C  C142  1  0.421460  0.797300  0.515800  1.0  0.0882
  C  C143  1  0.331220  0.785900  0.457640  1.0  -0.1242
  C  C144  1  0.297650  0.784700  0.510220  1.0  0.0444
  C  C145  1  0.697410  0.778600  0.604780  1.0  0.7723
  C  C146  1  0.708300  0.792600  0.374070  1.0  0.7767
  C  C147  1  0.611200  0.797600  0.431230  1.0  -0.0458
  C  C148  1  0.606910  0.790000  0.539660  1.0  0.02
  C  C149  1  0.674100  0.791800  0.433810  1.0  -0.1288
  C  C150  1  0.578540  0.797300  0.484200  1.0  0.0973
  C  C151  1  0.668780  0.785900  0.542360  1.0  -0.123
  C  C152  1  0.702350  0.784700  0.489780  1.0  0.0463
  C  C153  1  0.697410  0.221400  0.395220  1.0  0.7718
  C  C154  1  0.708300  0.207400  0.625930  1.0  0.7769
  C  C155  1  0.611200  0.202400  0.568770  1.0  -0.0462
  C  C156  1  0.606910  0.210000  0.460340  1.0  0.0203
  C  C157  1  0.674100  0.208200  0.566190  1.0  -0.1282
  C  C158  1  0.578540  0.202700  0.515800  1.0  0.097
  C  C159  1  0.668780  0.214100  0.457640  1.0  -0.1239
  C  C160  1  0.702350  0.215300  0.510220  1.0  0.0464
  C  C161  1  0.604780  0.302590  0.221400  1.0  0.7681
  C  C162  1  0.374070  0.291700  0.207400  1.0  0.774
  C  C163  1  0.431230  0.388800  0.202400  1.0  -0.0433
  C  C164  1  0.539660  0.393090  0.210000  1.0  0.0194
  C  C165  1  0.433810  0.325900  0.208200  1.0  -0.1277
  C  C166  1  0.484200  0.421460  0.202700  1.0  0.0879
  C  C167  1  0.542360  0.331220  0.214100  1.0  -0.122
  C  C168  1  0.489780  0.297650  0.215300  1.0  0.0482
  C  C169  1  0.395220  0.302590  0.778600  1.0  0.7691
  C  C170  1  0.625930  0.291700  0.792600  1.0  0.7727
  C  C171  1  0.568770  0.388800  0.797600  1.0  -0.0413
  C  C172  1  0.460340  0.393090  0.790000  1.0  0.02
  C  C173  1  0.566190  0.325900  0.791800  1.0  -0.1274
  C  C174  1  0.515800  0.421460  0.797300  1.0  0.0878
  C  C175  1  0.457640  0.331220  0.785900  1.0  -0.1226
  C  C176  1  0.510220  0.297650  0.784700  1.0  0.0489
  C  C177  1  0.604780  0.697410  0.778600  1.0  0.7681
  C  C178  1  0.374070  0.708300  0.792600  1.0  0.7742
  C  C179  1  0.431230  0.611200  0.797600  1.0  -0.0421
  C  C180  1  0.539660  0.606910  0.790000  1.0  0.0196
  C  C181  1  0.433810  0.674100  0.791800  1.0  -0.127
  C  C182  1  0.484200  0.578540  0.797300  1.0  0.096
  C  C183  1  0.542360  0.668780  0.785900  1.0  -0.1224
  C  C184  1  0.489780  0.702350  0.784700  1.0  0.0453
  C  C185  1  0.395220  0.697410  0.221400  1.0  0.7691
  C  C186  1  0.625930  0.708300  0.207400  1.0  0.773
  C  C187  1  0.568770  0.611200  0.202400  1.0  -0.0408
  C  C188  1  0.460340  0.606910  0.210000  1.0  0.0209
  C  C189  1  0.566190  0.674100  0.208200  1.0  -0.1275
  C  C190  1  0.515800  0.578540  0.202700  1.0  0.0954
  C  C191  1  0.457640  0.668780  0.214100  1.0  -0.1225
  C  C192  1  0.510220  0.702350  0.215300  1.0  0.0459
  C  C193  1  0.104780  0.721400  0.802590  1.0  0.7687
  C  C194  1  0.874070  0.707400  0.791700  1.0  0.7755
  C  C195  1  0.931230  0.702400  0.888800  1.0  -0.0422
  C  C196  1  0.039660  0.710000  0.893090  1.0  0.0176
  C  C197  1  0.933810  0.708200  0.825900  1.0  -0.1282
  C  C198  1  0.984200  0.702700  0.921460  1.0  0.0855
  C  C199  1  0.042360  0.714100  0.831220  1.0  -0.1226
  C  C200  1  0.989780  0.715300  0.797650  1.0  0.0481
  C  C201  1  0.895220  0.278600  0.802590  1.0  0.7696
  C  C202  1  0.125930  0.292600  0.791700  1.0  0.7742
  C  C203  1  0.068770  0.297600  0.888800  1.0  -0.0397
  C  C204  1  0.960340  0.290000  0.893090  1.0  0.0185
  C  C205  1  0.066190  0.291800  0.825900  1.0  -0.1286
  C  C206  1  0.015800  0.297300  0.921460  1.0  0.0848
  C  C207  1  0.957640  0.285900  0.831220  1.0  -0.1232
  C  C208  1  0.010220  0.284700  0.797650  1.0  0.0489
  C  C209  1  0.104780  0.278600  0.197410  1.0  0.7684
  C  C210  1  0.874070  0.292600  0.208300  1.0  0.7756
  C  C211  1  0.931230  0.297600  0.111200  1.0  -0.0426
  C  C212  1  0.039660  0.290000  0.106910  1.0  0.0184
  C  C213  1  0.933810  0.291800  0.174100  1.0  -0.1277
  C  C214  1  0.984200  0.297300  0.078540  1.0  0.0972
  C  C215  1  0.042360  0.285900  0.168780  1.0  -0.1224
  C  C216  1  0.989780  0.284700  0.202350  1.0  0.0508
  C  C217  1  0.895220  0.721400  0.197410  1.0  0.7696
  C  C218  1  0.125930  0.707400  0.208300  1.0  0.7745
  C  C219  1  0.068770  0.702400  0.111200  1.0  -0.0411
  C  C220  1  0.960340  0.710000  0.106910  1.0  0.0189
  C  C221  1  0.066190  0.708200  0.174100  1.0  -0.1277
  C  C222  1  0.015800  0.702700  0.078540  1.0  0.0962
  C  C223  1  0.957640  0.714100  0.168780  1.0  -0.1226
  C  C224  1  0.010220  0.715300  0.202350  1.0  0.0515
  C  C225  1  0.721400  0.802590  0.104780  1.0  0.7723
  C  C226  1  0.707400  0.791700  0.874070  1.0  0.7747
  C  C227  1  0.702400  0.888800  0.931230  1.0  -0.0456
  C  C228  1  0.710000  0.893090  0.039660  1.0  0.0212
  C  C229  1  0.708200  0.825900  0.933810  1.0  -0.1292
  C  C230  1  0.702700  0.921460  0.984200  1.0  0.088
  C  C231  1  0.714100  0.831220  0.042360  1.0  -0.1226
  C  C232  1  0.715300  0.797650  0.989780  1.0  0.048
  C  C233  1  0.278600  0.802590  0.895220  1.0  0.7714
  C  C234  1  0.292600  0.791700  0.125930  1.0  0.7753
  C  C235  1  0.297600  0.888800  0.068770  1.0  -0.0461
  C  C236  1  0.290000  0.893090  0.960340  1.0  0.0213
  C  C237  1  0.291800  0.825900  0.066190  1.0  -0.1283
  C  C238  1  0.297300  0.921460  0.015800  1.0  0.0874
  C  C239  1  0.285900  0.831220  0.957640  1.0  -0.1242
  C  C240  1  0.284700  0.797650  0.010220  1.0  0.0474
  C  C241  1  0.278600  0.197410  0.104780  1.0  0.7717
  C  C242  1  0.292600  0.208300  0.874070  1.0  0.7757
  C  C243  1  0.297600  0.111200  0.931230  1.0  -0.0461
  C  C244  1  0.290000  0.106910  0.039660  1.0  0.0217
  C  C245  1  0.291800  0.174100  0.933810  1.0  -0.1283
  C  C246  1  0.297300  0.078540  0.984200  1.0  0.0953
  C  C247  1  0.285900  0.168780  0.042360  1.0  -0.1232
  C  C248  1  0.284700  0.202350  0.989780  1.0  0.0448
  C  C249  1  0.721400  0.197410  0.895220  1.0  0.7716
  C  C250  1  0.707400  0.208300  0.125930  1.0  0.7748
  C  C251  1  0.702400  0.111200  0.068770  1.0  -0.0448
  C  C252  1  0.710000  0.106910  0.960340  1.0  0.0216
  C  C253  1  0.708200  0.174100  0.066190  1.0  -0.1282
  C  C254  1  0.702700  0.078540  0.015800  1.0  0.0957
  C  C255  1  0.714100  0.168780  0.957640  1.0  -0.1237
  C  C256  1  0.715300  0.202350  0.010220  1.0  0.0453
  C  C257  1  0.802590  0.104780  0.721400  1.0  0.7731
  C  C258  1  0.791700  0.874070  0.707400  1.0  0.7758
  C  C259  1  0.888800  0.931230  0.702400  1.0  -0.0434
  C  C260  1  0.893090  0.039660  0.710000  1.0  0.0188
  C  C261  1  0.825900  0.933810  0.708200  1.0  -0.1274
  C  C262  1  0.921460  0.984200  0.702700  1.0  0.0883
  C  C263  1  0.831220  0.042360  0.714100  1.0  -0.1222
  C  C264  1  0.797650  0.989780  0.715300  1.0  0.0446
  C  C265  1  0.802590  0.895220  0.278600  1.0  0.772
  C  C266  1  0.791700  0.125930  0.292600  1.0  0.7764
  C  C267  1  0.888800  0.068770  0.297600  1.0  -0.0442
  C  C268  1  0.893090  0.960340  0.290000  1.0  0.0189
  C  C269  1  0.825900  0.066190  0.291800  1.0  -0.1266
  C  C270  1  0.921460  0.015800  0.297300  1.0  0.0883
  C  C271  1  0.831220  0.957640  0.285900  1.0  -0.122
  C  C272  1  0.797650  0.010220  0.284700  1.0  0.0445
  C  C273  1  0.197410  0.104780  0.278600  1.0  0.7723
  C  C274  1  0.208300  0.874070  0.292600  1.0  0.7755
  C  C275  1  0.111200  0.931230  0.297600  1.0  -0.0426
  C  C276  1  0.106910  0.039660  0.290000  1.0  0.0198
  C  C277  1  0.174100  0.933810  0.291800  1.0  -0.127
  C  C278  1  0.078540  0.984200  0.297300  1.0  0.0976
  C  C279  1  0.168780  0.042360  0.285900  1.0  -0.1223
  C  C280  1  0.202350  0.989780  0.284700  1.0  0.0463
  C  C281  1  0.197410  0.895220  0.721400  1.0  0.7715
  C  C282  1  0.208300  0.125930  0.707400  1.0  0.776
  C  C283  1  0.111200  0.068770  0.702400  1.0  -0.0434
  C  C284  1  0.106910  0.960340  0.710000  1.0  0.0202
  C  C285  1  0.174100  0.066190  0.708200  1.0  -0.1269
  C  C286  1  0.078540  0.015800  0.702700  1.0  0.0969
  C  C287  1  0.168780  0.957640  0.714100  1.0  -0.1215
  C  C288  1  0.202350  0.010220  0.715300  1.0  0.0465
  N  N289  1  0.201200  0.477280  0.486780  1.0  -0.1185
  N  N290  1  0.798800  0.522720  0.486780  1.0  -0.12
  N  N291  1  0.798800  0.477280  0.513220  1.0  -0.1183
  N  N292  1  0.201200  0.522720  0.513220  1.0  -0.1199
  N  N293  1  0.486780  0.201200  0.477280  1.0  -0.1214
  N  N294  1  0.486780  0.798800  0.522720  1.0  -0.1186
  N  N295  1  0.513220  0.798800  0.477280  1.0  -0.1212
  N  N296  1  0.513220  0.201200  0.522720  1.0  -0.1189
  N  N297  1  0.477280  0.486780  0.201200  1.0  -0.1176
  N  N298  1  0.522720  0.486780  0.798800  1.0  -0.1197
  N  N299  1  0.477280  0.513220  0.798800  1.0  -0.1182
  N  N300  1  0.522720  0.513220  0.201200  1.0  -0.1206
  N  N301  1  0.977280  0.701200  0.986780  1.0  -0.1177
  N  N302  1  0.022720  0.298800  0.986780  1.0  -0.1194
  N  N303  1  0.977280  0.298800  0.013220  1.0  -0.117
  N  N304  1  0.022720  0.701200  0.013220  1.0  -0.1195
  N  N305  1  0.701200  0.986780  0.977280  1.0  -0.1211
  N  N306  1  0.298800  0.986780  0.022720  1.0  -0.1185
  N  N307  1  0.298800  0.013220  0.977280  1.0  -0.1222
  N  N308  1  0.701200  0.013220  0.022720  1.0  -0.1192
  N  N309  1  0.986780  0.977280  0.701200  1.0  -0.1187
  N  N310  1  0.986780  0.022720  0.298800  1.0  -0.1204
  N  N311  1  0.013220  0.977280  0.298800  1.0  -0.1187
  N  N312  1  0.013220  0.022720  0.701200  1.0  -0.1204
  O  O313  1  0.190030  0.329880  0.321300  1.0  -0.5856
  O  O314  1  0.205780  0.648170  0.335430  1.0  -0.5851
  O  O315  1  0.242090  0.605920  0.250070  1.0  -0.5874
  O  O316  1  0.222760  0.376450  0.238120  1.0  -0.5833
  O  O317  1  0.809970  0.670120  0.321300  1.0  -0.5848
  O  O318  1  0.794220  0.351830  0.335430  1.0  -0.5846
  O  O319  1  0.757910  0.394080  0.250070  1.0  -0.5875
  O  O320  1  0.777240  0.623550  0.238120  1.0  -0.5828
  O  O321  1  0.809970  0.329880  0.678700  1.0  -0.5845
  O  O322  1  0.794220  0.648170  0.664570  1.0  -0.5851
  O  O323  1  0.757910  0.605920  0.749930  1.0  -0.5873
  O  O324  1  0.777240  0.376450  0.761880  1.0  -0.5825
  O  O325  1  0.190030  0.670120  0.678700  1.0  -0.5849
  O  O326  1  0.205780  0.351830  0.664570  1.0  -0.5838
  O  O327  1  0.242090  0.394080  0.749930  1.0  -0.5863
  O  O328  1  0.222760  0.623550  0.761880  1.0  -0.5825
  O  O329  1  0.321300  0.190030  0.329880  1.0  -0.5866
  O  O330  1  0.335430  0.205780  0.648170  1.0  -0.584
  O  O331  1  0.250070  0.242090  0.605920  1.0  -0.5878
  O  O332  1  0.238120  0.222760  0.376450  1.0  -0.5854
  O  O333  1  0.321300  0.809970  0.670120  1.0  -0.5856
  O  O334  1  0.335430  0.794220  0.351830  1.0  -0.5829
  O  O335  1  0.250070  0.757910  0.394080  1.0  -0.5888
  O  O336  1  0.238120  0.777240  0.623550  1.0  -0.5851
  O  O337  1  0.678700  0.809970  0.329880  1.0  -0.5855
  O  O338  1  0.664570  0.794220  0.648170  1.0  -0.5822
  O  O339  1  0.749930  0.757910  0.605920  1.0  -0.5884
  O  O340  1  0.761880  0.777240  0.376450  1.0  -0.5846
  O  O341  1  0.678700  0.190030  0.670120  1.0  -0.5851
  O  O342  1  0.664570  0.205780  0.351830  1.0  -0.5823
  O  O343  1  0.749930  0.242090  0.394080  1.0  -0.5884
  O  O344  1  0.761880  0.222760  0.623550  1.0  -0.5847
  O  O345  1  0.329880  0.321300  0.190030  1.0  -0.5826
  O  O346  1  0.648170  0.335430  0.205780  1.0  -0.5827
  O  O347  1  0.605920  0.250070  0.242090  1.0  -0.5896
  O  O348  1  0.376450  0.238120  0.222760  1.0  -0.5859
  O  O349  1  0.670120  0.321300  0.809970  1.0  -0.5841
  O  O350  1  0.351830  0.335430  0.794220  1.0  -0.5819
  O  O351  1  0.394080  0.250070  0.757910  1.0  -0.5889
  O  O352  1  0.623550  0.238120  0.777240  1.0  -0.5858
  O  O353  1  0.329880  0.678700  0.809970  1.0  -0.5836
  O  O354  1  0.648170  0.664570  0.794220  1.0  -0.5837
  O  O355  1  0.605920  0.749930  0.757910  1.0  -0.5893
  O  O356  1  0.376450  0.761880  0.777240  1.0  -0.5857
  O  O357  1  0.670120  0.678700  0.190030  1.0  -0.5841
  O  O358  1  0.351830  0.664570  0.205780  1.0  -0.582
  O  O359  1  0.394080  0.749930  0.242090  1.0  -0.5893
  O  O360  1  0.623550  0.761880  0.222760  1.0  -0.5868
  O  O361  1  0.829880  0.690030  0.821300  1.0  -0.5825
  O  O362  1  0.148170  0.705780  0.835430  1.0  -0.5832
  O  O363  1  0.105920  0.742090  0.750070  1.0  -0.5889
  O  O364  1  0.876450  0.722760  0.738120  1.0  -0.5845
  O  O365  1  0.170120  0.309970  0.821300  1.0  -0.5833
  O  O366  1  0.851830  0.294220  0.835430  1.0  -0.5813
  O  O367  1  0.894080  0.257910  0.750070  1.0  -0.5888
  O  O368  1  0.123550  0.277240  0.738120  1.0  -0.5845
  O  O369  1  0.829880  0.309970  0.178700  1.0  -0.5825
  O  O370  1  0.148170  0.294220  0.164570  1.0  -0.5827
  O  O371  1  0.105920  0.257910  0.249930  1.0  -0.5886
  O  O372  1  0.876450  0.277240  0.261880  1.0  -0.5838
  O  O373  1  0.170120  0.690030  0.178700  1.0  -0.5834
  O  O374  1  0.851830  0.705780  0.164570  1.0  -0.582
  O  O375  1  0.894080  0.742090  0.249930  1.0  -0.5874
  O  O376  1  0.123550  0.722760  0.261880  1.0  -0.5847
  O  O377  1  0.690030  0.821300  0.829880  1.0  -0.585
  O  O378  1  0.705780  0.835430  0.148170  1.0  -0.583
  O  O379  1  0.742090  0.750070  0.105920  1.0  -0.5872
  O  O380  1  0.722760  0.738120  0.876450  1.0  -0.5843
  O  O381  1  0.309970  0.821300  0.170120  1.0  -0.5847
  O  O382  1  0.294220  0.835430  0.851830  1.0  -0.5838
  O  O383  1  0.257910  0.750070  0.894080  1.0  -0.5882
  O  O384  1  0.277240  0.738120  0.123550  1.0  -0.584
  O  O385  1  0.309970  0.178700  0.829880  1.0  -0.5861
  O  O386  1  0.294220  0.164570  0.148170  1.0  -0.5843
  O  O387  1  0.257910  0.249930  0.105920  1.0  -0.5882
  O  O388  1  0.277240  0.261880  0.876450  1.0  -0.5845
  O  O389  1  0.690030  0.178700  0.170120  1.0  -0.5853
  O  O390  1  0.705780  0.164570  0.851830  1.0  -0.5831
  O  O391  1  0.742090  0.249930  0.894080  1.0  -0.5882
  O  O392  1  0.722760  0.261880  0.123550  1.0  -0.5844
  O  O393  1  0.821300  0.829880  0.690030  1.0  -0.5856
  O  O394  1  0.835430  0.148170  0.705780  1.0  -0.5848
  O  O395  1  0.750070  0.105920  0.742090  1.0  -0.5887
  O  O396  1  0.738120  0.876450  0.722760  1.0  -0.5848
  O  O397  1  0.821300  0.170120  0.309970  1.0  -0.5862
  O  O398  1  0.835430  0.851830  0.294220  1.0  -0.5846
  O  O399  1  0.750070  0.894080  0.257910  1.0  -0.5876
  O  O400  1  0.738120  0.123550  0.277240  1.0  -0.5845
  O  O401  1  0.178700  0.829880  0.309970  1.0  -0.5866
  O  O402  1  0.164570  0.148170  0.294220  1.0  -0.5834
  O  O403  1  0.249930  0.105920  0.257910  1.0  -0.5885
  O  O404  1  0.261880  0.876450  0.277240  1.0  -0.5844
  O  O405  1  0.178700  0.170120  0.690030  1.0  -0.5857
  O  O406  1  0.164570  0.851830  0.705780  1.0  -0.5829
  O  O407  1  0.249930  0.894080  0.742090  1.0  -0.5883
  O  O408  1  0.261880  0.123550  0.722760  1.0  -0.5853
  O  O409  1  0.238430  0.238430  0.238430  1.0  -0.9902
  O  O410  1  0.761570  0.761570  0.238430  1.0  -0.9898
  O  O411  1  0.761570  0.238430  0.761570  1.0  -0.9904
  O  O412  1  0.238430  0.761570  0.761570  1.0  -0.9902
  O  O413  1  0.738430  0.738430  0.738430  1.0  -0.9902
  O  O414  1  0.261570  0.261570  0.738430  1.0  -0.9898
  O  O415  1  0.738430  0.261570  0.261570  1.0  -0.9902
  O  O416  1  0.261570  0.738430  0.261570  1.0  -0.9904
