# generated using pymatgen
data_Mg3H9C24N3O13
_symmetry_space_group_name_H-M   'P 1'
_cell_length_a   21.96920000
_cell_length_b   21.96920000
_cell_length_c   21.96920000
_cell_angle_alpha   90.00000000
_cell_angle_beta   90.00000000
_cell_angle_gamma   90.00000000
_symmetry_Int_Tables_number   1
_chemical_formula_structural   Mg3H9C24N3O13
_chemical_formula_sum   'Mg24 H72 C192 N24 O104'
_cell_volume   10603.34098102
_cell_formula_units_Z   8
loop_
 _symmetry_equiv_pos_site_id
 _symmetry_equiv_pos_as_xyz
  1  'x, y, z'
loop_
 _atom_site_type_symbol
 _atom_site_label
 _atom_site_symmetry_multiplicity
 _atom_site_fract_x
 _atom_site_fract_y
 _atom_site_fract_z
 _atom_site_occupancy
 _atom_site_charge
  Mg  Mg1  1  0.678260  0.259650  0.193530  1.0  1.583
  Mg  Mg2  1  0.321740  0.740350  0.193530  1.0  1.5833
  Mg  Mg3  1  0.321740  0.259650  0.806470  1.0  1.5814
  Mg  Mg4  1  0.678260  0.740350  0.806470  1.0  1.5808
  Mg  Mg5  1  0.193530  0.678260  0.259650  1.0  1.5849
  Mg  Mg6  1  0.193530  0.321740  0.740350  1.0  1.5871
  Mg  Mg7  1  0.806470  0.321740  0.259650  1.0  1.5871
  Mg  Mg8  1  0.806470  0.678260  0.740350  1.0  1.5848
  Mg  Mg9  1  0.259650  0.193530  0.678260  1.0  1.5838
  Mg  Mg10  1  0.740350  0.193530  0.321740  1.0  1.5836
  Mg  Mg11  1  0.259650  0.806470  0.321740  1.0  1.5858
  Mg  Mg12  1  0.740350  0.806470  0.678260  1.0  1.5852
  Mg  Mg13  1  0.759650  0.178260  0.693530  1.0  1.5838
  Mg  Mg14  1  0.240350  0.821740  0.693530  1.0  1.5857
  Mg  Mg15  1  0.759650  0.821740  0.306470  1.0  1.585
  Mg  Mg16  1  0.240350  0.178260  0.306470  1.0  1.5823
  Mg  Mg17  1  0.178260  0.693530  0.759650  1.0  1.5846
  Mg  Mg18  1  0.821740  0.693530  0.240350  1.0  1.5849
  Mg  Mg19  1  0.821740  0.306470  0.759650  1.0  1.5867
  Mg  Mg20  1  0.178260  0.306470  0.240350  1.0  1.5866
  Mg  Mg21  1  0.693530  0.759650  0.178260  1.0  1.5829
  Mg  Mg22  1  0.693530  0.240350  0.821740  1.0  1.5819
  Mg  Mg23  1  0.306470  0.759650  0.821740  1.0  1.5828
  Mg  Mg24  1  0.306470  0.240350  0.178260  1.0  1.5831
  H  H25  1  0.757000  0.280800  0.008200  1.0  0.084
  H  H26  1  0.908300  0.307000  0.104000  1.0  0.104
  H  H27  1  0.913800  0.304700  0.923300  1.0  0.0948
  H  H28  1  0.243000  0.719200  0.008200  1.0  0.0841
  H  H29  1  0.091700  0.693000  0.104000  1.0  0.1039
  H  H30  1  0.086200  0.695300  0.923300  1.0  0.0948
  H  H31  1  0.243000  0.280800  0.991800  1.0  0.0838
  H  H32  1  0.091700  0.307000  0.896000  1.0  0.1041
  H  H33  1  0.086200  0.304700  0.076700  1.0  0.0948
  H  H34  1  0.757000  0.719200  0.991800  1.0  0.0836
  H  H35  1  0.908300  0.693000  0.896000  1.0  0.104
  H  H36  1  0.913800  0.695300  0.076700  1.0  0.095
  H  H37  1  0.008200  0.757000  0.280800  1.0  0.0863
  H  H38  1  0.104000  0.908300  0.307000  1.0  0.1034
  H  H39  1  0.923300  0.913800  0.304700  1.0  0.0933
  H  H40  1  0.008200  0.243000  0.719200  1.0  0.0863
  H  H41  1  0.104000  0.091700  0.693000  1.0  0.1032
  H  H42  1  0.923300  0.086200  0.695300  1.0  0.0931
  H  H43  1  0.991800  0.243000  0.280800  1.0  0.0866
  H  H44  1  0.896000  0.091700  0.307000  1.0  0.1041
  H  H45  1  0.076700  0.086200  0.304700  1.0  0.0933
  H  H46  1  0.991800  0.757000  0.719200  1.0  0.0863
  H  H47  1  0.896000  0.908300  0.693000  1.0  0.1039
  H  H48  1  0.076700  0.913800  0.695300  1.0  0.0937
  H  H49  1  0.280800  0.008200  0.757000  1.0  0.0856
  H  H50  1  0.307000  0.104000  0.908300  1.0  0.1032
  H  H51  1  0.304700  0.923300  0.913800  1.0  0.0933
  H  H52  1  0.719200  0.008200  0.243000  1.0  0.0858
  H  H53  1  0.693000  0.104000  0.091700  1.0  0.1031
  H  H54  1  0.695300  0.923300  0.086200  1.0  0.0933
  H  H55  1  0.280800  0.991800  0.243000  1.0  0.0857
  H  H56  1  0.307000  0.896000  0.091700  1.0  0.1031
  H  H57  1  0.304700  0.076700  0.086200  1.0  0.0933
  H  H58  1  0.719200  0.991800  0.757000  1.0  0.0854
  H  H59  1  0.693000  0.896000  0.908300  1.0  0.1035
  H  H60  1  0.695300  0.076700  0.913800  1.0  0.0935
  H  H61  1  0.780800  0.257000  0.508200  1.0  0.0865
  H  H62  1  0.807000  0.408300  0.604000  1.0  0.104
  H  H63  1  0.804700  0.413800  0.423300  1.0  0.0942
  H  H64  1  0.219200  0.743000  0.508200  1.0  0.0863
  H  H65  1  0.193000  0.591700  0.604000  1.0  0.1044
  H  H66  1  0.195300  0.586200  0.423300  1.0  0.0943
  H  H67  1  0.780800  0.743000  0.491800  1.0  0.0864
  H  H68  1  0.807000  0.591700  0.396000  1.0  0.1043
  H  H69  1  0.804700  0.586200  0.576700  1.0  0.0942
  H  H70  1  0.219200  0.257000  0.491800  1.0  0.0862
  H  H71  1  0.193000  0.408300  0.396000  1.0  0.1043
  H  H72  1  0.195300  0.413800  0.576700  1.0  0.0943
  H  H73  1  0.257000  0.508200  0.780800  1.0  0.084
  H  H74  1  0.408300  0.604000  0.807000  1.0  0.1032
  H  H75  1  0.413800  0.423300  0.804700  1.0  0.0934
  H  H76  1  0.743000  0.508200  0.219200  1.0  0.0838
  H  H77  1  0.591700  0.604000  0.193000  1.0  0.1035
  H  H78  1  0.586200  0.423300  0.195300  1.0  0.0929
  H  H79  1  0.743000  0.491800  0.780800  1.0  0.084
  H  H80  1  0.591700  0.396000  0.807000  1.0  0.1034
  H  H81  1  0.586200  0.576700  0.804700  1.0  0.0933
  H  H82  1  0.257000  0.491800  0.219200  1.0  0.0837
  H  H83  1  0.408300  0.396000  0.193000  1.0  0.1032
  H  H84  1  0.413800  0.576700  0.195300  1.0  0.0934
  H  H85  1  0.508200  0.780800  0.257000  1.0  0.0854
  H  H86  1  0.604000  0.807000  0.408300  1.0  0.1032
  H  H87  1  0.423300  0.804700  0.413800  1.0  0.0939
  H  H88  1  0.508200  0.219200  0.743000  1.0  0.0856
  H  H89  1  0.604000  0.193000  0.591700  1.0  0.1028
  H  H90  1  0.423300  0.195300  0.586200  1.0  0.094
  H  H91  1  0.491800  0.780800  0.743000  1.0  0.0859
  H  H92  1  0.396000  0.807000  0.591700  1.0  0.1034
  H  H93  1  0.576700  0.804700  0.586200  1.0  0.094
  H  H94  1  0.491800  0.219200  0.257000  1.0  0.0857
  H  H95  1  0.396000  0.193000  0.408300  1.0  0.1035
  H  H96  1  0.576700  0.195300  0.413800  1.0  0.0943
  C  C97  1  0.791100  0.293700  0.125400  1.0  0.7147
  C  C98  1  0.798900  0.286600  0.010200  1.0  0.0027
  C  C99  1  0.823900  0.295200  0.066700  1.0  -0.1352
  C  C100  1  0.831200  0.285900  0.955400  1.0  -0.144
  C  C101  1  0.802200  0.280000  0.893200  1.0  0.7108
  C  C102  1  0.921700  0.305400  0.015400  1.0  0.111
  C  C103  1  0.888400  0.303200  0.066800  1.0  -0.0974
  C  C104  1  0.891700  0.299400  0.959000  1.0  -0.0089
  C  C105  1  0.208900  0.706300  0.125400  1.0  0.7149
  C  C106  1  0.201100  0.713400  0.010200  1.0  0.0044
  C  C107  1  0.176100  0.704800  0.066700  1.0  -0.1353
  C  C108  1  0.168800  0.714100  0.955400  1.0  -0.1441
  C  C109  1  0.197800  0.720000  0.893200  1.0  0.7111
  C  C110  1  0.078300  0.694600  0.015400  1.0  0.1112
  C  C111  1  0.111600  0.696800  0.066800  1.0  -0.0986
  C  C112  1  0.108300  0.700600  0.959000  1.0  -0.0089
  C  C113  1  0.208900  0.293700  0.874600  1.0  0.7138
  C  C114  1  0.201100  0.286600  0.989800  1.0  0.0045
  C  C115  1  0.176100  0.295200  0.933300  1.0  -0.1359
  C  C116  1  0.168800  0.285900  0.044600  1.0  -0.1442
  C  C117  1  0.197800  0.280000  0.106800  1.0  0.7108
  C  C118  1  0.078300  0.305400  0.984600  1.0  0.1124
  C  C119  1  0.111600  0.303200  0.933200  1.0  -0.0973
  C  C120  1  0.108300  0.299400  0.041000  1.0  -0.0089
  C  C121  1  0.791100  0.706300  0.874600  1.0  0.7146
  C  C122  1  0.798900  0.713400  0.989800  1.0  0.003
  C  C123  1  0.823900  0.704800  0.933300  1.0  -0.1355
  C  C124  1  0.831200  0.714100  0.044600  1.0  -0.144
  C  C125  1  0.802200  0.720000  0.106800  1.0  0.7112
  C  C126  1  0.921700  0.694600  0.984600  1.0  0.111
  C  C127  1  0.888400  0.696800  0.933200  1.0  -0.097
  C  C128  1  0.891700  0.700600  0.041000  1.0  -0.0092
  C  C129  1  0.125400  0.791100  0.293700  1.0  0.7125
  C  C130  1  0.010200  0.798900  0.286600  1.0  0.0055
  C  C131  1  0.066700  0.823900  0.295200  1.0  -0.1343
  C  C132  1  0.955400  0.831200  0.285900  1.0  -0.1428
  C  C133  1  0.893200  0.802200  0.280000  1.0  0.7092
  C  C134  1  0.015400  0.921700  0.305400  1.0  0.1127
  C  C135  1  0.066800  0.888400  0.303200  1.0  -0.0943
  C  C136  1  0.959000  0.891700  0.299400  1.0  -0.0087
  C  C137  1  0.125400  0.208900  0.706300  1.0  0.7131
  C  C138  1  0.010200  0.201100  0.713400  1.0  0.0028
  C  C139  1  0.066700  0.176100  0.704800  1.0  -0.1344
  C  C140  1  0.955400  0.168800  0.714100  1.0  -0.1425
  C  C141  1  0.893200  0.197800  0.720000  1.0  0.7092
  C  C142  1  0.015400  0.078300  0.694600  1.0  0.1123
  C  C143  1  0.066800  0.111600  0.696800  1.0  -0.0945
  C  C144  1  0.959000  0.108300  0.700600  1.0  -0.0086
  C  C145  1  0.874600  0.208900  0.293700  1.0  0.7132
  C  C146  1  0.989800  0.201100  0.286600  1.0  0.0028
  C  C147  1  0.933300  0.176100  0.295200  1.0  -0.1337
  C  C148  1  0.044600  0.168800  0.285900  1.0  -0.1432
  C  C149  1  0.106800  0.197800  0.280000  1.0  0.7086
  C  C150  1  0.984600  0.078300  0.305400  1.0  0.1125
  C  C151  1  0.933200  0.111600  0.303200  1.0  -0.0945
  C  C152  1  0.041000  0.108300  0.299400  1.0  -0.0078
  C  C153  1  0.874600  0.791100  0.706300  1.0  0.713
  C  C154  1  0.989800  0.798900  0.713400  1.0  0.0061
  C  C155  1  0.933300  0.823900  0.704800  1.0  -0.1339
  C  C156  1  0.044600  0.831200  0.714100  1.0  -0.1436
  C  C157  1  0.106800  0.802200  0.720000  1.0  0.7084
  C  C158  1  0.984600  0.921700  0.694600  1.0  0.1129
  C  C159  1  0.933200  0.888400  0.696800  1.0  -0.0956
  C  C160  1  0.041000  0.891700  0.700600  1.0  -0.0074
  C  C161  1  0.293700  0.125400  0.791100  1.0  0.7148
  C  C162  1  0.286600  0.010200  0.798900  1.0  0.0046
  C  C163  1  0.295200  0.066700  0.823900  1.0  -0.1338
  C  C164  1  0.285900  0.955400  0.831200  1.0  -0.1431
  C  C165  1  0.280000  0.893200  0.802200  1.0  0.7116
  C  C166  1  0.305400  0.015400  0.921700  1.0  0.1101
  C  C167  1  0.303200  0.066800  0.888400  1.0  -0.094
  C  C168  1  0.299400  0.959000  0.891700  1.0  -0.0087
  C  C169  1  0.706300  0.125400  0.208900  1.0  0.7142
  C  C170  1  0.713400  0.010200  0.201100  1.0  0.0051
  C  C171  1  0.704800  0.066700  0.176100  1.0  -0.1343
  C  C172  1  0.714100  0.955400  0.168800  1.0  -0.1432
  C  C173  1  0.720000  0.893200  0.197800  1.0  0.7116
  C  C174  1  0.694600  0.015400  0.078300  1.0  0.1125
  C  C175  1  0.696800  0.066800  0.111600  1.0  -0.0958
  C  C176  1  0.700600  0.959000  0.108300  1.0  -0.009
  C  C177  1  0.293700  0.874600  0.208900  1.0  0.7143
  C  C178  1  0.286600  0.989800  0.201100  1.0  0.0045
  C  C179  1  0.295200  0.933300  0.176100  1.0  -0.1337
  C  C180  1  0.285900  0.044600  0.168800  1.0  -0.1427
  C  C181  1  0.280000  0.106800  0.197800  1.0  0.7117
  C  C182  1  0.305400  0.984600  0.078300  1.0  0.112
  C  C183  1  0.303200  0.933200  0.111600  1.0  -0.0953
  C  C184  1  0.299400  0.041000  0.108300  1.0  -0.0096
  C  C185  1  0.706300  0.874600  0.791100  1.0  0.7139
  C  C186  1  0.713400  0.989800  0.798900  1.0  0.0044
  C  C187  1  0.704800  0.933300  0.823900  1.0  -0.1354
  C  C188  1  0.714100  0.044600  0.831200  1.0  -0.143
  C  C189  1  0.720000  0.106800  0.802200  1.0  0.7116
  C  C190  1  0.694600  0.984600  0.921700  1.0  0.1101
  C  C191  1  0.696800  0.933200  0.888400  1.0  -0.094
  C  C192  1  0.700600  0.041000  0.891700  1.0  -0.0099
  C  C193  1  0.793700  0.291100  0.625400  1.0  0.7135
  C  C194  1  0.786600  0.298900  0.510200  1.0  0.0057
  C  C195  1  0.795200  0.323900  0.566700  1.0  -0.1344
  C  C196  1  0.785900  0.331200  0.455400  1.0  -0.1444
  C  C197  1  0.780000  0.302200  0.393200  1.0  0.7107
  C  C198  1  0.805400  0.421700  0.515400  1.0  0.111
  C  C199  1  0.803200  0.388400  0.566800  1.0  -0.0979
  C  C200  1  0.799400  0.391700  0.459000  1.0  -0.0092
  C  C201  1  0.206300  0.708900  0.625400  1.0  0.7135
  C  C202  1  0.213400  0.701100  0.510200  1.0  0.0033
  C  C203  1  0.204800  0.676100  0.566700  1.0  -0.1354
  C  C204  1  0.214100  0.668800  0.455400  1.0  -0.1439
  C  C205  1  0.220000  0.697800  0.393200  1.0  0.7108
  C  C206  1  0.194600  0.578300  0.515400  1.0  0.111
  C  C207  1  0.196800  0.611600  0.566800  1.0  -0.0972
  C  C208  1  0.200600  0.608300  0.459000  1.0  -0.009
  C  C209  1  0.793700  0.708900  0.374600  1.0  0.7134
  C  C210  1  0.786600  0.701100  0.489800  1.0  0.0029
  C  C211  1  0.795200  0.676100  0.433300  1.0  -0.1349
  C  C212  1  0.785900  0.668800  0.544600  1.0  -0.1441
  C  C213  1  0.780000  0.697800  0.606800  1.0  0.7108
  C  C214  1  0.805400  0.578300  0.484600  1.0  0.1109
  C  C215  1  0.803200  0.611600  0.433200  1.0  -0.0974
  C  C216  1  0.799400  0.608300  0.541000  1.0  -0.0087
  C  C217  1  0.206300  0.291100  0.374600  1.0  0.7126
  C  C218  1  0.213400  0.298900  0.489800  1.0  0.0059
  C  C219  1  0.204800  0.323900  0.433300  1.0  -0.1357
  C  C220  1  0.214100  0.331200  0.544600  1.0  -0.1442
  C  C221  1  0.220000  0.302200  0.606800  1.0  0.7108
  C  C222  1  0.194600  0.421700  0.484600  1.0  0.1114
  C  C223  1  0.196800  0.388400  0.433200  1.0  -0.0974
  C  C224  1  0.200600  0.391700  0.541000  1.0  -0.0089
  C  C225  1  0.291100  0.625400  0.793700  1.0  0.7149
  C  C226  1  0.298900  0.510200  0.786600  1.0  0.0024
  C  C227  1  0.323900  0.566700  0.795200  1.0  -0.1338
  C  C228  1  0.331200  0.455400  0.785900  1.0  -0.1428
  C  C229  1  0.302200  0.393200  0.780000  1.0  0.7113
  C  C230  1  0.421700  0.515400  0.805400  1.0  0.1119
  C  C231  1  0.388400  0.566800  0.803200  1.0  -0.0948
  C  C232  1  0.391700  0.459000  0.799400  1.0  -0.0083
  C  C233  1  0.708900  0.625400  0.206300  1.0  0.7148
  C  C234  1  0.701100  0.510200  0.213400  1.0  0.0046
  C  C235  1  0.676100  0.566700  0.204800  1.0  -0.1343
  C  C236  1  0.668800  0.455400  0.214100  1.0  -0.1432
  C  C237  1  0.697800  0.393200  0.220000  1.0  0.7113
  C  C238  1  0.578300  0.515400  0.194600  1.0  0.113
  C  C239  1  0.611600  0.566800  0.196800  1.0  -0.0958
  C  C240  1  0.608300  0.459000  0.200600  1.0  -0.009
  C  C241  1  0.708900  0.374600  0.793700  1.0  0.7141
  C  C242  1  0.701100  0.489800  0.786600  1.0  0.0041
  C  C243  1  0.676100  0.433300  0.795200  1.0  -0.1342
  C  C244  1  0.668800  0.544600  0.785900  1.0  -0.1431
  C  C245  1  0.697800  0.606800  0.780000  1.0  0.7112
  C  C246  1  0.578300  0.484600  0.805400  1.0  0.1126
  C  C247  1  0.611600  0.433200  0.803200  1.0  -0.0952
  C  C248  1  0.608300  0.541000  0.799400  1.0  -0.0091
  C  C249  1  0.291100  0.374600  0.206300  1.0  0.7145
  C  C250  1  0.298900  0.489800  0.213400  1.0  0.0032
  C  C251  1  0.323900  0.433300  0.204800  1.0  -0.1343
  C  C252  1  0.331200  0.544600  0.214100  1.0  -0.1425
  C  C253  1  0.302200  0.606800  0.220000  1.0  0.7113
  C  C254  1  0.421700  0.484600  0.194600  1.0  0.112
  C  C255  1  0.388400  0.433200  0.196800  1.0  -0.0945
  C  C256  1  0.391700  0.541000  0.200600  1.0  -0.0095
  C  C257  1  0.625400  0.793700  0.291100  1.0  0.7135
  C  C258  1  0.510200  0.786600  0.298900  1.0  0.0043
  C  C259  1  0.566700  0.795200  0.323900  1.0  -0.1348
  C  C260  1  0.455400  0.785900  0.331200  1.0  -0.1427
  C  C261  1  0.393200  0.780000  0.302200  1.0  0.7093
  C  C262  1  0.515400  0.805400  0.421700  1.0  0.111
  C  C263  1  0.566800  0.803200  0.388400  1.0  -0.0931
  C  C264  1  0.459000  0.799400  0.391700  1.0  -0.0098
  C  C265  1  0.625400  0.206300  0.708900  1.0  0.714
  C  C266  1  0.510200  0.213400  0.701100  1.0  0.0048
  C  C267  1  0.566700  0.204800  0.676100  1.0  -0.1344
  C  C268  1  0.455400  0.214100  0.668800  1.0  -0.1426
  C  C269  1  0.393200  0.220000  0.697800  1.0  0.7099
  C  C270  1  0.515400  0.194600  0.578300  1.0  0.112
  C  C271  1  0.566800  0.196800  0.611600  1.0  -0.0948
  C  C272  1  0.459000  0.200600  0.608300  1.0  -0.0095
  C  C273  1  0.374600  0.793700  0.708900  1.0  0.714
  C  C274  1  0.489800  0.786600  0.701100  1.0  0.0048
  C  C275  1  0.433300  0.795200  0.676100  1.0  -0.134
  C  C276  1  0.544600  0.785900  0.668800  1.0  -0.1436
  C  C277  1  0.606800  0.780000  0.697800  1.0  0.7089
  C  C278  1  0.484600  0.805400  0.578300  1.0  0.1134
  C  C279  1  0.433200  0.803200  0.611600  1.0  -0.0954
  C  C280  1  0.541000  0.799400  0.608300  1.0  -0.0078
  C  C281  1  0.374600  0.206300  0.291100  1.0  0.7142
  C  C282  1  0.489800  0.213400  0.298900  1.0  0.0042
  C  C283  1  0.433300  0.204800  0.323900  1.0  -0.1344
  C  C284  1  0.544600  0.214100  0.331200  1.0  -0.1433
  C  C285  1  0.606800  0.220000  0.302200  1.0  0.7093
  C  C286  1  0.484600  0.194600  0.421700  1.0  0.111
  C  C287  1  0.433200  0.196800  0.388400  1.0  -0.0943
  C  C288  1  0.541000  0.200600  0.391700  1.0  -0.0086
  N  N289  1  0.984400  0.308700  0.024200  1.0  -0.2143
  N  N290  1  0.015600  0.691300  0.024200  1.0  -0.2152
  N  N291  1  0.015600  0.308700  0.975800  1.0  -0.2163
  N  N292  1  0.984400  0.691300  0.975800  1.0  -0.2163
  N  N293  1  0.024200  0.984400  0.308700  1.0  -0.215
  N  N294  1  0.024200  0.015600  0.691300  1.0  -0.216
  N  N295  1  0.975800  0.015600  0.308700  1.0  -0.2148
  N  N296  1  0.975800  0.984400  0.691300  1.0  -0.2139
  N  N297  1  0.308700  0.024200  0.984400  1.0  -0.2177
  N  N298  1  0.691300  0.024200  0.015600  1.0  -0.2174
  N  N299  1  0.308700  0.975800  0.015600  1.0  -0.2163
  N  N300  1  0.691300  0.975800  0.984400  1.0  -0.216
  N  N301  1  0.808700  0.484400  0.524200  1.0  -0.2163
  N  N302  1  0.191300  0.515600  0.524200  1.0  -0.2169
  N  N303  1  0.808700  0.515600  0.475800  1.0  -0.2188
  N  N304  1  0.191300  0.484400  0.475800  1.0  -0.2174
  N  N305  1  0.484400  0.524200  0.808700  1.0  -0.2163
  N  N306  1  0.515600  0.524200  0.191300  1.0  -0.2164
  N  N307  1  0.515600  0.475800  0.808700  1.0  -0.2152
  N  N308  1  0.484400  0.475800  0.191300  1.0  -0.2148
  N  N309  1  0.524200  0.808700  0.484400  1.0  -0.2149
  N  N310  1  0.524200  0.191300  0.515600  1.0  -0.215
  N  N311  1  0.475800  0.808700  0.515600  1.0  -0.2135
  N  N312  1  0.475800  0.191300  0.484400  1.0  -0.2138
  O  O313  1  0.750100  0.259400  0.893440  1.0  -0.6303
  O  O314  1  0.734900  0.276870  0.123870  1.0  -0.6152
  O  O315  1  0.835900  0.296200  0.849700  1.0  -0.6214
  O  O316  1  0.820000  0.309610  0.171800  1.0  -0.6303
  O  O317  1  0.249900  0.740600  0.893440  1.0  -0.6305
  O  O318  1  0.265100  0.723130  0.123870  1.0  -0.6141
  O  O319  1  0.164100  0.703800  0.849700  1.0  -0.6201
  O  O320  1  0.180000  0.690390  0.171800  1.0  -0.6298
  O  O321  1  0.249900  0.259400  0.106560  1.0  -0.6303
  O  O322  1  0.265100  0.276870  0.876130  1.0  -0.6149
  O  O323  1  0.164100  0.296200  0.150300  1.0  -0.6201
  O  O324  1  0.180000  0.309610  0.828200  1.0  -0.6291
  O  O325  1  0.750100  0.740600  0.106560  1.0  -0.6304
  O  O326  1  0.734900  0.723130  0.876130  1.0  -0.6149
  O  O327  1  0.835900  0.703800  0.150300  1.0  -0.6214
  O  O328  1  0.820000  0.690390  0.828200  1.0  -0.6295
  O  O329  1  0.893440  0.750100  0.259400  1.0  -0.6304
  O  O330  1  0.123870  0.734900  0.276870  1.0  -0.6174
  O  O331  1  0.849700  0.835900  0.296200  1.0  -0.6197
  O  O332  1  0.171800  0.820000  0.309610  1.0  -0.6323
  O  O333  1  0.893440  0.249900  0.740600  1.0  -0.6306
  O  O334  1  0.123870  0.265100  0.723130  1.0  -0.6182
  O  O335  1  0.849700  0.164100  0.703800  1.0  -0.6211
  O  O336  1  0.171800  0.180000  0.690390  1.0  -0.6309
  O  O337  1  0.106560  0.249900  0.259400  1.0  -0.6317
  O  O338  1  0.876130  0.265100  0.276870  1.0  -0.617
  O  O339  1  0.150300  0.164100  0.296200  1.0  -0.6207
  O  O340  1  0.828200  0.180000  0.309610  1.0  -0.63
  O  O341  1  0.106560  0.750100  0.740600  1.0  -0.6314
  O  O342  1  0.876130  0.734900  0.723130  1.0  -0.6172
  O  O343  1  0.150300  0.835900  0.703800  1.0  -0.6212
  O  O344  1  0.828200  0.820000  0.690390  1.0  -0.6299
  O  O345  1  0.259400  0.893440  0.750100  1.0  -0.6288
  O  O346  1  0.276870  0.123870  0.734900  1.0  -0.6162
  O  O347  1  0.296200  0.849700  0.835900  1.0  -0.6205
  O  O348  1  0.309610  0.171800  0.820000  1.0  -0.6282
  O  O349  1  0.740600  0.893440  0.249900  1.0  -0.6288
  O  O350  1  0.723130  0.123870  0.265100  1.0  -0.6156
  O  O351  1  0.703800  0.849700  0.164100  1.0  -0.6218
  O  O352  1  0.690390  0.171800  0.180000  1.0  -0.6273
  O  O353  1  0.259400  0.106560  0.249900  1.0  -0.6287
  O  O354  1  0.276870  0.876130  0.265100  1.0  -0.6158
  O  O355  1  0.296200  0.150300  0.164100  1.0  -0.6223
  O  O356  1  0.309610  0.828200  0.180000  1.0  -0.627
  O  O357  1  0.740600  0.106560  0.750100  1.0  -0.629
  O  O358  1  0.723130  0.876130  0.734900  1.0  -0.6158
  O  O359  1  0.703800  0.150300  0.835900  1.0  -0.6209
  O  O360  1  0.690390  0.828200  0.820000  1.0  -0.6282
  O  O361  1  0.759400  0.250100  0.393440  1.0  -0.6303
  O  O362  1  0.776870  0.234900  0.623870  1.0  -0.6139
  O  O363  1  0.796200  0.335900  0.349700  1.0  -0.6223
  O  O364  1  0.809610  0.320000  0.671800  1.0  -0.6309
  O  O365  1  0.240600  0.749900  0.393440  1.0  -0.63
  O  O366  1  0.223130  0.765100  0.623870  1.0  -0.6141
  O  O367  1  0.203800  0.664100  0.349700  1.0  -0.622
  O  O368  1  0.190390  0.680000  0.671800  1.0  -0.6297
  O  O369  1  0.759400  0.749900  0.606560  1.0  -0.6298
  O  O370  1  0.776870  0.765100  0.376130  1.0  -0.6147
  O  O371  1  0.796200  0.664100  0.650300  1.0  -0.6221
  O  O372  1  0.809610  0.680000  0.328200  1.0  -0.6292
  O  O373  1  0.240600  0.250100  0.606560  1.0  -0.63
  O  O374  1  0.223130  0.234900  0.376130  1.0  -0.614
  O  O375  1  0.203800  0.335900  0.650300  1.0  -0.6212
  O  O376  1  0.190390  0.320000  0.328200  1.0  -0.6301
  O  O377  1  0.250100  0.393440  0.759400  1.0  -0.6303
  O  O378  1  0.234900  0.623870  0.776870  1.0  -0.6169
  O  O379  1  0.335900  0.349700  0.796200  1.0  -0.622
  O  O380  1  0.320000  0.671800  0.809610  1.0  -0.6299
  O  O381  1  0.749900  0.393440  0.240600  1.0  -0.6302
  O  O382  1  0.765100  0.623870  0.223130  1.0  -0.6172
  O  O383  1  0.664100  0.349700  0.203800  1.0  -0.6206
  O  O384  1  0.680000  0.671800  0.190390  1.0  -0.6287
  O  O385  1  0.749900  0.606560  0.759400  1.0  -0.6306
  O  O386  1  0.765100  0.376130  0.776870  1.0  -0.6163
  O  O387  1  0.664100  0.650300  0.796200  1.0  -0.6206
  O  O388  1  0.680000  0.328200  0.809610  1.0  -0.629
  O  O389  1  0.250100  0.606560  0.240600  1.0  -0.6304
  O  O390  1  0.234900  0.376130  0.223130  1.0  -0.6164
  O  O391  1  0.335900  0.650300  0.203800  1.0  -0.6224
  O  O392  1  0.320000  0.328200  0.190390  1.0  -0.6287
  O  O393  1  0.393440  0.759400  0.250100  1.0  -0.6292
  O  O394  1  0.623870  0.776870  0.234900  1.0  -0.617
  O  O395  1  0.349700  0.796200  0.335900  1.0  -0.6182
  O  O396  1  0.671800  0.809610  0.320000  1.0  -0.6302
  O  O397  1  0.393440  0.240600  0.749900  1.0  -0.6295
  O  O398  1  0.623870  0.223130  0.765100  1.0  -0.6166
  O  O399  1  0.349700  0.203800  0.664100  1.0  -0.6196
  O  O400  1  0.671800  0.190390  0.680000  1.0  -0.6289
  O  O401  1  0.606560  0.759400  0.749900  1.0  -0.6304
  O  O402  1  0.376130  0.776870  0.765100  1.0  -0.6157
  O  O403  1  0.650300  0.796200  0.664100  1.0  -0.6201
  O  O404  1  0.328200  0.809610  0.680000  1.0  -0.6281
  O  O405  1  0.606560  0.240600  0.250100  1.0  -0.6308
  O  O406  1  0.376130  0.223130  0.234900  1.0  -0.6152
  O  O407  1  0.650300  0.203800  0.335900  1.0  -0.6189
  O  O408  1  0.328200  0.190390  0.320000  1.0  -0.6293
  O  O409  1  0.740400  0.259600  0.259600  1.0  -0.9383
  O  O410  1  0.259600  0.740400  0.259600  1.0  -0.9384
  O  O411  1  0.259600  0.259600  0.740400  1.0  -0.9384
  O  O412  1  0.740400  0.740400  0.740400  1.0  -0.9387
  O  O413  1  0.759600  0.240400  0.759600  1.0  -0.9384
  O  O414  1  0.240400  0.759600  0.759600  1.0  -0.9383
  O  O415  1  0.759600  0.759600  0.240400  1.0  -0.9384
  O  O416  1  0.240400  0.240400  0.240400  1.0  -0.9387
