# generated using pymatgen
data_CuH9C12N3O4
_symmetry_space_group_name_H-M   'P 1'
_cell_length_a   8.33650000
_cell_length_b   10.45300000
_cell_length_c   19.03000000
_cell_angle_alpha   90.00000000
_cell_angle_beta   90.00000000
_cell_angle_gamma   90.00000000
_symmetry_Int_Tables_number   1
_chemical_formula_structural   CuH9C12N3O4
_chemical_formula_sum   'Cu4 H36 C48 N12 O16'
_cell_volume   1658.30149853
_cell_formula_units_Z   4
loop_
 _symmetry_equiv_pos_site_id
 _symmetry_equiv_pos_as_xyz
  1  'x, y, z'
loop_
 _atom_site_type_symbol
 _atom_site_label
 _atom_site_symmetry_multiplicity
 _atom_site_fract_x
 _atom_site_fract_y
 _atom_site_fract_z
 _atom_site_occupancy
 _atom_site_charge
  Cu  Cu1  1  0.760540  0.105030  0.623380  1.0  0.7502
  Cu  Cu2  1  0.739460  0.894970  0.123380  1.0  0.7495
  Cu  Cu3  1  0.239460  0.605030  0.876620  1.0  0.7519
  Cu  Cu4  1  0.260540  0.394970  0.376620  1.0  0.7533
  H  H5  1  0.195000  0.676100  0.565700  1.0  0.353
  H  H6  1  0.083000  0.783000  0.582200  1.0  0.339
  H  H7  1  0.030100  0.218000  0.540600  1.0  0.0807
  H  H8  1  0.262400  0.474500  0.658200  1.0  0.1113
  H  H9  1  0.928400  0.245000  0.740000  1.0  0.0771
  H  H10  1  0.405500  0.124000  0.618300  1.0  0.0738
  H  H11  1  0.185900  0.999200  0.604500  1.0  0.1154
  H  H12  1  0.477500  0.706700  0.560800  1.0  0.1219
  H  H13  1  0.690000  0.837900  0.580800  1.0  0.0801
  H  H14  1  0.305000  0.323900  0.065700  1.0  0.3536
  H  H15  1  0.417000  0.217000  0.082200  1.0  0.3411
  H  H16  1  0.469900  0.782000  0.040600  1.0  0.0804
  H  H17  1  0.237600  0.525500  0.158200  1.0  0.1107
  H  H18  1  0.571600  0.755000  0.240000  1.0  0.0767
  H  H19  1  0.094500  0.876000  0.118300  1.0  0.0747
  H  H20  1  0.314100  0.000800  0.104500  1.0  0.1159
  H  H21  1  0.022500  0.293300  0.060800  1.0  0.1226
  H  H22  1  0.810000  0.162100  0.080800  1.0  0.0798
  H  H23  1  0.805000  0.176100  0.934300  1.0  0.3527
  H  H24  1  0.917000  0.283000  0.917800  1.0  0.3409
  H  H25  1  0.969900  0.718000  0.959400  1.0  0.0802
  H  H26  1  0.737600  0.974500  0.841800  1.0  0.1109
  H  H27  1  0.071600  0.745000  0.760000  1.0  0.078
  H  H28  1  0.594500  0.624000  0.881700  1.0  0.0738
  H  H29  1  0.814100  0.499200  0.895500  1.0  0.1156
  H  H30  1  0.522500  0.206700  0.939200  1.0  0.1221
  H  H31  1  0.310000  0.337900  0.919200  1.0  0.0798
  H  H32  1  0.695000  0.823900  0.434300  1.0  0.3537
  H  H33  1  0.583000  0.717000  0.417800  1.0  0.3393
  H  H34  1  0.530100  0.282000  0.459400  1.0  0.0801
  H  H35  1  0.762400  0.025500  0.341800  1.0  0.111
  H  H36  1  0.428400  0.255000  0.260000  1.0  0.0784
  H  H37  1  0.905500  0.376000  0.381700  1.0  0.075
  H  H38  1  0.685900  0.500800  0.395500  1.0  0.1154
  H  H39  1  0.977500  0.793300  0.439200  1.0  0.1222
  H  H40  1  0.190000  0.662100  0.419200  1.0  0.0807
  C  C41  1  0.248900  0.396200  0.523900  1.0  0.6757
  C  C42  1  0.047600  0.256500  0.584000  1.0  0.1996
  C  C43  1  0.188300  0.408600  0.653600  1.0  0.0125
  C  C44  1  0.163400  0.350500  0.588900  1.0  -0.1898
  C  C45  1  0.987500  0.272100  0.701300  1.0  0.2104
  C  C46  1  0.101100  0.367000  0.711200  1.0  -0.2067
  C  C47  1  0.125000  0.426300  0.782800  1.0  0.6724
  C  C48  1  0.420400  0.037600  0.608600  1.0  0.173
  C  C49  1  0.287400  0.963400  0.599900  1.0  -0.26
  C  C50  1  0.303800  0.834300  0.583900  1.0  0.3185
  C  C51  1  0.459500  0.790800  0.574700  1.0  -0.2395
  C  C52  1  0.587000  0.870600  0.586000  1.0  0.1787
  C  C53  1  0.251100  0.603800  0.023900  1.0  0.675
  C  C54  1  0.452400  0.743500  0.084000  1.0  0.1994
  C  C55  1  0.311700  0.591400  0.153600  1.0  0.0139
  C  C56  1  0.336600  0.649500  0.088900  1.0  -0.1888
  C  C57  1  0.512500  0.727900  0.201300  1.0  0.2102
  C  C58  1  0.398900  0.633000  0.211200  1.0  -0.2069
  C  C59  1  0.375000  0.573700  0.282800  1.0  0.672
  C  C60  1  0.079600  0.962400  0.108600  1.0  0.1732
  C  C61  1  0.212600  0.036600  0.099900  1.0  -0.2584
  C  C62  1  0.196200  0.165700  0.083900  1.0  0.3187
  C  C63  1  0.040500  0.209200  0.074700  1.0  -0.2406
  C  C64  1  0.913000  0.129400  0.086000  1.0  0.1787
  C  C65  1  0.751100  0.896200  0.976100  1.0  0.6747
  C  C66  1  0.952400  0.756500  0.916000  1.0  0.2005
  C  C67  1  0.811700  0.908600  0.846400  1.0  0.0128
  C  C68  1  0.836600  0.850500  0.911100  1.0  -0.1888
  C  C69  1  0.012500  0.772100  0.798700  1.0  0.2098
  C  C70  1  0.898900  0.867000  0.788800  1.0  -0.2064
  C  C71  1  0.875000  0.926300  0.717200  1.0  0.6724
  C  C72  1  0.579600  0.537600  0.891400  1.0  0.1729
  C  C73  1  0.712600  0.463400  0.900100  1.0  -0.2586
  C  C74  1  0.696200  0.334300  0.916100  1.0  0.3178
  C  C75  1  0.540500  0.290800  0.925300  1.0  -0.2396
  C  C76  1  0.413000  0.370600  0.914000  1.0  0.1785
  C  C77  1  0.748900  0.103800  0.476100  1.0  0.6756
  C  C78  1  0.547600  0.243500  0.416000  1.0  0.2009
  C  C79  1  0.688300  0.091400  0.346400  1.0  0.014
  C  C80  1  0.663400  0.149500  0.411100  1.0  -0.19
  C  C81  1  0.487500  0.227900  0.298700  1.0  0.21
  C  C82  1  0.601100  0.133000  0.288800  1.0  -0.2062
  C  C83  1  0.625000  0.073700  0.217200  1.0  0.672
  C  C84  1  0.920400  0.462400  0.391400  1.0  0.1726
  C  C85  1  0.787400  0.536600  0.400100  1.0  -0.2597
  C  C86  1  0.803800  0.665700  0.416100  1.0  0.3182
  C  C87  1  0.959500  0.709200  0.425300  1.0  -0.2401
  C  C88  1  0.087000  0.629400  0.414000  1.0  0.179
  N  N89  1  0.958700  0.217800  0.639280  1.0  -0.3223
  N  N90  1  0.570000  0.994300  0.604300  1.0  -0.3153
  N  N91  1  0.179100  0.755000  0.576400  1.0  -0.6611
  N  N92  1  0.541300  0.782200  0.139280  1.0  -0.3218
  N  N93  1  0.930000  0.005700  0.104300  1.0  -0.3162
  N  N94  1  0.320900  0.245000  0.076400  1.0  -0.6614
  N  N95  1  0.041300  0.717800  0.860720  1.0  -0.322
  N  N96  1  0.430000  0.494300  0.895700  1.0  -0.3149
  N  N97  1  0.820900  0.255000  0.923600  1.0  -0.6618
  N  N98  1  0.458700  0.282200  0.360720  1.0  -0.3219
  N  N99  1  0.070000  0.505700  0.395700  1.0  -0.3164
  N  N100  1  0.679100  0.745000  0.423600  1.0  -0.6612
  O  O101  1  0.064800  0.376600  0.834880  1.0  -0.6087
  O  O102  1  0.210200  0.527800  0.783310  1.0  -0.5966
  O  O103  1  0.322800  0.497700  0.525300  1.0  -0.5427
  O  O104  1  0.234200  0.322200  0.470570  1.0  -0.6053
  O  O105  1  0.435200  0.623400  0.334880  1.0  -0.6093
  O  O106  1  0.289800  0.472200  0.283310  1.0  -0.5961
  O  O107  1  0.177200  0.502300  0.025300  1.0  -0.5431
  O  O108  1  0.265800  0.677800  0.970570  1.0  -0.6047
  O  O109  1  0.935200  0.876600  0.665120  1.0  -0.6079
  O  O110  1  0.789800  0.027800  0.716690  1.0  -0.596
  O  O111  1  0.677200  0.997700  0.974700  1.0  -0.5429
  O  O112  1  0.765800  0.822200  0.029430  1.0  -0.605
  O  O113  1  0.564800  0.123400  0.165120  1.0  -0.6082
  O  O114  1  0.710200  0.972200  0.216690  1.0  -0.5949
  O  O115  1  0.822800  0.002300  0.474700  1.0  -0.5427
  O  O116  1  0.734200  0.177800  0.529430  1.0  -0.6054
