# generated using pymatgen
data_CoHC4O3
_symmetry_space_group_name_H-M   'P 1'
_cell_length_a   25.75990000
_cell_length_b   25.75990000
_cell_length_c   6.87660000
_cell_angle_alpha   90.00000000
_cell_angle_beta   90.00000000
_cell_angle_gamma   120.00000000
_symmetry_Int_Tables_number   1
_chemical_formula_structural   CoHC4O3
_chemical_formula_sum   'Co18 H18 C72 O54'
_cell_volume   3951.77982890
_cell_formula_units_Z   18
loop_
 _symmetry_equiv_pos_site_id
 _symmetry_equiv_pos_as_xyz
  1  'x, y, z'
loop_
 _atom_site_type_symbol
 _atom_site_label
 _atom_site_symmetry_multiplicity
 _atom_site_fract_x
 _atom_site_fract_y
 _atom_site_fract_z
 _atom_site_occupancy
 _atom_site_charge
  Co  Co1  1  0.314280  0.364120  0.477430  1.0  1.0227
  Co  Co2  1  0.980950  0.697450  0.810760  1.0  1.0228
  Co  Co3  1  0.647610  0.030790  0.144100  1.0  1.0227
  Co  Co4  1  0.635880  0.950160  0.477430  1.0  1.0211
  Co  Co5  1  0.302550  0.283490  0.810760  1.0  1.0211
  Co  Co6  1  0.969210  0.616830  0.144100  1.0  1.0204
  Co  Co7  1  0.049840  0.685720  0.477430  1.0  1.0201
  Co  Co8  1  0.716510  0.019050  0.810760  1.0  1.0202
  Co  Co9  1  0.383170  0.352390  0.144100  1.0  1.0202
  Co  Co10  1  0.685720  0.635880  0.522570  1.0  1.0206
  Co  Co11  1  0.352390  0.969210  0.855900  1.0  1.0206
  Co  Co12  1  0.019050  0.302550  0.189240  1.0  1.0206
  Co  Co13  1  0.364120  0.049840  0.522570  1.0  1.0203
  Co  Co14  1  0.030790  0.383170  0.855900  1.0  1.0197
  Co  Co15  1  0.697450  0.716510  0.189240  1.0  1.0202
  Co  Co16  1  0.950160  0.314280  0.522570  1.0  1.0214
  Co  Co17  1  0.616830  0.647610  0.855900  1.0  1.0214
  Co  Co18  1  0.283490  0.980950  0.189240  1.0  1.0214
  H  H19  1  0.163600  0.307900  0.509700  1.0  0.1197
  H  H20  1  0.830270  0.641230  0.843030  1.0  0.1202
  H  H21  1  0.496930  0.974570  0.176370  1.0  0.1202
  H  H22  1  0.692100  0.855700  0.509700  1.0  0.1198
  H  H23  1  0.358770  0.189030  0.843030  1.0  0.1201
  H  H24  1  0.025430  0.522370  0.176370  1.0  0.1201
  H  H25  1  0.144300  0.836400  0.509700  1.0  0.1246
  H  H26  1  0.810970  0.169730  0.843030  1.0  0.12
  H  H27  1  0.477630  0.503070  0.176370  1.0  0.12
  H  H28  1  0.836400  0.692100  0.490300  1.0  0.1191
  H  H29  1  0.503070  0.025430  0.823630  1.0  0.1198
  H  H30  1  0.169730  0.358770  0.156970  1.0  0.1198
  H  H31  1  0.307900  0.144300  0.490300  1.0  0.1193
  H  H32  1  0.974570  0.477630  0.823630  1.0  0.1195
  H  H33  1  0.641230  0.810970  0.156970  1.0  0.1195
  H  H34  1  0.855700  0.163600  0.490300  1.0  0.1234
  H  H35  1  0.522370  0.496930  0.823630  1.0  0.1193
  H  H36  1  0.189030  0.830270  0.156970  1.0  0.1192
  C  C37  1  0.071600  0.318300  0.575400  1.0  0.7372
  C  C38  1  0.119700  0.327000  0.713400  1.0  -0.1733
  C  C39  1  0.164900  0.318100  0.643100  1.0  -0.08
  C  C40  1  0.211500  0.322900  0.754000  1.0  0.3272
  C  C41  1  0.738270  0.651630  0.908730  1.0  0.7372
  C  C42  1  0.786370  0.660330  0.046730  1.0  -0.1734
  C  C43  1  0.831570  0.651430  0.976430  1.0  -0.0796
  C  C44  1  0.878170  0.656230  0.087330  1.0  0.3271
  C  C45  1  0.404930  0.984970  0.242070  1.0  0.7372
  C  C46  1  0.453030  0.993670  0.380070  1.0  -0.1734
  C  C47  1  0.498230  0.984770  0.309770  1.0  -0.0796
  C  C48  1  0.544830  0.989570  0.420670  1.0  0.3271
  C  C49  1  0.681700  0.753300  0.575400  1.0  0.7382
  C  C50  1  0.673000  0.792700  0.713400  1.0  -0.1739
  C  C51  1  0.681900  0.846800  0.643100  1.0  -0.0872
  C  C52  1  0.677100  0.888600  0.754000  1.0  0.3398
  C  C53  1  0.348370  0.086630  0.908730  1.0  0.7381
  C  C54  1  0.339670  0.126030  0.046730  1.0  -0.1738
  C  C55  1  0.348570  0.180130  0.976430  1.0  -0.0796
  C  C56  1  0.343770  0.221930  0.087330  1.0  0.3235
  C  C57  1  0.015030  0.419970  0.242070  1.0  0.7382
  C  C58  1  0.006330  0.459370  0.380070  1.0  -0.1738
  C  C59  1  0.015230  0.513470  0.309770  1.0  -0.0796
  C  C60  1  0.010430  0.555270  0.420670  1.0  0.3236
  C  C61  1  0.246700  0.928400  0.575400  1.0  0.7375
  C  C62  1  0.207300  0.880300  0.713400  1.0  -0.173
  C  C63  1  0.153200  0.835100  0.643100  1.0  -0.0893
  C  C64  1  0.111400  0.788500  0.754000  1.0  0.3403
  C  C65  1  0.913370  0.261730  0.908730  1.0  0.7376
  C  C66  1  0.873970  0.213630  0.046730  1.0  -0.173
  C  C67  1  0.819870  0.168430  0.976430  1.0  -0.08
  C  C68  1  0.778070  0.121830  0.087330  1.0  0.3243
  C  C69  1  0.580030  0.595070  0.242070  1.0  0.7375
  C  C70  1  0.540630  0.546970  0.380070  1.0  -0.1733
  C  C71  1  0.486530  0.501770  0.309770  1.0  -0.0801
  C  C72  1  0.444730  0.455170  0.420670  1.0  0.3243
  C  C73  1  0.928400  0.681700  0.424600  1.0  0.7374
  C  C74  1  0.880300  0.673000  0.286600  1.0  -0.1739
  C  C75  1  0.835100  0.681900  0.356900  1.0  -0.0805
  C  C76  1  0.788500  0.677100  0.246000  1.0  0.3255
  C  C77  1  0.595070  0.015030  0.757930  1.0  0.7374
  C  C78  1  0.546970  0.006330  0.619930  1.0  -0.174
  C  C79  1  0.501770  0.015230  0.690230  1.0  -0.0804
  C  C80  1  0.455170  0.010430  0.579330  1.0  0.3254
  C  C81  1  0.261730  0.348370  0.091270  1.0  0.7373
  C  C82  1  0.213630  0.339670  0.953270  1.0  -0.1739
  C  C83  1  0.168430  0.348570  0.023570  1.0  -0.0804
  C  C84  1  0.121830  0.343770  0.912670  1.0  0.3254
  C  C85  1  0.318300  0.246700  0.424600  1.0  0.7384
  C  C86  1  0.327000  0.207300  0.286600  1.0  -0.1741
  C  C87  1  0.318100  0.153200  0.356900  1.0  -0.087
  C  C88  1  0.322900  0.111400  0.246000  1.0  0.3399
  C  C89  1  0.984970  0.580030  0.757930  1.0  0.7384
  C  C90  1  0.993670  0.540630  0.619930  1.0  -0.174
  C  C91  1  0.984770  0.486530  0.690230  1.0  -0.0791
  C  C92  1  0.989570  0.444730  0.579330  1.0  0.3239
  C  C93  1  0.651630  0.913370  0.091270  1.0  0.7384
  C  C94  1  0.660330  0.873970  0.953270  1.0  -0.174
  C  C95  1  0.651430  0.819870  0.023570  1.0  -0.0791
  C  C96  1  0.656230  0.778070  0.912670  1.0  0.3238
  C  C97  1  0.753300  0.071600  0.424600  1.0  0.7376
  C  C98  1  0.792700  0.119700  0.286600  1.0  -0.1733
  C  C99  1  0.846800  0.164900  0.356900  1.0  -0.0885
  C  C100  1  0.888600  0.211500  0.246000  1.0  0.3396
  C  C101  1  0.419970  0.404930  0.757930  1.0  0.7376
  C  C102  1  0.459370  0.453030  0.619930  1.0  -0.1735
  C  C103  1  0.513470  0.498230  0.690230  1.0  -0.0803
  C  C104  1  0.555270  0.544830  0.579330  1.0  0.3245
  C  C105  1  0.086630  0.738270  0.091270  1.0  0.7377
  C  C106  1  0.126030  0.786370  0.953270  1.0  -0.1733
  C  C107  1  0.180130  0.831570  0.023570  1.0  -0.0802
  C  C108  1  0.221930  0.878170  0.912670  1.0  0.3245
  O  O109  1  0.029290  0.325390  0.641500  1.0  -0.669
  O  O110  1  0.252310  0.311080  0.670500  1.0  -0.6893
  O  O111  1  0.072570  0.302390  0.404700  1.0  -0.595
  O  O112  1  0.695960  0.658720  0.974830  1.0  -0.6689
  O  O113  1  0.918980  0.644410  0.003830  1.0  -0.6903
  O  O114  1  0.739240  0.635720  0.738030  1.0  -0.595
  O  O115  1  0.362620  0.992060  0.308170  1.0  -0.669
  O  O116  1  0.585640  0.977750  0.337170  1.0  -0.6892
  O  O117  1  0.405900  0.969060  0.071370  1.0  -0.5949
  O  O118  1  0.674610  0.703900  0.641500  1.0  -0.6689
  O  O119  1  0.688920  0.941230  0.670500  1.0  -0.689
  O  O120  1  0.697610  0.770180  0.404700  1.0  -0.5939
  O  O121  1  0.341280  0.037230  0.974830  1.0  -0.6688
  O  O122  1  0.355590  0.274560  0.003830  1.0  -0.6879
  O  O123  1  0.364280  0.103510  0.738030  1.0  -0.5939
  O  O124  1  0.007940  0.370570  0.308170  1.0  -0.6689
  O  O125  1  0.022250  0.607900  0.337170  1.0  -0.6889
  O  O126  1  0.030940  0.436850  0.071370  1.0  -0.5939
  O  O127  1  0.296100  0.970710  0.641500  1.0  -0.6705
  O  O128  1  0.058770  0.747690  0.670500  1.0  -0.6876
  O  O129  1  0.229820  0.927430  0.404700  1.0  -0.5938
  O  O130  1  0.962770  0.304040  0.974830  1.0  -0.6705
  O  O131  1  0.725440  0.081020  0.003830  1.0  -0.6886
  O  O132  1  0.896490  0.260760  0.738030  1.0  -0.5938
  O  O133  1  0.629430  0.637380  0.308170  1.0  -0.6705
  O  O134  1  0.392100  0.414360  0.337170  1.0  -0.6875
  O  O135  1  0.563150  0.594100  0.071370  1.0  -0.5939
  O  O136  1  0.970710  0.674610  0.358500  1.0  -0.6694
  O  O137  1  0.747690  0.688920  0.329500  1.0  -0.6879
  O  O138  1  0.927430  0.697610  0.595300  1.0  -0.5945
  O  O139  1  0.637380  0.007940  0.691830  1.0  -0.6694
  O  O140  1  0.414360  0.022250  0.662830  1.0  -0.6878
  O  O141  1  0.594100  0.030940  0.928630  1.0  -0.5944
  O  O142  1  0.304040  0.341280  0.025170  1.0  -0.6693
  O  O143  1  0.081020  0.355590  0.996170  1.0  -0.6886
  O  O144  1  0.260760  0.364280  0.261970  1.0  -0.5945
  O  O145  1  0.325390  0.296100  0.358500  1.0  -0.6682
  O  O146  1  0.311080  0.058770  0.329500  1.0  -0.6889
  O  O147  1  0.302390  0.229820  0.595300  1.0  -0.5945
  O  O148  1  0.992060  0.629430  0.691830  1.0  -0.6682
  O  O149  1  0.977750  0.392100  0.662830  1.0  -0.6889
  O  O150  1  0.969060  0.563150  0.928630  1.0  -0.5946
  O  O151  1  0.658720  0.962770  0.025170  1.0  -0.6681
  O  O152  1  0.644410  0.725440  0.996170  1.0  -0.6878
  O  O153  1  0.635720  0.896490  0.261970  1.0  -0.5945
  O  O154  1  0.703900  0.029290  0.358500  1.0  -0.6707
  O  O155  1  0.941230  0.252310  0.329500  1.0  -0.6853
  O  O156  1  0.770180  0.072570  0.595300  1.0  -0.5949
  O  O157  1  0.370570  0.362620  0.691830  1.0  -0.6707
  O  O158  1  0.607900  0.585640  0.662830  1.0  -0.6852
  O  O159  1  0.436850  0.405900  0.928630  1.0  -0.595
  O  O160  1  0.037230  0.695960  0.025170  1.0  -0.6707
  O  O161  1  0.274560  0.918980  0.996170  1.0  -0.6864
  O  O162  1  0.103510  0.739240  0.261970  1.0  -0.5949
