# generated using pymatgen
data_CoHC4N2O3
_symmetry_space_group_name_H-M   'P 1'
_cell_length_a   25.81000000
_cell_length_b   25.81000000
_cell_length_c   6.90100000
_cell_angle_alpha   90.00000000
_cell_angle_beta   90.00000000
_cell_angle_gamma   120.00000000
_symmetry_Int_Tables_number   1
_chemical_formula_structural   CoHC4N2O3
_chemical_formula_sum   'Co18 H18 C72 N36 O54'
_cell_volume   3981.24283596
_cell_formula_units_Z   18
loop_
 _symmetry_equiv_pos_site_id
 _symmetry_equiv_pos_as_xyz
  1  'x, y, z'
loop_
 _atom_site_type_symbol
 _atom_site_label
 _atom_site_symmetry_multiplicity
 _atom_site_fract_x
 _atom_site_fract_y
 _atom_site_fract_z
 _atom_site_occupancy
 _atom_site_charge
  Co  Co1  1  0.685930  0.050530  0.021400  1.0  1.1391
  Co  Co2  1  0.352600  0.383860  0.354730  1.0  1.1391
  Co  Co3  1  0.019260  0.717200  0.688070  1.0  1.1398
  Co  Co4  1  0.949470  0.635400  0.021400  1.0  1.1401
  Co  Co5  1  0.616140  0.968730  0.354730  1.0  1.1401
  Co  Co6  1  0.282800  0.302070  0.688070  1.0  1.1392
  Co  Co7  1  0.364600  0.314070  0.021400  1.0  1.1373
  Co  Co8  1  0.031270  0.647400  0.354730  1.0  1.1372
  Co  Co9  1  0.697930  0.980740  0.688070  1.0  1.1378
  Co  Co10  1  0.314070  0.949470  0.978600  1.0  1.1384
  Co  Co11  1  0.980740  0.282800  0.311930  1.0  1.1392
  Co  Co12  1  0.647400  0.616140  0.645270  1.0  1.1383
  Co  Co13  1  0.050530  0.364600  0.978600  1.0  1.1391
  Co  Co14  1  0.717200  0.697930  0.311930  1.0  1.1381
  Co  Co15  1  0.383860  0.031270  0.645270  1.0  1.139
  Co  Co16  1  0.635400  0.685930  0.978600  1.0  1.1393
  Co  Co17  1  0.302070  0.019260  0.311930  1.0  1.1398
  Co  Co18  1  0.968730  0.352600  0.645270  1.0  1.1393
  H  H19  1  0.477900  0.975200  0.675400  1.0  0.1907
  H  H20  1  0.144570  0.308530  0.008730  1.0  0.1907
  H  H21  1  0.811230  0.641870  0.342070  1.0  0.1906
  H  H22  1  0.024800  0.502700  0.675400  1.0  0.19
  H  H23  1  0.691470  0.836030  0.008730  1.0  0.19
  H  H24  1  0.358130  0.169370  0.342070  1.0  0.1902
  H  H25  1  0.497300  0.522100  0.675400  1.0  0.1904
  H  H26  1  0.163970  0.855430  0.008730  1.0  0.1904
  H  H27  1  0.830630  0.188770  0.342070  1.0  0.1904
  H  H28  1  0.522100  0.024800  0.324600  1.0  0.1896
  H  H29  1  0.188770  0.358130  0.657930  1.0  0.1895
  H  H30  1  0.855430  0.691470  0.991270  1.0  0.1896
  H  H31  1  0.975200  0.497300  0.324600  1.0  0.1894
  H  H32  1  0.641870  0.830630  0.657930  1.0  0.1895
  H  H33  1  0.308530  0.163970  0.991270  1.0  0.1894
  H  H34  1  0.502700  0.477900  0.324600  1.0  0.1895
  H  H35  1  0.169370  0.811230  0.657930  1.0  0.1895
  H  H36  1  0.836030  0.144570  0.991270  1.0  0.1895
  C  C37  1  0.555800  0.010800  0.077600  1.0  0.3232
  C  C38  1  0.541300  0.995200  0.880000  1.0  -0.1026
  C  C39  1  0.486700  0.985200  0.808400  1.0  -0.0601
  C  C40  1  0.580400  0.985800  0.743700  1.0  0.7938
  C  C41  1  0.222470  0.344130  0.410930  1.0  0.323
  C  C42  1  0.207970  0.328530  0.213330  1.0  -0.1028
  C  C43  1  0.153370  0.318530  0.141730  1.0  -0.0601
  C  C44  1  0.247070  0.319130  0.077030  1.0  0.7939
  C  C45  1  0.889130  0.677470  0.744270  1.0  0.3232
  C  C46  1  0.874630  0.661870  0.546670  1.0  -0.1028
  C  C47  1  0.820030  0.651870  0.475070  1.0  -0.0601
  C  C48  1  0.913730  0.652470  0.410370  1.0  0.7938
  C  C49  1  0.989200  0.545000  0.077600  1.0  0.3211
  C  C50  1  0.004800  0.546100  0.880000  1.0  -0.1032
  C  C51  1  0.014800  0.501500  0.808400  1.0  -0.0603
  C  C52  1  0.014200  0.594600  0.743700  1.0  0.7934
  C  C53  1  0.655870  0.878330  0.410930  1.0  0.3211
  C  C54  1  0.671470  0.879430  0.213330  1.0  -0.103
  C  C55  1  0.681470  0.834830  0.141730  1.0  -0.0603
  C  C56  1  0.680870  0.927930  0.077030  1.0  0.7934
  C  C57  1  0.322530  0.211670  0.744270  1.0  0.3211
  C  C58  1  0.338130  0.212770  0.546670  1.0  -0.103
  C  C59  1  0.348130  0.168170  0.475070  1.0  -0.0603
  C  C60  1  0.347530  0.261270  0.410370  1.0  0.7935
  C  C61  1  0.455000  0.444200  0.077600  1.0  0.3214
  C  C62  1  0.453900  0.458700  0.880000  1.0  -0.1029
  C  C63  1  0.498500  0.513300  0.808400  1.0  -0.0593
  C  C64  1  0.405400  0.419600  0.743700  1.0  0.7936
  C  C65  1  0.121670  0.777530  0.410930  1.0  0.3214
  C  C66  1  0.120570  0.792030  0.213330  1.0  -0.1027
  C  C67  1  0.165170  0.846630  0.141730  1.0  -0.0593
  C  C68  1  0.072070  0.752930  0.077030  1.0  0.7936
  C  C69  1  0.788330  0.110870  0.744270  1.0  0.3214
  C  C70  1  0.787230  0.125370  0.546670  1.0  -0.1029
  C  C71  1  0.831830  0.179970  0.475070  1.0  -0.0593
  C  C72  1  0.738730  0.086270  0.410370  1.0  0.7936
  C  C73  1  0.444200  0.989200  0.922400  1.0  0.3229
  C  C74  1  0.458700  0.004800  0.120000  1.0  -0.1037
  C  C75  1  0.513300  0.014800  0.191600  1.0  -0.0614
  C  C76  1  0.419600  0.014200  0.256300  1.0  0.794
  C  C77  1  0.110870  0.322530  0.255730  1.0  0.3229
  C  C78  1  0.125370  0.338130  0.453330  1.0  -0.1039
  C  C79  1  0.179970  0.348130  0.524930  1.0  -0.0614
  C  C80  1  0.086270  0.347530  0.589630  1.0  0.794
  C  C81  1  0.777530  0.655870  0.589070  1.0  0.3226
  C  C82  1  0.792030  0.671470  0.786670  1.0  -0.1039
  C  C83  1  0.846630  0.681470  0.858270  1.0  -0.0614
  C  C84  1  0.752930  0.680870  0.922970  1.0  0.7941
  C  C85  1  0.010800  0.455000  0.922400  1.0  0.3214
  C  C86  1  0.995200  0.453900  0.120000  1.0  -0.103
  C  C87  1  0.985200  0.498500  0.191600  1.0  -0.0613
  C  C88  1  0.985800  0.405400  0.256300  1.0  0.7939
  C  C89  1  0.677470  0.788330  0.255730  1.0  0.3214
  C  C90  1  0.661870  0.787230  0.453330  1.0  -0.1028
  C  C91  1  0.651870  0.831830  0.524930  1.0  -0.0613
  C  C92  1  0.652470  0.738730  0.589630  1.0  0.7939
  C  C93  1  0.344130  0.121670  0.589070  1.0  0.3214
  C  C94  1  0.328530  0.120570  0.786670  1.0  -0.1028
  C  C95  1  0.318530  0.165170  0.858270  1.0  -0.0613
  C  C96  1  0.319130  0.072070  0.922970  1.0  0.7939
  C  C97  1  0.545000  0.555800  0.922400  1.0  0.3216
  C  C98  1  0.546100  0.541300  0.120000  1.0  -0.1035
  C  C99  1  0.501500  0.486700  0.191600  1.0  -0.0612
  C  C100  1  0.594600  0.580400  0.256300  1.0  0.7952
  C  C101  1  0.211670  0.889130  0.255730  1.0  0.3216
  C  C102  1  0.212770  0.874630  0.453330  1.0  -0.1035
  C  C103  1  0.168170  0.820030  0.524930  1.0  -0.0612
  C  C104  1  0.261270  0.913730  0.589630  1.0  0.7952
  C  C105  1  0.878330  0.222470  0.589070  1.0  0.3216
  C  C106  1  0.879430  0.207970  0.786670  1.0  -0.1033
  C  C107  1  0.834830  0.153370  0.858270  1.0  -0.0612
  C  C108  1  0.927930  0.247070  0.922970  1.0  0.7953
  N  N109  1  0.688900  0.133900  0.915800  1.0  -0.2885
  N  N110  1  0.694900  0.177500  0.886600  1.0  -0.2716
  N  N111  1  0.355570  0.467230  0.249130  1.0  -0.2884
  N  N112  1  0.361570  0.510830  0.219930  1.0  -0.2716
  N  N113  1  0.022230  0.800570  0.582470  1.0  -0.2875
  N  N114  1  0.028230  0.844170  0.553270  1.0  -0.2829
  N  N115  1  0.866100  0.555000  0.915800  1.0  -0.2908
  N  N116  1  0.822500  0.517400  0.886600  1.0  -0.2726
  N  N117  1  0.532770  0.888330  0.249130  1.0  -0.2908
  N  N118  1  0.489170  0.850730  0.219930  1.0  -0.2726
  N  N119  1  0.199430  0.221670  0.582470  1.0  -0.2907
  N  N120  1  0.155830  0.184070  0.553270  1.0  -0.2726
  N  N121  1  0.445000  0.311100  0.915800  1.0  -0.2903
  N  N122  1  0.482600  0.305100  0.886600  1.0  -0.2827
  N  N123  1  0.111670  0.644430  0.249130  1.0  -0.2903
  N  N124  1  0.149270  0.638430  0.219930  1.0  -0.2827
  N  N125  1  0.778330  0.977770  0.582470  1.0  -0.2902
  N  N126  1  0.815930  0.971770  0.553270  1.0  -0.2722
  N  N127  1  0.311100  0.866100  0.084200  1.0  -0.2913
  N  N128  1  0.305100  0.822500  0.113400  1.0  -0.2688
  N  N129  1  0.977770  0.199430  0.417530  1.0  -0.2903
  N  N130  1  0.971770  0.155830  0.446730  1.0  -0.2795
  N  N131  1  0.644430  0.532770  0.750870  1.0  -0.2912
  N  N132  1  0.638430  0.489170  0.780070  1.0  -0.2688
  N  N133  1  0.133900  0.445000  0.084200  1.0  -0.2913
  N  N134  1  0.177500  0.482600  0.113400  1.0  -0.2713
  N  N135  1  0.800570  0.778330  0.417530  1.0  -0.2912
  N  N136  1  0.844170  0.815930  0.446730  1.0  -0.2713
  N  N137  1  0.467230  0.111670  0.750870  1.0  -0.2913
  N  N138  1  0.510830  0.149270  0.780070  1.0  -0.2713
  N  N139  1  0.555000  0.688900  0.084200  1.0  -0.2865
  N  N140  1  0.517400  0.694900  0.113400  1.0  -0.2854
  N  N141  1  0.221670  0.022230  0.417530  1.0  -0.2865
  N  N142  1  0.184070  0.028230  0.446730  1.0  -0.2764
  N  N143  1  0.888330  0.355570  0.750870  1.0  -0.2865
  N  N144  1  0.850730  0.361570  0.780070  1.0  -0.2854
  O  O145  1  0.607820  0.022850  0.162700  1.0  -0.6132
  O  O146  1  0.629550  0.992380  0.807900  1.0  -0.5753
  O  O147  1  0.563560  0.970270  0.571400  1.0  -0.5276
  O  O148  1  0.274490  0.356180  0.496030  1.0  -0.613
  O  O149  1  0.296220  0.325710  0.141230  1.0  -0.5755
  O  O150  1  0.230230  0.303600  0.904730  1.0  -0.5277
  O  O151  1  0.941150  0.689520  0.829370  1.0  -0.6129
  O  O152  1  0.962880  0.659050  0.474570  1.0  -0.5753
  O  O153  1  0.896890  0.636940  0.238070  1.0  -0.5275
  O  O154  1  0.977150  0.584970  0.162700  1.0  -0.6132
  O  O155  1  0.007620  0.637170  0.807900  1.0  -0.5756
  O  O156  1  0.029730  0.593290  0.571400  1.0  -0.5271
  O  O157  1  0.643820  0.918300  0.496030  1.0  -0.6132
  O  O158  1  0.674290  0.970500  0.141230  1.0  -0.5756
  O  O159  1  0.696400  0.926620  0.904730  1.0  -0.5271
  O  O160  1  0.310480  0.251640  0.829370  1.0  -0.6134
  O  O161  1  0.340950  0.303840  0.474570  1.0  -0.5759
  O  O162  1  0.363060  0.259960  0.238070  1.0  -0.5271
  O  O163  1  0.415030  0.392180  0.162700  1.0  -0.6144
  O  O164  1  0.362830  0.370450  0.807900  1.0  -0.5742
  O  O165  1  0.406710  0.436440  0.571400  1.0  -0.5269
  O  O166  1  0.081700  0.725510  0.496030  1.0  -0.6143
  O  O167  1  0.029500  0.703780  0.141230  1.0  -0.574
  O  O168  1  0.073380  0.769770  0.904730  1.0  -0.5269
  O  O169  1  0.748360  0.058850  0.829370  1.0  -0.6144
  O  O170  1  0.696160  0.037120  0.474570  1.0  -0.574
  O  O171  1  0.740040  0.103110  0.238070  1.0  -0.5269
  O  O172  1  0.392180  0.977150  0.837300  1.0  -0.6138
  O  O173  1  0.370450  0.007620  0.192100  1.0  -0.5744
  O  O174  1  0.436440  0.029730  0.428600  1.0  -0.5279
  O  O175  1  0.058850  0.310480  0.170630  1.0  -0.6135
  O  O176  1  0.037120  0.340950  0.525430  1.0  -0.5744
  O  O177  1  0.103110  0.363060  0.761930  1.0  -0.5279
  O  O178  1  0.725510  0.643820  0.503970  1.0  -0.6136
  O  O179  1  0.703780  0.674290  0.858770  1.0  -0.5746
  O  O180  1  0.769770  0.696400  0.095270  1.0  -0.528
  O  O181  1  0.022850  0.415030  0.837300  1.0  -0.6131
  O  O182  1  0.992380  0.362830  0.192100  1.0  -0.5754
  O  O183  1  0.970270  0.406710  0.428600  1.0  -0.5273
  O  O184  1  0.689520  0.748360  0.170630  1.0  -0.6133
  O  O185  1  0.659050  0.696160  0.525430  1.0  -0.5756
  O  O186  1  0.636940  0.740040  0.761930  1.0  -0.5273
  O  O187  1  0.356180  0.081700  0.503970  1.0  -0.6131
  O  O188  1  0.325710  0.029500  0.858770  1.0  -0.5754
  O  O189  1  0.303600  0.073380  0.095270  1.0  -0.5273
  O  O190  1  0.584970  0.607820  0.837300  1.0  -0.614
  O  O191  1  0.637170  0.629550  0.192100  1.0  -0.5739
  O  O192  1  0.593290  0.563560  0.428600  1.0  -0.5281
  O  O193  1  0.251640  0.941150  0.170630  1.0  -0.614
  O  O194  1  0.303840  0.962880  0.525430  1.0  -0.5737
  O  O195  1  0.259960  0.896890  0.761930  1.0  -0.5281
  O  O196  1  0.918300  0.274490  0.503970  1.0  -0.6139
  O  O197  1  0.970500  0.296220  0.858770  1.0  -0.5737
  O  O198  1  0.926620  0.230230  0.095270  1.0  -0.5281
