# generated using pymatgen
data_CoHC4O3
_symmetry_space_group_name_H-M   'P 1'
_cell_length_a   25.86600000
_cell_length_b   25.86600000
_cell_length_c   6.84570000
_cell_angle_alpha   90.00000000
_cell_angle_beta   90.00000000
_cell_angle_gamma   120.00000000
_symmetry_Int_Tables_number   1
_chemical_formula_structural   CoHC4O3
_chemical_formula_sum   'Co18 H18 C72 O54'
_cell_volume   3966.49618802
_cell_formula_units_Z   18
loop_
 _symmetry_equiv_pos_site_id
 _symmetry_equiv_pos_as_xyz
  1  'x, y, z'
loop_
 _atom_site_type_symbol
 _atom_site_label
 _atom_site_symmetry_multiplicity
 _atom_site_fract_x
 _atom_site_fract_y
 _atom_site_fract_z
 _atom_site_occupancy
 _atom_site_charge
  Co  Co1  1  0.970410  0.617870  0.143010  1.0  1.0351
  Co  Co2  1  0.637080  0.951200  0.476340  1.0  1.0351
  Co  Co3  1  0.303740  0.284540  0.809680  1.0  1.0353
  Co  Co4  1  0.382130  0.352540  0.143010  1.0  1.0349
  Co  Co5  1  0.048800  0.685870  0.476340  1.0  1.0349
  Co  Co6  1  0.715460  0.019210  0.809680  1.0  1.0348
  Co  Co7  1  0.647460  0.029590  0.143010  1.0  1.0374
  Co  Co8  1  0.314130  0.362920  0.476340  1.0  1.0376
  Co  Co9  1  0.980790  0.696260  0.809680  1.0  1.0374
  Co  Co10  1  0.029590  0.382130  0.856990  1.0  1.0365
  Co  Co11  1  0.696260  0.715460  0.190320  1.0  1.0367
  Co  Co12  1  0.362920  0.048800  0.523660  1.0  1.0365
  Co  Co13  1  0.617870  0.647460  0.856990  1.0  1.0358
  Co  Co14  1  0.284540  0.980790  0.190320  1.0  1.0357
  Co  Co15  1  0.951200  0.314130  0.523660  1.0  1.0358
  Co  Co16  1  0.352540  0.970410  0.856990  1.0  1.0353
  Co  Co17  1  0.019210  0.303740  0.190320  1.0  1.0352
  Co  Co18  1  0.685870  0.637080  0.523660  1.0  1.0354
  H  H19  1  0.972900  0.475800  0.825600  1.0  0.1218
  H  H20  1  0.639570  0.809130  0.158930  1.0  0.1218
  H  H21  1  0.306230  0.142470  0.492270  1.0  0.1215
  H  H22  1  0.524200  0.497100  0.825600  1.0  0.1233
  H  H23  1  0.190870  0.830430  0.158930  1.0  0.1233
  H  H24  1  0.857530  0.163770  0.492270  1.0  0.1217
  H  H25  1  0.502900  0.027100  0.825600  1.0  0.122
  H  H26  1  0.169570  0.360430  0.158930  1.0  0.122
  H  H27  1  0.836230  0.693770  0.492270  1.0  0.1214
  H  H28  1  0.027100  0.524200  0.174400  1.0  0.1209
  H  H29  1  0.693770  0.857530  0.507730  1.0  0.1204
  H  H30  1  0.360430  0.190870  0.841070  1.0  0.1209
  H  H31  1  0.475800  0.502900  0.174400  1.0  0.1224
  H  H32  1  0.142470  0.836230  0.507730  1.0  0.1216
  H  H33  1  0.809130  0.169570  0.841070  1.0  0.1224
  H  H34  1  0.497100  0.972900  0.174400  1.0  0.1212
  H  H35  1  0.163770  0.306230  0.507730  1.0  0.1206
  H  H36  1  0.830430  0.639570  0.841070  1.0  0.1212
  C  C37  1  0.010330  0.555610  0.422800  1.0  0.3423
  C  C38  1  0.994150  0.540700  0.621500  1.0  -0.2438
  C  C39  1  0.984050  0.485470  0.692700  1.0  -0.0771
  C  C40  1  0.984940  0.579410  0.760300  1.0  0.7546
  C  C41  1  0.677000  0.888940  0.756130  1.0  0.3419
  C  C42  1  0.660820  0.874030  0.954830  1.0  -0.244
  C  C43  1  0.650720  0.818800  0.026030  1.0  -0.0771
  C  C44  1  0.651610  0.912740  0.093630  1.0  0.7546
  C  C45  1  0.343660  0.222280  0.089470  1.0  0.3423
  C  C46  1  0.327480  0.207370  0.288170  1.0  -0.2438
  C  C47  1  0.317380  0.152140  0.359370  1.0  -0.0769
  C  C48  1  0.318270  0.246080  0.426970  1.0  0.7548
  C  C49  1  0.444390  0.454720  0.422800  1.0  0.343
  C  C50  1  0.459300  0.453450  0.621500  1.0  -0.2433
  C  C51  1  0.514530  0.498580  0.692700  1.0  -0.0761
  C  C52  1  0.420590  0.405530  0.760300  1.0  0.7543
  C  C53  1  0.111060  0.788050  0.756130  1.0  0.3434
  C  C54  1  0.125970  0.786780  0.954830  1.0  -0.2432
  C  C55  1  0.181200  0.831910  0.026030  1.0  -0.0761
  C  C56  1  0.087260  0.738860  0.093630  1.0  0.7543
  C  C57  1  0.777720  0.121390  0.089470  1.0  0.3431
  C  C58  1  0.792630  0.120120  0.288170  1.0  -0.2433
  C  C59  1  0.847860  0.165250  0.359370  1.0  -0.0766
  C  C60  1  0.753920  0.072200  0.426970  1.0  0.7544
  C  C61  1  0.545280  0.989670  0.422800  1.0  0.3464
  C  C62  1  0.546550  0.005850  0.621500  1.0  -0.2438
  C  C63  1  0.501420  0.015950  0.692700  1.0  -0.0781
  C  C64  1  0.594470  0.015060  0.760300  1.0  0.7537
  C  C65  1  0.211950  0.323000  0.756130  1.0  0.3463
  C  C66  1  0.213220  0.339180  0.954830  1.0  -0.244
  C  C67  1  0.168090  0.349280  0.026030  1.0  -0.0781
  C  C68  1  0.261140  0.348390  0.093630  1.0  0.7537
  C  C69  1  0.878610  0.656340  0.089470  1.0  0.3461
  C  C70  1  0.879880  0.672520  0.288170  1.0  -0.2438
  C  C71  1  0.834750  0.682620  0.359370  1.0  -0.0786
  C  C72  1  0.927800  0.681730  0.426970  1.0  0.7535
  C  C73  1  0.989670  0.444390  0.577200  1.0  0.3427
  C  C74  1  0.005850  0.459300  0.378500  1.0  -0.2434
  C  C75  1  0.015950  0.514530  0.307300  1.0  -0.0767
  C  C76  1  0.015060  0.420590  0.239700  1.0  0.7545
  C  C77  1  0.656340  0.777720  0.910530  1.0  0.3427
  C  C78  1  0.672520  0.792630  0.711830  1.0  -0.2434
  C  C79  1  0.682620  0.847860  0.640630  1.0  -0.0766
  C  C80  1  0.681730  0.753920  0.573030  1.0  0.7547
  C  C81  1  0.323000  0.111060  0.243870  1.0  0.3423
  C  C82  1  0.339180  0.125970  0.045170  1.0  -0.2436
  C  C83  1  0.349280  0.181200  0.973970  1.0  -0.0767
  C  C84  1  0.348390  0.087260  0.906370  1.0  0.7545
  C  C85  1  0.555610  0.545280  0.577200  1.0  0.3424
  C  C86  1  0.540700  0.546550  0.378500  1.0  -0.2433
  C  C87  1  0.485470  0.501420  0.307300  1.0  -0.0764
  C  C88  1  0.579410  0.594470  0.239700  1.0  0.7535
  C  C89  1  0.222280  0.878610  0.910530  1.0  0.3424
  C  C90  1  0.207370  0.879880  0.711830  1.0  -0.2433
  C  C91  1  0.152140  0.834750  0.640630  1.0  -0.0774
  C  C92  1  0.246080  0.927800  0.573030  1.0  0.7537
  C  C93  1  0.888940  0.211950  0.243870  1.0  0.3426
  C  C94  1  0.874030  0.213220  0.045170  1.0  -0.2431
  C  C95  1  0.818800  0.168090  0.973970  1.0  -0.0764
  C  C96  1  0.912740  0.261140  0.906370  1.0  0.7535
  C  C97  1  0.454720  0.010330  0.577200  1.0  0.3444
  C  C98  1  0.453450  0.994150  0.378500  1.0  -0.2439
  C  C99  1  0.498580  0.984050  0.307300  1.0  -0.0763
  C  C100  1  0.405530  0.984940  0.239700  1.0  0.7534
  C  C101  1  0.121390  0.343660  0.910530  1.0  0.3442
  C  C102  1  0.120120  0.327480  0.711830  1.0  -0.2439
  C  C103  1  0.165250  0.317380  0.640630  1.0  -0.0769
  C  C104  1  0.072200  0.318270  0.573030  1.0  0.7533
  C  C105  1  0.788050  0.677000  0.243870  1.0  0.3444
  C  C106  1  0.786780  0.660820  0.045170  1.0  -0.2441
  C  C107  1  0.831910  0.650720  0.973970  1.0  -0.0762
  C  C108  1  0.738860  0.651610  0.906370  1.0  0.7535
  O  O109  1  0.022010  0.607760  0.338400  1.0  -0.6553
  O  O110  1  0.993810  0.629450  0.696100  1.0  -0.6769
  O  O111  1  0.968380  0.562600  0.932200  1.0  -0.6025
  O  O112  1  0.688680  0.941090  0.671730  1.0  -0.6552
  O  O113  1  0.660480  0.962780  0.029430  1.0  -0.6768
  O  O114  1  0.635050  0.895930  0.265530  1.0  -0.6025
  O  O115  1  0.355340  0.274430  0.005070  1.0  -0.6553
  O  O116  1  0.327140  0.296120  0.362770  1.0  -0.6771
  O  O117  1  0.301710  0.229270  0.598870  1.0  -0.6024
  O  O118  1  0.392240  0.414250  0.338400  1.0  -0.6544
  O  O119  1  0.370550  0.364360  0.696100  1.0  -0.6783
  O  O120  1  0.437400  0.405780  0.932200  1.0  -0.6028
  O  O121  1  0.058910  0.747580  0.671730  1.0  -0.6544
  O  O122  1  0.037220  0.697690  0.029430  1.0  -0.6783
  O  O123  1  0.104070  0.739110  0.265530  1.0  -0.6028
  O  O124  1  0.725570  0.080920  0.005070  1.0  -0.6544
  O  O125  1  0.703880  0.031030  0.362770  1.0  -0.6782
  O  O126  1  0.770730  0.072450  0.598870  1.0  -0.6026
  O  O127  1  0.585750  0.977990  0.338400  1.0  -0.6565
  O  O128  1  0.635640  0.006190  0.696100  1.0  -0.6773
  O  O129  1  0.594220  0.031620  0.932200  1.0  -0.6026
  O  O130  1  0.252420  0.311320  0.671730  1.0  -0.6566
  O  O131  1  0.302310  0.339520  0.029430  1.0  -0.6773
  O  O132  1  0.260890  0.364950  0.265530  1.0  -0.6026
  O  O133  1  0.919080  0.644660  0.005070  1.0  -0.6565
  O  O134  1  0.968970  0.672860  0.362770  1.0  -0.6771
  O  O135  1  0.927550  0.698290  0.598870  1.0  -0.6027
  O  O136  1  0.977990  0.392240  0.661600  1.0  -0.6538
  O  O137  1  0.006190  0.370550  0.303900  1.0  -0.6782
  O  O138  1  0.031620  0.437400  0.067800  1.0  -0.602
  O  O139  1  0.644660  0.725570  0.994930  1.0  -0.6537
  O  O140  1  0.672860  0.703880  0.637230  1.0  -0.6783
  O  O141  1  0.698290  0.770730  0.401130  1.0  -0.6019
  O  O142  1  0.311320  0.058910  0.328270  1.0  -0.6537
  O  O143  1  0.339520  0.037220  0.970570  1.0  -0.678
  O  O144  1  0.364950  0.104070  0.734470  1.0  -0.602
  O  O145  1  0.607760  0.585750  0.661600  1.0  -0.653
  O  O146  1  0.629450  0.635640  0.303900  1.0  -0.677
  O  O147  1  0.562600  0.594220  0.067800  1.0  -0.6022
  O  O148  1  0.274430  0.919080  0.994930  1.0  -0.653
  O  O149  1  0.296120  0.968970  0.637230  1.0  -0.677
  O  O150  1  0.229270  0.927550  0.401130  1.0  -0.6023
  O  O151  1  0.941090  0.252420  0.328270  1.0  -0.653
  O  O152  1  0.962780  0.302310  0.970570  1.0  -0.6771
  O  O153  1  0.895930  0.260890  0.734470  1.0  -0.6022
  O  O154  1  0.414250  0.022010  0.661600  1.0  -0.655
  O  O155  1  0.364360  0.993810  0.303900  1.0  -0.6767
  O  O156  1  0.405780  0.968380  0.067800  1.0  -0.603
  O  O157  1  0.080920  0.355340  0.994930  1.0  -0.655
  O  O158  1  0.031030  0.327140  0.637230  1.0  -0.6765
  O  O159  1  0.072450  0.301710  0.401130  1.0  -0.6031
  O  O160  1  0.747580  0.688680  0.328270  1.0  -0.6551
  O  O161  1  0.697690  0.660480  0.970570  1.0  -0.6767
  O  O162  1  0.739110  0.635050  0.734470  1.0  -0.603
