# generated using pymatgen
data_CoHC4O3
_symmetry_space_group_name_H-M   'P 1'
_cell_length_a   25.86000000
_cell_length_b   25.86000000
_cell_length_c   6.86780000
_cell_angle_alpha   90.00000000
_cell_angle_beta   90.00000000
_cell_angle_gamma   120.00000000
_symmetry_Int_Tables_number   1
_chemical_formula_structural   CoHC4O3
_chemical_formula_sum   'Co18 H18 C72 O54'
_cell_volume   3977.45534208
_cell_formula_units_Z   18
loop_
 _symmetry_equiv_pos_site_id
 _symmetry_equiv_pos_as_xyz
  1  'x, y, z'
loop_
 _atom_site_type_symbol
 _atom_site_label
 _atom_site_symmetry_multiplicity
 _atom_site_fract_x
 _atom_site_fract_y
 _atom_site_fract_z
 _atom_site_occupancy
 _atom_site_charge
  Co  Co1  1  0.362950  0.049000  0.523380  1.0  1.0263
  Co  Co2  1  0.029620  0.382330  0.856710  1.0  1.0261
  Co  Co3  1  0.696280  0.715670  0.190050  1.0  1.0263
  Co  Co4  1  0.951000  0.313950  0.523380  1.0  1.0256
  Co  Co5  1  0.617670  0.647280  0.856710  1.0  1.0258
  Co  Co6  1  0.284330  0.980620  0.190050  1.0  1.0256
  Co  Co7  1  0.686050  0.637050  0.523380  1.0  1.0251
  Co  Co8  1  0.352720  0.970380  0.856710  1.0  1.0252
  Co  Co9  1  0.019380  0.303720  0.190050  1.0  1.0251
  Co  Co10  1  0.637050  0.951000  0.476620  1.0  1.0253
  Co  Co11  1  0.303720  0.284330  0.809950  1.0  1.0253
  Co  Co12  1  0.970380  0.617670  0.143290  1.0  1.0251
  Co  Co13  1  0.049000  0.686050  0.476620  1.0  1.0245
  Co  Co14  1  0.715670  0.019380  0.809950  1.0  1.0245
  Co  Co15  1  0.382330  0.352720  0.143290  1.0  1.0247
  Co  Co16  1  0.313950  0.362950  0.476620  1.0  1.0271
  Co  Co17  1  0.980620  0.696280  0.809950  1.0  1.027
  Co  Co18  1  0.647280  0.029620  0.143290  1.0  1.027
  H  H19  1  0.360600  0.190700  0.841200  1.0  0.1225
  H  H20  1  0.027270  0.524030  0.174530  1.0  0.1228
  H  H21  1  0.693930  0.857370  0.507870  1.0  0.1218
  H  H22  1  0.809300  0.169900  0.841200  1.0  0.1226
  H  H23  1  0.475970  0.503230  0.174530  1.0  0.1224
  H  H24  1  0.142630  0.836570  0.507870  1.0  0.1241
  H  H25  1  0.830100  0.639400  0.841200  1.0  0.1227
  H  H26  1  0.496770  0.972730  0.174530  1.0  0.1224
  H  H27  1  0.163430  0.306070  0.507870  1.0  0.1222
  H  H28  1  0.639400  0.809300  0.158800  1.0  0.1219
  H  H29  1  0.306070  0.142630  0.492130  1.0  0.1216
  H  H30  1  0.972730  0.475970  0.825470  1.0  0.1222
  H  H31  1  0.190700  0.830100  0.158800  1.0  0.1219
  H  H32  1  0.857370  0.163430  0.492130  1.0  0.1233
  H  H33  1  0.524030  0.496770  0.825470  1.0  0.1217
  H  H34  1  0.169900  0.360600  0.158800  1.0  0.1223
  H  H35  1  0.836570  0.693930  0.492130  1.0  0.1218
  H  H36  1  0.503230  0.027270  0.825470  1.0  0.122
  C  C37  1  0.322740  0.110990  0.243700  1.0  0.3444
  C  C38  1  0.339270  0.126070  0.046100  1.0  -0.2327
  C  C39  1  0.349480  0.181150  0.973900  1.0  -0.0766
  C  C40  1  0.348290  0.086810  0.907100  1.0  0.7438
  C  C41  1  0.989410  0.444320  0.577030  1.0  0.3441
  C  C42  1  0.005940  0.459400  0.379430  1.0  -0.2328
  C  C43  1  0.016150  0.514480  0.307230  1.0  -0.0768
  C  C44  1  0.014960  0.420140  0.240430  1.0  0.7436
  C  C45  1  0.656070  0.777660  0.910370  1.0  0.3446
  C  C46  1  0.672600  0.792740  0.712770  1.0  -0.2327
  C  C47  1  0.682810  0.847820  0.640570  1.0  -0.0773
  C  C48  1  0.681620  0.753480  0.573770  1.0  0.7437
  C  C49  1  0.889010  0.211750  0.243700  1.0  0.3445
  C  C50  1  0.873930  0.213200  0.046100  1.0  -0.2317
  C  C51  1  0.818850  0.168330  0.973900  1.0  -0.0789
  C  C52  1  0.913190  0.261480  0.907100  1.0  0.742
  C  C53  1  0.555680  0.545080  0.577030  1.0  0.3441
  C  C54  1  0.540600  0.546530  0.379430  1.0  -0.2317
  C  C55  1  0.485520  0.501660  0.307230  1.0  -0.0788
  C  C56  1  0.579860  0.594810  0.240430  1.0  0.7421
  C  C57  1  0.222340  0.878420  0.910370  1.0  0.3444
  C  C58  1  0.207260  0.879870  0.712770  1.0  -0.2317
  C  C59  1  0.152180  0.835000  0.640570  1.0  -0.0765
  C  C60  1  0.246520  0.928150  0.573770  1.0  0.742
  C  C61  1  0.788250  0.677260  0.243700  1.0  0.3464
  C  C62  1  0.786800  0.660730  0.046100  1.0  -0.2339
  C  C63  1  0.831670  0.650520  0.973900  1.0  -0.077
  C  C64  1  0.738520  0.651710  0.907100  1.0  0.74
  C  C65  1  0.454920  0.010590  0.577030  1.0  0.3462
  C  C66  1  0.453470  0.994060  0.379430  1.0  -0.2338
  C  C67  1  0.498340  0.983850  0.307230  1.0  -0.0767
  C  C68  1  0.405190  0.985040  0.240430  1.0  0.74
  C  C69  1  0.121580  0.343930  0.910370  1.0  0.3461
  C  C70  1  0.120130  0.327400  0.712770  1.0  -0.2338
  C  C71  1  0.165000  0.317190  0.640570  1.0  -0.0785
  C  C72  1  0.071850  0.318380  0.573770  1.0  0.74
  C  C73  1  0.677260  0.889010  0.756300  1.0  0.344
  C  C74  1  0.660730  0.873930  0.953900  1.0  -0.2331
  C  C75  1  0.650520  0.818850  0.026100  1.0  -0.0774
  C  C76  1  0.651710  0.913190  0.092900  1.0  0.7445
  C  C77  1  0.343930  0.222340  0.089630  1.0  0.3442
  C  C78  1  0.327400  0.207260  0.287230  1.0  -0.2331
  C  C79  1  0.317190  0.152180  0.359430  1.0  -0.0779
  C  C80  1  0.318380  0.246520  0.426230  1.0  0.7444
  C  C81  1  0.010590  0.555680  0.422970  1.0  0.3437
  C  C82  1  0.994060  0.540600  0.620570  1.0  -0.2332
  C  C83  1  0.983850  0.485520  0.692770  1.0  -0.0776
  C  C84  1  0.985040  0.579860  0.759570  1.0  0.7444
  C  C85  1  0.110990  0.788250  0.756300  1.0  0.3455
  C  C86  1  0.126070  0.786800  0.953900  1.0  -0.2328
  C  C87  1  0.181150  0.831670  0.026100  1.0  -0.0787
  C  C88  1  0.086810  0.738520  0.092900  1.0  0.7429
  C  C89  1  0.777660  0.121580  0.089630  1.0  0.3454
  C  C90  1  0.792740  0.120130  0.287230  1.0  -0.2329
  C  C91  1  0.847820  0.165000  0.359430  1.0  -0.0775
  C  C92  1  0.753480  0.071850  0.426230  1.0  0.7429
  C  C93  1  0.444320  0.454920  0.422970  1.0  0.3453
  C  C94  1  0.459400  0.453470  0.620570  1.0  -0.2328
  C  C95  1  0.514480  0.498340  0.692770  1.0  -0.0787
  C  C96  1  0.420140  0.405190  0.759570  1.0  0.743
  C  C97  1  0.211750  0.322740  0.756300  1.0  0.3474
  C  C98  1  0.213200  0.339270  0.953900  1.0  -0.2332
  C  C99  1  0.168330  0.349480  0.026100  1.0  -0.0786
  C  C100  1  0.261480  0.348290  0.092900  1.0  0.7415
  C  C101  1  0.878420  0.656070  0.089630  1.0  0.3472
  C  C102  1  0.879870  0.672600  0.287230  1.0  -0.2331
  C  C103  1  0.835000  0.682810  0.359430  1.0  -0.0805
  C  C104  1  0.928150  0.681620  0.426230  1.0  0.7415
  C  C105  1  0.545080  0.989410  0.422970  1.0  0.3472
  C  C106  1  0.546530  0.005940  0.620570  1.0  -0.2331
  C  C107  1  0.501660  0.016150  0.692770  1.0  -0.0781
  C  C108  1  0.594810  0.014960  0.759570  1.0  0.7415
  O  O109  1  0.311200  0.058980  0.327800  1.0  -0.6597
  O  O110  1  0.339710  0.037250  0.970700  1.0  -0.657
  O  O111  1  0.364990  0.103940  0.735000  1.0  -0.608
  O  O112  1  0.977870  0.392310  0.661130  1.0  -0.6597
  O  O113  1  0.006380  0.370580  0.304030  1.0  -0.657
  O  O114  1  0.031660  0.437270  0.068330  1.0  -0.608
  O  O115  1  0.644530  0.725650  0.994470  1.0  -0.6596
  O  O116  1  0.673040  0.703920  0.637370  1.0  -0.657
  O  O117  1  0.698320  0.770610  0.401670  1.0  -0.608
  O  O118  1  0.941020  0.252220  0.327800  1.0  -0.6581
  O  O119  1  0.962750  0.302460  0.970700  1.0  -0.6557
  O  O120  1  0.896060  0.261050  0.735000  1.0  -0.6081
  O  O121  1  0.607690  0.585550  0.661130  1.0  -0.6581
  O  O122  1  0.629420  0.635790  0.304030  1.0  -0.6558
  O  O123  1  0.562730  0.594380  0.068330  1.0  -0.6081
  O  O124  1  0.274350  0.918890  0.994470  1.0  -0.6581
  O  O125  1  0.296080  0.969130  0.637370  1.0  -0.6557
  O  O126  1  0.229390  0.927720  0.401670  1.0  -0.6081
  O  O127  1  0.747780  0.688800  0.327800  1.0  -0.6605
  O  O128  1  0.697540  0.660290  0.970700  1.0  -0.6556
  O  O129  1  0.738950  0.635010  0.735000  1.0  -0.6092
  O  O130  1  0.414450  0.022130  0.661130  1.0  -0.6605
  O  O131  1  0.364210  0.993620  0.304030  1.0  -0.6556
  O  O132  1  0.405620  0.968340  0.068330  1.0  -0.6092
  O  O133  1  0.081110  0.355470  0.994470  1.0  -0.6605
  O  O134  1  0.030870  0.326960  0.637370  1.0  -0.6556
  O  O135  1  0.072280  0.301680  0.401670  1.0  -0.6092
  O  O136  1  0.688800  0.941020  0.672200  1.0  -0.6603
  O  O137  1  0.660290  0.962750  0.029300  1.0  -0.6557
  O  O138  1  0.635010  0.896060  0.265000  1.0  -0.6092
  O  O139  1  0.355470  0.274350  0.005530  1.0  -0.6602
  O  O140  1  0.326960  0.296080  0.362630  1.0  -0.6558
  O  O141  1  0.301680  0.229390  0.598330  1.0  -0.6092
  O  O142  1  0.022130  0.607690  0.338870  1.0  -0.6603
  O  O143  1  0.993620  0.629420  0.695970  1.0  -0.6558
  O  O144  1  0.968340  0.562730  0.931670  1.0  -0.6092
  O  O145  1  0.058980  0.747780  0.672200  1.0  -0.6602
  O  O146  1  0.037250  0.697540  0.029300  1.0  -0.6575
  O  O147  1  0.103940  0.738950  0.265000  1.0  -0.6081
  O  O148  1  0.725650  0.081110  0.005530  1.0  -0.6602
  O  O149  1  0.703920  0.030870  0.362630  1.0  -0.6575
  O  O150  1  0.770610  0.072280  0.598330  1.0  -0.6081
  O  O151  1  0.392310  0.414450  0.338870  1.0  -0.6601
  O  O152  1  0.370580  0.364210  0.695970  1.0  -0.6576
  O  O153  1  0.437270  0.405620  0.931670  1.0  -0.6081
  O  O154  1  0.252220  0.311200  0.672200  1.0  -0.6606
  O  O155  1  0.302460  0.339710  0.029300  1.0  -0.6565
  O  O156  1  0.261050  0.364990  0.265000  1.0  -0.6092
  O  O157  1  0.918890  0.644530  0.005530  1.0  -0.6607
  O  O158  1  0.969130  0.673040  0.362630  1.0  -0.6565
  O  O159  1  0.927720  0.698320  0.598330  1.0  -0.6092
  O  O160  1  0.585550  0.977870  0.338870  1.0  -0.6606
  O  O161  1  0.635790  0.006380  0.695970  1.0  -0.6565
  O  O162  1  0.594380  0.031660  0.931670  1.0  -0.6092
