# generated using pymatgen
data_Zn3H36C66(NO6)2
_symmetry_space_group_name_H-M   'P 1'
_cell_length_a   30.05700000
_cell_length_b   16.18700000
_cell_length_c   21.89400000
_cell_angle_alpha   90.00000000
_cell_angle_beta   114.47800000
_cell_angle_gamma   90.00000000
_symmetry_Int_Tables_number   1
_chemical_formula_structural   Zn3H36C66(NO6)2
_chemical_formula_sum   'Zn12 H144 C264 N8 O48'
_cell_volume   9694.73577949
_cell_formula_units_Z   4
loop_
 _symmetry_equiv_pos_site_id
 _symmetry_equiv_pos_as_xyz
  1  'x, y, z'
loop_
 _atom_site_type_symbol
 _atom_site_label
 _atom_site_symmetry_multiplicity
 _atom_site_fract_x
 _atom_site_fract_y
 _atom_site_fract_z
 _atom_site_occupancy
 _atom_site_charge
  Zn  Zn1  1  0.701580  0.548520  0.474370  1.0  1.1297
  Zn  Zn2  1  0.201580  0.048520  0.474370  1.0  1.1304
  Zn  Zn3  1  0.298420  0.548520  0.025630  1.0  1.1304
  Zn  Zn4  1  0.798420  0.048520  0.025630  1.0  1.13
  Zn  Zn5  1  0.298420  0.451480  0.525630  1.0  1.1319
  Zn  Zn6  1  0.798420  0.951480  0.525630  1.0  1.1325
  Zn  Zn7  1  0.701580  0.451480  0.974370  1.0  1.1329
  Zn  Zn8  1  0.201580  0.951480  0.974370  1.0  1.1324
  Zn  Zn9  1  0.750000  0.750000  0.500000  1.0  1.1496
  Zn  Zn10  1  0.250000  0.750000  0.000000  1.0  1.1496
  Zn  Zn11  1  0.250000  0.250000  0.500000  1.0  1.1496
  Zn  Zn12  1  0.750000  0.250000  0.000000  1.0  1.1496
  H  H13  1  0.931100  0.126700  0.996300  1.0  0.1028
  H  H14  1  0.992800  0.206200  0.991300  1.0  0.1107
  H  H15  1  0.910800  0.408600  0.967000  1.0  0.0963
  H  H16  1  0.848600  0.328300  0.970300  1.0  0.0941
  H  H17  1  0.047600  0.281800  0.097600  1.0  0.1281
  H  H18  1  0.178900  0.376300  0.125600  1.0  0.1115
  H  H19  1  0.143400  0.453500  0.028500  1.0  0.1102
  H  H20  1  0.077200  0.529800  0.905700  1.0  0.1105
  H  H21  1  0.009500  0.569900  0.811700  1.0  0.1029
  H  H22  1  0.922500  0.420500  0.861000  1.0  0.1193
  H  H23  1  0.091200  0.178600  0.158900  1.0  0.1126
  H  H24  1  0.125300  0.106600  0.258500  1.0  0.1041
  H  H25  1  0.231900  0.273200  0.331400  1.0  0.1037
  H  H26  1  0.198700  0.346000  0.231700  1.0  0.1118
  H  H27  1  0.938600  0.639000  0.758500  1.0  0.1133
  H  H28  1  0.874700  0.674900  0.658300  1.0  0.1016
  H  H29  1  0.819400  0.447200  0.641600  1.0  0.1081
  H  H30  1  0.883800  0.410200  0.741600  1.0  0.1128
  H  H31  1  0.431100  0.626700  0.996300  1.0  0.1028
  H  H32  1  0.492800  0.706200  0.991300  1.0  0.1107
  H  H33  1  0.410800  0.908600  0.967000  1.0  0.0963
  H  H34  1  0.348600  0.828300  0.970300  1.0  0.0941
  H  H35  1  0.547600  0.781800  0.097600  1.0  0.1281
  H  H36  1  0.678900  0.876300  0.125600  1.0  0.1115
  H  H37  1  0.643400  0.953500  0.028500  1.0  0.1102
  H  H38  1  0.577200  0.029800  0.905700  1.0  0.1105
  H  H39  1  0.509500  0.069900  0.811700  1.0  0.1029
  H  H40  1  0.422500  0.920500  0.861000  1.0  0.1193
  H  H41  1  0.591200  0.678600  0.158900  1.0  0.1126
  H  H42  1  0.625300  0.606600  0.258500  1.0  0.1041
  H  H43  1  0.731900  0.773200  0.331400  1.0  0.1037
  H  H44  1  0.698700  0.846000  0.231700  1.0  0.1118
  H  H45  1  0.438600  0.139000  0.758500  1.0  0.1133
  H  H46  1  0.374700  0.174900  0.658300  1.0  0.1016
  H  H47  1  0.319400  0.947200  0.641600  1.0  0.1081
  H  H48  1  0.383800  0.910200  0.741600  1.0  0.1128
  H  H49  1  0.068900  0.126700  0.503700  1.0  0.1025
  H  H50  1  0.007200  0.206200  0.508700  1.0  0.1114
  H  H51  1  0.089200  0.408600  0.533000  1.0  0.0964
  H  H52  1  0.151400  0.328300  0.529700  1.0  0.0947
  H  H53  1  0.952400  0.281800  0.402400  1.0  0.1277
  H  H54  1  0.821100  0.376300  0.374400  1.0  0.1124
  H  H55  1  0.856600  0.453500  0.471500  1.0  0.1103
  H  H56  1  0.922800  0.529800  0.594300  1.0  0.1111
  H  H57  1  0.990500  0.569900  0.688300  1.0  0.1027
  H  H58  1  0.077500  0.420500  0.639000  1.0  0.1197
  H  H59  1  0.908800  0.178600  0.341100  1.0  0.1123
  H  H60  1  0.874700  0.106600  0.241500  1.0  0.1048
  H  H61  1  0.768100  0.273200  0.168600  1.0  0.1043
  H  H62  1  0.801300  0.346000  0.268300  1.0  0.1116
  H  H63  1  0.061400  0.639000  0.741500  1.0  0.1138
  H  H64  1  0.125300  0.674900  0.841700  1.0  0.1014
  H  H65  1  0.180600  0.447200  0.858400  1.0  0.1088
  H  H66  1  0.116200  0.410200  0.758400  1.0  0.1125
  H  H67  1  0.568900  0.626700  0.503700  1.0  0.1025
  H  H68  1  0.507200  0.706200  0.508700  1.0  0.1114
  H  H69  1  0.589200  0.908600  0.533000  1.0  0.0964
  H  H70  1  0.651400  0.828300  0.529700  1.0  0.0947
  H  H71  1  0.452400  0.781800  0.402400  1.0  0.1277
  H  H72  1  0.321100  0.876300  0.374400  1.0  0.1124
  H  H73  1  0.356600  0.953500  0.471500  1.0  0.1103
  H  H74  1  0.422800  0.029800  0.594300  1.0  0.1111
  H  H75  1  0.490500  0.069900  0.688300  1.0  0.1027
  H  H76  1  0.577500  0.920500  0.639000  1.0  0.1197
  H  H77  1  0.408800  0.678600  0.341100  1.0  0.1123
  H  H78  1  0.374700  0.606600  0.241500  1.0  0.1048
  H  H79  1  0.268100  0.773200  0.168600  1.0  0.1043
  H  H80  1  0.301300  0.846000  0.268300  1.0  0.1116
  H  H81  1  0.561400  0.139000  0.741500  1.0  0.1138
  H  H82  1  0.625300  0.174900  0.841700  1.0  0.1014
  H  H83  1  0.680600  0.947200  0.858400  1.0  0.1088
  H  H84  1  0.616200  0.910200  0.758400  1.0  0.1125
  H  H85  1  0.068900  0.873300  0.003700  1.0  0.1022
  H  H86  1  0.007200  0.793800  0.008700  1.0  0.1107
  H  H87  1  0.089200  0.591400  0.033000  1.0  0.0967
  H  H88  1  0.151400  0.671700  0.029700  1.0  0.0948
  H  H89  1  0.952400  0.718200  0.902400  1.0  0.1276
  H  H90  1  0.821100  0.623700  0.874400  1.0  0.1123
  H  H91  1  0.856600  0.546500  0.971500  1.0  0.1102
  H  H92  1  0.922800  0.470200  0.094300  1.0  0.1112
  H  H93  1  0.990500  0.430100  0.188300  1.0  0.1027
  H  H94  1  0.077500  0.579500  0.139000  1.0  0.119
  H  H95  1  0.908800  0.821400  0.841100  1.0  0.1126
  H  H96  1  0.874700  0.893400  0.741500  1.0  0.1046
  H  H97  1  0.768100  0.726800  0.668600  1.0  0.1035
  H  H98  1  0.801300  0.654000  0.768300  1.0  0.1112
  H  H99  1  0.061400  0.361000  0.241500  1.0  0.1128
  H  H100  1  0.125300  0.325100  0.341700  1.0  0.1014
  H  H101  1  0.180600  0.552800  0.358400  1.0  0.1103
  H  H102  1  0.116200  0.589800  0.258400  1.0  0.1131
  H  H103  1  0.568900  0.373300  0.003700  1.0  0.1022
  H  H104  1  0.507200  0.293800  0.008700  1.0  0.1107
  H  H105  1  0.589200  0.091400  0.033000  1.0  0.0967
  H  H106  1  0.651400  0.171700  0.029700  1.0  0.0948
  H  H107  1  0.452400  0.218200  0.902400  1.0  0.1276
  H  H108  1  0.321100  0.123700  0.874400  1.0  0.1123
  H  H109  1  0.356600  0.046500  0.971500  1.0  0.1102
  H  H110  1  0.422800  0.970200  0.094300  1.0  0.1112
  H  H111  1  0.490500  0.930100  0.188300  1.0  0.1027
  H  H112  1  0.577500  0.079500  0.139000  1.0  0.119
  H  H113  1  0.408800  0.321400  0.841100  1.0  0.1126
  H  H114  1  0.374700  0.393400  0.741500  1.0  0.1046
  H  H115  1  0.268100  0.226800  0.668600  1.0  0.1035
  H  H116  1  0.301300  0.154000  0.768300  1.0  0.1112
  H  H117  1  0.561400  0.861000  0.241500  1.0  0.1128
  H  H118  1  0.625300  0.825100  0.341700  1.0  0.1014
  H  H119  1  0.680600  0.052800  0.358400  1.0  0.1103
  H  H120  1  0.616200  0.089800  0.258400  1.0  0.1131
  H  H121  1  0.931100  0.873300  0.496300  1.0  0.1028
  H  H122  1  0.992800  0.793800  0.491300  1.0  0.1112
  H  H123  1  0.910800  0.591400  0.467000  1.0  0.0961
  H  H124  1  0.848600  0.671700  0.470300  1.0  0.0943
  H  H125  1  0.047600  0.718200  0.597600  1.0  0.1277
  H  H126  1  0.178900  0.623700  0.625600  1.0  0.1114
  H  H127  1  0.143400  0.546500  0.528500  1.0  0.1104
  H  H128  1  0.077200  0.470200  0.405700  1.0  0.1108
  H  H129  1  0.009500  0.430100  0.311700  1.0  0.1022
  H  H130  1  0.922500  0.579500  0.361000  1.0  0.1187
  H  H131  1  0.091200  0.821400  0.658900  1.0  0.1135
  H  H132  1  0.125300  0.893400  0.758500  1.0  0.1043
  H  H133  1  0.231900  0.726800  0.831400  1.0  0.1026
  H  H134  1  0.198700  0.654000  0.731700  1.0  0.1119
  H  H135  1  0.938600  0.361000  0.258500  1.0  0.1127
  H  H136  1  0.874700  0.325100  0.158300  1.0  0.1014
  H  H137  1  0.819400  0.552800  0.141600  1.0  0.1119
  H  H138  1  0.883800  0.589800  0.241600  1.0  0.1126
  H  H139  1  0.431100  0.373300  0.496300  1.0  0.1028
  H  H140  1  0.492800  0.293800  0.491300  1.0  0.1112
  H  H141  1  0.410800  0.091400  0.467000  1.0  0.0961
  H  H142  1  0.348600  0.171700  0.470300  1.0  0.0943
  H  H143  1  0.547600  0.218200  0.597600  1.0  0.1277
  H  H144  1  0.678900  0.123700  0.625600  1.0  0.1114
  H  H145  1  0.643400  0.046500  0.528500  1.0  0.1104
  H  H146  1  0.577200  0.970200  0.405700  1.0  0.1108
  H  H147  1  0.509500  0.930100  0.311700  1.0  0.1022
  H  H148  1  0.422500  0.079500  0.361000  1.0  0.1187
  H  H149  1  0.591200  0.321400  0.658900  1.0  0.1135
  H  H150  1  0.625300  0.393400  0.758500  1.0  0.1043
  H  H151  1  0.731900  0.226800  0.831400  1.0  0.1026
  H  H152  1  0.698700  0.154000  0.731700  1.0  0.1119
  H  H153  1  0.438600  0.861000  0.258500  1.0  0.1127
  H  H154  1  0.374700  0.825100  0.158300  1.0  0.1014
  H  H155  1  0.319400  0.052800  0.141600  1.0  0.1119
  H  H156  1  0.383800  0.089800  0.241600  1.0  0.1126
  C  C157  1  0.844630  0.167500  0.991020  1.0  0.6408
  C  C158  1  0.883680  0.218790  0.984880  1.0  -0.1478
  C  C159  1  0.926910  0.183490  0.990480  1.0  -0.0438
  C  C160  1  0.963900  0.231010  0.987560  1.0  -0.1916
  C  C161  1  0.958270  0.315540  0.979100  1.0  0.1917
  C  C162  1  0.914950  0.351750  0.972850  1.0  -0.1826
  C  C163  1  0.877860  0.303660  0.975220  1.0  -0.0299
  C  C164  1  0.046190  0.360070  0.024010  1.0  0.162
  C  C165  1  0.066950  0.314790  0.083540  1.0  -0.1223
  C  C166  1  0.116950  0.320040  0.121130  1.0  0.0427
  C  C167  1  0.145360  0.372670  0.099910  1.0  -0.1392
  C  C168  1  0.124240  0.418860  0.041700  1.0  -0.0962
  C  C169  1  0.074210  0.413010  0.003060  1.0  -0.0297
  C  C170  1  0.040830  0.451310  0.941460  1.0  -0.0245
  C  C171  1  0.046610  0.507950  0.897240  1.0  -0.1172
  C  C172  1  0.005960  0.531070  0.840670  1.0  -0.1028
  C  C173  1  0.959590  0.497670  0.825650  1.0  -0.0254
  C  C174  1  0.953180  0.442270  0.869700  1.0  -0.1017
  C  C175  1  0.993810  0.420240  0.927190  1.0  0.1504
  C  C176  1  0.140300  0.271330  0.184490  1.0  0.0561
  C  C177  1  0.119410  0.198570  0.193530  1.0  -0.1509
  C  C178  1  0.139930  0.155180  0.253310  1.0  -0.0443
  C  C179  1  0.182380  0.183910  0.305850  1.0  -0.1577
  C  C180  1  0.203400  0.254100  0.296800  1.0  -0.025
  C  C181  1  0.183310  0.298290  0.236870  1.0  -0.14
  C  C182  1  0.201990  0.140900  0.372430  1.0  0.7059
  C  C183  1  0.917700  0.520770  0.761600  1.0  0.0312
  C  C184  1  0.914670  0.600150  0.735440  1.0  -0.1049
  C  C185  1  0.876280  0.621790  0.675250  1.0  -0.0403
  C  C186  1  0.840390  0.565080  0.640300  1.0  -0.1459
  C  C187  1  0.843280  0.485870  0.665110  1.0  -0.0431
  C  C188  1  0.881960  0.463800  0.725420  1.0  -0.1169
  C  C189  1  0.797570  0.591880  0.577690  1.0  0.6886
  C  C190  1  0.344630  0.667500  0.991020  1.0  0.6408
  C  C191  1  0.383680  0.718790  0.984880  1.0  -0.1478
  C  C192  1  0.426910  0.683490  0.990480  1.0  -0.0438
  C  C193  1  0.463900  0.731010  0.987560  1.0  -0.1916
  C  C194  1  0.458270  0.815540  0.979100  1.0  0.1917
  C  C195  1  0.414950  0.851750  0.972850  1.0  -0.1826
  C  C196  1  0.377860  0.803660  0.975220  1.0  -0.0299
  C  C197  1  0.546190  0.860070  0.024010  1.0  0.162
  C  C198  1  0.566950  0.814790  0.083540  1.0  -0.1223
  C  C199  1  0.616950  0.820040  0.121130  1.0  0.0427
  C  C200  1  0.645360  0.872670  0.099910  1.0  -0.1392
  C  C201  1  0.624240  0.918860  0.041700  1.0  -0.0962
  C  C202  1  0.574210  0.913010  0.003060  1.0  -0.0297
  C  C203  1  0.540830  0.951310  0.941460  1.0  -0.0245
  C  C204  1  0.546610  0.007950  0.897240  1.0  -0.1172
  C  C205  1  0.505960  0.031070  0.840670  1.0  -0.1028
  C  C206  1  0.459590  0.997670  0.825650  1.0  -0.0254
  C  C207  1  0.453180  0.942270  0.869700  1.0  -0.1017
  C  C208  1  0.493810  0.920240  0.927190  1.0  0.1504
  C  C209  1  0.640300  0.771330  0.184490  1.0  0.0561
  C  C210  1  0.619410  0.698570  0.193530  1.0  -0.1509
  C  C211  1  0.639930  0.655180  0.253310  1.0  -0.0443
  C  C212  1  0.682380  0.683910  0.305850  1.0  -0.1577
  C  C213  1  0.703400  0.754100  0.296800  1.0  -0.025
  C  C214  1  0.683310  0.798290  0.236870  1.0  -0.14
  C  C215  1  0.701990  0.640900  0.372430  1.0  0.7059
  C  C216  1  0.417700  0.020770  0.761600  1.0  0.0312
  C  C217  1  0.414670  0.100150  0.735440  1.0  -0.1049
  C  C218  1  0.376280  0.121790  0.675250  1.0  -0.0403
  C  C219  1  0.340390  0.065080  0.640300  1.0  -0.1459
  C  C220  1  0.343280  0.985870  0.665110  1.0  -0.0431
  C  C221  1  0.381960  0.963800  0.725420  1.0  -0.1169
  C  C222  1  0.297570  0.091880  0.577690  1.0  0.6886
  C  C223  1  0.155370  0.167500  0.508980  1.0  0.6409
  C  C224  1  0.116320  0.218790  0.515120  1.0  -0.1473
  C  C225  1  0.073090  0.183490  0.509520  1.0  -0.0419
  C  C226  1  0.036100  0.231010  0.512440  1.0  -0.1907
  C  C227  1  0.041730  0.315540  0.520900  1.0  0.1924
  C  C228  1  0.085050  0.351750  0.527150  1.0  -0.1823
  C  C229  1  0.122140  0.303660  0.524780  1.0  -0.029
  C  C230  1  0.953810  0.360070  0.475990  1.0  0.1623
  C  C231  1  0.933050  0.314790  0.416460  1.0  -0.1245
  C  C232  1  0.883050  0.320040  0.378870  1.0  0.0434
  C  C233  1  0.854640  0.372670  0.400090  1.0  -0.1367
  C  C234  1  0.875760  0.418860  0.458300  1.0  -0.0964
  C  C235  1  0.925790  0.413010  0.496940  1.0  -0.0288
  C  C236  1  0.959170  0.451310  0.558540  1.0  -0.0237
  C  C237  1  0.953390  0.507950  0.602760  1.0  -0.1162
  C  C238  1  0.994040  0.531070  0.659330  1.0  -0.1023
  C  C239  1  0.040410  0.497670  0.674350  1.0  -0.0254
  C  C240  1  0.046820  0.442270  0.630300  1.0  -0.102
  C  C241  1  0.006190  0.420240  0.572810  1.0  0.1513
  C  C242  1  0.859700  0.271330  0.315510  1.0  0.0551
  C  C243  1  0.880590  0.198570  0.306470  1.0  -0.1533
  C  C244  1  0.860070  0.155180  0.246690  1.0  -0.0451
  C  C245  1  0.817620  0.183910  0.194150  1.0  -0.1558
  C  C246  1  0.796600  0.254100  0.203200  1.0  -0.0266
  C  C247  1  0.816690  0.298290  0.263130  1.0  -0.1429
  C  C248  1  0.798010  0.140900  0.127570  1.0  0.7052
  C  C249  1  0.082300  0.520770  0.738400  1.0  0.0328
  C  C250  1  0.085330  0.600150  0.764560  1.0  -0.104
  C  C251  1  0.123720  0.621790  0.824750  1.0  -0.041
  C  C252  1  0.159610  0.565080  0.859700  1.0  -0.1456
  C  C253  1  0.156720  0.485870  0.834890  1.0  -0.0423
  C  C254  1  0.118040  0.463800  0.774580  1.0  -0.1175
  C  C255  1  0.202430  0.591880  0.922310  1.0  0.6867
  C  C256  1  0.655370  0.667500  0.508980  1.0  0.6409
  C  C257  1  0.616320  0.718790  0.515120  1.0  -0.1473
  C  C258  1  0.573090  0.683490  0.509520  1.0  -0.0419
  C  C259  1  0.536100  0.731010  0.512440  1.0  -0.1907
  C  C260  1  0.541730  0.815540  0.520900  1.0  0.1924
  C  C261  1  0.585050  0.851750  0.527150  1.0  -0.1823
  C  C262  1  0.622140  0.803660  0.524780  1.0  -0.029
  C  C263  1  0.453810  0.860070  0.475990  1.0  0.1623
  C  C264  1  0.433050  0.814790  0.416460  1.0  -0.1245
  C  C265  1  0.383050  0.820040  0.378870  1.0  0.0434
  C  C266  1  0.354640  0.872670  0.400090  1.0  -0.1367
  C  C267  1  0.375760  0.918860  0.458300  1.0  -0.0964
  C  C268  1  0.425790  0.913010  0.496940  1.0  -0.0288
  C  C269  1  0.459170  0.951310  0.558540  1.0  -0.0237
  C  C270  1  0.453390  0.007950  0.602760  1.0  -0.1162
  C  C271  1  0.494040  0.031070  0.659330  1.0  -0.1023
  C  C272  1  0.540410  0.997670  0.674350  1.0  -0.0254
  C  C273  1  0.546820  0.942270  0.630300  1.0  -0.102
  C  C274  1  0.506190  0.920240  0.572810  1.0  0.1513
  C  C275  1  0.359700  0.771330  0.315510  1.0  0.0551
  C  C276  1  0.380590  0.698570  0.306470  1.0  -0.1533
  C  C277  1  0.360070  0.655180  0.246690  1.0  -0.0451
  C  C278  1  0.317620  0.683910  0.194150  1.0  -0.1558
  C  C279  1  0.296600  0.754100  0.203200  1.0  -0.0266
  C  C280  1  0.316690  0.798290  0.263130  1.0  -0.1429
  C  C281  1  0.298010  0.640900  0.127570  1.0  0.7052
  C  C282  1  0.582300  0.020770  0.738400  1.0  0.0328
  C  C283  1  0.585330  0.100150  0.764560  1.0  -0.104
  C  C284  1  0.623720  0.121790  0.824750  1.0  -0.041
  C  C285  1  0.659610  0.065080  0.859700  1.0  -0.1456
  C  C286  1  0.656720  0.985870  0.834890  1.0  -0.0423
  C  C287  1  0.618040  0.963800  0.774580  1.0  -0.1175
  C  C288  1  0.702430  0.091880  0.922310  1.0  0.6867
  C  C289  1  0.155370  0.832500  0.008980  1.0  0.6413
  C  C290  1  0.116320  0.781210  0.015120  1.0  -0.1462
  C  C291  1  0.073090  0.816510  0.009520  1.0  -0.0399
  C  C292  1  0.036100  0.768990  0.012440  1.0  -0.1914
  C  C293  1  0.041730  0.684460  0.020900  1.0  0.1924
  C  C294  1  0.085050  0.648250  0.027150  1.0  -0.1825
  C  C295  1  0.122140  0.696340  0.024780  1.0  -0.0287
  C  C296  1  0.953810  0.639930  0.975990  1.0  0.1618
  C  C297  1  0.933050  0.685210  0.916460  1.0  -0.1231
  C  C298  1  0.883050  0.679960  0.878870  1.0  0.0438
  C  C299  1  0.854640  0.627330  0.900090  1.0  -0.1369
  C  C300  1  0.875760  0.581140  0.958300  1.0  -0.0968
  C  C301  1  0.925790  0.586990  0.996940  1.0  -0.0292
  C  C302  1  0.959170  0.548690  0.058540  1.0  -0.0238
  C  C303  1  0.953390  0.492050  0.102760  1.0  -0.1167
  C  C304  1  0.994040  0.468930  0.159330  1.0  -0.1021
  C  C305  1  0.040410  0.502330  0.174350  1.0  -0.0255
  C  C306  1  0.046820  0.557730  0.130300  1.0  -0.1018
  C  C307  1  0.006190  0.579760  0.072810  1.0  0.1498
  C  C308  1  0.859700  0.728670  0.815510  1.0  0.0562
  C  C309  1  0.880590  0.801430  0.806470  1.0  -0.1524
  C  C310  1  0.860070  0.844820  0.746690  1.0  -0.043
  C  C311  1  0.817620  0.816090  0.694150  1.0  -0.1554
  C  C312  1  0.796600  0.745900  0.703200  1.0  -0.0271
  C  C313  1  0.816690  0.701710  0.763130  1.0  -0.1413
  C  C314  1  0.798010  0.859100  0.627570  1.0  0.7067
  C  C315  1  0.082300  0.479230  0.238400  1.0  0.0324
  C  C316  1  0.085330  0.399850  0.264560  1.0  -0.1032
  C  C317  1  0.123720  0.378210  0.324750  1.0  -0.0406
  C  C318  1  0.159610  0.434920  0.359700  1.0  -0.1453
  C  C319  1  0.156720  0.514130  0.334890  1.0  -0.0415
  C  C320  1  0.118040  0.536200  0.274580  1.0  -0.1161
  C  C321  1  0.202430  0.408120  0.422310  1.0  0.6873
  C  C322  1  0.655370  0.332500  0.008980  1.0  0.6413
  C  C323  1  0.616320  0.281210  0.015120  1.0  -0.1462
  C  C324  1  0.573090  0.316510  0.009520  1.0  -0.0399
  C  C325  1  0.536100  0.268990  0.012440  1.0  -0.1914
  C  C326  1  0.541730  0.184460  0.020900  1.0  0.1924
  C  C327  1  0.585050  0.148250  0.027150  1.0  -0.1825
  C  C328  1  0.622140  0.196340  0.024780  1.0  -0.0287
  C  C329  1  0.453810  0.139930  0.975990  1.0  0.1618
  C  C330  1  0.433050  0.185210  0.916460  1.0  -0.1231
  C  C331  1  0.383050  0.179960  0.878870  1.0  0.0438
  C  C332  1  0.354640  0.127330  0.900090  1.0  -0.1369
  C  C333  1  0.375760  0.081140  0.958300  1.0  -0.0968
  C  C334  1  0.425790  0.086990  0.996940  1.0  -0.0292
  C  C335  1  0.459170  0.048690  0.058540  1.0  -0.0238
  C  C336  1  0.453390  0.992050  0.102760  1.0  -0.1167
  C  C337  1  0.494040  0.968930  0.159330  1.0  -0.1021
  C  C338  1  0.540410  0.002330  0.174350  1.0  -0.0255
  C  C339  1  0.546820  0.057730  0.130300  1.0  -0.1018
  C  C340  1  0.506190  0.079760  0.072810  1.0  0.1498
  C  C341  1  0.359700  0.228670  0.815510  1.0  0.0562
  C  C342  1  0.380590  0.301430  0.806470  1.0  -0.1524
  C  C343  1  0.360070  0.344820  0.746690  1.0  -0.043
  C  C344  1  0.317620  0.316090  0.694150  1.0  -0.1554
  C  C345  1  0.296600  0.245900  0.703200  1.0  -0.0271
  C  C346  1  0.316690  0.201710  0.763130  1.0  -0.1413
  C  C347  1  0.298010  0.359100  0.627570  1.0  0.7067
  C  C348  1  0.582300  0.979230  0.238400  1.0  0.0324
  C  C349  1  0.585330  0.899850  0.264560  1.0  -0.1032
  C  C350  1  0.623720  0.878210  0.324750  1.0  -0.0406
  C  C351  1  0.659610  0.934920  0.359700  1.0  -0.1453
  C  C352  1  0.656720  0.014130  0.334890  1.0  -0.0415
  C  C353  1  0.618040  0.036200  0.274580  1.0  -0.1161
  C  C354  1  0.702430  0.908120  0.422310  1.0  0.6873
  C  C355  1  0.844630  0.832500  0.491020  1.0  0.6404
  C  C356  1  0.883680  0.781210  0.484880  1.0  -0.1468
  C  C357  1  0.926910  0.816510  0.490480  1.0  -0.0396
  C  C358  1  0.963900  0.768990  0.487560  1.0  -0.1898
  C  C359  1  0.958270  0.684460  0.479100  1.0  0.1916
  C  C360  1  0.914950  0.648250  0.472850  1.0  -0.1833
  C  C361  1  0.877860  0.696340  0.475220  1.0  -0.0299
  C  C362  1  0.046190  0.639930  0.524010  1.0  0.1622
  C  C363  1  0.066950  0.685210  0.583540  1.0  -0.121
  C  C364  1  0.116950  0.679960  0.621130  1.0  0.042
  C  C365  1  0.145360  0.627330  0.599910  1.0  -0.1383
  C  C366  1  0.124240  0.581140  0.541700  1.0  -0.0956
  C  C367  1  0.074210  0.586990  0.503060  1.0  -0.0293
  C  C368  1  0.040830  0.548690  0.441460  1.0  -0.0241
  C  C369  1  0.046610  0.492050  0.397240  1.0  -0.1174
  C  C370  1  0.005960  0.468930  0.340670  1.0  -0.1026
  C  C371  1  0.959590  0.502330  0.325650  1.0  -0.0253
  C  C372  1  0.953180  0.557730  0.369700  1.0  -0.1016
  C  C373  1  0.993810  0.579760  0.427190  1.0  0.1497
  C  C374  1  0.140300  0.728670  0.684490  1.0  0.0569
  C  C375  1  0.119410  0.801430  0.693530  1.0  -0.1528
  C  C376  1  0.139930  0.844820  0.753310  1.0  -0.0429
  C  C377  1  0.182380  0.816090  0.805850  1.0  -0.158
  C  C378  1  0.203400  0.745900  0.796800  1.0  -0.025
  C  C379  1  0.183310  0.701710  0.736870  1.0  -0.1399
  C  C380  1  0.201990  0.859100  0.872430  1.0  0.7056
  C  C381  1  0.917700  0.479230  0.261600  1.0  0.0313
  C  C382  1  0.914670  0.399850  0.235440  1.0  -0.1042
  C  C383  1  0.876280  0.378210  0.175250  1.0  -0.0395
  C  C384  1  0.840390  0.434920  0.140300  1.0  -0.1452
  C  C385  1  0.843280  0.514130  0.165110  1.0  -0.0427
  C  C386  1  0.881960  0.536200  0.225420  1.0  -0.1152
  C  C387  1  0.797570  0.408120  0.077690  1.0  0.6898
  C  C388  1  0.344630  0.332500  0.491020  1.0  0.6404
  C  C389  1  0.383680  0.281210  0.484880  1.0  -0.1468
  C  C390  1  0.426910  0.316510  0.490480  1.0  -0.0396
  C  C391  1  0.463900  0.268990  0.487560  1.0  -0.1898
  C  C392  1  0.458270  0.184460  0.479100  1.0  0.1916
  C  C393  1  0.414950  0.148250  0.472850  1.0  -0.1833
  C  C394  1  0.377860  0.196340  0.475220  1.0  -0.0299
  C  C395  1  0.546190  0.139930  0.524010  1.0  0.1622
  C  C396  1  0.566950  0.185210  0.583540  1.0  -0.121
  C  C397  1  0.616950  0.179960  0.621130  1.0  0.042
  C  C398  1  0.645360  0.127330  0.599910  1.0  -0.1383
  C  C399  1  0.624240  0.081140  0.541700  1.0  -0.0956
  C  C400  1  0.574210  0.086990  0.503060  1.0  -0.0293
  C  C401  1  0.540830  0.048690  0.441460  1.0  -0.0241
  C  C402  1  0.546610  0.992050  0.397240  1.0  -0.1174
  C  C403  1  0.505960  0.968930  0.340670  1.0  -0.1026
  C  C404  1  0.459590  0.002330  0.325650  1.0  -0.0253
  C  C405  1  0.453180  0.057730  0.369700  1.0  -0.1016
  C  C406  1  0.493810  0.079760  0.427190  1.0  0.1497
  C  C407  1  0.640300  0.228670  0.684490  1.0  0.0569
  C  C408  1  0.619410  0.301430  0.693530  1.0  -0.1528
  C  C409  1  0.639930  0.344820  0.753310  1.0  -0.0429
  C  C410  1  0.682380  0.316090  0.805850  1.0  -0.158
  C  C411  1  0.703400  0.245900  0.796800  1.0  -0.025
  C  C412  1  0.683310  0.201710  0.736870  1.0  -0.1399
  C  C413  1  0.701990  0.359100  0.872430  1.0  0.7056
  C  C414  1  0.417700  0.979230  0.261600  1.0  0.0313
  C  C415  1  0.414670  0.899850  0.235440  1.0  -0.1042
  C  C416  1  0.376280  0.878210  0.175250  1.0  -0.0395
  C  C417  1  0.340390  0.934920  0.140300  1.0  -0.1452
  C  C418  1  0.343280  0.014130  0.165110  1.0  -0.0427
  C  C419  1  0.381960  0.036200  0.225420  1.0  -0.1152
  C  C420  1  0.297570  0.908120  0.077690  1.0  0.6898
  N  N421  1  0.997090  0.364240  0.978090  1.0  -0.1999
  N  N422  1  0.497090  0.864240  0.978090  1.0  -0.1999
  N  N423  1  0.002910  0.364240  0.521910  1.0  -0.2012
  N  N424  1  0.502910  0.864240  0.521910  1.0  -0.2012
  N  N425  1  0.002910  0.635760  0.021910  1.0  -0.2017
  N  N426  1  0.502910  0.135760  0.021910  1.0  -0.2017
  N  N427  1  0.997090  0.635760  0.478090  1.0  -0.2009
  N  N428  1  0.497090  0.135760  0.478090  1.0  -0.2009
  O  O429  1  0.851200  0.092500  0.002730  1.0  -0.6153
  O  O430  1  0.806270  0.198800  0.983500  1.0  -0.6708
  O  O431  1  0.181560  0.076300  0.378630  1.0  -0.6188
  O  O432  1  0.238740  0.170350  0.419530  1.0  -0.6548
  O  O433  1  0.766530  0.536680  0.546440  1.0  -0.6487
  O  O434  1  0.796960  0.666050  0.561580  1.0  -0.608
  O  O435  1  0.351200  0.592500  0.002730  1.0  -0.6155
  O  O436  1  0.306270  0.698800  0.983500  1.0  -0.6708
  O  O437  1  0.681560  0.576300  0.378630  1.0  -0.6188
  O  O438  1  0.738740  0.670350  0.419530  1.0  -0.6548
  O  O439  1  0.266530  0.036680  0.546440  1.0  -0.6487
  O  O440  1  0.296960  0.166050  0.561580  1.0  -0.608
  O  O441  1  0.148800  0.092500  0.497270  1.0  -0.615
  O  O442  1  0.193730  0.198800  0.516500  1.0  -0.6705
  O  O443  1  0.818440  0.076300  0.121370  1.0  -0.6187
  O  O444  1  0.761260  0.170350  0.080470  1.0  -0.6549
  O  O445  1  0.233470  0.536680  0.953560  1.0  -0.6478
  O  O446  1  0.203040  0.666050  0.938420  1.0  -0.6083
  O  O447  1  0.648800  0.592500  0.497270  1.0  -0.615
  O  O448  1  0.693730  0.698800  0.516500  1.0  -0.6705
  O  O449  1  0.318440  0.576300  0.121370  1.0  -0.6187
  O  O450  1  0.261260  0.670350  0.080470  1.0  -0.6549
  O  O451  1  0.733470  0.036680  0.953560  1.0  -0.6478
  O  O452  1  0.703040  0.166050  0.938420  1.0  -0.6083
  O  O453  1  0.148800  0.907500  0.997270  1.0  -0.6133
  O  O454  1  0.193730  0.801200  0.016500  1.0  -0.671
  O  O455  1  0.818440  0.923700  0.621370  1.0  -0.6211
  O  O456  1  0.761260  0.829650  0.580470  1.0  -0.6551
  O  O457  1  0.233470  0.463320  0.453560  1.0  -0.6476
  O  O458  1  0.203040  0.333950  0.438420  1.0  -0.6076
  O  O459  1  0.648800  0.407500  0.997270  1.0  -0.6133
  O  O460  1  0.693730  0.301200  0.016500  1.0  -0.671
  O  O461  1  0.318440  0.423700  0.621370  1.0  -0.6211
  O  O462  1  0.261260  0.329650  0.580470  1.0  -0.6551
  O  O463  1  0.733470  0.963320  0.453560  1.0  -0.6476
  O  O464  1  0.703040  0.833950  0.438420  1.0  -0.6076
  O  O465  1  0.851200  0.907500  0.502730  1.0  -0.6131
  O  O466  1  0.806270  0.801200  0.483500  1.0  -0.6703
  O  O467  1  0.181560  0.923700  0.878630  1.0  -0.6216
  O  O468  1  0.238740  0.829650  0.919530  1.0  -0.6546
  O  O469  1  0.766530  0.463320  0.046440  1.0  -0.6475
  O  O470  1  0.796960  0.333950  0.061580  1.0  -0.6071
  O  O471  1  0.351200  0.407500  0.502730  1.0  -0.6131
  O  O472  1  0.306270  0.301200  0.483500  1.0  -0.6703
  O  O473  1  0.681560  0.423700  0.878630  1.0  -0.6216
  O  O474  1  0.738740  0.329650  0.919530  1.0  -0.6546
  O  O475  1  0.266530  0.963320  0.046440  1.0  -0.6475
  O  O476  1  0.296960  0.833950  0.061580  1.0  -0.6071
