# generated using pymatgen
data_U4H48(C29O8)3
_symmetry_space_group_name_H-M   'P 1'
_cell_length_a   32.09410000
_cell_length_b   32.09410000
_cell_length_c   32.09410000
_cell_angle_alpha   90.00000000
_cell_angle_beta   90.00000000
_cell_angle_gamma   90.00000000
_symmetry_Int_Tables_number   1
_chemical_formula_structural   U4H48(C29O8)3
_chemical_formula_sum   'U16 H192 C348 O96'
_cell_volume   33057.92609500
_cell_formula_units_Z   4
loop_
 _symmetry_equiv_pos_site_id
 _symmetry_equiv_pos_as_xyz
  1  'x, y, z'
loop_
 _atom_site_type_symbol
 _atom_site_label
 _atom_site_symmetry_multiplicity
 _atom_site_fract_x
 _atom_site_fract_y
 _atom_site_fract_z
 _atom_site_occupancy
 _atom_site_charge
  U  U1  1  0.957550  0.542450  0.457550  1.0  1.7885
  U  U2  1  0.457550  0.042450  0.957550  1.0  1.7832
  U  U3  1  0.542450  0.457550  0.957550  1.0  1.7877
  U  U4  1  0.042450  0.957550  0.457550  1.0  1.7824
  U  U5  1  0.042450  0.042450  0.042450  1.0  1.7794
  U  U6  1  0.542450  0.542450  0.542450  1.0  1.7969
  U  U7  1  0.457550  0.957550  0.542450  1.0  1.7877
  U  U8  1  0.957550  0.457550  0.042450  1.0  1.7824
  U  U9  1  0.792450  0.207550  0.707550  1.0  1.7965
  U  U10  1  0.292450  0.707550  0.207550  1.0  1.7965
  U  U11  1  0.707550  0.792450  0.207550  1.0  1.7972
  U  U12  1  0.207550  0.292450  0.707550  1.0  1.7972
  U  U13  1  0.292450  0.292450  0.292450  1.0  1.7969
  U  U14  1  0.792450  0.792450  0.792450  1.0  1.7781
  U  U15  1  0.207550  0.707550  0.792450  1.0  1.7967
  U  U16  1  0.707550  0.207550  0.292450  1.0  1.7967
  H  H17  1  0.779800  0.438800  0.543700  1.0  0.1145
  H  H18  1  0.833400  0.484900  0.531700  1.0  0.1098
  H  H19  1  0.860400  0.424700  0.426100  1.0  0.0965
  H  H20  1  0.809400  0.377400  0.438300  1.0  0.1055
  H  H21  1  0.279800  0.938800  0.043700  1.0  0.1146
  H  H22  1  0.333400  0.984900  0.031700  1.0  0.1101
  H  H23  1  0.360400  0.924700  0.926100  1.0  0.0964
  H  H24  1  0.309400  0.877400  0.938300  1.0  0.1055
  H  H25  1  0.720200  0.561200  0.043700  1.0  0.1149
  H  H26  1  0.666667  0.515100  0.031700  1.0  0.11
  H  H27  1  0.639600  0.575300  0.926100  1.0  0.0958
  H  H28  1  0.690600  0.622600  0.938300  1.0  0.1055
  H  H29  1  0.220200  0.061200  0.543700  1.0  0.1148
  H  H30  1  0.166600  0.015100  0.531700  1.0  0.1099
  H  H31  1  0.139600  0.075300  0.426100  1.0  0.0959
  H  H32  1  0.190600  0.122600  0.438300  1.0  0.1055
  H  H33  1  0.220200  0.938800  0.956300  1.0  0.115
  H  H34  1  0.166600  0.984900  0.968300  1.0  0.1101
  H  H35  1  0.139600  0.924700  0.073900  1.0  0.0956
  H  H36  1  0.190600  0.877400  0.061700  1.0  0.1057
  H  H37  1  0.720200  0.438800  0.456300  1.0  0.1152
  H  H38  1  0.666667  0.484900  0.468300  1.0  0.1101
  H  H39  1  0.639600  0.424700  0.573900  1.0  0.0955
  H  H40  1  0.690600  0.377400  0.561700  1.0  0.1057
  H  H41  1  0.279800  0.061200  0.456300  1.0  0.115
  H  H42  1  0.333400  0.015100  0.468300  1.0  0.1094
  H  H43  1  0.360400  0.075300  0.573900  1.0  0.0955
  H  H44  1  0.309400  0.122600  0.561700  1.0  0.1043
  H  H45  1  0.779800  0.561200  0.956300  1.0  0.1147
  H  H46  1  0.833400  0.515100  0.968300  1.0  0.109
  H  H47  1  0.860400  0.575300  0.073900  1.0  0.0956
  H  H48  1  0.809400  0.622600  0.061700  1.0  0.1043
  H  H49  1  0.543700  0.779800  0.438800  1.0  0.114
  H  H50  1  0.531700  0.833400  0.484900  1.0  0.1094
  H  H51  1  0.426100  0.860400  0.424700  1.0  0.0961
  H  H52  1  0.438300  0.809400  0.377400  1.0  0.1057
  H  H53  1  0.043700  0.279800  0.938800  1.0  0.1139
  H  H54  1  0.031700  0.333400  0.984900  1.0  0.1095
  H  H55  1  0.926100  0.360400  0.924700  1.0  0.0963
  H  H56  1  0.938300  0.309400  0.877400  1.0  0.1057
  H  H57  1  0.043700  0.720200  0.561200  1.0  0.1152
  H  H58  1  0.031700  0.666667  0.515100  1.0  0.1104
  H  H59  1  0.926100  0.639600  0.575300  1.0  0.0962
  H  H60  1  0.938300  0.690600  0.622600  1.0  0.1063
  H  H61  1  0.543700  0.220200  0.061200  1.0  0.1151
  H  H62  1  0.531700  0.166600  0.015100  1.0  0.1102
  H  H63  1  0.426100  0.139600  0.075300  1.0  0.0959
  H  H64  1  0.438300  0.190600  0.122600  1.0  0.1063
  H  H65  1  0.956300  0.220200  0.938800  1.0  0.1145
  H  H66  1  0.968300  0.166600  0.984900  1.0  0.1103
  H  H67  1  0.073900  0.139600  0.924700  1.0  0.0957
  H  H68  1  0.061700  0.190600  0.877400  1.0  0.1069
  H  H69  1  0.456300  0.720200  0.438800  1.0  0.1147
  H  H70  1  0.468300  0.666667  0.484900  1.0  0.1106
  H  H71  1  0.573900  0.639600  0.424700  1.0  0.096
  H  H72  1  0.561700  0.690600  0.377400  1.0  0.1069
  H  H73  1  0.456300  0.279800  0.061200  1.0  0.1143
  H  H74  1  0.468300  0.333400  0.015100  1.0  0.11
  H  H75  1  0.573900  0.360400  0.075300  1.0  0.0957
  H  H76  1  0.561700  0.309400  0.122600  1.0  0.1061
  H  H77  1  0.956300  0.779800  0.561200  1.0  0.1143
  H  H78  1  0.968300  0.833400  0.515100  1.0  0.11
  H  H79  1  0.073900  0.860400  0.575300  1.0  0.0956
  H  H80  1  0.061700  0.809400  0.622600  1.0  0.1061
  H  H81  1  0.438800  0.543700  0.779800  1.0  0.1142
  H  H82  1  0.484900  0.531700  0.833400  1.0  0.1106
  H  H83  1  0.424700  0.426100  0.860400  1.0  0.096
  H  H84  1  0.377400  0.438300  0.809400  1.0  0.107
  H  H85  1  0.938800  0.043700  0.279800  1.0  0.1144
  H  H86  1  0.984900  0.031700  0.333400  1.0  0.1107
  H  H87  1  0.924700  0.926100  0.360400  1.0  0.0961
  H  H88  1  0.877400  0.938300  0.309400  1.0  0.107
  H  H89  1  0.561200  0.043700  0.720200  1.0  0.1144
  H  H90  1  0.515100  0.031700  0.666667  1.0  0.1109
  H  H91  1  0.575300  0.926100  0.639600  1.0  0.0954
  H  H92  1  0.622600  0.938300  0.690600  1.0  0.1082
  H  H93  1  0.061200  0.543700  0.220200  1.0  0.1144
  H  H94  1  0.015100  0.531700  0.166600  1.0  0.1106
  H  H95  1  0.075300  0.426100  0.139600  1.0  0.0953
  H  H96  1  0.122600  0.438300  0.190600  1.0  0.1082
  H  H97  1  0.938800  0.956300  0.220200  1.0  0.1143
  H  H98  1  0.984900  0.968300  0.166600  1.0  0.1103
  H  H99  1  0.924700  0.073900  0.139600  1.0  0.0957
  H  H100  1  0.877400  0.061700  0.190600  1.0  0.1089
  H  H101  1  0.438800  0.456300  0.720200  1.0  0.1143
  H  H102  1  0.484900  0.468300  0.666667  1.0  0.1105
  H  H103  1  0.424700  0.573900  0.639600  1.0  0.0958
  H  H104  1  0.377400  0.561700  0.690600  1.0  0.1088
  H  H105  1  0.061200  0.456300  0.279800  1.0  0.1144
  H  H106  1  0.015100  0.468300  0.333400  1.0  0.1099
  H  H107  1  0.075300  0.573900  0.360400  1.0  0.0957
  H  H108  1  0.122600  0.561700  0.309400  1.0  0.1083
  H  H109  1  0.561200  0.956300  0.779800  1.0  0.1143
  H  H110  1  0.515100  0.968300  0.833400  1.0  0.1097
  H  H111  1  0.575300  0.073900  0.860400  1.0  0.0958
  H  H112  1  0.622600  0.061700  0.809400  1.0  0.1083
  H  H113  1  0.688800  0.029800  0.793700  1.0  0.114
  H  H114  1  0.734900  0.083400  0.781700  1.0  0.1097
  H  H115  1  0.674700  0.110400  0.676100  1.0  0.0961
  H  H116  1  0.627400  0.059400  0.688300  1.0  0.1068
  H  H117  1  0.188800  0.529800  0.293700  1.0  0.1134
  H  H118  1  0.234900  0.583400  0.281700  1.0  0.1097
  H  H119  1  0.174700  0.610400  0.176100  1.0  0.0961
  H  H120  1  0.127400  0.559400  0.188300  1.0  0.1068
  H  H121  1  0.811200  0.970200  0.293700  1.0  0.1148
  H  H122  1  0.765100  0.916600  0.281700  1.0  0.1101
  H  H123  1  0.825300  0.889600  0.176100  1.0  0.0951
  H  H124  1  0.872600  0.940600  0.188300  1.0  0.1075
  H  H125  1  0.311200  0.470200  0.793700  1.0  0.1148
  H  H126  1  0.265100  0.416600  0.781700  1.0  0.1101
  H  H127  1  0.325300  0.389600  0.676100  1.0  0.0956
  H  H128  1  0.372600  0.440600  0.688300  1.0  0.1075
  H  H129  1  0.188800  0.470200  0.206300  1.0  0.1143
  H  H130  1  0.234900  0.416600  0.218300  1.0  0.1097
  H  H131  1  0.174700  0.389600  0.323900  1.0  0.0958
  H  H132  1  0.127400  0.440600  0.311700  1.0  0.1075
  H  H133  1  0.688800  0.970200  0.706300  1.0  0.1151
  H  H134  1  0.734900  0.916600  0.718300  1.0  0.1097
  H  H135  1  0.674700  0.889600  0.823900  1.0  0.0957
  H  H136  1  0.627400  0.940600  0.811700  1.0  0.1075
  H  H137  1  0.311200  0.529800  0.706300  1.0  0.1139
  H  H138  1  0.265100  0.583400  0.718300  1.0  0.1098
  H  H139  1  0.325300  0.610400  0.823900  1.0  0.0953
  H  H140  1  0.372600  0.559400  0.811700  1.0  0.1069
  H  H141  1  0.811200  0.029800  0.206300  1.0  0.1148
  H  H142  1  0.765100  0.083400  0.218300  1.0  0.1098
  H  H143  1  0.825300  0.110400  0.323900  1.0  0.0953
  H  H144  1  0.872600  0.059400  0.311700  1.0  0.1069
  H  H145  1  0.029800  0.793700  0.688800  1.0  0.1154
  H  H146  1  0.083400  0.781700  0.734900  1.0  0.1097
  H  H147  1  0.110400  0.676100  0.674700  1.0  0.0961
  H  H148  1  0.059400  0.688300  0.627400  1.0  0.1055
  H  H149  1  0.529800  0.293700  0.188800  1.0  0.115
  H  H150  1  0.583400  0.281700  0.234900  1.0  0.1098
  H  H151  1  0.610400  0.176100  0.174700  1.0  0.0961
  H  H152  1  0.559400  0.188300  0.127400  1.0  0.1055
  H  H153  1  0.970200  0.293700  0.811200  1.0  0.1149
  H  H154  1  0.916600  0.281700  0.765100  1.0  0.1099
  H  H155  1  0.889600  0.176100  0.825300  1.0  0.0944
  H  H156  1  0.940600  0.188300  0.872600  1.0  0.1048
  H  H157  1  0.470200  0.793700  0.311200  1.0  0.1145
  H  H158  1  0.416600  0.781700  0.265100  1.0  0.1097
  H  H159  1  0.389600  0.676100  0.325300  1.0  0.0953
  H  H160  1  0.440600  0.688300  0.372600  1.0  0.1049
  H  H161  1  0.470200  0.206300  0.188800  1.0  0.1149
  H  H162  1  0.416600  0.218300  0.234900  1.0  0.1098
  H  H163  1  0.389600  0.323900  0.174700  1.0  0.0961
  H  H164  1  0.440600  0.311700  0.127400  1.0  0.1058
  H  H165  1  0.970200  0.706300  0.688800  1.0  0.1152
  H  H166  1  0.916600  0.718300  0.734900  1.0  0.1099
  H  H167  1  0.889600  0.823900  0.674700  1.0  0.0961
  H  H168  1  0.940600  0.811700  0.627400  1.0  0.1058
  H  H169  1  0.529800  0.706300  0.311200  1.0  0.1147
  H  H170  1  0.583400  0.718300  0.265100  1.0  0.1092
  H  H171  1  0.610400  0.823900  0.325300  1.0  0.0956
  H  H172  1  0.559400  0.811700  0.372600  1.0  0.1045
  H  H173  1  0.029800  0.206300  0.811200  1.0  0.1156
  H  H174  1  0.083400  0.218300  0.765100  1.0  0.1091
  H  H175  1  0.110400  0.323900  0.825300  1.0  0.0956
  H  H176  1  0.059400  0.311700  0.872600  1.0  0.1045
  H  H177  1  0.793700  0.688800  0.029800  1.0  0.115
  H  H178  1  0.781700  0.734900  0.083400  1.0  0.1101
  H  H179  1  0.676100  0.674700  0.110400  1.0  0.0959
  H  H180  1  0.688300  0.627400  0.059400  1.0  0.1064
  H  H181  1  0.293700  0.188800  0.529800  1.0  0.1145
  H  H182  1  0.281700  0.234900  0.583400  1.0  0.1103
  H  H183  1  0.176100  0.174700  0.610400  1.0  0.0959
  H  H184  1  0.188300  0.127400  0.559400  1.0  0.1064
  H  H185  1  0.293700  0.811200  0.970200  1.0  0.1141
  H  H186  1  0.281700  0.765100  0.916600  1.0  0.1096
  H  H187  1  0.176100  0.825300  0.889600  1.0  0.0955
  H  H188  1  0.188300  0.872600  0.940600  1.0  0.1074
  H  H189  1  0.793700  0.311200  0.470200  1.0  0.1139
  H  H190  1  0.781700  0.265100  0.416600  1.0  0.1095
  H  H191  1  0.676100  0.325300  0.389600  1.0  0.0958
  H  H192  1  0.688300  0.372600  0.440600  1.0  0.1074
  H  H193  1  0.206300  0.188800  0.470200  1.0  0.1135
  H  H194  1  0.218300  0.234900  0.416600  1.0  0.1105
  H  H195  1  0.323900  0.174700  0.389600  1.0  0.0957
  H  H196  1  0.311700  0.127400  0.440600  1.0  0.108
  H  H197  1  0.706300  0.688800  0.970200  1.0  0.1137
  H  H198  1  0.718300  0.734900  0.916600  1.0  0.1105
  H  H199  1  0.823900  0.674700  0.889600  1.0  0.0957
  H  H200  1  0.811700  0.627400  0.940600  1.0  0.108
  H  H201  1  0.706300  0.311200  0.529800  1.0  0.1137
  H  H202  1  0.718300  0.265100  0.583400  1.0  0.1099
  H  H203  1  0.823900  0.325300  0.610400  1.0  0.0955
  H  H204  1  0.811700  0.372600  0.559400  1.0  0.107
  H  H205  1  0.206300  0.811200  0.029800  1.0  0.1145
  H  H206  1  0.218300  0.765100  0.083400  1.0  0.1097
  H  H207  1  0.323900  0.825300  0.110400  1.0  0.0955
  H  H208  1  0.311700  0.872600  0.059400  1.0  0.107
  C  C209  1  0.787600  0.404760  0.490900  1.0  0.0812
  C  C210  1  0.796400  0.436000  0.519400  1.0  -0.1079
  C  C211  1  0.854800  0.457700  0.478500  1.0  -0.021
  C  C212  1  0.828700  0.462600  0.512800  1.0  -0.061
  C  C213  1  0.844600  0.427000  0.451000  1.0  -0.0179
  C  C214  1  0.891700  0.487900  0.470900  1.0  0.6295
  C  C215  1  0.813500  0.399900  0.457200  1.0  -0.225
  C  C216  1  0.287600  0.904760  0.990900  1.0  0.0812
  C  C217  1  0.296400  0.936000  0.019400  1.0  -0.1079
  C  C218  1  0.354800  0.957700  0.978500  1.0  -0.021
  C  C219  1  0.328700  0.962600  0.012800  1.0  -0.061
  C  C220  1  0.344600  0.927000  0.951000  1.0  -0.0179
  C  C221  1  0.391700  0.987900  0.970900  1.0  0.6324
  C  C222  1  0.313500  0.899900  0.957200  1.0  -0.225
  C  C223  1  0.712400  0.595240  0.990900  1.0  0.082
  C  C224  1  0.703600  0.564000  0.019400  1.0  -0.1101
  C  C225  1  0.645200  0.542300  0.978500  1.0  -0.0215
  C  C226  1  0.671300  0.537400  0.012800  1.0  -0.0628
  C  C227  1  0.655400  0.573000  0.951000  1.0  -0.0153
  C  C228  1  0.608300  0.512100  0.970900  1.0  0.6295
  C  C229  1  0.686500  0.600100  0.957200  1.0  -0.224
  C  C230  1  0.212400  0.095240  0.490900  1.0  0.082
  C  C231  1  0.203600  0.064000  0.519400  1.0  -0.1104
  C  C232  1  0.145200  0.042300  0.478500  1.0  -0.0218
  C  C233  1  0.171300  0.037400  0.512800  1.0  -0.0605
  C  C234  1  0.155400  0.073000  0.451000  1.0  -0.0153
  C  C235  1  0.108300  0.012100  0.470900  1.0  0.6322
  C  C236  1  0.186500  0.100100  0.457200  1.0  -0.224
  C  C237  1  0.212400  0.904760  0.009100  1.0  0.0818
  C  C238  1  0.203600  0.936000  0.980600  1.0  -0.1124
  C  C239  1  0.145200  0.957700  0.021500  1.0  -0.0215
  C  C240  1  0.171300  0.962600  0.987200  1.0  -0.0624
  C  C241  1  0.155400  0.927000  0.049000  1.0  -0.0154
  C  C242  1  0.108300  0.987900  0.029100  1.0  0.6349
  C  C243  1  0.186500  0.899900  0.042800  1.0  -0.2255
  C  C244  1  0.712400  0.404760  0.509100  1.0  0.0818
  C  C245  1  0.703600  0.436000  0.480600  1.0  -0.1123
  C  C246  1  0.645200  0.457700  0.521500  1.0  -0.0211
  C  C247  1  0.671300  0.462600  0.487200  1.0  -0.0649
  C  C248  1  0.655400  0.427000  0.549000  1.0  -0.0154
  C  C249  1  0.608300  0.487900  0.529100  1.0  0.6291
  C  C250  1  0.686500  0.399900  0.542800  1.0  -0.2255
  C  C251  1  0.287600  0.095240  0.509100  1.0  0.0816
  C  C252  1  0.296400  0.064000  0.480600  1.0  -0.1087
  C  C253  1  0.354800  0.042300  0.521500  1.0  -0.0193
  C  C254  1  0.328700  0.037400  0.487200  1.0  -0.0624
  C  C255  1  0.344600  0.073000  0.549000  1.0  -0.0182
  C  C256  1  0.391700  0.012100  0.529100  1.0  0.6327
  C  C257  1  0.313500  0.100100  0.542800  1.0  -0.2262
  C  C258  1  0.787600  0.595240  0.009100  1.0  0.0816
  C  C259  1  0.796400  0.564000  0.980600  1.0  -0.1087
  C  C260  1  0.854800  0.542300  0.021500  1.0  -0.0193
  C  C261  1  0.828700  0.537400  0.987200  1.0  -0.0624
  C  C262  1  0.844600  0.573000  0.049000  1.0  -0.0182
  C  C263  1  0.891700  0.512100  0.029100  1.0  0.6307
  C  C264  1  0.813500  0.600100  0.042800  1.0  -0.2262
  C  C265  1  0.490900  0.787600  0.404760  1.0  0.0827
  C  C266  1  0.519400  0.796400  0.436000  1.0  -0.1106
  C  C267  1  0.478500  0.854800  0.457700  1.0  -0.022
  C  C268  1  0.512800  0.828700  0.462600  1.0  -0.0612
  C  C269  1  0.451000  0.844600  0.427000  1.0  -0.0127
  C  C270  1  0.470900  0.891700  0.487900  1.0  0.6241
  C  C271  1  0.457200  0.813500  0.399900  1.0  -0.2293
  C  C272  1  0.990900  0.287600  0.904760  1.0  0.0827
  C  C273  1  0.019400  0.296400  0.936000  1.0  -0.1107
  C  C274  1  0.978500  0.354800  0.957700  1.0  -0.022
  C  C275  1  0.012800  0.328700  0.962600  1.0  -0.0612
  C  C276  1  0.951000  0.344600  0.927000  1.0  -0.0127
  C  C277  1  0.970900  0.391700  0.987900  1.0  0.6279
  C  C278  1  0.957200  0.313500  0.899900  1.0  -0.2293
  C  C279  1  0.990900  0.712400  0.595240  1.0  0.0827
  C  C280  1  0.019400  0.703600  0.564000  1.0  -0.1114
  C  C281  1  0.978500  0.645200  0.542300  1.0  -0.0209
  C  C282  1  0.012800  0.671300  0.537400  1.0  -0.0633
  C  C283  1  0.951000  0.655400  0.573000  1.0  -0.0118
  C  C284  1  0.970900  0.608300  0.512100  1.0  0.6262
  C  C285  1  0.957200  0.686500  0.600100  1.0  -0.2289
  C  C286  1  0.490900  0.212400  0.095240  1.0  0.0827
  C  C287  1  0.519400  0.203600  0.064000  1.0  -0.1116
  C  C288  1  0.478500  0.145200  0.042300  1.0  -0.0212
  C  C289  1  0.512800  0.171300  0.037400  1.0  -0.0608
  C  C290  1  0.451000  0.155400  0.073000  1.0  -0.0118
  C  C291  1  0.470900  0.108300  0.012100  1.0  0.6293
  C  C292  1  0.457200  0.186500  0.100100  1.0  -0.2289
  C  C293  1  0.009100  0.212400  0.904760  1.0  0.0831
  C  C294  1  0.980600  0.203600  0.936000  1.0  -0.1095
  C  C295  1  0.021500  0.145200  0.957700  1.0  -0.0212
  C  C296  1  0.987200  0.171300  0.962600  1.0  -0.0609
  C  C297  1  0.049000  0.155400  0.927000  1.0  -0.017
  C  C298  1  0.029100  0.108300  0.987900  1.0  0.6323
  C  C299  1  0.042800  0.186500  0.899900  1.0  -0.2283
  C  C300  1  0.509100  0.712400  0.404760  1.0  0.0831
  C  C301  1  0.480600  0.703600  0.436000  1.0  -0.1093
  C  C302  1  0.521500  0.645200  0.457700  1.0  -0.0209
  C  C303  1  0.487200  0.671300  0.462600  1.0  -0.0634
  C  C304  1  0.549000  0.655400  0.427000  1.0  -0.017
  C  C305  1  0.529100  0.608300  0.487900  1.0  0.6273
  C  C306  1  0.542800  0.686500  0.399900  1.0  -0.2283
  C  C307  1  0.509100  0.287600  0.095240  1.0  0.0829
  C  C308  1  0.480600  0.296400  0.064000  1.0  -0.1105
  C  C309  1  0.521500  0.354800  0.042300  1.0  -0.0223
  C  C310  1  0.487200  0.328700  0.037400  1.0  -0.0596
  C  C311  1  0.549000  0.344600  0.073000  1.0  -0.0167
  C  C312  1  0.529100  0.391700  0.012100  1.0  0.6286
  C  C313  1  0.542800  0.313500  0.100100  1.0  -0.2278
  C  C314  1  0.009100  0.787600  0.595240  1.0  0.0829
  C  C315  1  0.980600  0.796400  0.564000  1.0  -0.1105
  C  C316  1  0.021500  0.854800  0.542300  1.0  -0.0223
  C  C317  1  0.987200  0.828700  0.537400  1.0  -0.0596
  C  C318  1  0.049000  0.844600  0.573000  1.0  -0.0167
  C  C319  1  0.029100  0.891700  0.512100  1.0  0.6271
  C  C320  1  0.042800  0.813500  0.600100  1.0  -0.2278
  C  C321  1  0.404760  0.490900  0.787600  1.0  0.0829
  C  C322  1  0.436000  0.519400  0.796400  1.0  -0.1104
  C  C323  1  0.457700  0.478500  0.854800  1.0  -0.0194
  C  C324  1  0.462600  0.512800  0.828700  1.0  -0.0609
  C  C325  1  0.427000  0.451000  0.844600  1.0  -0.0192
  C  C326  1  0.487900  0.470900  0.891700  1.0  0.6293
  C  C327  1  0.399900  0.457200  0.813500  1.0  -0.2295
  C  C328  1  0.904760  0.990900  0.287600  1.0  0.0829
  C  C329  1  0.936000  0.019400  0.296400  1.0  -0.1104
  C  C330  1  0.957700  0.978500  0.354800  1.0  -0.0194
  C  C331  1  0.962600  0.012800  0.328700  1.0  -0.0609
  C  C332  1  0.927000  0.951000  0.344600  1.0  -0.0192
  C  C333  1  0.987900  0.970900  0.391700  1.0  0.6327
  C  C334  1  0.899900  0.957200  0.313500  1.0  -0.2295
  C  C335  1  0.595240  0.990900  0.712400  1.0  0.0825
  C  C336  1  0.564000  0.019400  0.703600  1.0  -0.1085
  C  C337  1  0.542300  0.978500  0.645200  1.0  -0.0192
  C  C338  1  0.537400  0.012800  0.671300  1.0  -0.064
  C  C339  1  0.573000  0.951000  0.655400  1.0  -0.0181
  C  C340  1  0.512100  0.970900  0.608300  1.0  0.6289
  C  C341  1  0.600100  0.957200  0.686500  1.0  -0.2304
  C  C342  1  0.095240  0.490900  0.212400  1.0  0.0825
  C  C343  1  0.064000  0.519400  0.203600  1.0  -0.1087
  C  C344  1  0.042300  0.478500  0.145200  1.0  -0.0196
  C  C345  1  0.037400  0.512800  0.171300  1.0  -0.0616
  C  C346  1  0.073000  0.451000  0.155400  1.0  -0.0181
  C  C347  1  0.012100  0.470900  0.108300  1.0  0.6314
  C  C348  1  0.100100  0.457200  0.186500  1.0  -0.2304
  C  C349  1  0.904760  0.009100  0.212400  1.0  0.0829
  C  C350  1  0.936000  0.980600  0.203600  1.0  -0.1099
  C  C351  1  0.957700  0.021500  0.145200  1.0  -0.018
  C  C352  1  0.962600  0.987200  0.171300  1.0  -0.0601
  C  C353  1  0.927000  0.049000  0.155400  1.0  -0.0184
  C  C354  1  0.987900  0.029100  0.108300  1.0  0.6333
  C  C355  1  0.899900  0.042800  0.186500  1.0  -0.2274
  C  C356  1  0.404760  0.509100  0.712400  1.0  0.0829
  C  C357  1  0.436000  0.480600  0.703600  1.0  -0.1096
  C  C358  1  0.457700  0.521500  0.645200  1.0  -0.0176
  C  C359  1  0.462600  0.487200  0.671300  1.0  -0.0625
  C  C360  1  0.427000  0.549000  0.655400  1.0  -0.0184
  C  C361  1  0.487900  0.529100  0.608300  1.0  0.629
  C  C362  1  0.399900  0.542800  0.686500  1.0  -0.2274
  C  C363  1  0.095240  0.509100  0.287600  1.0  0.0825
  C  C364  1  0.064000  0.480600  0.296400  1.0  -0.1107
  C  C365  1  0.042300  0.521500  0.354800  1.0  -0.0207
  C  C366  1  0.037400  0.487200  0.328700  1.0  -0.0601
  C  C367  1  0.073000  0.549000  0.344600  1.0  -0.019
  C  C368  1  0.012100  0.529100  0.391700  1.0  0.6316
  C  C369  1  0.100100  0.542800  0.313500  1.0  -0.2297
  C  C370  1  0.595240  0.009100  0.787600  1.0  0.0825
  C  C371  1  0.564000  0.980600  0.796400  1.0  -0.1106
  C  C372  1  0.542300  0.021500  0.854800  1.0  -0.0207
  C  C373  1  0.537400  0.987200  0.828700  1.0  -0.0601
  C  C374  1  0.573000  0.049000  0.844600  1.0  -0.019
  C  C375  1  0.512100  0.029100  0.891700  1.0  0.6296
  C  C376  1  0.600100  0.042800  0.813500  1.0  -0.2297
  C  C377  1  0.654760  0.037600  0.740900  1.0  0.0823
  C  C378  1  0.686000  0.046400  0.769400  1.0  -0.1098
  C  C379  1  0.707700  0.104800  0.728500  1.0  -0.0209
  C  C380  1  0.712600  0.078700  0.762800  1.0  -0.0591
  C  C381  1  0.677000  0.094600  0.701000  1.0  -0.0203
  C  C382  1  0.737900  0.141700  0.720900  1.0  0.6286
  C  C383  1  0.649900  0.063500  0.707200  1.0  -0.227
  C  C384  1  0.154760  0.537600  0.240900  1.0  0.0823
  C  C385  1  0.186000  0.546400  0.269400  1.0  -0.1098
  C  C386  1  0.207700  0.604800  0.228500  1.0  -0.0209
  C  C387  1  0.212600  0.578700  0.262800  1.0  -0.0591
  C  C388  1  0.177000  0.594600  0.201000  1.0  -0.0203
  C  C389  1  0.237900  0.641700  0.220900  1.0  0.6286
  C  C390  1  0.149900  0.563500  0.207200  1.0  -0.227
  C  C391  1  0.845240  0.962400  0.240900  1.0  0.0818
  C  C392  1  0.814000  0.953600  0.269400  1.0  -0.1086
  C  C393  1  0.792300  0.895200  0.228500  1.0  -0.0213
  C  C394  1  0.787400  0.921300  0.262800  1.0  -0.061
  C  C395  1  0.823000  0.905400  0.201000  1.0  -0.0193
  C  C396  1  0.762100  0.858300  0.220900  1.0  0.6295
  C  C397  1  0.850100  0.936500  0.207200  1.0  -0.2279
  C  C398  1  0.345240  0.462400  0.740900  1.0  0.0818
  C  C399  1  0.314000  0.453600  0.769400  1.0  -0.1086
  C  C400  1  0.292300  0.395200  0.728500  1.0  -0.0213
  C  C401  1  0.287400  0.421300  0.762800  1.0  -0.061
  C  C402  1  0.323000  0.405400  0.701000  1.0  -0.0193
  C  C403  1  0.262100  0.358300  0.720900  1.0  0.6295
  C  C404  1  0.350100  0.436500  0.707200  1.0  -0.2279
  C  C405  1  0.154760  0.462400  0.259100  1.0  0.0827
  C  C406  1  0.186000  0.453600  0.230600  1.0  -0.1102
  C  C407  1  0.207700  0.395200  0.271500  1.0  -0.0187
  C  C408  1  0.212600  0.421300  0.237200  1.0  -0.0614
  C  C409  1  0.177000  0.405400  0.299000  1.0  -0.0205
  C  C410  1  0.237900  0.358300  0.279100  1.0  0.6299
  C  C411  1  0.149900  0.436500  0.292800  1.0  -0.2292
  C  C412  1  0.654760  0.962400  0.759100  1.0  0.0827
  C  C413  1  0.686000  0.953600  0.730600  1.0  -0.1102
  C  C414  1  0.707700  0.895200  0.771500  1.0  -0.0187
  C  C415  1  0.712600  0.921300  0.737200  1.0  -0.0614
  C  C416  1  0.677000  0.905400  0.799000  1.0  -0.0205
  C  C417  1  0.737900  0.858300  0.779100  1.0  0.6331
  C  C418  1  0.649900  0.936500  0.792800  1.0  -0.2292
  C  C419  1  0.345240  0.537600  0.759100  1.0  0.0823
  C  C420  1  0.314000  0.546400  0.730600  1.0  -0.1117
  C  C421  1  0.292300  0.604800  0.771500  1.0  -0.0225
  C  C422  1  0.287400  0.578700  0.737200  1.0  -0.0619
  C  C423  1  0.323000  0.594600  0.799000  1.0  -0.0208
  C  C424  1  0.262100  0.641700  0.779100  1.0  0.6281
  C  C425  1  0.350100  0.563500  0.792800  1.0  -0.2277
  C  C426  1  0.845240  0.037600  0.259100  1.0  0.0823
  C  C427  1  0.814000  0.046400  0.230600  1.0  -0.1117
  C  C428  1  0.792300  0.104800  0.271500  1.0  -0.0225
  C  C429  1  0.787400  0.078700  0.237200  1.0  -0.0619
  C  C430  1  0.823000  0.094600  0.299000  1.0  -0.0208
  C  C431  1  0.762100  0.141700  0.279100  1.0  0.6281
  C  C432  1  0.850100  0.063500  0.292800  1.0  -0.2277
  C  C433  1  0.037600  0.740900  0.654760  1.0  0.0821
  C  C434  1  0.046400  0.769400  0.686000  1.0  -0.1091
  C  C435  1  0.104800  0.728500  0.707700  1.0  -0.0208
  C  C436  1  0.078700  0.762800  0.712600  1.0  -0.0627
  C  C437  1  0.094600  0.701000  0.677000  1.0  -0.0156
  C  C438  1  0.141700  0.720900  0.737900  1.0  0.6281
  C  C439  1  0.063500  0.707200  0.649900  1.0  -0.228
  C  C440  1  0.537600  0.240900  0.154760  1.0  0.0821
  C  C441  1  0.546400  0.269400  0.186000  1.0  -0.1091
  C  C442  1  0.604800  0.228500  0.207700  1.0  -0.0208
  C  C443  1  0.578700  0.262800  0.212600  1.0  -0.0627
  C  C444  1  0.594600  0.201000  0.177000  1.0  -0.0156
  C  C445  1  0.641700  0.220900  0.237900  1.0  0.6281
  C  C446  1  0.563500  0.207200  0.149900  1.0  -0.228
  C  C447  1  0.962400  0.240900  0.845240  1.0  0.0827
  C  C448  1  0.953600  0.269400  0.814000  1.0  -0.1133
  C  C449  1  0.895200  0.228500  0.792300  1.0  -0.0211
  C  C450  1  0.921300  0.262800  0.787400  1.0  -0.0608
  C  C451  1  0.905400  0.201000  0.823000  1.0  -0.0136
  C  C452  1  0.858300  0.220900  0.762100  1.0  0.6283
  C  C453  1  0.936500  0.207200  0.850100  1.0  -0.2278
  C  C454  1  0.462400  0.740900  0.345240  1.0  0.0827
  C  C455  1  0.453600  0.769400  0.314000  1.0  -0.1133
  C  C456  1  0.395200  0.728500  0.292300  1.0  -0.0211
  C  C457  1  0.421300  0.762800  0.287400  1.0  -0.0608
  C  C458  1  0.405400  0.701000  0.323000  1.0  -0.0136
  C  C459  1  0.358300  0.720900  0.262100  1.0  0.6283
  C  C460  1  0.436500  0.707200  0.350100  1.0  -0.2278
  C  C461  1  0.462400  0.259100  0.154760  1.0  0.0831
  C  C462  1  0.453600  0.230600  0.186000  1.0  -0.1131
  C  C463  1  0.395200  0.271500  0.207700  1.0  -0.0212
  C  C464  1  0.421300  0.237200  0.212600  1.0  -0.0616
  C  C465  1  0.405400  0.299000  0.177000  1.0  -0.0138
  C  C466  1  0.358300  0.279100  0.237900  1.0  0.6276
  C  C467  1  0.436500  0.292800  0.149900  1.0  -0.228
  C  C468  1  0.962400  0.759100  0.654760  1.0  0.0831
  C  C469  1  0.953600  0.730600  0.686000  1.0  -0.1131
  C  C470  1  0.895200  0.771500  0.707700  1.0  -0.0212
  C  C471  1  0.921300  0.737200  0.712600  1.0  -0.0616
  C  C472  1  0.905400  0.799000  0.677000  1.0  -0.0138
  C  C473  1  0.858300  0.779100  0.737900  1.0  0.6308
  C  C474  1  0.936500  0.792800  0.649900  1.0  -0.228
  C  C475  1  0.537600  0.759100  0.345240  1.0  0.0823
  C  C476  1  0.546400  0.730600  0.314000  1.0  -0.1116
  C  C477  1  0.604800  0.771500  0.292300  1.0  -0.0207
  C  C478  1  0.578700  0.737200  0.287400  1.0  -0.0608
  C  C479  1  0.594600  0.799000  0.323000  1.0  -0.0156
  C  C480  1  0.641700  0.779100  0.262100  1.0  0.6282
  C  C481  1  0.563500  0.792800  0.350100  1.0  -0.2277
  C  C482  1  0.037600  0.259100  0.845240  1.0  0.0823
  C  C483  1  0.046400  0.230600  0.814000  1.0  -0.1116
  C  C484  1  0.104800  0.271500  0.792300  1.0  -0.0207
  C  C485  1  0.078700  0.237200  0.787400  1.0  -0.0608
  C  C486  1  0.094600  0.299000  0.823000  1.0  -0.0156
  C  C487  1  0.141700  0.279100  0.762100  1.0  0.6282
  C  C488  1  0.063500  0.292800  0.850100  1.0  -0.2277
  C  C489  1  0.740900  0.654760  0.037600  1.0  0.082
  C  C490  1  0.769400  0.686000  0.046400  1.0  -0.1109
  C  C491  1  0.728500  0.707700  0.104800  1.0  -0.0207
  C  C492  1  0.762800  0.712600  0.078700  1.0  -0.0611
  C  C493  1  0.701000  0.677000  0.094600  1.0  -0.0146
  C  C494  1  0.720900  0.737900  0.141700  1.0  0.6266
  C  C495  1  0.707200  0.649900  0.063500  1.0  -0.2295
  C  C496  1  0.240900  0.154760  0.537600  1.0  0.082
  C  C497  1  0.269400  0.186000  0.546400  1.0  -0.1109
  C  C498  1  0.228500  0.207700  0.604800  1.0  -0.0207
  C  C499  1  0.262800  0.212600  0.578700  1.0  -0.0611
  C  C500  1  0.201000  0.177000  0.594600  1.0  -0.0146
  C  C501  1  0.220900  0.237900  0.641700  1.0  0.6266
  C  C502  1  0.207200  0.149900  0.563500  1.0  -0.2295
  C  C503  1  0.240900  0.845240  0.962400  1.0  0.0827
  C  C504  1  0.269400  0.814000  0.953600  1.0  -0.1094
  C  C505  1  0.228500  0.792300  0.895200  1.0  -0.019
  C  C506  1  0.262800  0.787400  0.921300  1.0  -0.0613
  C  C507  1  0.201000  0.823000  0.905400  1.0  -0.0133
  C  C508  1  0.220900  0.762100  0.858300  1.0  0.6268
  C  C509  1  0.207200  0.850100  0.936500  1.0  -0.2276
  C  C510  1  0.740900  0.345240  0.462400  1.0  0.0827
  C  C511  1  0.769400  0.314000  0.453600  1.0  -0.1094
  C  C512  1  0.728500  0.292300  0.395200  1.0  -0.019
  C  C513  1  0.762800  0.287400  0.421300  1.0  -0.0613
  C  C514  1  0.701000  0.323000  0.405400  1.0  -0.0133
  C  C515  1  0.720900  0.262100  0.358300  1.0  0.6268
  C  C516  1  0.707200  0.350100  0.436500  1.0  -0.2276
  C  C517  1  0.259100  0.154760  0.462400  1.0  0.0824
  C  C518  1  0.230600  0.186000  0.453600  1.0  -0.1076
  C  C519  1  0.271500  0.207700  0.395200  1.0  -0.0198
  C  C520  1  0.237200  0.212600  0.421300  1.0  -0.0599
  C  C521  1  0.299000  0.177000  0.405400  1.0  -0.0179
  C  C522  1  0.279100  0.237900  0.358300  1.0  0.6274
  C  C523  1  0.292800  0.149900  0.436500  1.0  -0.2272
  C  C524  1  0.759100  0.654760  0.962400  1.0  0.0824
  C  C525  1  0.730600  0.686000  0.953600  1.0  -0.1076
  C  C526  1  0.771500  0.707700  0.895200  1.0  -0.0198
  C  C527  1  0.737200  0.712600  0.921300  1.0  -0.0599
  C  C528  1  0.799000  0.677000  0.905400  1.0  -0.0179
  C  C529  1  0.779100  0.737900  0.858300  1.0  0.6296
  C  C530  1  0.792800  0.649900  0.936500  1.0  -0.2272
  C  C531  1  0.759100  0.345240  0.537600  1.0  0.0829
  C  C532  1  0.730600  0.314000  0.546400  1.0  -0.1071
  C  C533  1  0.771500  0.292300  0.604800  1.0  -0.0201
  C  C534  1  0.737200  0.287400  0.578700  1.0  -0.0597
  C  C535  1  0.799000  0.323000  0.594600  1.0  -0.0185
  C  C536  1  0.779100  0.262100  0.641700  1.0  0.6281
  C  C537  1  0.792800  0.350100  0.563500  1.0  -0.2279
  C  C538  1  0.259100  0.845240  0.037600  1.0  0.0829
  C  C539  1  0.230600  0.814000  0.046400  1.0  -0.1071
  C  C540  1  0.271500  0.792300  0.104800  1.0  -0.0201
  C  C541  1  0.237200  0.787400  0.078700  1.0  -0.0597
  C  C542  1  0.299000  0.823000  0.094600  1.0  -0.0185
  C  C543  1  0.279100  0.762100  0.141700  1.0  0.6281
  C  C544  1  0.292800  0.850100  0.063500  1.0  -0.2279
  C  C545  1  0.750000  0.375000  0.500000  1.0  -0.0395
  C  C546  1  0.750000  0.625000  0.000000  1.0  -0.0396
  C  C547  1  0.250000  0.875000  0.000000  1.0  -0.0395
  C  C548  1  0.250000  0.125000  0.500000  1.0  -0.0395
  C  C549  1  0.500000  0.750000  0.375000  1.0  -0.0396
  C  C550  1  0.000000  0.750000  0.625000  1.0  -0.0396
  C  C551  1  0.000000  0.250000  0.875000  1.0  -0.0395
  C  C552  1  0.500000  0.250000  0.125000  1.0  -0.0395
  C  C553  1  0.375000  0.500000  0.750000  1.0  -0.0396
  C  C554  1  0.625000  0.000000  0.750000  1.0  -0.0395
  C  C555  1  0.875000  0.000000  0.250000  1.0  -0.0395
  C  C556  1  0.125000  0.500000  0.250000  1.0  -0.0395
  O  O557  1  0.896500  0.517500  0.496200  1.0  -0.69
  O  O558  1  0.913710  0.481410  0.440980  1.0  -0.6109
  O  O559  1  0.396500  0.017500  0.996200  1.0  -0.6865
  O  O560  1  0.413710  0.981410  0.940980  1.0  -0.592
  O  O561  1  0.603500  0.482500  0.996200  1.0  -0.6565
  O  O562  1  0.586290  0.518590  0.940980  1.0  -0.6056
  O  O563  1  0.103500  0.982500  0.496200  1.0  -0.6919
  O  O564  1  0.086290  0.018590  0.440980  1.0  -0.5945
  O  O565  1  0.103500  0.017500  0.003800  1.0  -0.6902
  O  O566  1  0.086290  0.981410  0.059020  1.0  -0.5913
  O  O567  1  0.603500  0.517500  0.503800  1.0  -0.6647
  O  O568  1  0.586290  0.481410  0.559020  1.0  -0.6031
  O  O569  1  0.396500  0.982500  0.503800  1.0  -0.6893
  O  O570  1  0.413710  0.018590  0.559020  1.0  -0.5904
  O  O571  1  0.896500  0.482500  0.003800  1.0  -0.6903
  O  O572  1  0.913710  0.518590  0.059020  1.0  -0.6061
  O  O573  1  0.496200  0.896500  0.517500  1.0  -0.6944
  O  O574  1  0.440980  0.913710  0.481410  1.0  -0.6068
  O  O575  1  0.996200  0.396500  0.017500  1.0  -0.6901
  O  O576  1  0.940980  0.413710  0.981410  1.0  -0.5889
  O  O577  1  0.996200  0.603500  0.482500  1.0  -0.6638
  O  O578  1  0.940980  0.586290  0.518590  1.0  -0.6035
  O  O579  1  0.496200  0.103500  0.982500  1.0  -0.6979
  O  O580  1  0.440980  0.086290  0.018590  1.0  -0.5931
  O  O581  1  0.003800  0.103500  0.017500  1.0  -0.6921
  O  O582  1  0.059020  0.086290  0.981410  1.0  -0.5918
  O  O583  1  0.503800  0.603500  0.517500  1.0  -0.6625
  O  O584  1  0.559020  0.586290  0.481410  1.0  -0.6039
  O  O585  1  0.503800  0.396500  0.982500  1.0  -0.6933
  O  O586  1  0.559020  0.413710  0.018590  1.0  -0.589
  O  O587  1  0.003800  0.896500  0.482500  1.0  -0.6947
  O  O588  1  0.059020  0.913710  0.518590  1.0  -0.6058
  O  O589  1  0.517500  0.496200  0.896500  1.0  -0.6912
  O  O590  1  0.481410  0.440980  0.913710  1.0  -0.6043
  O  O591  1  0.017500  0.996200  0.396500  1.0  -0.6861
  O  O592  1  0.981410  0.940980  0.413710  1.0  -0.5863
  O  O593  1  0.482500  0.996200  0.603500  1.0  -0.6599
  O  O594  1  0.518590  0.940980  0.586290  1.0  -0.6027
  O  O595  1  0.982500  0.496200  0.103500  1.0  -0.6917
  O  O596  1  0.018590  0.440980  0.086290  1.0  -0.5917
  O  O597  1  0.017500  0.003800  0.103500  1.0  -0.6884
  O  O598  1  0.981410  0.059020  0.086290  1.0  -0.5886
  O  O599  1  0.517500  0.503800  0.603500  1.0  -0.6641
  O  O600  1  0.481410  0.559020  0.586290  1.0  -0.6017
  O  O601  1  0.982500  0.503800  0.396500  1.0  -0.688
  O  O602  1  0.018590  0.559020  0.413710  1.0  -0.5859
  O  O603  1  0.482500  0.003800  0.896500  1.0  -0.6889
  O  O604  1  0.518590  0.059020  0.913710  1.0  -0.6019
  O  O605  1  0.767500  0.146500  0.746200  1.0  -0.6919
  O  O606  1  0.731410  0.163710  0.690980  1.0  -0.6034
  O  O607  1  0.267500  0.646500  0.246200  1.0  -0.6919
  O  O608  1  0.231410  0.663710  0.190980  1.0  -0.6034
  O  O609  1  0.732500  0.853500  0.246200  1.0  -0.6924
  O  O610  1  0.768590  0.836290  0.190980  1.0  -0.6047
  O  O611  1  0.232500  0.353500  0.746200  1.0  -0.6924
  O  O612  1  0.268590  0.336290  0.690980  1.0  -0.6047
  O  O613  1  0.267500  0.353500  0.253800  1.0  -0.6955
  O  O614  1  0.231410  0.336290  0.309020  1.0  -0.6013
  O  O615  1  0.767500  0.853500  0.753800  1.0  -0.694
  O  O616  1  0.731410  0.836290  0.809020  1.0  -0.6038
  O  O617  1  0.232500  0.646500  0.753800  1.0  -0.6948
  O  O618  1  0.268590  0.663710  0.809020  1.0  -0.6005
  O  O619  1  0.732500  0.146500  0.253800  1.0  -0.6948
  O  O620  1  0.768590  0.163710  0.309020  1.0  -0.6005
  O  O621  1  0.146500  0.746200  0.767500  1.0  -0.6919
  O  O622  1  0.163710  0.690980  0.731410  1.0  -0.603
  O  O623  1  0.646500  0.246200  0.267500  1.0  -0.6919
  O  O624  1  0.663710  0.190980  0.231410  1.0  -0.603
  O  O625  1  0.853500  0.246200  0.732500  1.0  -0.6957
  O  O626  1  0.836290  0.190980  0.768590  1.0  -0.6025
  O  O627  1  0.353500  0.746200  0.232500  1.0  -0.6957
  O  O628  1  0.336290  0.690980  0.268590  1.0  -0.6025
  O  O629  1  0.353500  0.253800  0.267500  1.0  -0.6934
  O  O630  1  0.336290  0.309020  0.231410  1.0  -0.6017
  O  O631  1  0.853500  0.753800  0.767500  1.0  -0.6927
  O  O632  1  0.836290  0.809020  0.731410  1.0  -0.6038
  O  O633  1  0.646500  0.753800  0.232500  1.0  -0.6958
  O  O634  1  0.663710  0.809020  0.268590  1.0  -0.6015
  O  O635  1  0.146500  0.253800  0.732500  1.0  -0.6958
  O  O636  1  0.163710  0.309020  0.768590  1.0  -0.6015
  O  O637  1  0.746200  0.767500  0.146500  1.0  -0.6914
  O  O638  1  0.690980  0.731410  0.163710  1.0  -0.6035
  O  O639  1  0.246200  0.267500  0.646500  1.0  -0.6914
  O  O640  1  0.190980  0.231410  0.663710  1.0  -0.6035
  O  O641  1  0.246200  0.732500  0.853500  1.0  -0.6925
  O  O642  1  0.190980  0.768590  0.836290  1.0  -0.6048
  O  O643  1  0.746200  0.232500  0.353500  1.0  -0.6925
  O  O644  1  0.690980  0.268590  0.336290  1.0  -0.6048
  O  O645  1  0.253800  0.267500  0.353500  1.0  -0.6921
  O  O646  1  0.309020  0.231410  0.336290  1.0  -0.6049
  O  O647  1  0.753800  0.767500  0.853500  1.0  -0.6905
  O  O648  1  0.809020  0.731410  0.836290  1.0  -0.6071
  O  O649  1  0.753800  0.232500  0.646500  1.0  -0.693
  O  O650  1  0.809020  0.268590  0.663710  1.0  -0.6022
  O  O651  1  0.253800  0.732500  0.146500  1.0  -0.693
  O  O652  1  0.309020  0.768590  0.163710  1.0  -0.6022
