# generated using pymatgen
data_CoPO4
_symmetry_space_group_name_H-M   'P 1'
_cell_length_a   10.39110000
_cell_length_b   10.39110000
_cell_length_c   8.93410000
_cell_angle_alpha   90.00000000
_cell_angle_beta   90.00000000
_cell_angle_gamma   90.00000000
_symmetry_Int_Tables_number   1
_chemical_formula_structural   CoPO4
_chemical_formula_sum   'Co8 P8 O32'
_cell_volume   964.65908308
_cell_formula_units_Z   8
loop_
 _symmetry_equiv_pos_site_id
 _symmetry_equiv_pos_as_xyz
  1  'x, y, z'
loop_
 _atom_site_type_symbol
 _atom_site_label
 _atom_site_symmetry_multiplicity
 _atom_site_fract_x
 _atom_site_fract_y
 _atom_site_fract_z
 _atom_site_occupancy
 _atom_site_charge
  Co  Co1  1  0.389650  0.628430  0.159410  1.0  1.1267
  Co  Co2  1  0.110350  0.871570  0.159410  1.0  1.128
  Co  Co3  1  0.371570  0.889650  0.659410  1.0  1.127
  Co  Co4  1  0.128430  0.610350  0.659410  1.0  1.1291
  Co  Co5  1  0.610350  0.371570  0.840590  1.0  1.1286
  Co  Co6  1  0.889650  0.128430  0.840590  1.0  1.127
  Co  Co7  1  0.628430  0.110350  0.340590  1.0  1.1298
  Co  Co8  1  0.871570  0.389650  0.340590  1.0  1.1273
  P  P9  1  0.406710  0.609190  0.797440  1.0  1.8696
  P  P10  1  0.093290  0.890810  0.797440  1.0  1.8738
  P  P11  1  0.390810  0.906710  0.297440  1.0  1.8742
  P  P12  1  0.109190  0.593290  0.297440  1.0  1.8693
  P  P13  1  0.593290  0.390810  0.202560  1.0  1.8737
  P  P14  1  0.906710  0.109190  0.202560  1.0  1.8779
  P  P15  1  0.609190  0.093290  0.702560  1.0  1.8775
  P  P16  1  0.890810  0.406710  0.702560  1.0  1.874
  O  O17  1  0.436900  0.660500  0.953100  1.0  -0.7938
  O  O18  1  0.271500  0.556700  0.788700  1.0  -0.7243
  O  O19  1  0.500800  0.503400  0.752100  1.0  -0.7257
  O  O20  1  0.425600  0.714800  0.681200  1.0  -0.7561
  O  O21  1  0.063100  0.839500  0.953100  1.0  -0.7936
  O  O22  1  0.228500  0.943300  0.788700  1.0  -0.7232
  O  O23  1  0.999200  0.996600  0.752100  1.0  -0.7264
  O  O24  1  0.074400  0.785200  0.681200  1.0  -0.7574
  O  O25  1  0.339500  0.936900  0.453100  1.0  -0.7958
  O  O26  1  0.443300  0.771500  0.288700  1.0  -0.7225
  O  O27  1  0.496600  0.000800  0.252100  1.0  -0.7255
  O  O28  1  0.285200  0.925600  0.181200  1.0  -0.7588
  O  O29  1  0.160500  0.563100  0.453100  1.0  -0.7938
  O  O30  1  0.056700  0.728500  0.288700  1.0  -0.722
  O  O31  1  0.003400  0.499200  0.252100  1.0  -0.7277
  O  O32  1  0.214800  0.574400  0.181200  1.0  -0.7573
  O  O33  1  0.563100  0.339500  0.046900  1.0  -0.7933
  O  O34  1  0.728500  0.443300  0.211300  1.0  -0.723
  O  O35  1  0.499200  0.496600  0.247900  1.0  -0.7289
  O  O36  1  0.574400  0.285200  0.318800  1.0  -0.7568
  O  O37  1  0.936900  0.160500  0.046900  1.0  -0.7929
  O  O38  1  0.771500  0.056700  0.211300  1.0  -0.7242
  O  O39  1  0.000800  0.003400  0.247900  1.0  -0.7278
  O  O40  1  0.925600  0.214800  0.318800  1.0  -0.7562
  O  O41  1  0.660500  0.063100  0.546900  1.0  -0.7937
  O  O42  1  0.556700  0.228500  0.711300  1.0  -0.7219
  O  O43  1  0.503400  0.999200  0.747900  1.0  -0.7299
  O  O44  1  0.714800  0.074400  0.818800  1.0  -0.7572
  O  O45  1  0.839500  0.436900  0.546900  1.0  -0.7949
  O  O46  1  0.943300  0.271500  0.711300  1.0  -0.7222
  O  O47  1  0.996600  0.500800  0.747900  1.0  -0.7276
  O  O48  1  0.785200  0.425600  0.818800  1.0  -0.7592
