# generated using pymatgen
data_CoPO4
_symmetry_space_group_name_H-M   'P 1'
_cell_length_a   10.42360000
_cell_length_b   10.42360000
_cell_length_c   8.94870000
_cell_angle_alpha   90.00000000
_cell_angle_beta   90.00000000
_cell_angle_gamma   90.00000000
_symmetry_Int_Tables_number   1
_chemical_formula_structural   CoPO4
_chemical_formula_sum   'Co8 P8 O32'
_cell_volume   972.28911392
_cell_formula_units_Z   8
loop_
 _symmetry_equiv_pos_site_id
 _symmetry_equiv_pos_as_xyz
  1  'x, y, z'
loop_
 _atom_site_type_symbol
 _atom_site_label
 _atom_site_symmetry_multiplicity
 _atom_site_fract_x
 _atom_site_fract_y
 _atom_site_fract_z
 _atom_site_occupancy
 _atom_site_charge
  Co  Co1  1  0.371500  0.609600  0.160000  1.0  1.1304
  Co  Co2  1  0.128500  0.890400  0.160000  1.0  1.1306
  Co  Co3  1  0.390400  0.871500  0.660000  1.0  1.1289
  Co  Co4  1  0.109600  0.628500  0.660000  1.0  1.1312
  Co  Co5  1  0.628500  0.390400  0.840000  1.0  1.1314
  Co  Co6  1  0.871500  0.109600  0.840000  1.0  1.1306
  Co  Co7  1  0.609600  0.128500  0.340000  1.0  1.1319
  Co  Co8  1  0.890400  0.371500  0.340000  1.0  1.1292
  P  P9  1  0.610100  0.406600  0.201600  1.0  1.8737
  P  P10  1  0.889900  0.093400  0.201600  1.0  1.8719
  P  P11  1  0.593400  0.110100  0.701600  1.0  1.8711
  P  P12  1  0.906600  0.389900  0.701600  1.0  1.8739
  P  P13  1  0.389900  0.593400  0.798400  1.0  1.8718
  P  P14  1  0.110100  0.906600  0.798400  1.0  1.8706
  P  P15  1  0.406600  0.889900  0.298400  1.0  1.8674
  P  P16  1  0.093400  0.610100  0.298400  1.0  1.871
  O  O17  1  0.504000  0.500100  0.246500  1.0  -0.7256
  O  O18  1  0.660200  0.437400  0.045600  1.0  -0.793
  O  O19  1  0.715900  0.426300  0.317100  1.0  -0.7622
  O  O20  1  0.557300  0.271100  0.211600  1.0  -0.724
  O  O21  1  0.996000  0.999900  0.246500  1.0  -0.7243
  O  O22  1  0.839800  0.062600  0.045600  1.0  -0.7936
  O  O23  1  0.784100  0.073700  0.317100  1.0  -0.7615
  O  O24  1  0.942700  0.228900  0.211600  1.0  -0.7228
  O  O25  1  0.499900  0.004000  0.746500  1.0  -0.725
  O  O26  1  0.562600  0.160200  0.545600  1.0  -0.7925
  O  O27  1  0.573700  0.215900  0.817100  1.0  -0.7606
  O  O28  1  0.728900  0.057300  0.711600  1.0  -0.7245
  O  O29  1  0.000100  0.496000  0.746500  1.0  -0.7238
  O  O30  1  0.937400  0.339800  0.545600  1.0  -0.792
  O  O31  1  0.926300  0.284100  0.817100  1.0  -0.7598
  O  O32  1  0.771100  0.442700  0.711600  1.0  -0.7256
  O  O33  1  0.496000  0.499900  0.753500  1.0  -0.7226
  O  O34  1  0.339800  0.562600  0.954400  1.0  -0.7942
  O  O35  1  0.284100  0.573700  0.682900  1.0  -0.7607
  O  O36  1  0.442700  0.728900  0.788400  1.0  -0.7234
  O  O37  1  0.004000  0.000100  0.753500  1.0  -0.7236
  O  O38  1  0.160200  0.937400  0.954400  1.0  -0.7939
  O  O39  1  0.215900  0.926300  0.682900  1.0  -0.7613
  O  O40  1  0.057300  0.771100  0.788400  1.0  -0.7242
  O  O41  1  0.500100  0.996000  0.253500  1.0  -0.7219
  O  O42  1  0.437400  0.839800  0.454400  1.0  -0.7923
  O  O43  1  0.426300  0.784100  0.182900  1.0  -0.7596
  O  O44  1  0.271100  0.942700  0.288400  1.0  -0.7258
  O  O45  1  0.999900  0.504000  0.253500  1.0  -0.723
  O  O46  1  0.062600  0.660200  0.454400  1.0  -0.7937
  O  O47  1  0.073700  0.715900  0.182900  1.0  -0.7597
  O  O48  1  0.228900  0.557300  0.288400  1.0  -0.7248
