# generated using pymatgen
data_EuH66C48(N2O3)4
_symmetry_space_group_name_H-M   'P 1'
_cell_length_a   12.18580000
_cell_length_b   21.57730000
_cell_length_c   12.55870000
_cell_angle_alpha   90.00000000
_cell_angle_beta   90.40600000
_cell_angle_gamma   90.00000000
_symmetry_Int_Tables_number   1
_chemical_formula_structural   EuH66C48(N2O3)4
_chemical_formula_sum   'Eu2 H132 C96 N16 O24'
_cell_volume   3302.05975822
_cell_formula_units_Z   2
loop_
 _symmetry_equiv_pos_site_id
 _symmetry_equiv_pos_as_xyz
  1  'x, y, z'
loop_
 _atom_site_type_symbol
 _atom_site_label
 _atom_site_symmetry_multiplicity
 _atom_site_fract_x
 _atom_site_fract_y
 _atom_site_fract_z
 _atom_site_occupancy
 _atom_site_charge
  Eu  Eu1  1  0.257180  0.458120  0.003400  1.0  2.1736
  Eu  Eu2  1  0.742820  0.958120  0.996600  1.0  2.1762
  H  H3  1  0.625200  0.634400  0.584800  1.0  0.0482
  H  H4  1  0.644000  0.567300  0.636800  1.0  0.0486
  H  H5  1  0.574300  0.673400  0.753100  1.0  0.0502
  H  H6  1  0.590500  0.605600  0.803300  1.0  0.0567
  H  H7  1  0.719500  0.718900  0.633700  1.0  0.0541
  H  H8  1  0.830400  0.694200  0.579900  1.0  0.0412
  H  H9  1  0.917800  0.699100  0.752000  1.0  0.0549
  H  H10  1  0.808500  0.730400  0.797800  1.0  0.061
  H  H11  1  0.915000  0.606800  0.641400  1.0  0.0341
  H  H12  1  0.822200  0.564100  0.587200  1.0  0.0403
  H  H13  1  0.784000  0.518300  0.754000  1.0  0.0415
  H  H14  1  0.874000  0.562100  0.810200  1.0  0.0581
  H  H15  1  0.811700  0.715200  0.360800  1.0  0.0515
  H  H16  1  0.698200  0.696900  0.416600  1.0  0.0454
  H  H17  1  0.719900  0.722200  0.193800  1.0  0.0552
  H  H18  1  0.606600  0.704000  0.249500  1.0  0.0556
  H  H19  1  0.867300  0.561300  0.359800  1.0  0.0452
  H  H20  1  0.896600  0.626700  0.413700  1.0  0.0392
  H  H21  1  0.946900  0.667000  0.244600  1.0  0.0531
  H  H22  1  0.915600  0.602300  0.189600  1.0  0.0628
  H  H23  1  0.602900  0.611500  0.366700  1.0  0.0462
  H  H24  1  0.691200  0.565400  0.419500  1.0  0.0528
  H  H25  1  0.630400  0.563300  0.197600  1.0  0.0583
  H  H26  1  0.719000  0.517500  0.249900  1.0  0.0487
  H  H27  1  0.308400  0.657400  0.667400  1.0  0.0639
  H  H28  1  0.385500  0.697200  0.745400  1.0  0.0623
  H  H29  1  0.503500  0.772100  0.671100  1.0  0.0742
  H  H30  1  0.573600  0.826700  0.524200  1.0  0.1041
  H  H31  1  0.419300  0.703800  0.327000  1.0  0.0954
  H  H32  1  0.359800  0.648000  0.476100  1.0  0.1
  H  H33  1  0.493600  0.799200  0.253900  1.0  0.07
  H  H34  1  0.537900  0.852300  0.331700  1.0  0.0539
  H  H35  1  0.038200  0.832700  0.664900  1.0  0.0627
  H  H36  1  0.053900  0.772600  0.737800  1.0  0.0536
  H  H37  1  0.099800  0.677500  0.659000  1.0  0.0804
  H  H38  1  0.146900  0.620400  0.510700  1.0  0.0936
  H  H39  1  0.057700  0.762100  0.321200  1.0  0.087
  H  H40  1  0.003600  0.818600  0.471000  1.0  0.0995
  H  H41  1  0.214500  0.632700  0.314500  1.0  0.0699
  H  H42  1  0.143800  0.679000  0.241600  1.0  0.0643
  H  H43  1  0.852900  0.416900  0.749900  1.0  0.0616
  H  H44  1  0.955300  0.399400  0.676900  1.0  0.0764
  H  H45  1  0.941500  0.433800  0.477300  1.0  0.0938
  H  H46  1  0.822900  0.434300  0.330500  1.0  0.0899
  H  H47  1  0.563400  0.429100  0.529400  1.0  0.0788
  H  H48  1  0.680800  0.426100  0.675400  1.0  0.0966
  H  H49  1  0.542100  0.404300  0.335600  1.0  0.0749
  H  H50  1  0.644900  0.415200  0.259600  1.0  0.0617
  H  H51  1  0.408000  0.595900  0.861600  1.0  0.0786
  H  H52  1  0.315100  0.576500  0.777100  1.0  0.0627
  H  H53  1  0.887600  0.819800  0.851500  1.0  0.0836
  H  H54  1  0.913300  0.873800  0.768200  1.0  0.0774
  H  H55  1  0.070200  0.445700  0.789900  1.0  0.0756
  H  H56  1  0.983300  0.476400  0.868800  1.0  0.0796
  H  H57  1  0.647700  0.815300  0.125700  1.0  0.0799
  H  H58  1  0.650900  0.874900  0.201200  1.0  0.0701
  H  H59  1  0.184400  0.560600  0.183000  1.0  0.067
  H  H60  1  0.086400  0.590200  0.113700  1.0  0.0784
  H  H61  1  0.522400  0.476600  0.135000  1.0  0.0781
  H  H62  1  0.431700  0.451800  0.215800  1.0  0.0783
  H  H63  1  0.458100  0.587500  0.643700  1.0  0.0726
  H  H64  1  0.857000  0.799300  0.634900  1.0  0.0714
  H  H65  1  0.986100  0.506600  0.653400  1.0  0.0867
  H  H66  1  0.702200  0.804800  0.340200  1.0  0.0697
  H  H67  1  0.059200  0.570000  0.333333  1.0  0.086
  H  H68  1  0.521600  0.511400  0.349000  1.0  0.078
  H  H69  1  0.374800  0.134400  0.415200  1.0  0.0473
  H  H70  1  0.356000  0.067300  0.363200  1.0  0.0512
  H  H71  1  0.425700  0.173400  0.246900  1.0  0.0498
  H  H72  1  0.409500  0.105600  0.196700  1.0  0.0562
  H  H73  1  0.280500  0.218900  0.366300  1.0  0.0532
  H  H74  1  0.169600  0.194200  0.420100  1.0  0.0412
  H  H75  1  0.082200  0.199100  0.248000  1.0  0.053
  H  H76  1  0.191500  0.230400  0.202200  1.0  0.0611
  H  H77  1  0.085000  0.106800  0.358600  1.0  0.0314
  H  H78  1  0.177800  0.064100  0.412800  1.0  0.0398
  H  H79  1  0.216000  0.018300  0.246000  1.0  0.0412
  H  H80  1  0.126000  0.062100  0.189800  1.0  0.0589
  H  H81  1  0.188300  0.215200  0.639200  1.0  0.0521
  H  H82  1  0.301800  0.196900  0.583400  1.0  0.0456
  H  H83  1  0.280100  0.222200  0.806200  1.0  0.0572
  H  H84  1  0.393400  0.204000  0.750500  1.0  0.0572
  H  H85  1  0.132700  0.061300  0.640200  1.0  0.0467
  H  H86  1  0.103400  0.126700  0.586300  1.0  0.0405
  H  H87  1  0.053100  0.167000  0.755400  1.0  0.0521
  H  H88  1  0.084400  0.102300  0.810400  1.0  0.0645
  H  H89  1  0.397100  0.111500  0.633300  1.0  0.0481
  H  H90  1  0.308800  0.065400  0.580500  1.0  0.0528
  H  H91  1  0.369600  0.063300  0.802400  1.0  0.0593
  H  H92  1  0.281000  0.017500  0.750100  1.0  0.0489
  H  H93  1  0.691600  0.157400  0.332600  1.0  0.0668
  H  H94  1  0.614500  0.197200  0.254600  1.0  0.0637
  H  H95  1  0.496500  0.272100  0.328900  1.0  0.0755
  H  H96  1  0.426400  0.326700  0.475800  1.0  0.1044
  H  H97  1  0.580700  0.203800  0.673000  1.0  0.0946
  H  H98  1  0.640200  0.148000  0.523900  1.0  0.1
  H  H99  1  0.506400  0.299200  0.746100  1.0  0.0702
  H  H100  1  0.462100  0.352300  0.668300  1.0  0.0531
  H  H101  1  0.961800  0.332700  0.335100  1.0  0.0634
  H  H102  1  0.946100  0.272600  0.262200  1.0  0.0538
  H  H103  1  0.900200  0.177500  0.341000  1.0  0.0796
  H  H104  1  0.853100  0.120400  0.489300  1.0  0.0929
  H  H105  1  0.942300  0.262100  0.678800  1.0  0.0878
  H  H106  1  0.996400  0.318600  0.529000  1.0  0.0994
  H  H107  1  0.785500  0.132700  0.685500  1.0  0.0678
  H  H108  1  0.856200  0.179000  0.758400  1.0  0.0623
  H  H109  1  0.147100  0.916900  0.250100  1.0  0.0615
  H  H110  1  0.044700  0.899400  0.323100  1.0  0.076
  H  H111  1  0.058500  0.933800  0.522700  1.0  0.0944
  H  H112  1  0.177100  0.934300  0.669500  1.0  0.0911
  H  H113  1  0.436600  0.929100  0.470600  1.0  0.079
  H  H114  1  0.319200  0.926100  0.324600  1.0  0.096
  H  H115  1  0.457900  0.904300  0.664400  1.0  0.0759
  H  H116  1  0.355100  0.915200  0.740400  1.0  0.0634
  H  H117  1  0.592000  0.095900  0.138400  1.0  0.0797
  H  H118  1  0.684900  0.076500  0.222900  1.0  0.0671
  H  H119  1  0.112400  0.319800  0.148500  1.0  0.0853
  H  H120  1  0.086700  0.373800  0.231800  1.0  0.0779
  H  H121  1  0.929800  0.945700  0.210100  1.0  0.075
  H  H122  1  0.016700  0.976400  0.131200  1.0  0.08
  H  H123  1  0.352300  0.315300  0.874300  1.0  0.0787
  H  H124  1  0.349100  0.374900  0.798800  1.0  0.0691
  H  H125  1  0.815600  0.060600  0.817000  1.0  0.0644
  H  H126  1  0.913600  0.090200  0.886300  1.0  0.0797
  H  H127  1  0.477600  0.976600  0.865000  1.0  0.079
  H  H128  1  0.568300  0.951800  0.784200  1.0  0.0776
  H  H129  1  0.541900  0.087500  0.356300  1.0  0.071
  H  H130  1  0.143000  0.299300  0.365100  1.0  0.0704
  H  H131  1  0.013900  0.006600  0.346600  1.0  0.0852
  H  H132  1  0.297800  0.304800  0.659800  1.0  0.0709
  H  H133  1  0.940800  0.070000  0.666667  1.0  0.0876
  H  H134  1  0.478400  0.011400  0.651000  1.0  0.0781
  C  C135  1  0.647000  0.612400  0.650800  1.0  0.0023
  C  C136  1  0.570000  0.628500  0.737800  1.0  -0.0454
  C  C137  1  0.787900  0.695300  0.646800  1.0  -0.0213
  C  C138  1  0.854100  0.725600  0.733400  1.0  -0.0481
  C  C139  1  0.843900  0.585800  0.653500  1.0  0.0011
  C  C140  1  0.854400  0.540300  0.743400  1.0  -0.0693
  C  C141  1  0.740400  0.694100  0.349700  1.0  -0.0287
  C  C142  1  0.677500  0.725500  0.260500  1.0  -0.0624
  C  C143  1  0.869200  0.606600  0.347800  1.0  -0.0236
  C  C144  1  0.944800  0.621600  0.255500  1.0  -0.0494
  C  C145  1  0.670700  0.587500  0.353300  1.0  -0.0087
  C  C146  1  0.650500  0.540800  0.263500  1.0  -0.0546
  C  C147  1  0.385100  0.669900  0.682000  1.0  -0.0866
  C  C148  1  0.429200  0.705000  0.587800  1.0  0.0441
  C  C149  1  0.488700  0.757500  0.601100  1.0  -0.1286
  C  C150  1  0.529000  0.791100  0.513600  1.0  -0.1969
  C  C151  1  0.502200  0.771000  0.410800  1.0  0.0499
  C  C152  1  0.438200  0.717500  0.396700  1.0  -0.1189
  C  C153  1  0.402500  0.684500  0.485300  1.0  -0.1428
  C  C154  1  0.542900  0.807600  0.315300  1.0  -0.0833
  C  C155  1  0.014300  0.789300  0.675000  1.0  -0.0499
  C  C156  1  0.045500  0.753200  0.580800  1.0  0.0354
  C  C157  1  0.089300  0.694900  0.590200  1.0  -0.162
  C  C158  1  0.118300  0.661000  0.502000  1.0  -0.1451
  C  C159  1  0.106200  0.685600  0.400700  1.0  0.0233
  C  C160  1  0.064900  0.744200  0.390100  1.0  -0.1731
  C  C161  1  0.033400  0.778200  0.479600  1.0  -0.1693
  C  C162  1  0.140200  0.650200  0.302900  1.0  -0.0608
  C  C163  1  0.896400  0.430300  0.687800  1.0  -0.0904
  C  C164  1  0.822500  0.430900  0.590200  1.0  0.1167
  C  C165  1  0.864400  0.432800  0.487700  1.0  -0.1182
  C  C166  1  0.793800  0.433300  0.400400  1.0  -0.1713
  C  C167  1  0.678700  0.432300  0.415200  1.0  0.065
  C  C168  1  0.640400  0.429900  0.518100  1.0  -0.1541
  C  C169  1  0.709900  0.428600  0.605500  1.0  -0.2471
  C  C170  1  0.604600  0.432300  0.321200  1.0  -0.0602
  C  C171  1  0.395000  0.575600  0.792000  1.0  -0.1039
  C  C172  1  0.431900  0.510900  0.797700  1.0  0.703
  C  C173  1  0.867700  0.836600  0.780600  1.0  -0.085
  C  C174  1  0.750200  0.855200  0.781300  1.0  0.6874
  C  C175  1  0.026000  0.483400  0.803100  1.0  -0.0768
  C  C176  1  0.103500  0.538200  0.820900  1.0  0.7054
  C  C177  1  0.683100  0.833300  0.189800  1.0  -0.1158
  C  C178  1  0.802500  0.840600  0.169000  1.0  0.7333
  C  C179  1  0.103700  0.565200  0.177800  1.0  -0.1482
  C  C180  1  0.049400  0.500400  0.168100  1.0  0.7007
  C  C181  1  0.480500  0.487200  0.199700  1.0  -0.1125
  C  C182  1  0.410700  0.543300  0.176700  1.0  0.7103
  C  C183  1  0.353000  0.112400  0.349200  1.0  0.0023
  C  C184  1  0.430000  0.128500  0.262200  1.0  -0.0431
  C  C185  1  0.212100  0.195300  0.353200  1.0  -0.0222
  C  C186  1  0.145900  0.225600  0.266600  1.0  -0.0475
  C  C187  1  0.156100  0.085800  0.346500  1.0  0.0027
  C  C188  1  0.145600  0.040300  0.256600  1.0  -0.0703
  C  C189  1  0.259600  0.194100  0.650300  1.0  -0.0269
  C  C190  1  0.322500  0.225500  0.739500  1.0  -0.0624
  C  C191  1  0.130800  0.106600  0.652200  1.0  -0.0215
  C  C192  1  0.055200  0.121600  0.744500  1.0  -0.0488
  C  C193  1  0.329300  0.087500  0.646700  1.0  -0.0097
  C  C194  1  0.349500  0.040800  0.736500  1.0  -0.0553
  C  C195  1  0.614900  0.169900  0.318000  1.0  -0.084
  C  C196  1  0.570800  0.205000  0.412200  1.0  0.0468
  C  C197  1  0.511300  0.257500  0.398900  1.0  -0.128
  C  C198  1  0.471000  0.291100  0.486400  1.0  -0.1963
  C  C199  1  0.497800  0.271000  0.589200  1.0  0.051
  C  C200  1  0.561800  0.217500  0.603300  1.0  -0.1195
  C  C201  1  0.597500  0.184500  0.514700  1.0  -0.1437
  C  C202  1  0.457100  0.307600  0.684700  1.0  -0.0847
  C  C203  1  0.985700  0.289300  0.325000  1.0  -0.0478
  C  C204  1  0.954500  0.253200  0.419200  1.0  0.0356
  C  C205  1  0.910700  0.194900  0.409800  1.0  -0.1588
  C  C206  1  0.881700  0.161000  0.498000  1.0  -0.143
  C  C207  1  0.893800  0.185600  0.599300  1.0  0.0219
  C  C208  1  0.935100  0.244200  0.609900  1.0  -0.1723
  C  C209  1  0.966600  0.278200  0.520400  1.0  -0.1681
  C  C210  1  0.859800  0.150200  0.697100  1.0  -0.062
  C  C211  1  0.103600  0.930300  0.312200  1.0  -0.0908
  C  C212  1  0.177500  0.930900  0.409800  1.0  0.1155
  C  C213  1  0.135600  0.932800  0.512300  1.0  -0.1171
  C  C214  1  0.206200  0.933300  0.599600  1.0  -0.1705
  C  C215  1  0.321300  0.932300  0.584800  1.0  0.0651
  C  C216  1  0.359600  0.929900  0.481900  1.0  -0.1547
  C  C217  1  0.290100  0.928600  0.394500  1.0  -0.2474
  C  C218  1  0.395400  0.932300  0.678800  1.0  -0.0594
  C  C219  1  0.605000  0.075600  0.208000  1.0  -0.1063
  C  C220  1  0.568100  0.010900  0.202300  1.0  0.7025
  C  C221  1  0.132300  0.336600  0.219400  1.0  -0.0838
  C  C222  1  0.249800  0.355200  0.218700  1.0  0.6888
  C  C223  1  0.974000  0.983400  0.196900  1.0  -0.0764
  C  C224  1  0.896500  0.038200  0.179100  1.0  0.7067
  C  C225  1  0.316900  0.333333  0.810200  1.0  -0.1178
  C  C226  1  0.197500  0.340600  0.831000  1.0  0.7362
  C  C227  1  0.896300  0.065200  0.822200  1.0  -0.1482
  C  C228  1  0.950600  0.000400  0.831900  1.0  0.7013
  C  C229  1  0.519500  0.987200  0.800300  1.0  -0.115
  C  C230  1  0.589300  0.043300  0.823300  1.0  0.7087
  N  N231  1  0.761400  0.630700  0.682100  1.0  -0.2272
  N  N232  1  0.455400  0.611700  0.705000  1.0  0.0431
  N  N233  1  0.894200  0.788800  0.697200  1.0  0.0751
  N  N234  1  0.948400  0.492300  0.712600  1.0  -0.0055
  N  N235  1  0.758700  0.629200  0.322400  1.0  -0.1884
  N  N236  1  0.656200  0.793100  0.284300  1.0  0.1107
  N  N237  1  0.060600  0.597800  0.276900  1.0  0.0181
  N  N238  1  0.559900  0.495700  0.291200  1.0  0.0783
  N  N239  1  0.238600  0.130700  0.317900  1.0  -0.225
  N  N240  1  0.544600  0.111700  0.295000  1.0  0.0421
  N  N241  1  0.105800  0.288800  0.302800  1.0  0.0764
  N  N242  1  0.051600  0.992300  0.287400  1.0  -0.0055
  N  N243  1  0.241300  0.129200  0.677600  1.0  -0.1927
  N  N244  1  0.343800  0.293100  0.715700  1.0  0.1104
  N  N245  1  0.939400  0.097800  0.723100  1.0  0.0197
  N  N246  1  0.440100  0.995700  0.708800  1.0  0.0797
  O  O247  1  0.375400  0.477600  0.863700  1.0  -0.689
  O  O248  1  0.509100  0.492500  0.742500  1.0  -0.5925
  O  O249  1  0.687300  0.830000  0.718000  1.0  -0.5788
  O  O250  1  0.727700  0.899000  0.844400  1.0  -0.7043
  O  O251  1  0.094600  0.584700  0.765300  1.0  -0.5948
  O  O252  1  0.165300  0.532700  0.902500  1.0  -0.7191
  O  O253  1  0.871400  0.812600  0.224100  1.0  -0.5989
  O  O254  1  0.821800  0.877300  0.093400  1.0  -0.696
  O  O255  1  0.979600  0.482800  0.230500  1.0  -0.575
  O  O256  1  0.088900  0.469500  0.090900  1.0  -0.6662
  O  O257  1  0.419500  0.590700  0.231600  1.0  -0.5936
  O  O258  1  0.344500  0.536300  0.098000  1.0  -0.6953
  O  O259  1  0.624600  0.977600  0.136300  1.0  -0.6863
  O  O260  1  0.490900  0.992500  0.257500  1.0  -0.5908
  O  O261  1  0.312700  0.330000  0.282000  1.0  -0.5791
  O  O262  1  0.272300  0.399000  0.155600  1.0  -0.7017
  O  O263  1  0.905400  0.084700  0.234700  1.0  -0.5954
  O  O264  1  0.834700  0.032700  0.097500  1.0  -0.7184
  O  O265  1  0.128600  0.312600  0.775900  1.0  -0.5985
  O  O266  1  0.178200  0.377300  0.906600  1.0  -0.7012
  O  O267  1  0.020400  0.982800  0.769500  1.0  -0.5755
  O  O268  1  0.911100  0.969500  0.909100  1.0  -0.6701
  O  O269  1  0.580500  0.090700  0.768400  1.0  -0.5929
  O  O270  1  0.655500  0.036300  0.902000  1.0  -0.6964
