# generated using pymatgen
data_EuH66C48(N3O5)3
_symmetry_space_group_name_H-M   'P 1'
_cell_length_a   12.33600000
_cell_length_b   12.48800000
_cell_length_c   12.48800000
_cell_angle_alpha   120.00000000
_cell_angle_beta   90.00000000
_cell_angle_gamma   90.00000000
_symmetry_Int_Tables_number   1
_chemical_formula_structural   EuH66C48(N3O5)3
_chemical_formula_sum   'Eu1 H66 C48 N9 O15'
_cell_volume   1666.06051737
_cell_formula_units_Z   1
loop_
 _symmetry_equiv_pos_site_id
 _symmetry_equiv_pos_as_xyz
  1  'x, y, z'
loop_
 _atom_site_type_symbol
 _atom_site_label
 _atom_site_symmetry_multiplicity
 _atom_site_fract_x
 _atom_site_fract_y
 _atom_site_fract_z
 _atom_site_occupancy
 _atom_site_charge
  Eu  Eu1  1  0.000000  0.000000  0.000000  1.0  2.1763
  H  H2  1  0.652400  0.912800  0.231800  1.0  0.131
  H  H3  1  0.640000  0.710400  0.204000  1.0  0.0552
  H  H4  1  0.586900  0.797900  0.332900  1.0  0.0478
  H  H5  1  0.802900  0.803200  0.277100  1.0  0.0661
  H  H6  1  0.751300  0.889400  0.407000  1.0  0.0556
  H  H7  1  0.747400  0.085600  0.447800  1.0  0.0619
  H  H8  1  0.676900  0.120400  0.365800  1.0  0.0662
  H  H9  1  0.671700  0.071500  0.604000  1.0  0.0738
  H  H10  1  0.469100  0.071300  0.353800  1.0  0.1017
  H  H11  1  0.789000  0.030800  0.210400  1.0  0.0655
  H  H12  1  0.868700  0.965300  0.257200  1.0  0.0685
  H  H13  1  0.652400  0.319000  0.087200  1.0  0.1272
  H  H14  1  0.640000  0.493600  0.289600  1.0  0.0543
  H  H15  1  0.586900  0.535000  0.202100  1.0  0.0477
  H  H16  1  0.802900  0.473900  0.196800  1.0  0.0664
  H  H17  1  0.751300  0.517600  0.110600  1.0  0.0549
  H  H18  1  0.747400  0.362200  0.914400  1.0  0.0623
  H  H19  1  0.676900  0.245400  0.879600  1.0  0.0658
  H  H20  1  0.671700  0.532500  0.928500  1.0  0.0732
  H  H21  1  0.469100  0.282500  0.928700  1.0  0.1018
  H  H22  1  0.789000  0.179600  0.969200  1.0  0.0665
  H  H23  1  0.868700  0.291900  0.034700  1.0  0.0679
  H  H24  1  0.652400  0.768200  0.681000  1.0  0.1274
  H  H25  1  0.640000  0.796000  0.506400  1.0  0.0561
  H  H26  1  0.586900  0.667100  0.465000  1.0  0.0478
  H  H27  1  0.802900  0.722900  0.526100  1.0  0.0661
  H  H28  1  0.751300  0.593000  0.482400  1.0  0.0626
  H  H29  1  0.747400  0.552200  0.637800  1.0  0.0601
  H  H30  1  0.676900  0.634200  0.754600  1.0  0.068
  H  H31  1  0.671700  0.396000  0.467500  1.0  0.074
  H  H32  1  0.469100  0.646200  0.717500  1.0  0.1018
  H  H33  1  0.789000  0.789600  0.820400  1.0  0.0668
  H  H34  1  0.868700  0.742800  0.708100  1.0  0.0687
  H  H35  1  0.347600  0.319000  0.231800  1.0  0.1242
  H  H36  1  0.360000  0.493600  0.204000  1.0  0.0533
  H  H37  1  0.413100  0.535000  0.332900  1.0  0.0509
  H  H38  1  0.197100  0.473900  0.277100  1.0  0.0639
  H  H39  1  0.248700  0.517600  0.407000  1.0  0.0557
  H  H40  1  0.252600  0.362200  0.447800  1.0  0.0606
  H  H41  1  0.323100  0.245400  0.365800  1.0  0.0667
  H  H42  1  0.328300  0.532500  0.604000  1.0  0.0727
  H  H43  1  0.530900  0.282500  0.353800  1.0  0.1009
  H  H44  1  0.211000  0.179600  0.210400  1.0  0.068
  H  H45  1  0.131300  0.291900  0.257200  1.0  0.0671
  H  H46  1  0.347600  0.768200  0.087200  1.0  0.1249
  H  H47  1  0.360000  0.796000  0.289600  1.0  0.0557
  H  H48  1  0.413100  0.667100  0.202100  1.0  0.0511
  H  H49  1  0.197100  0.722900  0.196800  1.0  0.0624
  H  H50  1  0.248700  0.593000  0.110600  1.0  0.0615
  H  H51  1  0.252600  0.552200  0.914400  1.0  0.0606
  H  H52  1  0.323100  0.634200  0.879600  1.0  0.0711
  H  H53  1  0.328300  0.396000  0.928500  1.0  0.0729
  H  H54  1  0.530900  0.646200  0.928700  1.0  0.1014
  H  H55  1  0.211000  0.789600  0.969200  1.0  0.066
  H  H56  1  0.131300  0.742800  0.034700  1.0  0.0685
  H  H57  1  0.347600  0.912800  0.681000  1.0  0.1245
  H  H58  1  0.360000  0.710400  0.506400  1.0  0.0538
  H  H59  1  0.413100  0.797900  0.465000  1.0  0.0515
  H  H60  1  0.197100  0.803200  0.526100  1.0  0.0637
  H  H61  1  0.248700  0.889400  0.482400  1.0  0.0546
  H  H62  1  0.252600  0.085600  0.637800  1.0  0.0624
  H  H63  1  0.323100  0.120400  0.754600  1.0  0.065
  H  H64  1  0.328300  0.071500  0.467500  1.0  0.0735
  H  H65  1  0.530900  0.071300  0.717500  1.0  0.0997
  H  H66  1  0.211000  0.030800  0.820400  1.0  0.0653
  H  H67  1  0.131300  0.965300  0.708100  1.0  0.0678
  C  C68  1  0.653300  0.755500  0.292400  1.0  -0.004
  C  C69  1  0.737000  0.846200  0.318800  1.0  -0.0228
  C  C70  1  0.685000  0.060000  0.392000  1.0  -0.0652
  C  C71  1  0.588900  0.067100  0.464700  1.0  0.0688
  C  C72  1  0.601800  0.069600  0.575300  1.0  -0.1473
  C  C73  1  0.481600  0.069600  0.426300  1.0  -0.2151
  C  C74  1  0.813300  0.851500  0.085300  1.0  0.734
  C  C75  1  0.801400  0.955400  0.212900  1.0  -0.0885
  C  C76  1  0.653300  0.536900  0.244500  1.0  -0.0045
  C  C77  1  0.737000  0.472600  0.153800  1.0  -0.0219
  C  C78  1  0.685000  0.332000  0.940000  1.0  -0.0657
  C  C79  1  0.588900  0.397600  0.932900  1.0  0.0707
  C  C80  1  0.601800  0.505700  0.930400  1.0  -0.1388
  C  C81  1  0.481600  0.356700  0.930400  1.0  -0.2186
  C  C82  1  0.813300  0.233800  0.148500  1.0  0.733
  C  C83  1  0.801400  0.257500  0.044600  1.0  -0.0853
  C  C84  1  0.653300  0.707600  0.463100  1.0  -0.003
  C  C85  1  0.737000  0.681200  0.527400  1.0  -0.0197
  C  C86  1  0.685000  0.608000  0.668000  1.0  -0.065
  C  C87  1  0.588900  0.535300  0.602400  1.0  0.07
  C  C88  1  0.601800  0.424700  0.494300  1.0  -0.1476
  C  C89  1  0.481600  0.573700  0.643300  1.0  -0.2146
  C  C90  1  0.813300  0.914700  0.766200  1.0  0.7313
  C  C91  1  0.801400  0.787100  0.742500  1.0  -0.0878
  C  C92  1  0.346700  0.536900  0.292400  1.0  -0.0037
  C  C93  1  0.263000  0.472600  0.318800  1.0  -0.0207
  C  C94  1  0.315000  0.332000  0.392000  1.0  -0.0671
  C  C95  1  0.411100  0.397600  0.464700  1.0  0.0708
  C  C96  1  0.398200  0.505700  0.575300  1.0  -0.1337
  C  C97  1  0.518400  0.356700  0.426300  1.0  -0.2187
  C  C98  1  0.186700  0.233800  0.085300  1.0  0.7348
  C  C99  1  0.198600  0.257500  0.212900  1.0  -0.084
  C  C100  1  0.346700  0.707600  0.244500  1.0  -0.0017
  C  C101  1  0.263000  0.681200  0.153800  1.0  -0.0205
  C  C102  1  0.315000  0.608000  0.940000  1.0  -0.0653
  C  C103  1  0.411100  0.535300  0.932900  1.0  0.0701
  C  C104  1  0.398200  0.424700  0.930400  1.0  -0.1421
  C  C105  1  0.518400  0.573700  0.930400  1.0  -0.2179
  C  C106  1  0.186700  0.914700  0.148500  1.0  0.7319
  C  C107  1  0.198600  0.787100  0.044600  1.0  -0.087
  C  C108  1  0.346700  0.755500  0.463100  1.0  -0.0027
  C  C109  1  0.263000  0.846200  0.527400  1.0  -0.0188
  C  C110  1  0.315000  0.060000  0.668000  1.0  -0.0657
  C  C111  1  0.411100  0.067100  0.602400  1.0  0.0685
  C  C112  1  0.398200  0.069600  0.494300  1.0  -0.144
  C  C113  1  0.518400  0.069600  0.643300  1.0  -0.2169
  C  C114  1  0.186700  0.851500  0.766200  1.0  0.7331
  C  C115  1  0.198600  0.955400  0.742500  1.0  -0.0872
  N  N116  1  0.711900  0.938500  0.281600  1.0  0.1262
  N  N117  1  0.711900  0.343100  0.061500  1.0  0.1259
  N  N118  1  0.711900  0.718400  0.656900  1.0  0.1242
  N  N119  1  0.288100  0.343100  0.281600  1.0  0.1248
  N  N120  1  0.288100  0.718400  0.061500  1.0  0.1253
  N  N121  1  0.288100  0.938500  0.656900  1.0  0.1256
  N  N122  1  0.681000  0.666667  0.333333  1.0  -0.2384
  N  N123  1  0.319000  0.666667  0.333333  1.0  -0.2389
  N  N124  1  0.000000  0.666667  0.333333  1.0  0.7479
  O  O125  1  0.887600  0.866000  0.022900  1.0  -0.7315
  O  O126  1  0.760600  0.758500  0.046800  1.0  -0.5458
  O  O127  1  0.887600  0.156900  0.134000  1.0  -0.7307
  O  O128  1  0.760600  0.288300  0.241500  1.0  -0.5466
  O  O129  1  0.887600  0.977100  0.843100  1.0  -0.7323
  O  O130  1  0.760600  0.953200  0.711700  1.0  -0.5468
  O  O131  1  0.112400  0.156900  0.022900  1.0  -0.7315
  O  O132  1  0.239400  0.288300  0.046800  1.0  -0.5469
  O  O133  1  0.112400  0.977100  0.134000  1.0  -0.7328
  O  O134  1  0.239400  0.953200  0.241500  1.0  -0.5468
  O  O135  1  0.112400  0.866000  0.843100  1.0  -0.7314
  O  O136  1  0.239400  0.758500  0.711700  1.0  -0.5485
  O  O137  1  0.000000  0.724950  0.275050  1.0  -0.6236
  O  O138  1  0.000000  0.550100  0.275050  1.0  -0.6262
  O  O139  1  0.000000  0.724950  0.449900  1.0  -0.6239
