# generated using pymatgen
data_EuH66C48(N2O3)4
_symmetry_space_group_name_H-M   'P 1'
_cell_length_a   12.13900000
_cell_length_b   21.57100000
_cell_length_c   12.61100000
_cell_angle_alpha   90.00000000
_cell_angle_beta   90.35100000
_cell_angle_gamma   90.00000000
_symmetry_Int_Tables_number   1
_chemical_formula_structural   EuH66C48(N2O3)4
_chemical_formula_sum   'Eu2 H132 C96 N16 O24'
_cell_volume   3302.13303933
_cell_formula_units_Z   2
loop_
 _symmetry_equiv_pos_site_id
 _symmetry_equiv_pos_as_xyz
  1  'x, y, z'
loop_
 _atom_site_type_symbol
 _atom_site_label
 _atom_site_symmetry_multiplicity
 _atom_site_fract_x
 _atom_site_fract_y
 _atom_site_fract_z
 _atom_site_occupancy
 _atom_site_charge
  Eu  Eu1  1  0.743080  0.542370  0.996120  1.0  2.1776
  Eu  Eu2  1  0.256920  0.042370  0.003880  1.0  2.1747
  H  H3  1  0.356700  0.431400  0.362700  1.0  0.0434
  H  H4  1  0.376400  0.364300  0.414500  1.0  0.0481
  H  H5  1  0.407400  0.393400  0.196900  1.0  0.0608
  H  H6  1  0.422500  0.325200  0.245600  1.0  0.0497
  H  H7  1  0.168000  0.306300  0.421200  1.0  0.0411
  H  H8  1  0.278700  0.280400  0.368000  1.0  0.052
  H  H9  1  0.188300  0.268600  0.204200  1.0  0.0605
  H  H10  1  0.079300  0.300300  0.250100  1.0  0.0562
  H  H11  1  0.179700  0.435100  0.412300  1.0  0.0397
  H  H12  1  0.085400  0.393100  0.358900  1.0  0.0294
  H  H13  1  0.128800  0.437200  0.189700  1.0  0.0573
  H  H14  1  0.218300  0.481000  0.246300  1.0  0.0449
  H  H15  1  0.302900  0.302900  0.582600  1.0  0.0423
  H  H16  1  0.189300  0.284800  0.639200  1.0  0.0447
  H  H17  1  0.397500  0.294200  0.748000  1.0  0.0479
  H  H18  1  0.284200  0.277100  0.805500  1.0  0.0555
  H  H19  1  0.105600  0.373400  0.589300  1.0  0.0384
  H  H20  1  0.135300  0.438500  0.644200  1.0  0.0477
  H  H21  1  0.058200  0.331600  0.755500  1.0  0.0538
  H  H22  1  0.091800  0.395200  0.812500  1.0  0.0645
  H  H23  1  0.310100  0.434000  0.580600  1.0  0.0483
  H  H24  1  0.399700  0.388400  0.632500  1.0  0.0481
  H  H25  1  0.283600  0.482000  0.749200  1.0  0.0483
  H  H26  1  0.373800  0.436700  0.800500  1.0  0.0552
  H  H27  1  0.691600  0.341100  0.330800  1.0  0.0539
  H  H28  1  0.613800  0.301200  0.254000  1.0  0.06
  H  H29  1  0.491400  0.226800  0.329000  1.0  0.0799
  H  H30  1  0.427400  0.172100  0.475700  1.0  0.1002
  H  H31  1  0.583600  0.295000  0.669400  1.0  0.1016
  H  H32  1  0.643500  0.349300  0.522300  1.0  0.0907
  H  H33  1  0.467500  0.146700  0.667900  1.0  0.0628
  H  H34  1  0.511000  0.201200  0.743100  1.0  0.0574
  H  H35  1  0.954500  0.168500  0.335200  1.0  0.0708
  H  H36  1  0.941400  0.229900  0.265300  1.0  0.054
  H  H37  1  0.902400  0.326600  0.349000  1.0  0.0874
  H  H38  1  0.857200  0.381900  0.501000  1.0  0.0904
  H  H39  1  0.941700  0.235400  0.681800  1.0  0.0817
  H  H40  1  0.992100  0.180700  0.531300  1.0  0.0916
  H  H41  1  0.856000  0.320600  0.763600  1.0  0.0627
  H  H42  1  0.789100  0.368900  0.692000  1.0  0.0636
  H  H43  1  0.041000  0.598000  0.325800  1.0  0.0716
  H  H44  1  0.144000  0.586000  0.250200  1.0  0.0703
  H  H45  1  0.059300  0.563900  0.520100  1.0  0.1014
  H  H46  1  0.178200  0.562400  0.665100  1.0  0.0833
  H  H47  1  0.441300  0.570000  0.468100  1.0  0.1119
  H  H48  1  0.321100  0.571800  0.323800  1.0  0.0774
  H  H49  1  0.360500  0.586100  0.737700  1.0  0.063
  H  H50  1  0.462100  0.594900  0.659100  1.0  0.0709
  H  H51  1  0.592100  0.400600  0.136200  1.0  0.0814
  H  H52  1  0.686800  0.420000  0.218700  1.0  0.0709
  H  H53  1  0.080100  0.124600  0.235400  1.0  0.0732
  H  H54  1  0.105600  0.177800  0.150400  1.0  0.0782
  H  H55  1  0.022300  0.522200  0.124200  1.0  0.0777
  H  H56  1  0.934500  0.553800  0.201500  1.0  0.0698
  H  H57  1  0.356800  0.183500  0.872300  1.0  0.0715
  H  H58  1  0.351500  0.124000  0.796800  1.0  0.0703
  H  H59  1  0.927400  0.408100  0.894300  1.0  0.0742
  H  H60  1  0.823300  0.434700  0.829900  1.0  0.0596
  H  H61  1  0.476500  0.524100  0.861500  1.0  0.071
  H  H62  1  0.567800  0.549500  0.781600  1.0  0.075
  H  H63  1  0.547000  0.410500  0.352000  1.0  0.0765
  H  H64  1  0.138200  0.199700  0.365600  1.0  0.0683
  H  H65  1  0.015700  0.492000  0.338600  1.0  0.0746
  H  H66  1  0.297500  0.194400  0.659200  1.0  0.0763
  H  H67  1  0.943500  0.429500  0.679300  1.0  0.0707
  H  H68  1  0.481200  0.488300  0.649700  1.0  0.0702
  H  H69  1  0.643300  0.931400  0.637300  1.0  0.0445
  H  H70  1  0.623600  0.864300  0.585500  1.0  0.0485
  H  H71  1  0.592600  0.893400  0.803100  1.0  0.0613
  H  H72  1  0.577500  0.825200  0.754400  1.0  0.052
  H  H73  1  0.832000  0.806300  0.578800  1.0  0.0411
  H  H74  1  0.721300  0.780400  0.632000  1.0  0.0525
  H  H75  1  0.811700  0.768600  0.795800  1.0  0.0606
  H  H76  1  0.920700  0.800300  0.749900  1.0  0.0555
  H  H77  1  0.820300  0.935100  0.587700  1.0  0.0392
  H  H78  1  0.914600  0.893100  0.641100  1.0  0.0318
  H  H79  1  0.871200  0.937200  0.810300  1.0  0.0591
  H  H80  1  0.781700  0.981000  0.753700  1.0  0.0424
  H  H81  1  0.697100  0.802900  0.417400  1.0  0.0425
  H  H82  1  0.810700  0.784800  0.360800  1.0  0.044
  H  H83  1  0.602500  0.794200  0.252000  1.0  0.0478
  H  H84  1  0.715800  0.777100  0.194500  1.0  0.0541
  H  H85  1  0.894400  0.873400  0.410700  1.0  0.0372
  H  H86  1  0.864700  0.938500  0.355800  1.0  0.0472
  H  H87  1  0.941800  0.831600  0.244500  1.0  0.0536
  H  H88  1  0.908200  0.895200  0.187500  1.0  0.0646
  H  H89  1  0.689900  0.934000  0.419400  1.0  0.0475
  H  H90  1  0.600300  0.888400  0.367500  1.0  0.0466
  H  H91  1  0.716400  0.982000  0.250800  1.0  0.0496
  H  H92  1  0.626200  0.936700  0.199500  1.0  0.0532
  H  H93  1  0.308400  0.841100  0.669200  1.0  0.0537
  H  H94  1  0.386200  0.801200  0.746000  1.0  0.0618
  H  H95  1  0.508600  0.726800  0.671000  1.0  0.0796
  H  H96  1  0.572600  0.672100  0.524300  1.0  0.1013
  H  H97  1  0.416400  0.795000  0.330600  1.0  0.103
  H  H98  1  0.356500  0.849300  0.477700  1.0  0.0911
  H  H99  1  0.532500  0.646700  0.332100  1.0  0.0639
  H  H100  1  0.489000  0.701200  0.256900  1.0  0.0565
  H  H101  1  0.045500  0.668500  0.664800  1.0  0.0711
  H  H102  1  0.058600  0.729900  0.734700  1.0  0.0539
  H  H103  1  0.097600  0.826600  0.651000  1.0  0.0883
  H  H104  1  0.142800  0.881900  0.499000  1.0  0.09
  H  H105  1  0.058300  0.735400  0.318200  1.0  0.0813
  H  H106  1  0.007900  0.680700  0.468700  1.0  0.0908
  H  H107  1  0.144000  0.820600  0.236400  1.0  0.0618
  H  H108  1  0.210900  0.868900  0.308000  1.0  0.0642
  H  H109  1  0.959000  0.098000  0.674200  1.0  0.0713
  H  H110  1  0.856000  0.086000  0.749800  1.0  0.0702
  H  H111  1  0.940700  0.063900  0.479900  1.0  0.103
  H  H112  1  0.821800  0.062400  0.334900  1.0  0.0843
  H  H113  1  0.558700  0.070000  0.531900  1.0  0.1116
  H  H114  1  0.678900  0.071800  0.676200  1.0  0.077
  H  H115  1  0.639500  0.086100  0.262300  1.0  0.0644
  H  H116  1  0.537900  0.094900  0.340900  1.0  0.0706
  H  H117  1  0.407900  0.900600  0.863800  1.0  0.0818
  H  H118  1  0.313200  0.920000  0.781300  1.0  0.0709
  H  H119  1  0.919900  0.624600  0.764600  1.0  0.0735
  H  H120  1  0.894400  0.677800  0.849600  1.0  0.0766
  H  H121  1  0.977700  0.022200  0.875800  1.0  0.0764
  H  H122  1  0.065500  0.053800  0.798500  1.0  0.0709
  H  H123  1  0.643200  0.683500  0.127700  1.0  0.0716
  H  H124  1  0.648500  0.624000  0.203200  1.0  0.0696
  H  H125  1  0.072600  0.908100  0.105700  1.0  0.0734
  H  H126  1  0.176700  0.934700  0.170100  1.0  0.0615
  H  H127  1  0.523500  0.024100  0.138500  1.0  0.0711
  H  H128  1  0.432200  0.049500  0.218400  1.0  0.0756
  H  H129  1  0.453000  0.910500  0.648000  1.0  0.0769
  H  H130  1  0.861800  0.699700  0.634400  1.0  0.069
  H  H131  1  0.984300  0.992000  0.661400  1.0  0.0756
  H  H132  1  0.702500  0.694400  0.340800  1.0  0.0765
  H  H133  1  0.056500  0.929500  0.320700  1.0  0.0694
  H  H134  1  0.518800  0.988300  0.350300  1.0  0.0691
  C  C135  1  0.353600  0.386200  0.349000  1.0  -0.016
  C  C136  1  0.428700  0.370100  0.261400  1.0  -0.0393
  C  C137  1  0.210600  0.304400  0.354600  1.0  -0.0428
  C  C138  1  0.142800  0.273500  0.268500  1.0  -0.056
  C  C139  1  0.157300  0.413400  0.346500  1.0  -0.0022
  C  C140  1  0.147200  0.459300  0.256300  1.0  -0.0603
  C  C141  1  0.261300  0.305500  0.649700  1.0  -0.0027
  C  C142  1  0.325500  0.273300  0.738300  1.0  -0.0643
  C  C143  1  0.133800  0.393100  0.655000  1.0  -0.0091
  C  C144  1  0.059900  0.377200  0.746800  1.0  -0.0372
  C  C145  1  0.331700  0.412200  0.646500  1.0  -0.0086
  C  C146  1  0.352500  0.459000  0.734900  1.0  -0.0641
  C  C147  1  0.614300  0.328800  0.316700  1.0  -0.0638
  C  C148  1  0.571700  0.293500  0.410700  1.0  0.0724
  C  C149  1  0.509200  0.241000  0.398400  1.0  -0.1421
  C  C150  1  0.471500  0.208000  0.485700  1.0  -0.1853
  C  C151  1  0.498200  0.227500  0.586600  1.0  0.0556
  C  C152  1  0.564100  0.281200  0.600200  1.0  -0.1136
  C  C153  1  0.599500  0.313200  0.513100  1.0  -0.144
  C  C154  1  0.461200  0.191600  0.682900  1.0  -0.0837
  C  C155  1  0.980900  0.211600  0.326600  1.0  -0.0662
  C  C156  1  0.952600  0.248100  0.425100  1.0  0.0775
  C  C157  1  0.911500  0.308000  0.416800  1.0  -0.1715
  C  C158  1  0.883700  0.340600  0.507600  1.0  -0.1337
  C  C159  1  0.893500  0.314700  0.606800  1.0  0.042
  C  C160  1  0.934200  0.254300  0.614100  1.0  -0.1739
  C  C161  1  0.963900  0.221600  0.524600  1.0  -0.1632
  C  C162  1  0.862400  0.349900  0.703600  1.0  -0.0663
  C  C163  1  0.102800  0.569300  0.311400  1.0  -0.0964
  C  C164  1  0.178700  0.568300  0.407300  1.0  0.0747
  C  C165  1  0.136700  0.565400  0.509500  1.0  -0.1491
  C  C166  1  0.207600  0.564600  0.595600  1.0  -0.1432
  C  C167  1  0.320700  0.567000  0.582500  1.0  0.0829
  C  C168  1  0.363900  0.569200  0.478900  1.0  -0.2167
  C  C169  1  0.292200  0.570000  0.393600  1.0  -0.1502
  C  C170  1  0.398800  0.567800  0.676000  1.0  -0.0894
  C  C171  1  0.606300  0.421000  0.205200  1.0  -0.0868
  C  C172  1  0.568100  0.487600  0.199600  1.0  0.7036
  C  C173  1  0.125700  0.161800  0.221500  1.0  -0.0475
  C  C174  1  0.243400  0.143900  0.222300  1.0  0.7046
  C  C175  1  0.978800  0.515900  0.189500  1.0  -0.1304
  C  C176  1  0.901700  0.461000  0.173500  1.0  0.7006
  C  C177  1  0.320100  0.165700  0.809000  1.0  -0.1487
  C  C178  1  0.198200  0.159500  0.830600  1.0  0.7035
  C  C179  1  0.904800  0.432100  0.830900  1.0  -0.1516
  C  C180  1  0.953800  0.497300  0.836500  1.0  0.6966
  C  C181  1  0.519500  0.513800  0.797400  1.0  -0.1584
  C  C182  1  0.591100  0.457300  0.820900  1.0  0.7192
  C  C183  1  0.646400  0.886200  0.651000  1.0  -0.0147
  C  C184  1  0.571300  0.870100  0.738600  1.0  -0.0423
  C  C185  1  0.789400  0.804400  0.645400  1.0  -0.0422
  C  C186  1  0.857200  0.773500  0.731500  1.0  -0.0544
  C  C187  1  0.842700  0.913400  0.653500  1.0  -0.003
  C  C188  1  0.852800  0.959300  0.743700  1.0  -0.0597
  C  C189  1  0.738700  0.805500  0.350300  1.0  -0.0042
  C  C190  1  0.674500  0.773300  0.261700  1.0  -0.0646
  C  C191  1  0.866200  0.893100  0.345000  1.0  -0.0097
  C  C192  1  0.940100  0.877200  0.253200  1.0  -0.0369
  C  C193  1  0.668300  0.912200  0.353500  1.0  -0.0071
  C  C194  1  0.647500  0.959000  0.265100  1.0  -0.0647
  C  C195  1  0.385700  0.828800  0.683300  1.0  -0.0638
  C  C196  1  0.428300  0.793500  0.589300  1.0  0.0718
  C  C197  1  0.490800  0.741000  0.601600  1.0  -0.1426
  C  C198  1  0.528500  0.708000  0.514300  1.0  -0.1853
  C  C199  1  0.501800  0.727500  0.413400  1.0  0.0527
  C  C200  1  0.435900  0.781200  0.399800  1.0  -0.1127
  C  C201  1  0.400500  0.813200  0.486900  1.0  -0.1414
  C  C202  1  0.538800  0.691600  0.317100  1.0  -0.0842
  C  C203  1  0.019100  0.711600  0.673400  1.0  -0.0666
  C  C204  1  0.047400  0.748100  0.574900  1.0  0.0761
  C  C205  1  0.088500  0.808000  0.583200  1.0  -0.1738
  C  C206  1  0.116300  0.840600  0.492400  1.0  -0.1354
  C  C207  1  0.106500  0.814700  0.393200  1.0  0.045
  C  C208  1  0.065800  0.754300  0.385900  1.0  -0.1757
  C  C209  1  0.036100  0.721600  0.475400  1.0  -0.1644
  C  C210  1  0.137600  0.849900  0.296400  1.0  -0.0657
  C  C211  1  0.897200  0.069300  0.688600  1.0  -0.0953
  C  C212  1  0.821300  0.068300  0.592700  1.0  0.0759
  C  C213  1  0.863300  0.065400  0.490500  1.0  -0.1537
  C  C214  1  0.792400  0.064600  0.404400  1.0  -0.142
  C  C215  1  0.679300  0.067000  0.417500  1.0  0.0813
  C  C216  1  0.636100  0.069200  0.521100  1.0  -0.217
  C  C217  1  0.707800  0.070000  0.606400  1.0  -0.1516
  C  C218  1  0.601200  0.067800  0.324000  1.0  -0.0889
  C  C219  1  0.393700  0.921000  0.794800  1.0  -0.0875
  C  C220  1  0.431900  0.987600  0.800400  1.0  0.7023
  C  C221  1  0.874300  0.661800  0.778500  1.0  -0.0478
  C  C222  1  0.756600  0.643900  0.777700  1.0  0.7042
  C  C223  1  0.021200  0.015900  0.810500  1.0  -0.1301
  C  C224  1  0.098300  0.961000  0.826500  1.0  0.7013
  C  C225  1  0.679900  0.665700  0.191000  1.0  -0.15
  C  C226  1  0.801800  0.659500  0.169400  1.0  0.7041
  C  C227  1  0.095200  0.932100  0.169100  1.0  -0.1497
  C  C228  1  0.046200  0.997300  0.163500  1.0  0.6956
  C  C229  1  0.480500  0.013800  0.202600  1.0  -0.1581
  C  C230  1  0.408900  0.957300  0.179100  1.0  0.7192
  N  N231  1  0.238600  0.367800  0.318900  1.0  -0.2331
  N  N232  1  0.548200  0.385700  0.291700  1.0  0.0727
  N  N233  1  0.101100  0.210400  0.303500  1.0  0.0977
  N  N234  1  0.056100  0.506900  0.281500  1.0  0.0429
  N  N235  1  0.244400  0.370500  0.678600  1.0  -0.2039
  N  N236  1  0.344200  0.206000  0.714400  1.0  0.0828
  N  N237  1  0.943600  0.400500  0.733800  1.0  0.1063
  N  N238  1  0.441800  0.504300  0.706500  1.0  0.0839
  N  N239  1  0.761400  0.867800  0.681100  1.0  -0.2381
  N  N240  1  0.451800  0.885700  0.708300  1.0  0.0731
  N  N241  1  0.898900  0.710400  0.696500  1.0  0.0984
  N  N242  1  0.943900  0.006900  0.718500  1.0  0.0443
  N  N243  1  0.755600  0.870500  0.321400  1.0  -0.2014
  N  N244  1  0.655800  0.706000  0.285600  1.0  0.0829
  N  N245  1  0.056400  0.900500  0.266200  1.0  0.1055
  N  N246  1  0.558200  0.004300  0.293500  1.0  0.0823
  O  O247  1  0.622700  0.520800  0.133500  1.0  -0.723
  O  O248  1  0.493000  0.505900  0.255100  1.0  -0.5796
  O  O249  1  0.309400  0.169800  0.282100  1.0  -0.5845
  O  O250  1  0.268000  0.102100  0.154800  1.0  -0.7099
  O  O251  1  0.911100  0.414400  0.230100  1.0  -0.5947
  O  O252  1  0.836200  0.467500  0.095600  1.0  -0.7285
  O  O253  1  0.130100  0.187000  0.776800  1.0  -0.5779
  O  O254  1  0.177700  0.122220  0.905400  1.0  -0.6861
  O  O255  1  0.025800  0.514500  0.778200  1.0  -0.5426
  O  O256  1  0.913700  0.530200  0.912900  1.0  -0.679
  O  O257  1  0.583300  0.410200  0.765500  1.0  -0.6127
  O  O258  1  0.657100  0.464400  0.899400  1.0  -0.7033
  O  O259  1  0.377300  0.020800  0.866500  1.0  -0.7217
  O  O260  1  0.507000  0.005900  0.744900  1.0  -0.581
  O  O261  1  0.690600  0.669800  0.717900  1.0  -0.5849
  O  O262  1  0.732000  0.602100  0.845200  1.0  -0.7107
  O  O263  1  0.088900  0.914400  0.769900  1.0  -0.5954
  O  O264  1  0.163800  0.967500  0.904400  1.0  -0.7286
  O  O265  1  0.869900  0.687000  0.223200  1.0  -0.5787
  O  O266  1  0.822300  0.622220  0.094600  1.0  -0.683
  O  O267  1  0.974200  0.014500  0.221800  1.0  -0.5422
  O  O268  1  0.086300  0.030200  0.087100  1.0  -0.6787
  O  O269  1  0.416700  0.910200  0.234500  1.0  -0.6131
  O  O270  1  0.342900  0.964400  0.100600  1.0  -0.7027
