# generated using pymatgen
data_BaH6PtC14(NO)4
_symmetry_space_group_name_H-M   'P 1'
_cell_length_a   7.30680000
_cell_length_b   15.22600000
_cell_length_c   17.63400000
_cell_angle_alpha   90.00000000
_cell_angle_beta   90.00000000
_cell_angle_gamma   94.44770000
_symmetry_Int_Tables_number   1
_chemical_formula_structural   BaH6PtC14(NO)4
_chemical_formula_sum   'Ba4 H24 Pt4 C56 N16 O16'
_cell_volume   1955.93332740
_cell_formula_units_Z   4
loop_
 _symmetry_equiv_pos_site_id
 _symmetry_equiv_pos_as_xyz
  1  'x, y, z'
loop_
 _atom_site_type_symbol
 _atom_site_label
 _atom_site_symmetry_multiplicity
 _atom_site_fract_x
 _atom_site_fract_y
 _atom_site_fract_z
 _atom_site_occupancy
 _atom_site_charge
  Ba  Ba1  1  0.754100  0.079110  0.044710  1.0  1.6249
  Ba  Ba2  1  0.745900  0.420890  0.544710  1.0  1.6249
  Ba  Ba3  1  0.245900  0.920890  0.955290  1.0  1.6248
  Ba  Ba4  1  0.254100  0.579110  0.455290  1.0  1.6249
  H  H5  1  0.858200  0.627300  0.866800  1.0  0.1055
  H  H6  1  0.840700  0.777700  0.874000  1.0  0.1331
  H  H7  1  0.626800  0.745300  0.085700  1.0  0.137
  H  H8  1  0.555000  0.651600  0.175500  1.0  0.1261
  H  H9  1  0.541000  0.395400  0.235800  1.0  0.1248
  H  H10  1  0.666300  0.363200  0.120100  1.0  0.0954
  H  H11  1  0.641800  0.872700  0.366800  1.0  0.1046
  H  H12  1  0.659300  0.722300  0.374000  1.0  0.1329
  H  H13  1  0.873200  0.754700  0.585700  1.0  0.1372
  H  H14  1  0.945000  0.848400  0.675500  1.0  0.1262
  H  H15  1  0.959000  0.104600  0.735800  1.0  0.1252
  H  H16  1  0.833700  0.136800  0.620100  1.0  0.0957
  H  H17  1  0.141800  0.372700  0.133200  1.0  0.1033
  H  H18  1  0.159300  0.222300  0.126000  1.0  0.1328
  H  H19  1  0.373200  0.254700  0.914300  1.0  0.1366
  H  H20  1  0.445000  0.348400  0.824500  1.0  0.1262
  H  H21  1  0.459000  0.604600  0.764200  1.0  0.1251
  H  H22  1  0.333700  0.636800  0.879900  1.0  0.0962
  H  H23  1  0.358200  0.127300  0.633200  1.0  0.1043
  H  H24  1  0.340700  0.277700  0.626000  1.0  0.133
  H  H25  1  0.126800  0.245300  0.414300  1.0  0.1365
  H  H26  1  0.055000  0.151600  0.324500  1.0  0.1261
  H  H27  1  0.041000  0.895400  0.264200  1.0  0.1246
  H  H28  1  0.166300  0.863200  0.379900  1.0  0.0964
  Pt  Pt29  1  0.788110  0.464910  0.973590  1.0  0.0087
  Pt  Pt30  1  0.711890  0.035090  0.473590  1.0  0.0083
  Pt  Pt31  1  0.211890  0.535090  0.026410  1.0  0.0081
  Pt  Pt32  1  0.288110  0.964910  0.526410  1.0  0.0084
  C  C33  1  0.814300  0.652100  0.912100  1.0  0.1197
  C  C34  1  0.802900  0.741500  0.915900  1.0  -0.1333
  C  C35  1  0.735900  0.778800  0.981200  1.0  -0.0389
  C  C36  1  0.678700  0.722600  0.041100  1.0  -0.0952
  C  C37  1  0.699400  0.633100  0.034000  1.0  0.1492
  C  C38  1  0.648300  0.569600  0.095300  1.0  0.0984
  C  C39  1  0.574300  0.591900  0.164600  1.0  -0.0889
  C  C40  1  0.528800  0.526600  0.217900  1.0  0.002
  C  C41  1  0.566900  0.441300  0.200000  1.0  -0.1222
  C  C42  1  0.641800  0.422300  0.130800  1.0  0.0994
  C  C43  1  0.730400  0.875700  0.991000  1.0  0.7259
  C  C44  1  0.440800  0.546500  0.293200  1.0  0.6709
  C  C45  1  0.884600  0.453800  0.871600  1.0  0.0933
  C  C46  1  0.793000  0.337600  0.985800  1.0  0.1783
  C  C47  1  0.685700  0.847900  0.412100  1.0  0.1195
  C  C48  1  0.697100  0.758500  0.415900  1.0  -0.1337
  C  C49  1  0.764100  0.721200  0.481200  1.0  -0.0406
  C  C50  1  0.821300  0.777400  0.541100  1.0  -0.0933
  C  C51  1  0.800600  0.866900  0.534000  1.0  0.1483
  C  C52  1  0.851700  0.930400  0.595300  1.0  0.0993
  C  C53  1  0.925700  0.908100  0.664600  1.0  -0.0878
  C  C54  1  0.971200  0.973400  0.717900  1.0  0.0012
  C  C55  1  0.933100  0.058700  0.700000  1.0  -0.1223
  C  C56  1  0.858200  0.077700  0.630800  1.0  0.0984
  C  C57  1  0.769600  0.624300  0.491000  1.0  0.7259
  C  C58  1  0.059200  0.953500  0.793200  1.0  0.6715
  C  C59  1  0.615400  0.046200  0.371600  1.0  0.0913
  C  C60  1  0.707000  0.162400  0.485800  1.0  0.1788
  C  C61  1  0.185700  0.347900  0.087900  1.0  0.1192
  C  C62  1  0.197100  0.258500  0.084100  1.0  -0.134
  C  C63  1  0.264100  0.221200  0.018800  1.0  -0.0402
  C  C64  1  0.321300  0.277400  0.958900  1.0  -0.0932
  C  C65  1  0.300600  0.366900  0.966000  1.0  0.1482
  C  C66  1  0.351700  0.430400  0.904700  1.0  0.0988
  C  C67  1  0.425700  0.408100  0.835400  1.0  -0.0877
  C  C68  1  0.471200  0.473400  0.782100  1.0  0.0004
  C  C69  1  0.433100  0.558700  0.800000  1.0  -0.1215
  C  C70  1  0.358200  0.577700  0.869200  1.0  0.0985
  C  C71  1  0.269600  0.124300  0.009000  1.0  0.7256
  C  C72  1  0.559200  0.453500  0.706800  1.0  0.6701
  C  C73  1  0.115400  0.546200  0.128400  1.0  0.0893
  C  C74  1  0.207000  0.662400  0.014200  1.0  0.1777
  C  C75  1  0.314300  0.152100  0.587900  1.0  0.1212
  C  C76  1  0.302900  0.241500  0.584100  1.0  -0.1338
  C  C77  1  0.235900  0.278800  0.518800  1.0  -0.0386
  C  C78  1  0.178700  0.222600  0.458900  1.0  -0.0943
  C  C79  1  0.199400  0.133100  0.466000  1.0  0.1491
  C  C80  1  0.148300  0.069600  0.404700  1.0  0.0981
  C  C81  1  0.074300  0.091900  0.335400  1.0  -0.0892
  C  C82  1  0.028800  0.026600  0.282100  1.0  0.0015
  C  C83  1  0.066900  0.941300  0.300000  1.0  -0.1231
  C  C84  1  0.141800  0.922300  0.369200  1.0  0.0986
  C  C85  1  0.230400  0.375700  0.509000  1.0  0.726
  C  C86  1  0.940800  0.046500  0.206800  1.0  0.6718
  C  C87  1  0.384600  0.953800  0.628400  1.0  0.0922
  C  C88  1  0.293000  0.837600  0.514200  1.0  0.1783
  N  N89  1  0.765700  0.598400  0.970200  1.0  -0.1164
  N  N90  1  0.681200  0.483700  0.078300  1.0  -0.1229
  N  N91  1  0.941400  0.449600  0.811000  1.0  -0.4346
  N  N92  1  0.790300  0.263600  0.998400  1.0  -0.5534
  N  N93  1  0.734300  0.901600  0.470200  1.0  -0.1148
  N  N94  1  0.818800  0.016300  0.578300  1.0  -0.1296
  N  N95  1  0.558600  0.050400  0.311000  1.0  -0.4343
  N  N96  1  0.709700  0.236400  0.498400  1.0  -0.5564
  N  N97  1  0.234300  0.401600  0.029800  1.0  -0.1147
  N  N98  1  0.318800  0.516300  0.921700  1.0  -0.1239
  N  N99  1  0.058600  0.550400  0.189000  1.0  -0.4331
  N  N100  1  0.209700  0.736400  0.001600  1.0  -0.5576
  N  N101  1  0.265700  0.098400  0.529800  1.0  -0.1162
  N  N102  1  0.181200  0.983700  0.421700  1.0  -0.1213
  N  N103  1  0.441400  0.949600  0.689000  1.0  -0.4335
  N  N104  1  0.290300  0.763600  0.501600  1.0  -0.5545
  O  O105  1  0.873000  0.923300  0.974100  1.0  -0.6973
  O  O106  1  0.586200  0.904900  0.017100  1.0  -0.741
  O  O107  1  0.414600  0.625100  0.308400  1.0  -0.6735
  O  O108  1  0.394700  0.482300  0.335700  1.0  -0.6716
  O  O109  1  0.627000  0.576700  0.474100  1.0  -0.6969
  O  O110  1  0.913800  0.595100  0.517100  1.0  -0.7402
  O  O111  1  0.085400  0.874900  0.808400  1.0  -0.6737
  O  O112  1  0.105300  0.017700  0.835700  1.0  -0.6691
  O  O113  1  0.127000  0.076700  0.025900  1.0  -0.6971
  O  O114  1  0.413800  0.095100  0.982900  1.0  -0.7402
  O  O115  1  0.585400  0.374900  0.691600  1.0  -0.6745
  O  O116  1  0.605300  0.517700  0.664300  1.0  -0.6669
  O  O117  1  0.373000  0.423300  0.525900  1.0  -0.6972
  O  O118  1  0.086200  0.404900  0.482900  1.0  -0.7406
  O  O119  1  0.914600  0.125100  0.191600  1.0  -0.6736
  O  O120  1  0.894700  0.982300  0.164300  1.0  -0.6711
