# generated using pymatgen
data_SrH6PtC14(NO)4
_symmetry_space_group_name_H-M   'P 1'
_cell_length_a   7.07200000
_cell_length_b   10.38500000
_cell_length_c   12.84200000
_cell_angle_alpha   100.69500000
_cell_angle_beta   91.18100000
_cell_angle_gamma   94.61400000
_symmetry_Int_Tables_number   1
_chemical_formula_structural   SrH6PtC14(NO)4
_chemical_formula_sum   'Sr2 H12 Pt2 C28 N8 O8'
_cell_volume   923.15617577
_cell_formula_units_Z   2
loop_
 _symmetry_equiv_pos_site_id
 _symmetry_equiv_pos_as_xyz
  1  'x, y, z'
loop_
 _atom_site_type_symbol
 _atom_site_label
 _atom_site_symmetry_multiplicity
 _atom_site_fract_x
 _atom_site_fract_y
 _atom_site_fract_z
 _atom_site_occupancy
 _atom_site_charge
  Sr  Sr1  1  0.241900  0.466900  0.395210  1.0  1.6266
  Sr  Sr2  1  0.758100  0.533100  0.604790  1.0  1.6279
  H  H3  1  0.819700  0.285800  0.026700  1.0  0.1016
  H  H4  1  0.804200  0.424400  0.188800  1.0  0.1274
  H  H5  1  0.651700  0.112700  0.321900  1.0  0.1119
  H  H6  1  0.561500  0.893200  0.281700  1.0  0.1132
  H  H7  1  0.589700  0.564800  0.066900  1.0  0.1063
  H  H8  1  0.697100  0.688500  0.945100  1.0  0.0934
  H  H9  1  0.180300  0.714200  0.973300  1.0  0.1014
  H  H10  1  0.195800  0.575600  0.811200  1.0  0.1277
  H  H11  1  0.348300  0.887300  0.678100  1.0  0.1175
  H  H12  1  0.438500  0.106800  0.718300  1.0  0.1143
  H  H13  1  0.410300  0.435200  0.933100  1.0  0.1053
  H  H14  1  0.302900  0.311500  0.054900  1.0  0.0929
  Pt  Pt15  1  0.783210  0.985190  0.939540  1.0  0.0126
  Pt  Pt16  1  0.216790  0.014810  0.060460  1.0  0.0108
  C  C17  1  0.786000  0.250000  0.087600  1.0  0.1033
  C  C18  1  0.778000  0.332700  0.184400  1.0  -0.1305
  C  C19  1  0.727000  0.279100  0.271900  1.0  -0.0122
  C  C20  1  0.685000  0.147200  0.260900  1.0  -0.1002
  C  C21  1  0.693000  0.062300  0.162200  1.0  0.1506
  C  C22  1  0.663000  0.922800  0.140200  1.0  0.1218
  C  C23  1  0.590000  0.850700  0.212600  1.0  -0.0797
  C  C24  1  0.556000  0.714500  0.184600  1.0  -0.0303
  C  C25  1  0.603000  0.656700  0.085100  1.0  -0.1301
  C  C26  1  0.671000  0.730600  0.014200  1.0  0.1205
  C  C27  1  0.733000  0.369200  0.382300  1.0  0.7599
  C  C28  1  0.459000  0.633000  0.263100  1.0  0.6472
  C  C29  1  0.858000  0.114600  0.850400  1.0  0.1024
  C  C30  1  0.795000  0.843600  0.815500  1.0  0.1642
  C  C31  1  0.214000  0.750000  0.912400  1.0  0.1032
  C  C32  1  0.222000  0.667300  0.815600  1.0  -0.1303
  C  C33  1  0.273000  0.720900  0.728100  1.0  -0.0131
  C  C34  1  0.315000  0.852800  0.739100  1.0  -0.0997
  C  C35  1  0.307000  0.937700  0.837800  1.0  0.1499
  C  C36  1  0.337000  0.077200  0.859800  1.0  0.1211
  C  C37  1  0.410000  0.149300  0.787400  1.0  -0.079
  C  C38  1  0.444000  0.285500  0.815400  1.0  -0.031
  C  C39  1  0.397000  0.343300  0.914900  1.0  -0.1299
  C  C40  1  0.329000  0.269400  0.985800  1.0  0.1201
  C  C41  1  0.267000  0.630800  0.617700  1.0  0.7622
  C  C42  1  0.541000  0.367000  0.736900  1.0  0.6495
  C  C43  1  0.142000  0.885400  0.149600  1.0  0.0974
  C  C44  1  0.205000  0.156400  0.184500  1.0  0.1558
  N  N45  1  0.748000  0.112300  0.074900  1.0  -0.155
  N  N46  1  0.696600  0.861600  0.039000  1.0  -0.117
  N  N47  1  0.906000  0.186300  0.800100  1.0  -0.4309
  N  N48  1  0.800000  0.760400  0.744100  1.0  -0.5472
  N  N49  1  0.252000  0.887700  0.925100  1.0  -0.1551
  N  N50  1  0.303400  0.138400  0.961000  1.0  -0.1147
  N  N51  1  0.094000  0.813700  0.199900  1.0  -0.4217
  N  N52  1  0.200000  0.239600  0.255900  1.0  -0.5476
  O  O53  1  0.582900  0.407400  0.414400  1.0  -0.7192
  O  O54  1  0.889800  0.390700  0.426900  1.0  -0.7413
  O  O55  1  0.449600  0.685600  0.356600  1.0  -0.6125
  O  O56  1  0.392600  0.519800  0.218900  1.0  -0.6624
  O  O57  1  0.417100  0.592600  0.585600  1.0  -0.7203
  O  O58  1  0.110200  0.609300  0.573100  1.0  -0.7442
  O  O59  1  0.550400  0.314400  0.643400  1.0  -0.6036
  O  O60  1  0.607400  0.480200  0.781100  1.0  -0.6615
