# generated using pymatgen
data_Zn3P4(HO3)4
_symmetry_space_group_name_H-M   'P 1'
_cell_length_a   15.11540000
_cell_length_b   8.72690000
_cell_length_c   16.16750000
_cell_angle_alpha   90.00000000
_cell_angle_beta   108.15600000
_cell_angle_gamma   90.00000000
_symmetry_Int_Tables_number   1
_chemical_formula_structural   Zn3P4(HO3)4
_chemical_formula_sum   'Zn12 P16 H16 O48'
_cell_volume   2026.48248265
_cell_formula_units_Z   4
loop_
 _symmetry_equiv_pos_site_id
 _symmetry_equiv_pos_as_xyz
  1  'x, y, z'
loop_
 _atom_site_type_symbol
 _atom_site_label
 _atom_site_symmetry_multiplicity
 _atom_site_fract_x
 _atom_site_fract_y
 _atom_site_fract_z
 _atom_site_occupancy
 _atom_site_charge
  Zn  Zn1  1  0.365700  0.370730  0.484840  1.0  1.1411
  Zn  Zn2  1  0.865700  0.870730  0.484840  1.0  1.1411
  Zn  Zn3  1  0.634300  0.370730  0.015160  1.0  1.1412
  Zn  Zn4  1  0.134300  0.870730  0.015160  1.0  1.1412
  Zn  Zn5  1  0.634300  0.629270  0.515160  1.0  1.1411
  Zn  Zn6  1  0.134300  0.129270  0.515160  1.0  1.1411
  Zn  Zn7  1  0.365700  0.629270  0.984840  1.0  1.141
  Zn  Zn8  1  0.865700  0.129270  0.984840  1.0  1.141
  Zn  Zn9  1  0.000000  0.165650  0.250000  1.0  1.1436
  Zn  Zn10  1  0.500000  0.665650  0.250000  1.0  1.1436
  Zn  Zn11  1  0.000000  0.834350  0.750000  1.0  1.1435
  Zn  Zn12  1  0.500000  0.334350  0.750000  1.0  1.1435
  P  P13  1  0.154440  0.388500  0.378170  1.0  1.4296
  P  P14  1  0.984030  0.908300  0.117470  1.0  1.5481
  P  P15  1  0.654440  0.888500  0.378170  1.0  1.4296
  P  P16  1  0.484030  0.408300  0.117470  1.0  1.5481
  P  P17  1  0.845560  0.388500  0.121830  1.0  1.4293
  P  P18  1  0.015970  0.908300  0.382530  1.0  1.5485
  P  P19  1  0.345560  0.888500  0.121830  1.0  1.4293
  P  P20  1  0.515970  0.408300  0.382530  1.0  1.5485
  P  P21  1  0.845560  0.611500  0.621830  1.0  1.4331
  P  P22  1  0.015970  0.091700  0.882530  1.0  1.5456
  P  P23  1  0.345560  0.111500  0.621830  1.0  1.4331
  P  P24  1  0.515970  0.591700  0.882530  1.0  1.5456
  P  P25  1  0.154440  0.611500  0.878170  1.0  1.434
  P  P26  1  0.984030  0.091700  0.617470  1.0  1.5427
  P  P27  1  0.654440  0.111500  0.878170  1.0  1.434
  P  P28  1  0.484030  0.591700  0.617470  1.0  1.5427
  H  H29  1  0.114700  0.524800  0.366200  1.0  -0.0545
  H  H30  1  0.974700  0.803000  0.172800  1.0  -0.069
  H  H31  1  0.614700  0.024800  0.366200  1.0  -0.0545
  H  H32  1  0.474700  0.303000  0.172800  1.0  -0.069
  H  H33  1  0.885300  0.524800  0.133800  1.0  -0.0541
  H  H34  1  0.025300  0.803000  0.327200  1.0  -0.0667
  H  H35  1  0.385300  0.024800  0.133800  1.0  -0.0541
  H  H36  1  0.525300  0.303000  0.327200  1.0  -0.0667
  H  H37  1  0.885300  0.475200  0.633800  1.0  -0.0541
  H  H38  1  0.025300  0.197000  0.827200  1.0  -0.0656
  H  H39  1  0.385300  0.975200  0.633800  1.0  -0.0541
  H  H40  1  0.525300  0.697000  0.827200  1.0  -0.0656
  H  H41  1  0.114700  0.475200  0.866200  1.0  -0.0555
  H  H42  1  0.974700  0.197000  0.672800  1.0  -0.0675
  H  H43  1  0.614700  0.975200  0.866200  1.0  -0.0555
  H  H44  1  0.474700  0.697000  0.672800  1.0  -0.0675
  O  O45  1  0.255700  0.415200  0.385800  1.0  -0.7363
  O  O46  1  0.139300  0.324600  0.459200  1.0  -0.8015
  O  O47  1  0.108100  0.297500  0.294800  1.0  -0.754
  O  O48  1  0.042800  0.036200  0.172800  1.0  -0.7548
  O  O49  1  0.032100  0.831000  0.060400  1.0  -0.783
  O  O50  1  0.886100  0.962100  0.068400  1.0  -0.74
  O  O51  1  0.755700  0.915200  0.385800  1.0  -0.7363
  O  O52  1  0.639300  0.824600  0.459200  1.0  -0.8015
  O  O53  1  0.608100  0.797500  0.294800  1.0  -0.754
  O  O54  1  0.542800  0.536200  0.172800  1.0  -0.7548
  O  O55  1  0.532100  0.331000  0.060400  1.0  -0.783
  O  O56  1  0.386100  0.462100  0.068400  1.0  -0.74
  O  O57  1  0.744300  0.415200  0.114200  1.0  -0.7355
  O  O58  1  0.860700  0.324600  0.040800  1.0  -0.7998
  O  O59  1  0.891900  0.297500  0.205200  1.0  -0.756
  O  O60  1  0.957200  0.036200  0.327200  1.0  -0.7538
  O  O61  1  0.967900  0.831000  0.439600  1.0  -0.7825
  O  O62  1  0.113900  0.962100  0.431600  1.0  -0.7404
  O  O63  1  0.244300  0.915200  0.114200  1.0  -0.7355
  O  O64  1  0.360700  0.824600  0.040800  1.0  -0.7998
  O  O65  1  0.391900  0.797500  0.205200  1.0  -0.756
  O  O66  1  0.457200  0.536200  0.327200  1.0  -0.7538
  O  O67  1  0.467900  0.331000  0.439600  1.0  -0.7825
  O  O68  1  0.613900  0.462100  0.431600  1.0  -0.7404
  O  O69  1  0.744300  0.584800  0.614200  1.0  -0.736
  O  O70  1  0.860700  0.675400  0.540800  1.0  -0.7996
  O  O71  1  0.891900  0.702500  0.705200  1.0  -0.7554
  O  O72  1  0.957200  0.963800  0.827200  1.0  -0.7537
  O  O73  1  0.967900  0.169000  0.939600  1.0  -0.7827
  O  O74  1  0.113900  0.037900  0.931600  1.0  -0.7404
  O  O75  1  0.244300  0.084800  0.614200  1.0  -0.736
  O  O76  1  0.360700  0.175400  0.540800  1.0  -0.7996
  O  O77  1  0.391900  0.202500  0.705200  1.0  -0.7554
  O  O78  1  0.457200  0.463800  0.827200  1.0  -0.7537
  O  O79  1  0.467900  0.669000  0.939600  1.0  -0.7827
  O  O80  1  0.613900  0.537900  0.931600  1.0  -0.7404
  O  O81  1  0.255700  0.584800  0.885800  1.0  -0.7369
  O  O82  1  0.139300  0.675400  0.959200  1.0  -0.8012
  O  O83  1  0.108100  0.702500  0.794800  1.0  -0.754
  O  O84  1  0.042800  0.963800  0.672800  1.0  -0.7551
  O  O85  1  0.032100  0.169000  0.560400  1.0  -0.7828
  O  O86  1  0.886100  0.037900  0.568400  1.0  -0.7399
  O  O87  1  0.755700  0.084800  0.885800  1.0  -0.7369
  O  O88  1  0.639300  0.175400  0.959200  1.0  -0.8012
  O  O89  1  0.608100  0.202500  0.794800  1.0  -0.754
  O  O90  1  0.542800  0.463800  0.672800  1.0  -0.7551
  O  O91  1  0.532100  0.669000  0.560400  1.0  -0.7828
  O  O92  1  0.386100  0.537900  0.568400  1.0  -0.7399
