# generated using pymatgen
data_CdH10C10(NO2)2
_symmetry_space_group_name_H-M   'P 1'
_cell_length_a   8.39500000
_cell_length_b   9.56200000
_cell_length_c   16.47500000
_cell_angle_alpha   90.00000000
_cell_angle_beta   90.00000000
_cell_angle_gamma   90.00000000
_symmetry_Int_Tables_number   1
_chemical_formula_structural   CdH10C10(NO2)2
_chemical_formula_sum   'Cd4 H40 C40 N8 O16'
_cell_volume   1322.49751025
_cell_formula_units_Z   4
loop_
 _symmetry_equiv_pos_site_id
 _symmetry_equiv_pos_as_xyz
  1  'x, y, z'
loop_
 _atom_site_type_symbol
 _atom_site_label
 _atom_site_symmetry_multiplicity
 _atom_site_fract_x
 _atom_site_fract_y
 _atom_site_fract_z
 _atom_site_occupancy
 _atom_site_charge
  Cd  Cd1  1  0.614510  0.104520  0.938590  1.0  0.9832
  Cd  Cd2  1  0.385490  0.895480  0.438590  1.0  0.9831
  Cd  Cd3  1  0.114510  0.395480  0.938590  1.0  0.9833
  Cd  Cd4  1  0.885490  0.604520  0.438590  1.0  0.9831
  H  H5  1  0.648000  0.270600  0.532000  1.0  0.0884
  H  H6  1  0.579900  0.376300  0.465200  1.0  0.1229
  H  H7  1  0.522400  0.489800  0.593900  1.0  0.1002
  H  H8  1  0.646500  0.609300  0.618900  1.0  0.1231
  H  H9  1  0.931800  0.361800  0.583300  1.0  0.1005
  H  H10  1  0.903900  0.507800  0.628000  1.0  0.1087
  H  H11  1  0.621000  0.402800  0.856900  1.0  0.0794
  H  H12  1  0.729900  0.521000  0.747000  1.0  0.1367
  H  H13  1  0.790400  0.147600  0.635800  1.0  0.1305
  H  H14  1  0.688500  0.040000  0.750900  1.0  0.0902
  H  H15  1  0.352000  0.729400  0.032000  1.0  0.088
  H  H16  1  0.420100  0.623700  0.965200  1.0  0.1239
  H  H17  1  0.477600  0.510200  0.093900  1.0  0.0994
  H  H18  1  0.353500  0.390700  0.118900  1.0  0.1247
  H  H19  1  0.068200  0.638200  0.083300  1.0  0.102
  H  H20  1  0.096100  0.492200  0.128000  1.0  0.1102
  H  H21  1  0.379000  0.597200  0.356900  1.0  0.0795
  H  H22  1  0.270100  0.479000  0.247000  1.0  0.137
  H  H23  1  0.209600  0.852400  0.135800  1.0  0.1313
  H  H24  1  0.311500  0.960000  0.250900  1.0  0.0897
  H  H25  1  0.148000  0.229400  0.532000  1.0  0.0882
  H  H26  1  0.079900  0.123700  0.465200  1.0  0.1225
  H  H27  1  0.022400  0.010200  0.593900  1.0  0.1004
  H  H28  1  0.146500  0.890700  0.618900  1.0  0.1245
  H  H29  1  0.431800  0.138200  0.583300  1.0  0.1004
  H  H30  1  0.403900  0.992200  0.628000  1.0  0.1096
  H  H31  1  0.121000  0.097200  0.856900  1.0  0.0797
  H  H32  1  0.229900  0.979000  0.747000  1.0  0.1368
  H  H33  1  0.290400  0.352400  0.635800  1.0  0.1313
  H  H34  1  0.188500  0.460000  0.750900  1.0  0.0897
  H  H35  1  0.852000  0.770600  0.032000  1.0  0.0881
  H  H36  1  0.920100  0.876300  0.965200  1.0  0.124
  H  H37  1  0.977600  0.989800  0.093900  1.0  0.0994
  H  H38  1  0.853500  0.109300  0.118900  1.0  0.1233
  H  H39  1  0.568200  0.861800  0.083300  1.0  0.1011
  H  H40  1  0.596100  0.007800  0.128000  1.0  0.1098
  H  H41  1  0.879000  0.902800  0.356900  1.0  0.0791
  H  H42  1  0.770100  0.021000  0.247000  1.0  0.1368
  H  H43  1  0.709600  0.647600  0.135800  1.0  0.1304
  H  H44  1  0.811500  0.540000  0.250900  1.0  0.0901
  C  C45  1  0.677600  0.347000  0.494300  1.0  -0.2404
  C  C46  1  0.797600  0.291660  0.433000  1.0  0.7053
  C  C47  1  0.607400  0.552000  0.573030  1.0  -0.2241
  C  C48  1  0.537600  0.648100  0.508480  1.0  0.7036
  C  C49  1  0.849300  0.423200  0.607320  1.0  -0.1102
  C  C50  1  0.658300  0.350300  0.811800  1.0  0.1808
  C  C51  1  0.722300  0.421900  0.746140  1.0  -0.2093
  C  C52  1  0.774900  0.347000  0.679180  1.0  0.1333
  C  C53  1  0.758900  0.202600  0.681110  1.0  -0.2277
  C  C54  1  0.696300  0.139100  0.749940  1.0  0.173
  C  C55  1  0.322400  0.653000  0.994300  1.0  -0.2407
  C  C56  1  0.202400  0.708340  0.933000  1.0  0.704
  C  C57  1  0.392600  0.448000  0.073030  1.0  -0.2239
  C  C58  1  0.462400  0.351900  0.008480  1.0  0.704
  C  C59  1  0.150700  0.576800  0.107320  1.0  -0.1092
  C  C60  1  0.341700  0.649700  0.311800  1.0  0.1809
  C  C61  1  0.277700  0.578100  0.246140  1.0  -0.2091
  C  C62  1  0.225100  0.653000  0.179180  1.0  0.1335
  C  C63  1  0.241100  0.797400  0.181110  1.0  -0.2277
  C  C64  1  0.303700  0.860900  0.249940  1.0  0.1736
  C  C65  1  0.177600  0.153000  0.494300  1.0  -0.2411
  C  C66  1  0.297600  0.208340  0.433000  1.0  0.7036
  C  C67  1  0.107400  0.948000  0.573030  1.0  -0.2238
  C  C68  1  0.037600  0.851900  0.508480  1.0  0.7041
  C  C69  1  0.349300  0.076800  0.607320  1.0  -0.1103
  C  C70  1  0.158300  0.149700  0.811800  1.0  0.1807
  C  C71  1  0.222300  0.078100  0.746140  1.0  -0.2092
  C  C72  1  0.274900  0.153000  0.679180  1.0  0.133
  C  C73  1  0.258900  0.297400  0.681110  1.0  -0.2267
  C  C74  1  0.196300  0.360900  0.749940  1.0  0.1737
  C  C75  1  0.822400  0.847000  0.994300  1.0  -0.2401
  C  C76  1  0.702400  0.791660  0.933000  1.0  0.7055
  C  C77  1  0.892600  0.052000  0.073030  1.0  -0.2234
  C  C78  1  0.962400  0.148100  0.008480  1.0  0.7032
  C  C79  1  0.650700  0.923200  0.107320  1.0  -0.1094
  C  C80  1  0.841700  0.850300  0.311800  1.0  0.181
  C  C81  1  0.777700  0.921900  0.246140  1.0  -0.2092
  C  C82  1  0.725100  0.847000  0.179180  1.0  0.1337
  C  C83  1  0.741100  0.702600  0.181110  1.0  -0.2278
  C  C84  1  0.803700  0.639100  0.249940  1.0  0.1729
  N  N85  1  0.738600  0.466330  0.541820  1.0  -0.1439
  N  N86  1  0.646800  0.210500  0.814620  1.0  -0.3576
  N  N87  1  0.261400  0.533670  0.041820  1.0  -0.1442
  N  N88  1  0.353200  0.789500  0.314620  1.0  -0.3585
  N  N89  1  0.238600  0.033670  0.541820  1.0  -0.1444
  N  N90  1  0.146800  0.289500  0.814620  1.0  -0.3586
  N  N91  1  0.761400  0.966330  0.041820  1.0  -0.1439
  N  N92  1  0.853200  0.710500  0.314620  1.0  -0.3574
  O  O93  1  0.885000  0.379620  0.396410  1.0  -0.6338
  O  O94  1  0.800000  0.163970  0.418760  1.0  -0.5973
  O  O95  1  0.611820  0.670690  0.445020  1.0  -0.6065
  O  O96  1  0.405060  0.705240  0.524800  1.0  -0.6105
  O  O97  1  0.115000  0.620380  0.896410  1.0  -0.6343
  O  O98  1  0.200000  0.836030  0.918760  1.0  -0.5969
  O  O99  1  0.388180  0.329310  0.945020  1.0  -0.6077
  O  O100  1  0.594940  0.294760  0.024800  1.0  -0.6127
  O  O101  1  0.385000  0.120380  0.396410  1.0  -0.6345
  O  O102  1  0.300000  0.336030  0.418760  1.0  -0.5955
  O  O103  1  0.111820  0.829310  0.445020  1.0  -0.6079
  O  O104  1  0.905060  0.794760  0.524800  1.0  -0.6107
  O  O105  1  0.615000  0.879620  0.896410  1.0  -0.6335
  O  O106  1  0.700000  0.663970  0.918760  1.0  -0.5967
  O  O107  1  0.888180  0.170690  0.945020  1.0  -0.6064
  O  O108  1  0.094940  0.205240  0.024800  1.0  -0.6111
