# generated using pymatgen
data_CdH10C10(NO2)2
_symmetry_space_group_name_H-M   'P 1'
_cell_length_a   13.41500000
_cell_length_b   13.41500000
_cell_length_c   19.34490000
_cell_angle_alpha   110.28800000
_cell_angle_beta   110.28800000
_cell_angle_gamma   90.00000000
_symmetry_Int_Tables_number   1
_chemical_formula_structural   CdH10C10(NO2)2
_chemical_formula_sum   'Cd8 H80 C80 N16 O32'
_cell_volume   3034.06069911
_cell_formula_units_Z   8
loop_
 _symmetry_equiv_pos_site_id
 _symmetry_equiv_pos_as_xyz
  1  'x, y, z'
loop_
 _atom_site_type_symbol
 _atom_site_label
 _atom_site_symmetry_multiplicity
 _atom_site_fract_x
 _atom_site_fract_y
 _atom_site_fract_z
 _atom_site_occupancy
 _atom_site_charge
  Cd  Cd1  1  0.268080  0.444610  0.489640  1.0  0.9584
  Cd  Cd2  1  0.221560  0.045030  0.489640  1.0  0.9616
  Cd  Cd3  1  0.555390  0.778440  0.510360  1.0  0.9603
  Cd  Cd4  1  0.954970  0.731920  0.510360  1.0  0.9597
  Cd  Cd5  1  0.028440  0.305390  0.010360  1.0  0.9565
  Cd  Cd6  1  0.981920  0.704970  0.010360  1.0  0.96
  Cd  Cd7  1  0.295030  0.971560  0.989640  1.0  0.9619
  Cd  Cd8  1  0.694610  0.018080  0.989640  1.0  0.9598
  H  H9  1  0.098000  0.707700  0.398800  1.0  0.1248
  H  H10  1  0.042700  0.599300  0.323800  1.0  0.1047
  H  H11  1  0.822700  0.577100  0.274200  1.0  0.1076
  H  H12  1  0.892900  0.516200  0.328400  1.0  0.1149
  H  H13  1  0.854000  0.788100  0.344600  1.0  0.1216
  H  H14  1  0.980400  0.824900  0.388400  1.0  0.0902
  H  H15  1  0.799000  0.682200  0.081200  1.0  0.0905
  H  H16  1  0.778100  0.704900  0.198400  1.0  0.142
  H  H17  1  0.094100  0.781500  0.310000  1.0  0.1131
  H  H18  1  0.109700  0.742600  0.187000  1.0  0.0808
  H  H19  1  0.300800  0.691100  0.398800  1.0  0.1228
  H  H20  1  0.281100  0.724500  0.323800  1.0  0.1067
  H  H21  1  0.451500  0.697100  0.274200  1.0  0.1094
  H  H22  1  0.435500  0.812200  0.328400  1.0  0.1165
  H  H23  1  0.490600  0.556500  0.344600  1.0  0.1209
  H  H24  1  0.408000  0.563500  0.388400  1.0  0.0912
  H  H25  1  0.282200  0.399000  0.081200  1.0  0.0933
  H  H26  1  0.420300  0.493500  0.198400  1.0  0.1482
  H  H27  1  0.215900  0.528500  0.310000  1.0  0.1148
  H  H28  1  0.077300  0.444400  0.187000  1.0  0.0791
  H  H29  1  0.292300  0.699200  0.601200  1.0  0.1245
  H  H30  1  0.400700  0.718900  0.676200  1.0  0.1045
  H  H31  1  0.422900  0.548500  0.725800  1.0  0.108
  H  H32  1  0.483800  0.564500  0.671600  1.0  0.1202
  H  H33  1  0.211900  0.509400  0.655400  1.0  0.1217
  H  H34  1  0.175100  0.592000  0.611600  1.0  0.0896
  H  H35  1  0.317800  0.717800  0.918800  1.0  0.0906
  H  H36  1  0.295100  0.579700  0.801600  1.0  0.1446
  H  H37  1  0.218500  0.784100  0.690000  1.0  0.1141
  H  H38  1  0.257400  0.922700  0.813000  1.0  0.0794
  H  H39  1  0.308900  0.902000  0.601200  1.0  0.1238
  H  H40  1  0.275500  0.957300  0.676200  1.0  0.1081
  H  H41  1  0.302900  0.177300  0.725800  1.0  0.1078
  H  H42  1  0.187800  0.107100  0.671600  1.0  0.1143
  H  H43  1  0.443500  0.146000  0.655400  1.0  0.1208
  H  H44  1  0.436500  0.019600  0.611600  1.0  0.0937
  H  H45  1  0.601000  0.201000  0.918800  1.0  0.0929
  H  H46  1  0.506500  0.221900  0.801600  1.0  0.1448
  H  H47  1  0.471500  0.905900  0.690000  1.0  0.1139
  H  H48  1  0.555600  0.890300  0.813000  1.0  0.0808
  H  H49  1  0.949200  0.042300  0.101200  1.0  0.1249
  H  H50  1  0.968900  0.150700  0.176200  1.0  0.1048
  H  H51  1  0.798500  0.172900  0.225800  1.0  0.1083
  H  H52  1  0.814500  0.233800  0.171600  1.0  0.1169
  H  H53  1  0.759400  0.961900  0.155400  1.0  0.1217
  H  H54  1  0.842000  0.925100  0.111600  1.0  0.0923
  H  H55  1  0.967800  0.067800  0.418800  1.0  0.0916
  H  H56  1  0.829700  0.045100  0.301600  1.0  0.1441
  H  H57  1  0.034100  0.968500  0.190000  1.0  0.1139
  H  H58  1  0.172700  0.007400  0.313000  1.0  0.08
  H  H59  1  0.152000  0.058900  0.101200  1.0  0.1261
  H  H60  1  0.207300  0.025500  0.176200  1.0  0.1077
  H  H61  1  0.427300  0.052900  0.225800  1.0  0.1067
  H  H62  1  0.357100  0.937800  0.171600  1.0  0.1152
  H  H63  1  0.396000  0.193500  0.155400  1.0  0.1219
  H  H64  1  0.269600  0.186500  0.111600  1.0  0.0947
  H  H65  1  0.451000  0.351000  0.418800  1.0  0.0914
  H  H66  1  0.471900  0.256500  0.301600  1.0  0.1458
  H  H67  1  0.155900  0.221500  0.190000  1.0  0.1135
  H  H68  1  0.140300  0.305600  0.313000  1.0  0.0807
  H  H69  1  0.941100  0.050800  0.898800  1.0  0.1224
  H  H70  1  0.974500  0.031100  0.823800  1.0  0.1059
  H  H71  1  0.947100  0.201500  0.774200  1.0  0.1088
  H  H72  1  0.062200  0.185500  0.828400  1.0  0.1183
  H  H73  1  0.806500  0.240600  0.844600  1.0  0.1217
  H  H74  1  0.813500  0.158000  0.888400  1.0  0.0907
  H  H75  1  0.649000  0.032200  0.581200  1.0  0.0925
  H  H76  1  0.743500  0.170300  0.698400  1.0  0.1454
  H  H77  1  0.778500  0.965900  0.810000  1.0  0.1137
  H  H78  1  0.694400  0.827300  0.687000  1.0  0.0808
  H  H79  1  0.957700  0.848000  0.898800  1.0  0.1242
  H  H80  1  0.849300  0.792700  0.823800  1.0  0.1054
  H  H81  1  0.827100  0.572700  0.774200  1.0  0.1092
  H  H82  1  0.766200  0.642900  0.828400  1.0  0.1171
  H  H83  1  0.038100  0.604000  0.844600  1.0  0.121
  H  H84  1  0.074900  0.730400  0.888400  1.0  0.0918
  H  H85  1  0.932200  0.549000  0.581200  1.0  0.0885
  H  H86  1  0.954900  0.528100  0.698400  1.0  0.1423
  H  H87  1  0.031500  0.844100  0.810000  1.0  0.1134
  H  H88  1  0.992600  0.859700  0.687000  1.0  0.0804
  C  C89  1  0.046200  0.642100  0.378000  1.0  -0.2791
  C  C90  1  0.085430  0.578030  0.429860  1.0  0.7111
  C  C91  1  0.857100  0.580900  0.329400  1.0  -0.2164
  C  C92  1  0.767330  0.582330  0.366460  1.0  0.6798
  C  C93  1  0.924850  0.764550  0.347700  1.0  -0.1073
  C  C94  1  0.861390  0.698990  0.127980  1.0  0.172
  C  C95  1  0.848350  0.714050  0.198300  1.0  -0.2052
  C  C96  1  0.935200  0.742100  0.268000  1.0  0.1492
  C  C97  1  0.031550  0.756750  0.263100  1.0  -0.2206
  C  C98  1  0.040340  0.735640  0.188880  1.0  0.1533
  C  C99  1  0.331800  0.735900  0.378000  1.0  -0.2727
  C  C100  1  0.344430  0.851830  0.429860  1.0  0.7133
  C  C101  1  0.472300  0.748500  0.329400  1.0  -0.212
  C  C102  1  0.599130  0.784130  0.366460  1.0  0.6707
  C  C103  1  0.422850  0.583150  0.347700  1.0  -0.1069
  C  C104  1  0.266590  0.428990  0.127980  1.0  0.1751
  C  C105  1  0.349950  0.484250  0.198300  1.0  -0.2108
  C  C106  1  0.332800  0.525900  0.268000  1.0  0.1495
  C  C107  1  0.231550  0.506350  0.263100  1.0  -0.2251
  C  C108  1  0.148540  0.453240  0.188880  1.0  0.1541
  C  C109  1  0.357900  0.668200  0.622000  1.0  -0.2804
  C  C110  1  0.421970  0.655570  0.570140  1.0  0.7116
  C  C111  1  0.419100  0.527700  0.670600  1.0  -0.2116
  C  C112  1  0.417670  0.400870  0.633540  1.0  0.6716
  C  C113  1  0.235450  0.577150  0.652300  1.0  -0.1054
  C  C114  1  0.301010  0.733410  0.872020  1.0  0.1741
  C  C115  1  0.285950  0.650050  0.801700  1.0  -0.2073
  C  C116  1  0.257900  0.667200  0.732000  1.0  0.15
  C  C117  1  0.243250  0.768450  0.736900  1.0  -0.2233
  C  C118  1  0.264360  0.851460  0.811120  1.0  0.152
  C  C119  1  0.264100  0.953800  0.622000  1.0  -0.2739
  C  C120  1  0.148170  0.914570  0.570140  1.0  0.7093
  C  C121  1  0.251500  0.142900  0.670600  1.0  -0.222
  C  C122  1  0.215870  0.232670  0.633540  1.0  0.6741
  C  C123  1  0.416850  0.075150  0.652300  1.0  -0.1076
  C  C124  1  0.571010  0.138610  0.872020  1.0  0.1706
  C  C125  1  0.515750  0.151650  0.801700  1.0  -0.2135
  C  C126  1  0.474100  0.064800  0.732000  1.0  0.1508
  C  C127  1  0.493650  0.968450  0.736900  1.0  -0.2202
  C  C128  1  0.546760  0.959660  0.811120  1.0  0.1583
  C  C129  1  0.918200  0.107900  0.122000  1.0  -0.2826
  C  C130  1  0.905570  0.171970  0.070140  1.0  0.713
  C  C131  1  0.777700  0.169100  0.170600  1.0  -0.2141
  C  C132  1  0.650870  0.167670  0.133540  1.0  0.6716
  C  C133  1  0.827150  0.985450  0.152300  1.0  -0.1079
  C  C134  1  0.983410  0.051010  0.372020  1.0  0.1713
  C  C135  1  0.900050  0.035950  0.301700  1.0  -0.2101
  C  C136  1  0.917200  0.007900  0.232000  1.0  0.1492
  C  C137  1  0.018450  0.993250  0.236900  1.0  -0.2234
  C  C138  1  0.101460  0.014360  0.311120  1.0  0.1536
  C  C139  1  0.203800  0.014100  0.122000  1.0  -0.2728
  C  C140  1  0.164570  0.898170  0.070140  1.0  0.7138
  C  C141  1  0.392900  0.001500  0.170600  1.0  -0.2209
  C  C142  1  0.482670  0.965870  0.133540  1.0  0.6726
  C  C143  1  0.325150  0.166850  0.152300  1.0  -0.1102
  C  C144  1  0.388610  0.321010  0.372020  1.0  0.1734
  C  C145  1  0.401650  0.265750  0.301700  1.0  -0.2076
  C  C146  1  0.314800  0.224100  0.232000  1.0  0.1512
  C  C147  1  0.218450  0.243650  0.236900  1.0  -0.2221
  C  C148  1  0.209660  0.296760  0.311120  1.0  0.1573
  C  C149  1  0.985900  0.081800  0.878000  1.0  -0.275
  C  C150  1  0.101830  0.094430  0.929860  1.0  0.7083
  C  C151  1  0.998500  0.222300  0.829400  1.0  -0.2127
  C  C152  1  0.034130  0.349130  0.866460  1.0  0.6743
  C  C153  1  0.833150  0.172850  0.847700  1.0  -0.1056
  C  C154  1  0.678990  0.016590  0.627980  1.0  0.1751
  C  C155  1  0.734250  0.099950  0.698300  1.0  -0.2081
  C  C156  1  0.775900  0.082800  0.768000  1.0  0.1492
  C  C157  1  0.756350  0.981550  0.763100  1.0  -0.2214
  C  C158  1  0.703240  0.898540  0.688880  1.0  0.1521
  C  C159  1  0.892100  0.796200  0.878000  1.0  -0.2798
  C  C160  1  0.828030  0.835430  0.929860  1.0  0.7103
  C  C161  1  0.830900  0.607100  0.829400  1.0  -0.2169
  C  C162  1  0.832330  0.517330  0.866460  1.0  0.6815
  C  C163  1  0.014550  0.674850  0.847700  1.0  -0.1027
  C  C164  1  0.948990  0.611390  0.627980  1.0  0.1712
  C  C165  1  0.964050  0.598350  0.698300  1.0  -0.213
  C  C166  1  0.992100  0.685200  0.768000  1.0  0.151
  C  C167  1  0.006750  0.781550  0.763100  1.0  -0.2213
  C  C168  1  0.985640  0.790340  0.688880  1.0  0.1556
  N  N169  1  0.935430  0.673930  0.374060  1.0  -0.1053
  N  N170  1  0.956460  0.706760  0.122120  1.0  -0.344
  N  N171  1  0.438630  0.700130  0.374060  1.0  -0.1056
  N  N172  1  0.165660  0.415360  0.122120  1.0  -0.3361
  N  N173  1  0.326070  0.561370  0.625940  1.0  -0.1046
  N  N174  1  0.293240  0.834340  0.877880  1.0  -0.3375
  N  N175  1  0.299870  0.064570  0.625940  1.0  -0.1056
  N  N176  1  0.584640  0.043540  0.877880  1.0  -0.3439
  N  N177  1  0.811370  0.076070  0.125940  1.0  -0.1057
  N  N178  1  0.084340  0.043240  0.377880  1.0  -0.3353
  N  N179  1  0.314570  0.049870  0.125940  1.0  -0.106
  N  N180  1  0.293540  0.334640  0.377880  1.0  -0.3458
  N  N181  1  0.950130  0.188630  0.874060  1.0  -0.1039
  N  N182  1  0.665360  0.915660  0.622120  1.0  -0.3398
  N  N183  1  0.923930  0.685430  0.874060  1.0  -0.1048
  N  N184  1  0.956760  0.706460  0.622120  1.0  -0.3386
  O  O185  1  0.155710  0.523410  0.415220  1.0  -0.6156
  O  O186  1  0.061610  0.595710  0.487020  1.0  -0.6006
  O  O187  1  0.795030  0.623830  0.438860  1.0  -0.6138
  O  O188  1  0.677160  0.525460  0.321320  1.0  -0.6083
  O  O189  1  0.259510  0.891810  0.415220  1.0  -0.6159
  O  O190  1  0.425410  0.891310  0.487020  1.0  -0.6025
  O  O191  1  0.643830  0.815030  0.438860  1.0  -0.6112
  O  O192  1  0.644160  0.795860  0.321320  1.0  -0.6146
  O  O193  1  0.476590  0.740490  0.584780  1.0  -0.6167
  O  O194  1  0.404290  0.574590  0.512980  1.0  -0.6042
  O  O195  1  0.376170  0.356170  0.561140  1.0  -0.6144
  O  O196  1  0.474540  0.355840  0.678680  1.0  -0.6179
  O  O197  1  0.108190  0.844290  0.584780  1.0  -0.617
  O  O198  1  0.108690  0.938390  0.512980  1.0  -0.6034
  O  O199  1  0.184970  0.204970  0.561140  1.0  -0.6116
  O  O200  1  0.204140  0.322840  0.678680  1.0  -0.6103
  O  O201  1  0.990490  0.226590  0.084780  1.0  -0.6179
  O  O202  1  0.824590  0.154290  0.012980  1.0  -0.6014
  O  O203  1  0.606170  0.126170  0.061140  1.0  -0.611
  O  O204  1  0.605840  0.224540  0.178680  1.0  -0.6112
  O  O205  1  0.094290  0.858190  0.084780  1.0  -0.6191
  O  O206  1  0.188390  0.858690  0.012980  1.0  -0.6018
  O  O207  1  0.454970  0.934970  0.061140  1.0  -0.614
  O  O208  1  0.572840  0.954140  0.178680  1.0  -0.6116
  O  O209  1  0.141810  0.009510  0.915220  1.0  -0.6182
  O  O210  1  0.141310  0.175410  0.987020  1.0  -0.6028
  O  O211  1  0.065030  0.393830  0.938860  1.0  -0.6094
  O  O212  1  0.045860  0.394160  0.821320  1.0  -0.6166
  O  O213  1  0.773410  0.905710  0.915220  1.0  -0.6163
  O  O214  1  0.845710  0.811610  0.987020  1.0  -0.6022
  O  O215  1  0.873830  0.545030  0.938860  1.0  -0.6144
  O  O216  1  0.775460  0.427160  0.821320  1.0  -0.6135
