# generated using pymatgen
data_Cd3H52C78N8O13
_symmetry_space_group_name_H-M   'P 1'
_cell_length_a   21.23000000
_cell_length_b   32.11300000
_cell_length_c   14.91700000
_cell_angle_alpha   90.00000000
_cell_angle_beta   132.84700000
_cell_angle_gamma   90.00000000
_symmetry_Int_Tables_number   1
_chemical_formula_structural   Cd3H52C78N8O13
_chemical_formula_sum   'Cd12 H208 C312 N32 O52'
_cell_volume   7456.21449864
_cell_formula_units_Z   4
loop_
 _symmetry_equiv_pos_site_id
 _symmetry_equiv_pos_as_xyz
  1  'x, y, z'
loop_
 _atom_site_type_symbol
 _atom_site_label
 _atom_site_symmetry_multiplicity
 _atom_site_fract_x
 _atom_site_fract_y
 _atom_site_fract_z
 _atom_site_occupancy
 _atom_site_charge
  Cd  Cd1  1  0.731410  0.468090  0.506560  1.0  1.0238
  Cd  Cd2  1  0.729670  0.908280  0.852130  1.0  1.0106
  Cd  Cd3  1  0.232670  0.962730  0.227030  1.0  1.0063
  Cd  Cd4  1  0.231410  0.968090  0.506560  1.0  1.0238
  Cd  Cd5  1  0.229670  0.408280  0.852130  1.0  1.0106
  Cd  Cd6  1  0.732670  0.462730  0.227030  1.0  1.0063
  Cd  Cd7  1  0.731410  0.531910  0.006560  1.0  1.0241
  Cd  Cd8  1  0.729670  0.091720  0.352130  1.0  1.0128
  Cd  Cd9  1  0.232670  0.037270  0.727030  1.0  1.0062
  Cd  Cd10  1  0.231410  0.031910  0.006560  1.0  1.0241
  Cd  Cd11  1  0.229670  0.591720  0.352130  1.0  1.0128
  Cd  Cd12  1  0.732670  0.537270  0.727030  1.0  1.0062
  H  H13  1  0.410900  0.433900  0.176600  1.0  0.2973
  H  H14  1  0.947800  0.475900  0.669400  1.0  0.2632
  H  H15  1  0.550400  0.923000  0.534200  1.0  0.2942
  H  H16  1  0.014700  0.965300  0.023700  1.0  0.3041
  H  H17  1  0.676800  0.407800  0.332300  1.0  0.4302
  H  H18  1  0.678800  0.444400  0.284600  1.0  0.4384
  H  H19  1  0.804800  0.606400  0.656600  1.0  0.0982
  H  H20  1  0.838400  0.675500  0.667700  1.0  0.1134
  H  H21  1  0.879800  0.654400  0.449300  1.0  0.0996
  H  H22  1  0.856500  0.583500  0.449600  1.0  0.0975
  H  H23  1  0.932200  0.728100  0.736500  1.0  0.1145
  H  H24  1  0.917600  0.830700  0.570700  1.0  0.1072
  H  H25  1  0.828700  0.722200  0.388300  1.0  0.0973
  H  H26  1  0.946600  0.842200  0.448800  1.0  0.101
  H  H27  1  0.910900  0.875000  0.284100  1.0  0.1001
  H  H28  1  0.705100  0.800900  0.057400  1.0  0.1035
  H  H29  1  0.742200  0.767000  0.223200  1.0  0.1
  H  H30  1  0.900000  0.858400  0.703100  1.0  0.0993
  H  H31  1  0.988500  0.904000  0.867100  1.0  0.0965
  H  H32  1  0.154700  0.812200  0.070900  1.0  0.1036
  H  H33  1  0.067600  0.766100  0.907100  1.0  0.1037
  H  H34  1  0.200800  0.107700  0.089700  1.0  0.09
  H  H35  1  0.166700  0.177400  0.072200  1.0  0.1044
  H  H36  1  0.094500  0.155800  0.256600  1.0  0.0943
  H  H37  1  0.120400  0.085700  0.261300  1.0  0.0978
  H  H38  1  0.053800  0.228400  0.983500  1.0  0.1091
  H  H39  1  0.060700  0.331100  0.140800  1.0  0.0996
  H  H40  1  0.158500  0.224300  0.329500  1.0  0.1014
  H  H41  1  0.036700  0.343000  0.266200  1.0  0.1022
  H  H42  1  0.066500  0.373000  0.432400  1.0  0.0921
  H  H43  1  0.272000  0.300500  0.659600  1.0  0.101
  H  H44  1  0.241100  0.268300  0.493900  1.0  0.1017
  H  H45  1  0.050100  0.363500  0.004800  1.0  0.1088
  H  H46  1  0.963100  0.403400  0.832400  1.0  0.1078
  H  H47  1  0.845400  0.301500  0.630400  1.0  0.11
  H  H48  1  0.929000  0.261300  0.804500  1.0  0.1138
  H  H49  1  0.553300  0.411700  0.345100  1.0  0.0972
  H  H50  1  0.556800  0.531800  0.320000  1.0  0.106
  H  H51  1  0.431700  0.571000  0.145400  1.0  0.1022
  H  H52  1  0.305100  0.608100  0.993800  1.0  0.0987
  H  H53  1  0.176600  0.573400  0.857700  1.0  0.1003
  H  H54  1  0.291300  0.468600  0.047800  1.0  0.0961
  H  H55  1  0.040400  0.536300  0.782100  1.0  0.1444
  H  H56  1  0.029100  0.417400  0.709400  1.0  0.1064
  H  H57  1  0.404900  0.900200  0.404800  1.0  0.1103
  H  H58  1  0.410800  0.022300  0.376500  1.0  0.1131
  H  H59  1  0.540800  0.060600  0.490100  1.0  0.1049
  H  H60  1  0.671700  0.096600  0.610500  1.0  0.1005
  H  H61  1  0.795800  0.063600  0.766600  1.0  0.1009
  H  H62  1  0.671300  0.955900  0.652700  1.0  0.0976
  H  H63  1  0.927900  0.019700  0.880800  1.0  0.1208
  H  H64  1  0.930000  0.912400  0.006800  1.0  0.112
  H  H65  1  0.910900  0.933900  0.176600  1.0  0.2973
  H  H66  1  0.447800  0.975900  0.669400  1.0  0.2632
  H  H67  1  0.050400  0.423000  0.534200  1.0  0.2942
  H  H68  1  0.514700  0.465300  0.023700  1.0  0.3041
  H  H69  1  0.176800  0.907800  0.332300  1.0  0.4302
  H  H70  1  0.178800  0.944400  0.284600  1.0  0.4387
  H  H71  1  0.304800  0.106400  0.656600  1.0  0.0982
  H  H72  1  0.338400  0.175500  0.667700  1.0  0.1134
  H  H73  1  0.379800  0.154400  0.449300  1.0  0.0996
  H  H74  1  0.356500  0.083500  0.449600  1.0  0.0975
  H  H75  1  0.432200  0.228100  0.736500  1.0  0.1145
  H  H76  1  0.417600  0.330700  0.570700  1.0  0.1072
  H  H77  1  0.328700  0.222200  0.388300  1.0  0.0972
  H  H78  1  0.446600  0.342200  0.448800  1.0  0.101
  H  H79  1  0.410900  0.375000  0.284100  1.0  0.1001
  H  H80  1  0.205100  0.300900  0.057400  1.0  0.1035
  H  H81  1  0.242200  0.267000  0.223200  1.0  0.1
  H  H82  1  0.400000  0.358400  0.703100  1.0  0.0993
  H  H83  1  0.488500  0.404000  0.867100  1.0  0.0965
  H  H84  1  0.654700  0.312200  0.070900  1.0  0.1036
  H  H85  1  0.567600  0.266100  0.907100  1.0  0.1037
  H  H86  1  0.700800  0.607700  0.089700  1.0  0.0899
  H  H87  1  0.666667  0.677400  0.072200  1.0  0.104
  H  H88  1  0.594500  0.655800  0.256600  1.0  0.0943
  H  H89  1  0.620400  0.585700  0.261300  1.0  0.0978
  H  H90  1  0.553800  0.728400  0.983500  1.0  0.109
  H  H91  1  0.560700  0.831100  0.140800  1.0  0.0996
  H  H92  1  0.658500  0.724300  0.329500  1.0  0.1014
  H  H93  1  0.536700  0.843000  0.266200  1.0  0.1022
  H  H94  1  0.566500  0.873000  0.432400  1.0  0.0921
  H  H95  1  0.772000  0.800500  0.659600  1.0  0.101
  H  H96  1  0.741100  0.768300  0.493900  1.0  0.1017
  H  H97  1  0.550100  0.863500  0.004800  1.0  0.1088
  H  H98  1  0.463100  0.903400  0.832400  1.0  0.1078
  H  H99  1  0.345400  0.801500  0.630400  1.0  0.11
  H  H100  1  0.429000  0.761300  0.804500  1.0  0.1138
  H  H101  1  0.053300  0.911700  0.345100  1.0  0.0971
  H  H102  1  0.056800  0.031800  0.320000  1.0  0.106
  H  H103  1  0.931700  0.071000  0.145400  1.0  0.1022
  H  H104  1  0.805100  0.108100  0.993800  1.0  0.0987
  H  H105  1  0.676600  0.073400  0.857700  1.0  0.1003
  H  H106  1  0.791300  0.968600  0.047800  1.0  0.0961
  H  H107  1  0.540400  0.036300  0.782100  1.0  0.1444
  H  H108  1  0.529100  0.917400  0.709400  1.0  0.1064
  H  H109  1  0.904900  0.400200  0.404800  1.0  0.1103
  H  H110  1  0.910800  0.522300  0.376500  1.0  0.1131
  H  H111  1  0.040800  0.560600  0.490100  1.0  0.1049
  H  H112  1  0.171700  0.596600  0.610500  1.0  0.1008
  H  H113  1  0.295800  0.563600  0.766600  1.0  0.1009
  H  H114  1  0.171300  0.455900  0.652700  1.0  0.0976
  H  H115  1  0.427900  0.519700  0.880800  1.0  0.1208
  H  H116  1  0.430000  0.412400  0.006800  1.0  0.112
  H  H117  1  0.410900  0.566100  0.676600  1.0  0.2971
  H  H118  1  0.947800  0.524100  0.169400  1.0  0.2632
  H  H119  1  0.550400  0.077000  0.034200  1.0  0.2921
  H  H120  1  0.014700  0.034700  0.523700  1.0  0.3044
  H  H121  1  0.676800  0.592200  0.832300  1.0  0.4303
  H  H122  1  0.678800  0.555600  0.784600  1.0  0.4395
  H  H123  1  0.804800  0.393600  0.156600  1.0  0.0982
  H  H124  1  0.838400  0.324500  0.167700  1.0  0.1138
  H  H125  1  0.879800  0.345600  0.949300  1.0  0.1002
  H  H126  1  0.856500  0.416500  0.949600  1.0  0.0977
  H  H127  1  0.932200  0.271900  0.236500  1.0  0.1139
  H  H128  1  0.917600  0.169300  0.070700  1.0  0.1075
  H  H129  1  0.828700  0.277800  0.888300  1.0  0.0975
  H  H130  1  0.946600  0.157800  0.948800  1.0  0.1009
  H  H131  1  0.910900  0.125000  0.784100  1.0  0.1006
  H  H132  1  0.705100  0.199100  0.557400  1.0  0.1041
  H  H133  1  0.742200  0.233000  0.723200  1.0  0.1002
  H  H134  1  0.900000  0.141600  0.203100  1.0  0.099
  H  H135  1  0.988500  0.096000  0.367100  1.0  0.096
  H  H136  1  0.154700  0.187800  0.570900  1.0  0.1036
  H  H137  1  0.067600  0.233900  0.407100  1.0  0.1034
  H  H138  1  0.200800  0.892300  0.589700  1.0  0.0897
  H  H139  1  0.166700  0.822600  0.572200  1.0  0.1045
  H  H140  1  0.094500  0.844200  0.756600  1.0  0.0937
  H  H141  1  0.120400  0.914300  0.761300  1.0  0.0976
  H  H142  1  0.053800  0.771600  0.483500  1.0  0.1092
  H  H143  1  0.060700  0.668900  0.640800  1.0  0.1002
  H  H144  1  0.158500  0.775700  0.829500  1.0  0.1009
  H  H145  1  0.036700  0.657000  0.766200  1.0  0.1015
  H  H146  1  0.066500  0.627000  0.932400  1.0  0.0923
  H  H147  1  0.272000  0.699500  0.159600  1.0  0.1007
  H  H148  1  0.241100  0.731700  0.993900  1.0  0.1014
  H  H149  1  0.050100  0.636500  0.504800  1.0  0.1092
  H  H150  1  0.963100  0.596600  0.332400  1.0  0.1072
  H  H151  1  0.845400  0.698500  0.130400  1.0  0.1105
  H  H152  1  0.929000  0.738700  0.304500  1.0  0.114
  H  H153  1  0.553300  0.588300  0.845100  1.0  0.0964
  H  H154  1  0.556800  0.468200  0.820000  1.0  0.1059
  H  H155  1  0.431700  0.429000  0.645400  1.0  0.1023
  H  H156  1  0.305100  0.391900  0.493800  1.0  0.0984
  H  H157  1  0.176600  0.426600  0.357700  1.0  0.0998
  H  H158  1  0.291300  0.531400  0.547800  1.0  0.096
  H  H159  1  0.040400  0.463700  0.282100  1.0  0.1442
  H  H160  1  0.029100  0.582600  0.209400  1.0  0.1065
  H  H161  1  0.404900  0.099800  0.904800  1.0  0.1107
  H  H162  1  0.410800  0.977700  0.876500  1.0  0.1129
  H  H163  1  0.540800  0.939400  0.990100  1.0  0.1041
  H  H164  1  0.671700  0.903400  0.110500  1.0  0.1012
  H  H165  1  0.795800  0.936400  0.266600  1.0  0.1009
  H  H166  1  0.671300  0.044100  0.152700  1.0  0.0977
  H  H167  1  0.927900  0.980300  0.380800  1.0  0.1207
  H  H168  1  0.930000  0.087600  0.506800  1.0  0.1115
  H  H169  1  0.910900  0.066100  0.676600  1.0  0.2971
  H  H170  1  0.447800  0.024100  0.169400  1.0  0.2632
  H  H171  1  0.050400  0.577000  0.034200  1.0  0.2921
  H  H172  1  0.514700  0.534700  0.523700  1.0  0.3044
  H  H173  1  0.176800  0.092200  0.832300  1.0  0.4305
  H  H174  1  0.178800  0.055600  0.784600  1.0  0.4398
  H  H175  1  0.304800  0.893600  0.156600  1.0  0.0982
  H  H176  1  0.338400  0.824500  0.167700  1.0  0.1138
  H  H177  1  0.379800  0.845600  0.949300  1.0  0.1002
  H  H178  1  0.356500  0.916500  0.949600  1.0  0.0977
  H  H179  1  0.432200  0.771900  0.236500  1.0  0.1139
  H  H180  1  0.417600  0.669300  0.070700  1.0  0.1075
  H  H181  1  0.328700  0.777800  0.888300  1.0  0.0974
  H  H182  1  0.446600  0.657800  0.948800  1.0  0.1009
  H  H183  1  0.410900  0.625000  0.784100  1.0  0.1006
  H  H184  1  0.205100  0.699100  0.557400  1.0  0.1041
  H  H185  1  0.242200  0.733000  0.723200  1.0  0.1002
  H  H186  1  0.400000  0.641600  0.203100  1.0  0.099
  H  H187  1  0.488500  0.596000  0.367100  1.0  0.096
  H  H188  1  0.654700  0.687800  0.570900  1.0  0.1036
  H  H189  1  0.567600  0.733900  0.407100  1.0  0.1034
  H  H190  1  0.700800  0.392300  0.589700  1.0  0.0896
  H  H191  1  0.666667  0.322600  0.572200  1.0  0.1042
  H  H192  1  0.594500  0.344200  0.756600  1.0  0.0937
  H  H193  1  0.620400  0.414300  0.761300  1.0  0.0976
  H  H194  1  0.553800  0.271600  0.483500  1.0  0.1091
  H  H195  1  0.560700  0.168900  0.640800  1.0  0.1002
  H  H196  1  0.658500  0.275700  0.829500  1.0  0.1009
  H  H197  1  0.536700  0.157000  0.766200  1.0  0.1015
  H  H198  1  0.566500  0.127000  0.932400  1.0  0.0923
  H  H199  1  0.772000  0.199500  0.159600  1.0  0.1007
  H  H200  1  0.741100  0.231700  0.993900  1.0  0.1014
  H  H201  1  0.550100  0.136500  0.504800  1.0  0.1092
  H  H202  1  0.463100  0.096600  0.332400  1.0  0.1072
  H  H203  1  0.345400  0.198500  0.130400  1.0  0.1105
  H  H204  1  0.429000  0.238700  0.304500  1.0  0.114
  H  H205  1  0.053300  0.088300  0.845100  1.0  0.0964
  H  H206  1  0.056800  0.968200  0.820000  1.0  0.1059
  H  H207  1  0.931700  0.929000  0.645400  1.0  0.1023
  H  H208  1  0.805100  0.891900  0.493800  1.0  0.0984
  H  H209  1  0.676600  0.926600  0.357700  1.0  0.0998
  H  H210  1  0.791300  0.031400  0.547800  1.0  0.096
  H  H211  1  0.540400  0.963700  0.282100  1.0  0.1442
  H  H212  1  0.529100  0.082600  0.209400  1.0  0.1065
  H  H213  1  0.904900  0.599800  0.904800  1.0  0.1107
  H  H214  1  0.910800  0.477700  0.876500  1.0  0.1129
  H  H215  1  0.040800  0.439400  0.990100  1.0  0.1041
  H  H216  1  0.171700  0.403400  0.110500  1.0  0.1012
  H  H217  1  0.295800  0.436400  0.266600  1.0  0.1009
  H  H218  1  0.171300  0.544100  0.152700  1.0  0.0977
  H  H219  1  0.427900  0.480300  0.380800  1.0  0.1207
  H  H220  1  0.430000  0.587600  0.506800  1.0  0.1115
  C  C221  1  0.801800  0.543600  0.542600  1.0  0.7123
  C  C222  1  0.827400  0.587800  0.551400  1.0  -0.1186
  C  C223  1  0.821200  0.615700  0.616000  1.0  -0.0745
  C  C224  1  0.839500  0.657400  0.620300  1.0  -0.1151
  C  C225  1  0.859200  0.672400  0.556300  1.0  0.0046
  C  C226  1  0.865500  0.644700  0.492300  1.0  -0.1117
  C  C227  1  0.850600  0.602000  0.491300  1.0  -0.054
  C  C228  1  0.877200  0.717600  0.561400  1.0  0.0215
  C  C229  1  0.916700  0.741000  0.668100  1.0  -0.1003
  C  C230  1  0.932500  0.783000  0.671500  1.0  -0.0307
  C  C231  1  0.908000  0.802300  0.568400  1.0  -0.1545
  C  C232  1  0.869000  0.780000  0.460900  1.0  0.0226
  C  C233  1  0.854200  0.737600  0.458700  1.0  -0.1024
  C  C234  1  0.847700  0.801100  0.354800  1.0  0.0418
  C  C235  1  0.897900  0.833800  0.370400  1.0  -0.1184
  C  C236  1  0.876200  0.853600  0.271700  1.0  -0.0282
  C  C237  1  0.802400  0.842400  0.151600  1.0  -0.1542
  C  C238  1  0.753500  0.809400  0.136000  1.0  -0.0143
  C  C239  1  0.775700  0.789100  0.235700  1.0  -0.1035
  C  C240  1  0.777200  0.865200  0.044100  1.0  0.685
  C  C241  1  0.979400  0.808800  0.783800  1.0  0.0614
  C  C242  1  0.953000  0.849300  0.775500  1.0  -0.1543
  C  C243  1  0.005200  0.876500  0.875200  1.0  -0.052
  C  C244  1  0.080900  0.862600  0.984600  1.0  -0.147
  C  C245  1  0.104000  0.821800  0.996100  1.0  -0.0175
  C  C246  1  0.052600  0.794100  0.896900  1.0  -0.132
  C  C247  1  0.140500  0.893100  0.087400  1.0  0.6732
  C  C248  1  0.184200  0.043900  0.185000  1.0  0.6805
  C  C249  1  0.161500  0.089500  0.173600  1.0  -0.1456
  C  C250  1  0.177300  0.117300  0.120500  1.0  -0.0207
  C  C251  1  0.158600  0.159300  0.112300  1.0  -0.1035
  C  C252  1  0.128000  0.174500  0.163600  1.0  0.0619
  C  C253  1  0.114500  0.146200  0.220800  1.0  -0.1106
  C  C254  1  0.130500  0.104200  0.224400  1.0  -0.0319
  C  C255  1  0.108300  0.219400  0.157000  1.0  -0.0219
  C  C256  1  0.068200  0.241800  0.050700  1.0  -0.1003
  C  C257  1  0.048800  0.284100  0.042200  1.0  -0.0481
  C  C258  1  0.072600  0.303000  0.145000  1.0  -0.1252
  C  C259  1  0.113700  0.281900  0.254900  1.0  0.006
  C  C260  1  0.131100  0.239300  0.258000  1.0  -0.0982
  C  C261  1  0.135400  0.302100  0.361500  1.0  0.0519
  C  C262  1  0.083700  0.333800  0.344800  1.0  -0.1021
  C  C263  1  0.102000  0.352000  0.445000  1.0  -0.0282
  C  C264  1  0.172000  0.339400  0.563100  1.0  -0.1385
  C  C265  1  0.224000  0.308800  0.580600  1.0  -0.0644
  C  C266  1  0.205800  0.289600  0.480500  1.0  -0.1006
  C  C267  1  0.193100  0.359100  0.671600  1.0  0.6966
  C  C268  1  0.999800  0.308200  0.927200  1.0  0.0613
  C  C269  1  0.008100  0.350500  0.929700  1.0  -0.1342
  C  C270  1  0.956800  0.374600  0.825600  1.0  -0.1313
  C  C271  1  0.897300  0.357100  0.713400  1.0  -0.1303
  C  C272  1  0.886700  0.314200  0.706300  1.0  -0.0489
  C  C273  1  0.936900  0.290000  0.811000  1.0  -0.126
  C  C274  1  0.840100  0.384400  0.602900  1.0  0.7288
  C  C275  1  0.535500  0.439000  0.318600  1.0  0.2098
  C  C276  1  0.536900  0.504500  0.304300  1.0  0.0467
  C  C277  1  0.452900  0.492500  0.210700  1.0  0.0455
  C  C278  1  0.374300  0.515800  0.112500  1.0  -0.0222
  C  C279  1  0.378800  0.557500  0.095400  1.0  -0.1053
  C  C280  1  0.302900  0.579600  0.001800  1.0  -0.0663
  C  C281  1  0.225700  0.559100  0.922600  1.0  -0.0608
  C  C282  1  0.220500  0.517300  0.938400  1.0  -0.0616
  C  C283  1  0.294900  0.496500  0.034800  1.0  -0.0916
  C  C284  1  0.137900  0.494700  0.851200  1.0  0.0543
  C  C285  1  0.056600  0.509200  0.783700  1.0  -0.0857
  C  C286  1  0.050900  0.443700  0.744100  1.0  0.2298
  C  C287  1  0.423700  0.927500  0.415300  1.0  0.1666
  C  C288  1  0.427900  0.994800  0.401100  1.0  0.0465
  C  C289  1  0.510600  0.981500  0.483800  1.0  0.0569
  C  C290  1  0.592800  0.004600  0.561100  1.0  -0.0408
  C  C291  1  0.592400  0.046500  0.548100  1.0  -0.1655
  C  C292  1  0.671100  0.068400  0.623500  1.0  -0.1147
  C  C293  1  0.744900  0.048600  0.713900  1.0  -0.0489
  C  C294  1  0.745700  0.006600  0.729000  1.0  -0.0292
  C  C295  1  0.670100  0.984800  0.648200  1.0  -0.0931
  C  C296  1  0.826200  0.984600  0.829000  1.0  0.0709
  C  C297  1  0.909700  0.995600  0.892200  1.0  -0.0996
  C  C298  1  0.910000  0.936700  0.960700  1.0  0.2132
  C  C299  1  0.301800  0.043600  0.542600  1.0  0.7123
  C  C300  1  0.327400  0.087800  0.551400  1.0  -0.1186
  C  C301  1  0.321200  0.115700  0.616000  1.0  -0.0745
  C  C302  1  0.339500  0.157400  0.620300  1.0  -0.1151
  C  C303  1  0.359200  0.172400  0.556300  1.0  0.0046
  C  C304  1  0.365500  0.144700  0.492300  1.0  -0.1117
  C  C305  1  0.350600  0.102000  0.491300  1.0  -0.054
  C  C306  1  0.377200  0.217600  0.561400  1.0  0.0215
  C  C307  1  0.416700  0.241000  0.668100  1.0  -0.1003
  C  C308  1  0.432500  0.283000  0.671500  1.0  -0.0307
  C  C309  1  0.408000  0.302300  0.568400  1.0  -0.1545
  C  C310  1  0.369000  0.280000  0.460900  1.0  0.0226
  C  C311  1  0.354200  0.237600  0.458700  1.0  -0.1024
  C  C312  1  0.347700  0.301100  0.354800  1.0  0.0418
  C  C313  1  0.397900  0.333800  0.370400  1.0  -0.1184
  C  C314  1  0.376200  0.353600  0.271700  1.0  -0.0282
  C  C315  1  0.302400  0.342400  0.151600  1.0  -0.1542
  C  C316  1  0.253500  0.309400  0.136000  1.0  -0.0143
  C  C317  1  0.275700  0.289100  0.235700  1.0  -0.1035
  C  C318  1  0.277200  0.365200  0.044100  1.0  0.685
  C  C319  1  0.479400  0.308800  0.783800  1.0  0.0614
  C  C320  1  0.453000  0.349300  0.775500  1.0  -0.1543
  C  C321  1  0.505200  0.376500  0.875200  1.0  -0.052
  C  C322  1  0.580900  0.362600  0.984600  1.0  -0.147
  C  C323  1  0.604000  0.321800  0.996100  1.0  -0.0175
  C  C324  1  0.552600  0.294100  0.896900  1.0  -0.132
  C  C325  1  0.640500  0.393100  0.087400  1.0  0.6732
  C  C326  1  0.684200  0.543900  0.185000  1.0  0.6805
  C  C327  1  0.661500  0.589500  0.173600  1.0  -0.1457
  C  C328  1  0.677300  0.617300  0.120500  1.0  -0.0215
  C  C329  1  0.658600  0.659300  0.112300  1.0  -0.1001
  C  C330  1  0.628000  0.674500  0.163600  1.0  0.0619
  C  C331  1  0.614500  0.646200  0.220800  1.0  -0.1106
  C  C332  1  0.630500  0.604200  0.224400  1.0  -0.0319
  C  C333  1  0.608300  0.719400  0.157000  1.0  -0.0219
  C  C334  1  0.568200  0.741800  0.050700  1.0  -0.1005
  C  C335  1  0.548800  0.784100  0.042200  1.0  -0.0481
  C  C336  1  0.572600  0.803000  0.145000  1.0  -0.1252
  C  C337  1  0.613700  0.781900  0.254900  1.0  0.006
  C  C338  1  0.631100  0.739300  0.258000  1.0  -0.0982
  C  C339  1  0.635400  0.802100  0.361500  1.0  0.0519
  C  C340  1  0.583700  0.833800  0.344800  1.0  -0.1021
  C  C341  1  0.602000  0.852000  0.445000  1.0  -0.0282
  C  C342  1  0.672000  0.839400  0.563100  1.0  -0.1385
  C  C343  1  0.724000  0.808800  0.580600  1.0  -0.0644
  C  C344  1  0.705800  0.789600  0.480500  1.0  -0.1006
  C  C345  1  0.693100  0.859100  0.671600  1.0  0.6966
  C  C346  1  0.499800  0.808200  0.927200  1.0  0.0613
  C  C347  1  0.508100  0.850500  0.929700  1.0  -0.1342
  C  C348  1  0.456800  0.874600  0.825600  1.0  -0.1313
  C  C349  1  0.397300  0.857100  0.713400  1.0  -0.1303
  C  C350  1  0.386700  0.814200  0.706300  1.0  -0.0489
  C  C351  1  0.436900  0.790000  0.811000  1.0  -0.126
  C  C352  1  0.340100  0.884400  0.602900  1.0  0.7287
  C  C353  1  0.035500  0.939000  0.318600  1.0  0.2098
  C  C354  1  0.036900  0.004500  0.304300  1.0  0.0467
  C  C355  1  0.952900  0.992500  0.210700  1.0  0.0455
  C  C356  1  0.874300  0.015800  0.112500  1.0  -0.0222
  C  C357  1  0.878800  0.057500  0.095400  1.0  -0.1053
  C  C358  1  0.802900  0.079600  0.001800  1.0  -0.0663
  C  C359  1  0.725700  0.059100  0.922600  1.0  -0.0608
  C  C360  1  0.720500  0.017300  0.938400  1.0  -0.0616
  C  C361  1  0.794900  0.996500  0.034800  1.0  -0.0916
  C  C362  1  0.637900  0.994700  0.851200  1.0  0.0543
  C  C363  1  0.556600  0.009200  0.783700  1.0  -0.0857
  C  C364  1  0.550900  0.943700  0.744100  1.0  0.2298
  C  C365  1  0.923700  0.427500  0.415300  1.0  0.1666
  C  C366  1  0.927900  0.494800  0.401100  1.0  0.0465
  C  C367  1  0.010600  0.481500  0.483800  1.0  0.0569
  C  C368  1  0.092800  0.504600  0.561100  1.0  -0.0408
  C  C369  1  0.092400  0.546500  0.548100  1.0  -0.1655
  C  C370  1  0.171100  0.568400  0.623500  1.0  -0.1147
  C  C371  1  0.244900  0.548600  0.713900  1.0  -0.0489
  C  C372  1  0.245700  0.506600  0.729000  1.0  -0.0292
  C  C373  1  0.170100  0.484800  0.648200  1.0  -0.0931
  C  C374  1  0.326200  0.484600  0.829000  1.0  0.0709
  C  C375  1  0.409700  0.495600  0.892200  1.0  -0.0996
  C  C376  1  0.410000  0.436700  0.960700  1.0  0.2132
  C  C377  1  0.801800  0.456400  0.042600  1.0  0.7118
  C  C378  1  0.827400  0.412200  0.051400  1.0  -0.1182
  C  C379  1  0.821200  0.384300  0.116000  1.0  -0.0742
  C  C380  1  0.839500  0.342600  0.120300  1.0  -0.1155
  C  C381  1  0.859200  0.327600  0.056300  1.0  0.0043
  C  C382  1  0.865500  0.355300  0.992300  1.0  -0.1114
  C  C383  1  0.850600  0.398000  0.991300  1.0  -0.0524
  C  C384  1  0.877200  0.282400  0.061400  1.0  0.0211
  C  C385  1  0.916700  0.259000  0.168100  1.0  -0.1007
  C  C386  1  0.932500  0.217000  0.171500  1.0  -0.0304
  C  C387  1  0.908000  0.197700  0.068400  1.0  -0.1561
  C  C388  1  0.869000  0.220000  0.960900  1.0  0.0227
  C  C389  1  0.854200  0.262400  0.958700  1.0  -0.1021
  C  C390  1  0.847700  0.198900  0.854800  1.0  0.0419
  C  C391  1  0.897900  0.166200  0.870400  1.0  -0.1173
  C  C392  1  0.876200  0.146400  0.771700  1.0  -0.0283
  C  C393  1  0.802400  0.157600  0.651600  1.0  -0.1549
  C  C394  1  0.753500  0.190600  0.636000  1.0  -0.0149
  C  C395  1  0.775700  0.210900  0.735700  1.0  -0.1045
  C  C396  1  0.777200  0.134800  0.544100  1.0  0.6865
  C  C397  1  0.979400  0.191200  0.283800  1.0  0.06
  C  C398  1  0.953000  0.150700  0.275500  1.0  -0.1544
  C  C399  1  0.005200  0.123500  0.375200  1.0  -0.0524
  C  C400  1  0.080900  0.137400  0.484600  1.0  -0.1461
  C  C401  1  0.104000  0.178200  0.496100  1.0  -0.0179
  C  C402  1  0.052600  0.205900  0.396900  1.0  -0.1333
  C  C403  1  0.140500  0.106900  0.587400  1.0  0.6735
  C  C404  1  0.184200  0.956100  0.685000  1.0  0.6808
  C  C405  1  0.161500  0.910500  0.673600  1.0  -0.1468
  C  C406  1  0.177300  0.882700  0.620500  1.0  -0.0212
  C  C407  1  0.158600  0.840700  0.612300  1.0  -0.1032
  C  C408  1  0.128000  0.825500  0.663600  1.0  0.0614
  C  C409  1  0.114500  0.853800  0.720800  1.0  -0.1099
  C  C410  1  0.130500  0.895800  0.724400  1.0  -0.0315
  C  C411  1  0.108300  0.780600  0.657000  1.0  -0.0213
  C  C412  1  0.068200  0.758200  0.550700  1.0  -0.1005
  C  C413  1  0.048800  0.715900  0.542200  1.0  -0.0482
  C  C414  1  0.072600  0.697000  0.645000  1.0  -0.1261
  C  C415  1  0.113700  0.718100  0.754900  1.0  0.0063
  C  C416  1  0.131100  0.760700  0.758000  1.0  -0.0981
  C  C417  1  0.135400  0.697900  0.861500  1.0  0.0519
  C  C418  1  0.083700  0.666200  0.844800  1.0  -0.1009
  C  C419  1  0.102000  0.648000  0.945000  1.0  -0.0281
  C  C420  1  0.172000  0.660600  0.063100  1.0  -0.1374
  C  C421  1  0.224000  0.691200  0.080600  1.0  -0.0645
  C  C422  1  0.205800  0.710400  0.980500  1.0  -0.1011
  C  C423  1  0.193100  0.640900  0.171600  1.0  0.6964
  C  C424  1  0.999800  0.691800  0.427200  1.0  0.0622
  C  C425  1  0.008100  0.649500  0.429700  1.0  -0.1343
  C  C426  1  0.956800  0.625400  0.325600  1.0  -0.1315
  C  C427  1  0.897300  0.642900  0.213400  1.0  -0.1312
  C  C428  1  0.886700  0.685800  0.206300  1.0  -0.0472
  C  C429  1  0.936900  0.710000  0.311000  1.0  -0.1266
  C  C430  1  0.840100  0.615600  0.102900  1.0  0.7297
  C  C431  1  0.535500  0.561000  0.818600  1.0  0.2111
  C  C432  1  0.536900  0.495500  0.804300  1.0  0.0462
  C  C433  1  0.452900  0.507500  0.710700  1.0  0.0455
  C  C434  1  0.374300  0.484200  0.612500  1.0  -0.0228
  C  C435  1  0.378800  0.442500  0.595400  1.0  -0.1058
  C  C436  1  0.302900  0.420400  0.501800  1.0  -0.066
  C  C437  1  0.225700  0.440900  0.422600  1.0  -0.0595
  C  C438  1  0.220500  0.482700  0.438400  1.0  -0.0623
  C  C439  1  0.294900  0.503500  0.534800  1.0  -0.0912
  C  C440  1  0.137900  0.505300  0.351200  1.0  0.0544
  C  C441  1  0.056600  0.490800  0.283700  1.0  -0.0853
  C  C442  1  0.050900  0.556300  0.244100  1.0  0.2283
  C  C443  1  0.423700  0.072500  0.915300  1.0  0.1672
  C  C444  1  0.427900  0.005200  0.901100  1.0  0.0469
  C  C445  1  0.510600  0.018500  0.983800  1.0  0.0572
  C  C446  1  0.592800  0.995400  0.061100  1.0  -0.0407
  C  C447  1  0.592400  0.953500  0.048100  1.0  -0.1657
  C  C448  1  0.671100  0.931600  0.123500  1.0  -0.115
  C  C449  1  0.744900  0.951400  0.213900  1.0  -0.0485
  C  C450  1  0.745700  0.993400  0.229000  1.0  -0.0291
  C  C451  1  0.670100  0.015200  0.148200  1.0  -0.094
  C  C452  1  0.826200  0.015400  0.329000  1.0  0.071
  C  C453  1  0.909700  0.004400  0.392200  1.0  -0.0981
  C  C454  1  0.910000  0.063300  0.460700  1.0  0.2141
  C  C455  1  0.301800  0.956400  0.042600  1.0  0.7118
  C  C456  1  0.327400  0.912200  0.051400  1.0  -0.1182
  C  C457  1  0.321200  0.884300  0.116000  1.0  -0.0742
  C  C458  1  0.339500  0.842600  0.120300  1.0  -0.1155
  C  C459  1  0.359200  0.827600  0.056300  1.0  0.0043
  C  C460  1  0.365500  0.855300  0.992300  1.0  -0.1114
  C  C461  1  0.350600  0.898000  0.991300  1.0  -0.0524
  C  C462  1  0.377200  0.782400  0.061400  1.0  0.0211
  C  C463  1  0.416700  0.759000  0.168100  1.0  -0.1007
  C  C464  1  0.432500  0.717000  0.171500  1.0  -0.0304
  C  C465  1  0.408000  0.697700  0.068400  1.0  -0.1561
  C  C466  1  0.369000  0.720000  0.960900  1.0  0.0227
  C  C467  1  0.354200  0.762400  0.958700  1.0  -0.1021
  C  C468  1  0.347700  0.698900  0.854800  1.0  0.0419
  C  C469  1  0.397900  0.666200  0.870400  1.0  -0.1173
  C  C470  1  0.376200  0.646400  0.771700  1.0  -0.0283
  C  C471  1  0.302400  0.657600  0.651600  1.0  -0.1549
  C  C472  1  0.253500  0.690600  0.636000  1.0  -0.0149
  C  C473  1  0.275700  0.710900  0.735700  1.0  -0.1045
  C  C474  1  0.277200  0.634800  0.544100  1.0  0.6865
  C  C475  1  0.479400  0.691200  0.283800  1.0  0.06
  C  C476  1  0.453000  0.650700  0.275500  1.0  -0.1544
  C  C477  1  0.505200  0.623500  0.375200  1.0  -0.0524
  C  C478  1  0.580900  0.637400  0.484600  1.0  -0.1461
  C  C479  1  0.604000  0.678200  0.496100  1.0  -0.0179
  C  C480  1  0.552600  0.705900  0.396900  1.0  -0.1333
  C  C481  1  0.640500  0.606900  0.587400  1.0  0.6735
  C  C482  1  0.684200  0.456100  0.685000  1.0  0.6808
  C  C483  1  0.661500  0.410500  0.673600  1.0  -0.1469
  C  C484  1  0.677300  0.382700  0.620500  1.0  -0.0219
  C  C485  1  0.658600  0.340700  0.612300  1.0  -0.0999
  C  C486  1  0.628000  0.325500  0.663600  1.0  0.0614
  C  C487  1  0.614500  0.353800  0.720800  1.0  -0.1099
  C  C488  1  0.630500  0.395800  0.724400  1.0  -0.0315
  C  C489  1  0.608300  0.280600  0.657000  1.0  -0.0213
  C  C490  1  0.568200  0.258200  0.550700  1.0  -0.1007
  C  C491  1  0.548800  0.215900  0.542200  1.0  -0.0482
  C  C492  1  0.572600  0.197000  0.645000  1.0  -0.1261
  C  C493  1  0.613700  0.218100  0.754900  1.0  0.0063
  C  C494  1  0.631100  0.260700  0.758000  1.0  -0.0981
  C  C495  1  0.635400  0.197900  0.861500  1.0  0.0519
  C  C496  1  0.583700  0.166200  0.844800  1.0  -0.1009
  C  C497  1  0.602000  0.148000  0.945000  1.0  -0.0281
  C  C498  1  0.672000  0.160600  0.063100  1.0  -0.1374
  C  C499  1  0.724000  0.191200  0.080600  1.0  -0.0645
  C  C500  1  0.705800  0.210400  0.980500  1.0  -0.1011
  C  C501  1  0.693100  0.140900  0.171600  1.0  0.6964
  C  C502  1  0.499800  0.191800  0.427200  1.0  0.0622
  C  C503  1  0.508100  0.149500  0.429700  1.0  -0.1343
  C  C504  1  0.456800  0.125400  0.325600  1.0  -0.1315
  C  C505  1  0.397300  0.142900  0.213400  1.0  -0.1312
  C  C506  1  0.386700  0.185800  0.206300  1.0  -0.0472
  C  C507  1  0.436900  0.210000  0.311000  1.0  -0.1266
  C  C508  1  0.340100  0.115600  0.102900  1.0  0.7297
  C  C509  1  0.035500  0.061000  0.818600  1.0  0.2111
  C  C510  1  0.036900  0.995500  0.804300  1.0  0.0462
  C  C511  1  0.952900  0.007500  0.710700  1.0  0.0455
  C  C512  1  0.874300  0.984200  0.612500  1.0  -0.0228
  C  C513  1  0.878800  0.942500  0.595400  1.0  -0.1058
  C  C514  1  0.802900  0.920400  0.501800  1.0  -0.066
  C  C515  1  0.725700  0.940900  0.422600  1.0  -0.0595
  C  C516  1  0.720500  0.982700  0.438400  1.0  -0.0623
  C  C517  1  0.794900  0.003500  0.534800  1.0  -0.0912
  C  C518  1  0.637900  0.005300  0.351200  1.0  0.0544
  C  C519  1  0.556600  0.990800  0.283700  1.0  -0.0853
  C  C520  1  0.550900  0.056300  0.244100  1.0  0.2283
  C  C521  1  0.923700  0.572500  0.915300  1.0  0.1672
  C  C522  1  0.927900  0.505200  0.901100  1.0  0.0469
  C  C523  1  0.010600  0.518500  0.983800  1.0  0.0572
  C  C524  1  0.092800  0.495400  0.061100  1.0  -0.0407
  C  C525  1  0.092400  0.453500  0.048100  1.0  -0.1657
  C  C526  1  0.171100  0.431600  0.123500  1.0  -0.115
  C  C527  1  0.244900  0.451400  0.213900  1.0  -0.0485
  C  C528  1  0.245700  0.493400  0.229000  1.0  -0.0291
  C  C529  1  0.170100  0.515200  0.148200  1.0  -0.094
  C  C530  1  0.326200  0.515400  0.329000  1.0  0.071
  C  C531  1  0.409700  0.504400  0.392200  1.0  -0.0981
  C  C532  1  0.410000  0.563300  0.460700  1.0  0.2141
  N  N533  1  0.585900  0.471100  0.369700  1.0  -0.3356
  N  N534  1  0.454300  0.450300  0.222600  1.0  -0.2553
  N  N535  1  0.132800  0.452600  0.824100  1.0  -0.4086
  N  N536  1  0.002900  0.475700  0.718300  1.0  -0.2109
  N  N537  1  0.372100  0.961200  0.358500  1.0  -0.417
  N  N538  1  0.506800  0.939400  0.489900  1.0  -0.2561
  N  N539  1  0.827800  0.947100  0.874300  1.0  -0.3877
  N  N540  1  0.959500  0.965800  0.972500  1.0  -0.2696
  N  N541  1  0.085900  0.971100  0.369700  1.0  -0.3356
  N  N542  1  0.954300  0.950300  0.222600  1.0  -0.2553
  N  N543  1  0.632800  0.952600  0.824100  1.0  -0.4086
  N  N544  1  0.502900  0.975700  0.718300  1.0  -0.2109
  N  N545  1  0.872100  0.461200  0.358500  1.0  -0.417
  N  N546  1  0.006800  0.439400  0.489900  1.0  -0.2561
  N  N547  1  0.327800  0.447100  0.874300  1.0  -0.3877
  N  N548  1  0.459500  0.465800  0.972500  1.0  -0.2696
  N  N549  1  0.585900  0.528900  0.869700  1.0  -0.3359
  N  N550  1  0.454300  0.549700  0.722600  1.0  -0.2551
  N  N551  1  0.132800  0.547400  0.324100  1.0  -0.41
  N  N552  1  0.002900  0.524300  0.218300  1.0  -0.2102
  N  N553  1  0.372100  0.038800  0.858500  1.0  -0.4171
  N  N554  1  0.506800  0.060600  0.989900  1.0  -0.2566
  N  N555  1  0.827800  0.052900  0.374300  1.0  -0.3883
  N  N556  1  0.959500  0.034200  0.472500  1.0  -0.2697
  N  N557  1  0.085900  0.028900  0.869700  1.0  -0.3359
  N  N558  1  0.954300  0.049700  0.722600  1.0  -0.2551
  N  N559  1  0.632800  0.047400  0.324100  1.0  -0.41
  N  N560  1  0.502900  0.024300  0.218300  1.0  -0.2102
  N  N561  1  0.872100  0.538800  0.858500  1.0  -0.4171
  N  N562  1  0.006800  0.560600  0.989900  1.0  -0.2566
  N  N563  1  0.327800  0.552900  0.374300  1.0  -0.3883
  N  N564  1  0.459500  0.534200  0.472500  1.0  -0.2697
  O  O565  1  0.826700  0.515200  0.517100  1.0  -0.6256
  O  O566  1  0.752000  0.535900  0.559400  1.0  -0.6436
  O  O567  1  0.708600  0.855800  0.940400  1.0  -0.5839
  O  O568  1  0.826800  0.892770  0.061100  1.0  -0.6494
  O  O569  1  0.212400  0.881800  0.184900  1.0  -0.6198
  O  O570  1  0.115800  0.930980  0.068900  1.0  -0.6301
  O  O571  1  0.159300  0.018590  0.219900  1.0  -0.5987
  O  O572  1  0.229300  0.032280  0.164400  1.0  -0.6626
  O  O573  1  0.261800  0.352700  0.776300  1.0  -0.5773
  O  O574  1  0.139500  0.385540  0.652500  1.0  -0.6987
  O  O575  1  0.796000  0.368300  0.498500  1.0  -0.5625
  O  O576  1  0.838200  0.422210  0.621400  1.0  -0.6051
  O  O577  1  0.706200  0.429340  0.348400  1.0  -0.8225
  O  O578  1  0.326700  0.015200  0.517100  1.0  -0.6256
  O  O579  1  0.252000  0.035900  0.559400  1.0  -0.6436
  O  O580  1  0.208600  0.355800  0.940400  1.0  -0.5839
  O  O581  1  0.326800  0.392770  0.061100  1.0  -0.6496
  O  O582  1  0.712400  0.381800  0.184900  1.0  -0.6198
  O  O583  1  0.615800  0.430980  0.068900  1.0  -0.6301
  O  O584  1  0.659300  0.518590  0.219900  1.0  -0.5987
  O  O585  1  0.729300  0.532280  0.164400  1.0  -0.6626
  O  O586  1  0.761800  0.852700  0.776300  1.0  -0.5773
  O  O587  1  0.639500  0.885540  0.652500  1.0  -0.6987
  O  O588  1  0.296000  0.868300  0.498500  1.0  -0.5625
  O  O589  1  0.338200  0.922210  0.621400  1.0  -0.6051
  O  O590  1  0.206200  0.929340  0.348400  1.0  -0.8225
  O  O591  1  0.826700  0.484800  0.017100  1.0  -0.6253
  O  O592  1  0.752000  0.464100  0.059400  1.0  -0.6432
  O  O593  1  0.708600  0.144200  0.440400  1.0  -0.5853
  O  O594  1  0.826800  0.107230  0.561100  1.0  -0.6473
  O  O595  1  0.212400  0.118200  0.684900  1.0  -0.6181
  O  O596  1  0.115800  0.069020  0.568900  1.0  -0.6297
  O  O597  1  0.159300  0.981410  0.719900  1.0  -0.5978
  O  O598  1  0.229300  0.967720  0.664400  1.0  -0.6618
  O  O599  1  0.261800  0.647300  0.276300  1.0  -0.5764
  O  O600  1  0.139500  0.614460  0.152500  1.0  -0.6991
  O  O601  1  0.796000  0.631700  0.998500  1.0  -0.5663
  O  O602  1  0.838200  0.577790  0.121400  1.0  -0.6053
  O  O603  1  0.706200  0.570660  0.848400  1.0  -0.8234
  O  O604  1  0.326700  0.984800  0.017100  1.0  -0.6253
  O  O605  1  0.252000  0.964100  0.059400  1.0  -0.6432
  O  O606  1  0.208600  0.644200  0.440400  1.0  -0.5853
  O  O607  1  0.326800  0.607230  0.561100  1.0  -0.6475
  O  O608  1  0.712400  0.618200  0.684900  1.0  -0.6181
  O  O609  1  0.615800  0.569020  0.568900  1.0  -0.6297
  O  O610  1  0.659300  0.481410  0.719900  1.0  -0.5978
  O  O611  1  0.729300  0.467720  0.664400  1.0  -0.6618
  O  O612  1  0.761800  0.147300  0.276300  1.0  -0.5764
  O  O613  1  0.639500  0.114460  0.152500  1.0  -0.6991
  O  O614  1  0.296000  0.131700  0.998500  1.0  -0.5663
  O  O615  1  0.338200  0.077790  0.121400  1.0  -0.6053
  O  O616  1  0.206200  0.070660  0.848400  1.0  -0.8234
