# generated using pymatgen
data_AlC24N3O7
_symmetry_space_group_name_H-M   'P 1'
_cell_length_a   36.43780000
_cell_length_b   36.43780000
_cell_length_c   10.93730000
_cell_angle_alpha   90.00000000
_cell_angle_beta   90.00000000
_cell_angle_gamma   90.00000000
_symmetry_Int_Tables_number   1
_chemical_formula_structural   AlC24N3O7
_chemical_formula_sum   'Al16 C384 N48 O112'
_cell_volume   14521.59833528
_cell_formula_units_Z   16
loop_
 _symmetry_equiv_pos_site_id
 _symmetry_equiv_pos_as_xyz
  1  'x, y, z'
loop_
 _atom_site_type_symbol
 _atom_site_label
 _atom_site_symmetry_multiplicity
 _atom_site_fract_x
 _atom_site_fract_y
 _atom_site_fract_z
 _atom_site_occupancy
 _atom_site_charge
  Al  Al1  1  0.753310  0.707760  0.864100  1.0  1.6884
  Al  Al2  1  0.253310  0.207760  0.364100  1.0  1.6884
  Al  Al3  1  0.746690  0.792240  0.364100  1.0  1.6889
  Al  Al4  1  0.246690  0.292240  0.864100  1.0  1.6889
  Al  Al5  1  0.292240  0.253310  0.114100  1.0  1.6879
  Al  Al6  1  0.792240  0.753310  0.614100  1.0  1.6879
  Al  Al7  1  0.207760  0.246690  0.614100  1.0  1.6873
  Al  Al8  1  0.707760  0.746690  0.114100  1.0  1.6873
  Al  Al9  1  0.246690  0.792240  0.385900  1.0  1.6894
  Al  Al10  1  0.746690  0.292240  0.885900  1.0  1.6894
  Al  Al11  1  0.253310  0.707760  0.885900  1.0  1.6889
  Al  Al12  1  0.753310  0.207760  0.385900  1.0  1.6889
  Al  Al13  1  0.707760  0.246690  0.135900  1.0  1.6881
  Al  Al14  1  0.207760  0.746690  0.635900  1.0  1.6881
  Al  Al15  1  0.792240  0.253310  0.635900  1.0  1.6884
  Al  Al16  1  0.292240  0.753310  0.135900  1.0  1.6884
  C  C17  1  0.791380  0.534550  0.418120  1.0  0.3219
  C  C18  1  0.790910  0.469220  0.422940  1.0  0.3412
  C  C19  1  0.806850  0.500570  0.239450  1.0  0.3752
  C  C20  1  0.786330  0.568010  0.476680  1.0  0.108
  C  C21  1  0.789460  0.600110  0.412110  1.0  0.0677
  C  C22  1  0.784470  0.633120  0.469900  1.0  0.0222
  C  C23  1  0.776350  0.634040  0.592260  1.0  -0.013
  C  C24  1  0.773210  0.601940  0.656840  1.0  0.0201
  C  C25  1  0.778200  0.568930  0.599040  1.0  0.0428
  C  C26  1  0.770890  0.670160  0.655490  1.0  0.6686
  C  C27  1  0.785390  0.436650  0.486390  1.0  0.1275
  C  C28  1  0.783270  0.436950  0.611550  1.0  0.0446
  C  C29  1  0.777810  0.404810  0.674150  1.0  0.0193
  C  C30  1  0.774480  0.372370  0.611610  1.0  -0.0255
  C  C31  1  0.776600  0.372080  0.486450  1.0  0.0102
  C  C32  1  0.782060  0.404210  0.423840  1.0  0.0382
  C  C33  1  0.768520  0.337210  0.680100  1.0  0.6808
  C  C34  1  0.817430  0.499680  0.117440  1.0  0.1197
  C  C35  1  0.826230  0.466910  0.063300  1.0  -0.0159
  C  C36  1  0.836670  0.466030  0.942900  1.0  0.0012
  C  C37  1  0.838310  0.497930  0.876640  1.0  0.017
  C  C38  1  0.829510  0.530710  0.930780  1.0  -0.0711
  C  C39  1  0.819070  0.531580  0.051180  1.0  -0.0066
  C  C40  1  0.849730  0.496970  0.744920  1.0  0.7034
  C  C41  1  0.291380  0.034550  0.918120  1.0  0.3219
  C  C42  1  0.290910  0.969220  0.922940  1.0  0.3412
  C  C43  1  0.306850  0.000570  0.739450  1.0  0.3752
  C  C44  1  0.286330  0.068010  0.976680  1.0  0.108
  C  C45  1  0.289460  0.100110  0.912110  1.0  0.0677
  C  C46  1  0.284470  0.133120  0.969900  1.0  0.0222
  C  C47  1  0.276350  0.134040  0.092260  1.0  -0.013
  C  C48  1  0.273210  0.101940  0.156840  1.0  0.0201
  C  C49  1  0.278200  0.068930  0.099040  1.0  0.0428
  C  C50  1  0.270890  0.170160  0.155490  1.0  0.6686
  C  C51  1  0.285390  0.936650  0.986390  1.0  0.1275
  C  C52  1  0.283270  0.936950  0.111550  1.0  0.0446
  C  C53  1  0.277810  0.904810  0.174150  1.0  0.0193
  C  C54  1  0.274480  0.872370  0.111610  1.0  -0.0255
  C  C55  1  0.276600  0.872080  0.986450  1.0  0.0102
  C  C56  1  0.282060  0.904210  0.923840  1.0  0.0382
  C  C57  1  0.268520  0.837210  0.180100  1.0  0.6808
  C  C58  1  0.317430  0.999680  0.617440  1.0  0.1197
  C  C59  1  0.326230  0.966910  0.563300  1.0  -0.0159
  C  C60  1  0.336670  0.966030  0.442900  1.0  0.0012
  C  C61  1  0.338310  0.997930  0.376640  1.0  0.017
  C  C62  1  0.329510  0.030710  0.430780  1.0  -0.0711
  C  C63  1  0.319070  0.031580  0.551180  1.0  -0.0066
  C  C64  1  0.349730  0.996970  0.244920  1.0  0.7034
  C  C65  1  0.708620  0.965450  0.918120  1.0  0.3217
  C  C66  1  0.709090  0.030780  0.922940  1.0  0.342
  C  C67  1  0.693150  0.999430  0.739450  1.0  0.374
  C  C68  1  0.713670  0.931990  0.976680  1.0  0.1091
  C  C69  1  0.710540  0.899890  0.912110  1.0  0.0674
  C  C70  1  0.715530  0.866880  0.969900  1.0  0.021
  C  C71  1  0.723650  0.865960  0.092260  1.0  -0.0129
  C  C72  1  0.726790  0.898060  0.156840  1.0  0.0195
  C  C73  1  0.721800  0.931070  0.099040  1.0  0.0427
  C  C74  1  0.729110  0.829840  0.155490  1.0  0.6686
  C  C75  1  0.714610  0.063350  0.986390  1.0  0.1284
  C  C76  1  0.716730  0.063050  0.111550  1.0  0.0454
  C  C77  1  0.722190  0.095190  0.174150  1.0  0.0197
  C  C78  1  0.725520  0.127630  0.111610  1.0  -0.0247
  C  C79  1  0.723400  0.127920  0.986450  1.0  0.0104
  C  C80  1  0.717940  0.095790  0.923840  1.0  0.0358
  C  C81  1  0.731480  0.162790  0.180100  1.0  0.6804
  C  C82  1  0.682570  0.000320  0.617440  1.0  0.1207
  C  C83  1  0.673770  0.033090  0.563300  1.0  -0.016
  C  C84  1  0.663330  0.033970  0.442900  1.0  -1e-04
  C  C85  1  0.661690  0.002070  0.376640  1.0  0.0178
  C  C86  1  0.670490  0.969290  0.430780  1.0  -0.0711
  C  C87  1  0.680930  0.968420  0.551180  1.0  -0.0062
  C  C88  1  0.650270  0.003030  0.244920  1.0  0.7042
  C  C89  1  0.208620  0.465450  0.418120  1.0  0.3217
  C  C90  1  0.209090  0.530780  0.422940  1.0  0.342
  C  C91  1  0.193150  0.499430  0.239450  1.0  0.374
  C  C92  1  0.213670  0.431990  0.476680  1.0  0.1091
  C  C93  1  0.210540  0.399890  0.412110  1.0  0.0674
  C  C94  1  0.215530  0.366880  0.469900  1.0  0.021
  C  C95  1  0.223650  0.365960  0.592260  1.0  -0.0129
  C  C96  1  0.226790  0.398060  0.656840  1.0  0.0195
  C  C97  1  0.221800  0.431070  0.599040  1.0  0.0427
  C  C98  1  0.229110  0.329840  0.655490  1.0  0.6686
  C  C99  1  0.214610  0.563350  0.486390  1.0  0.1284
  C  C100  1  0.216730  0.563050  0.611550  1.0  0.0454
  C  C101  1  0.222190  0.595190  0.674150  1.0  0.0197
  C  C102  1  0.225520  0.627630  0.611610  1.0  -0.0247
  C  C103  1  0.223400  0.627920  0.486450  1.0  0.0104
  C  C104  1  0.217940  0.595790  0.423840  1.0  0.0358
  C  C105  1  0.231480  0.662790  0.680100  1.0  0.6804
  C  C106  1  0.182570  0.500320  0.117440  1.0  0.1207
  C  C107  1  0.173770  0.533090  0.063300  1.0  -0.016
  C  C108  1  0.163330  0.533970  0.942900  1.0  -1e-04
  C  C109  1  0.161690  0.502070  0.876640  1.0  0.0178
  C  C110  1  0.170490  0.469290  0.930780  1.0  -0.0711
  C  C111  1  0.180930  0.468420  0.051180  1.0  -0.0062
  C  C112  1  0.150270  0.503030  0.744920  1.0  0.7042
  C  C113  1  0.465450  0.291380  0.668120  1.0  0.3235
  C  C114  1  0.530780  0.290910  0.672940  1.0  0.3429
  C  C115  1  0.499430  0.306850  0.489450  1.0  0.3741
  C  C116  1  0.431990  0.286330  0.726680  1.0  0.1094
  C  C117  1  0.399890  0.289460  0.662110  1.0  0.0666
  C  C118  1  0.366880  0.284470  0.719900  1.0  0.024
  C  C119  1  0.365960  0.276350  0.842260  1.0  -0.0121
  C  C120  1  0.398060  0.273210  0.906840  1.0  0.0202
  C  C121  1  0.431070  0.278200  0.849040  1.0  0.0459
  C  C122  1  0.329840  0.270890  0.905490  1.0  0.6682
  C  C123  1  0.563350  0.285390  0.736390  1.0  0.1262
  C  C124  1  0.563050  0.283270  0.861550  1.0  0.0485
  C  C125  1  0.595190  0.277810  0.924150  1.0  0.0215
  C  C126  1  0.627630  0.274480  0.861610  1.0  -0.0236
  C  C127  1  0.627920  0.276600  0.736450  1.0  0.0115
  C  C128  1  0.595790  0.282060  0.673840  1.0  0.0383
  C  C129  1  0.662790  0.268520  0.930100  1.0  0.6794
  C  C130  1  0.500320  0.317430  0.367440  1.0  0.1203
  C  C131  1  0.533090  0.326230  0.313300  1.0  -0.0121
  C  C132  1  0.533970  0.336670  0.192900  1.0  0.0003
  C  C133  1  0.502070  0.338310  0.126640  1.0  0.0184
  C  C134  1  0.469290  0.329510  0.180780  1.0  -0.0689
  C  C135  1  0.468420  0.319070  0.301180  1.0  -0.0063
  C  C136  1  0.503030  0.349730  0.994920  1.0  0.699
  C  C137  1  0.965450  0.791380  0.168120  1.0  0.3235
  C  C138  1  0.030780  0.790910  0.172940  1.0  0.3429
  C  C139  1  0.999430  0.806850  0.989450  1.0  0.3741
  C  C140  1  0.931990  0.786330  0.226680  1.0  0.1094
  C  C141  1  0.899890  0.789460  0.162110  1.0  0.0666
  C  C142  1  0.866880  0.784470  0.219900  1.0  0.024
  C  C143  1  0.865960  0.776350  0.342260  1.0  -0.0121
  C  C144  1  0.898060  0.773210  0.406840  1.0  0.0202
  C  C145  1  0.931070  0.778200  0.349040  1.0  0.0459
  C  C146  1  0.829840  0.770890  0.405490  1.0  0.6682
  C  C147  1  0.063350  0.785390  0.236390  1.0  0.1262
  C  C148  1  0.063050  0.783270  0.361550  1.0  0.0485
  C  C149  1  0.095190  0.777810  0.424150  1.0  0.0215
  C  C150  1  0.127630  0.774480  0.361610  1.0  -0.0236
  C  C151  1  0.127920  0.776600  0.236450  1.0  0.0115
  C  C152  1  0.095790  0.782060  0.173840  1.0  0.0383
  C  C153  1  0.162790  0.768520  0.430100  1.0  0.6794
  C  C154  1  0.000320  0.817430  0.867440  1.0  0.1203
  C  C155  1  0.033090  0.826230  0.813300  1.0  -0.0121
  C  C156  1  0.033970  0.836670  0.692900  1.0  0.0003
  C  C157  1  0.002070  0.838310  0.626640  1.0  0.0184
  C  C158  1  0.969290  0.829510  0.680780  1.0  -0.0689
  C  C159  1  0.968420  0.819070  0.801180  1.0  -0.0063
  C  C160  1  0.003030  0.849730  0.494920  1.0  0.699
  C  C161  1  0.034550  0.208620  0.168120  1.0  0.3225
  C  C162  1  0.969220  0.209090  0.172940  1.0  0.3434
  C  C163  1  0.000570  0.193150  0.989450  1.0  0.3728
  C  C164  1  0.068010  0.213670  0.226680  1.0  0.1071
  C  C165  1  0.100110  0.210540  0.162110  1.0  0.0682
  C  C166  1  0.133120  0.215530  0.219900  1.0  0.021
  C  C167  1  0.134040  0.223650  0.342260  1.0  -0.012
  C  C168  1  0.101940  0.226790  0.406840  1.0  0.0205
  C  C169  1  0.068930  0.221800  0.349040  1.0  0.045
  C  C170  1  0.170160  0.229110  0.405490  1.0  0.6672
  C  C171  1  0.936650  0.214610  0.236390  1.0  0.1268
  C  C172  1  0.936950  0.216730  0.361550  1.0  0.0478
  C  C173  1  0.904810  0.222190  0.424150  1.0  0.0215
  C  C174  1  0.872370  0.225520  0.361610  1.0  -0.0241
  C  C175  1  0.872080  0.223400  0.236450  1.0  0.0138
  C  C176  1  0.904210  0.217940  0.173840  1.0  0.0364
  C  C177  1  0.837210  0.231480  0.430100  1.0  0.6792
  C  C178  1  0.999680  0.182570  0.867440  1.0  0.12
  C  C179  1  0.966910  0.173770  0.813300  1.0  -0.0158
  C  C180  1  0.966030  0.163330  0.692900  1.0  0.001
  C  C181  1  0.997930  0.161690  0.626640  1.0  0.0181
  C  C182  1  0.030710  0.170490  0.680780  1.0  -0.0724
  C  C183  1  0.031580  0.180930  0.801180  1.0  -0.0054
  C  C184  1  0.996970  0.150270  0.494920  1.0  0.6983
  C  C185  1  0.534550  0.708620  0.668120  1.0  0.3225
  C  C186  1  0.469220  0.709090  0.672940  1.0  0.3434
  C  C187  1  0.500570  0.693150  0.489450  1.0  0.3728
  C  C188  1  0.568010  0.713670  0.726680  1.0  0.1071
  C  C189  1  0.600110  0.710540  0.662110  1.0  0.0682
  C  C190  1  0.633120  0.715530  0.719900  1.0  0.021
  C  C191  1  0.634040  0.723650  0.842260  1.0  -0.012
  C  C192  1  0.601940  0.726790  0.906840  1.0  0.0205
  C  C193  1  0.568930  0.721800  0.849040  1.0  0.045
  C  C194  1  0.670160  0.729110  0.905490  1.0  0.6672
  C  C195  1  0.436650  0.714610  0.736390  1.0  0.1268
  C  C196  1  0.436950  0.716730  0.861550  1.0  0.0478
  C  C197  1  0.404810  0.722190  0.924150  1.0  0.0215
  C  C198  1  0.372370  0.725520  0.861610  1.0  -0.0241
  C  C199  1  0.372080  0.723400  0.736450  1.0  0.0138
  C  C200  1  0.404210  0.717940  0.673840  1.0  0.0364
  C  C201  1  0.337210  0.731480  0.930100  1.0  0.6792
  C  C202  1  0.499680  0.682570  0.367440  1.0  0.12
  C  C203  1  0.466910  0.673770  0.313300  1.0  -0.0158
  C  C204  1  0.466030  0.663330  0.192900  1.0  0.001
  C  C205  1  0.497930  0.661690  0.126640  1.0  0.0181
  C  C206  1  0.530710  0.670490  0.180780  1.0  -0.0724
  C  C207  1  0.531580  0.680930  0.301180  1.0  -0.0054
  C  C208  1  0.496970  0.650270  0.994920  1.0  0.6983
  C  C209  1  0.208620  0.965450  0.831880  1.0  0.3213
  C  C210  1  0.209090  0.030780  0.827060  1.0  0.3417
  C  C211  1  0.193150  0.999430  0.010550  1.0  0.373
  C  C212  1  0.213670  0.931990  0.773320  1.0  0.1086
  C  C213  1  0.210540  0.899890  0.837890  1.0  0.0671
  C  C214  1  0.215530  0.866880  0.780100  1.0  0.0196
  C  C215  1  0.223650  0.865960  0.657740  1.0  -0.0126
  C  C216  1  0.226790  0.898060  0.593160  1.0  0.0224
  C  C217  1  0.221800  0.931070  0.650960  1.0  0.0461
  C  C218  1  0.229110  0.829840  0.594510  1.0  0.6685
  C  C219  1  0.214610  0.063350  0.763610  1.0  0.1281
  C  C220  1  0.216730  0.063050  0.638450  1.0  0.049
  C  C221  1  0.222190  0.095190  0.575850  1.0  0.0196
  C  C222  1  0.225520  0.127630  0.638390  1.0  -0.0245
  C  C223  1  0.223400  0.127920  0.763550  1.0  0.0104
  C  C224  1  0.217940  0.095790  0.826160  1.0  0.0338
  C  C225  1  0.231480  0.162790  0.569900  1.0  0.679
  C  C226  1  0.182570  0.000320  0.132560  1.0  0.1208
  C  C227  1  0.173770  0.033090  0.186700  1.0  -0.0166
  C  C228  1  0.163330  0.033970  0.307100  1.0  -0.0005
  C  C229  1  0.161690  0.002070  0.373360  1.0  0.0176
  C  C230  1  0.170490  0.969290  0.319220  1.0  -0.0718
  C  C231  1  0.180930  0.968420  0.198820  1.0  -0.0064
  C  C232  1  0.150270  0.003030  0.505080  1.0  0.7043
  C  C233  1  0.708620  0.465450  0.331880  1.0  0.3213
  C  C234  1  0.709090  0.530780  0.327060  1.0  0.3417
  C  C235  1  0.693150  0.499430  0.510550  1.0  0.373
  C  C236  1  0.713670  0.431990  0.273320  1.0  0.1086
  C  C237  1  0.710540  0.399890  0.337890  1.0  0.0671
  C  C238  1  0.715530  0.366880  0.280100  1.0  0.0196
  C  C239  1  0.723650  0.365960  0.157740  1.0  -0.0126
  C  C240  1  0.726790  0.398060  0.093160  1.0  0.0224
  C  C241  1  0.721800  0.431070  0.150960  1.0  0.0461
  C  C242  1  0.729110  0.329840  0.094510  1.0  0.6685
  C  C243  1  0.714610  0.563350  0.263610  1.0  0.1281
  C  C244  1  0.716730  0.563050  0.138450  1.0  0.049
  C  C245  1  0.722190  0.595190  0.075850  1.0  0.0196
  C  C246  1  0.725520  0.627630  0.138390  1.0  -0.0245
  C  C247  1  0.723400  0.627920  0.263550  1.0  0.0104
  C  C248  1  0.717940  0.595790  0.326160  1.0  0.0338
  C  C249  1  0.731480  0.662790  0.069900  1.0  0.679
  C  C250  1  0.682570  0.500320  0.632560  1.0  0.1208
  C  C251  1  0.673770  0.533090  0.686700  1.0  -0.0166
  C  C252  1  0.663330  0.533970  0.807100  1.0  -0.0005
  C  C253  1  0.661690  0.502070  0.873360  1.0  0.0176
  C  C254  1  0.670490  0.469290  0.819220  1.0  -0.0718
  C  C255  1  0.680930  0.468420  0.698820  1.0  -0.0064
  C  C256  1  0.650270  0.503030  0.005080  1.0  0.7043
  C  C257  1  0.291380  0.534550  0.331880  1.0  0.3218
  C  C258  1  0.290910  0.469220  0.327060  1.0  0.3408
  C  C259  1  0.306850  0.500570  0.510550  1.0  0.3739
  C  C260  1  0.286330  0.568010  0.273320  1.0  0.1074
  C  C261  1  0.289460  0.600110  0.337890  1.0  0.0682
  C  C262  1  0.284470  0.633120  0.280100  1.0  0.0209
  C  C263  1  0.276350  0.634040  0.157740  1.0  -0.0128
  C  C264  1  0.273210  0.601940  0.093160  1.0  0.0212
  C  C265  1  0.278200  0.568930  0.150960  1.0  0.0436
  C  C266  1  0.270890  0.670160  0.094510  1.0  0.6688
  C  C267  1  0.285390  0.436650  0.263610  1.0  0.127
  C  C268  1  0.283270  0.436950  0.138450  1.0  0.0484
  C  C269  1  0.277810  0.404810  0.075850  1.0  0.0191
  C  C270  1  0.274480  0.372370  0.138390  1.0  -0.0254
  C  C271  1  0.276600  0.372080  0.263550  1.0  0.0106
  C  C272  1  0.282060  0.404210  0.326160  1.0  0.0339
  C  C273  1  0.268520  0.337210  0.069900  1.0  0.6792
  C  C274  1  0.317430  0.499680  0.632560  1.0  0.1197
  C  C275  1  0.326230  0.466910  0.686700  1.0  -0.0158
  C  C276  1  0.336670  0.466030  0.807100  1.0  -1e-04
  C  C277  1  0.338310  0.497930  0.873360  1.0  0.0165
  C  C278  1  0.329510  0.530710  0.819220  1.0  -0.0716
  C  C279  1  0.319070  0.531580  0.698820  1.0  -0.0069
  C  C280  1  0.349730  0.496970  0.005080  1.0  0.7042
  C  C281  1  0.791380  0.034550  0.831880  1.0  0.3218
  C  C282  1  0.790910  0.969220  0.827060  1.0  0.3408
  C  C283  1  0.806850  0.000570  0.010550  1.0  0.3739
  C  C284  1  0.786330  0.068010  0.773320  1.0  0.1074
  C  C285  1  0.789460  0.100110  0.837890  1.0  0.0682
  C  C286  1  0.784470  0.133120  0.780100  1.0  0.0209
  C  C287  1  0.776350  0.134040  0.657740  1.0  -0.0128
  C  C288  1  0.773210  0.101940  0.593160  1.0  0.0212
  C  C289  1  0.778200  0.068930  0.650960  1.0  0.0436
  C  C290  1  0.770890  0.170160  0.594510  1.0  0.6688
  C  C291  1  0.785390  0.936650  0.763610  1.0  0.127
  C  C292  1  0.783270  0.936950  0.638450  1.0  0.0484
  C  C293  1  0.777810  0.904810  0.575850  1.0  0.0191
  C  C294  1  0.774480  0.872370  0.638390  1.0  -0.0254
  C  C295  1  0.776600  0.872080  0.763550  1.0  0.0106
  C  C296  1  0.782060  0.904210  0.826160  1.0  0.0339
  C  C297  1  0.768520  0.837210  0.569900  1.0  0.6792
  C  C298  1  0.817430  0.999680  0.132560  1.0  0.1197
  C  C299  1  0.826230  0.966910  0.186700  1.0  -0.0158
  C  C300  1  0.836670  0.966030  0.307100  1.0  -1e-04
  C  C301  1  0.838310  0.997930  0.373360  1.0  0.0165
  C  C302  1  0.829510  0.030710  0.319220  1.0  -0.0716
  C  C303  1  0.819070  0.031580  0.198820  1.0  -0.0069
  C  C304  1  0.849730  0.996970  0.505080  1.0  0.7042
  C  C305  1  0.534550  0.208620  0.581880  1.0  0.3223
  C  C306  1  0.469220  0.209090  0.577060  1.0  0.3431
  C  C307  1  0.500570  0.193150  0.760550  1.0  0.3725
  C  C308  1  0.568010  0.213670  0.523320  1.0  0.1065
  C  C309  1  0.600110  0.210540  0.587890  1.0  0.0691
  C  C310  1  0.633120  0.215530  0.530100  1.0  0.0206
  C  C311  1  0.634040  0.223650  0.407740  1.0  -0.0117
  C  C312  1  0.601940  0.226790  0.343160  1.0  0.0227
  C  C313  1  0.568930  0.221800  0.400960  1.0  0.0477
  C  C314  1  0.670160  0.229110  0.344510  1.0  0.6672
  C  C315  1  0.436650  0.214610  0.513610  1.0  0.1264
  C  C316  1  0.436950  0.216730  0.388450  1.0  0.0508
  C  C317  1  0.404810  0.222190  0.325850  1.0  0.022
  C  C318  1  0.372370  0.225520  0.388390  1.0  -0.0239
  C  C319  1  0.372080  0.223400  0.513550  1.0  0.0133
  C  C320  1  0.404210  0.217940  0.576160  1.0  0.0333
  C  C321  1  0.337210  0.231480  0.319900  1.0  0.6779
  C  C322  1  0.499680  0.182570  0.882560  1.0  0.1205
  C  C323  1  0.466910  0.173770  0.936700  1.0  -0.0161
  C  C324  1  0.466030  0.163330  0.057100  1.0  -0.0
  C  C325  1  0.497930  0.161690  0.123360  1.0  0.0182
  C  C326  1  0.530710  0.170490  0.069220  1.0  -0.0731
  C  C327  1  0.531580  0.180930  0.948820  1.0  -0.0062
  C  C328  1  0.496970  0.150270  0.255080  1.0  0.6984
  C  C329  1  0.034550  0.708620  0.081880  1.0  0.3223
  C  C330  1  0.969220  0.709090  0.077060  1.0  0.3431
  C  C331  1  0.000570  0.693150  0.260550  1.0  0.3725
  C  C332  1  0.068010  0.713670  0.023320  1.0  0.1065
  C  C333  1  0.100110  0.710540  0.087890  1.0  0.0691
  C  C334  1  0.133120  0.715530  0.030100  1.0  0.0206
  C  C335  1  0.134040  0.723650  0.907740  1.0  -0.0117
  C  C336  1  0.101940  0.726790  0.843160  1.0  0.0227
  C  C337  1  0.068930  0.721800  0.900960  1.0  0.0477
  C  C338  1  0.170160  0.729110  0.844510  1.0  0.6672
  C  C339  1  0.936650  0.714610  0.013610  1.0  0.1264
  C  C340  1  0.936950  0.716730  0.888450  1.0  0.0508
  C  C341  1  0.904810  0.722190  0.825850  1.0  0.022
  C  C342  1  0.872370  0.725520  0.888390  1.0  -0.0239
  C  C343  1  0.872080  0.723400  0.013550  1.0  0.0133
  C  C344  1  0.904210  0.717940  0.076160  1.0  0.0333
  C  C345  1  0.837210  0.731480  0.819900  1.0  0.6779
  C  C346  1  0.999680  0.682570  0.382560  1.0  0.1205
  C  C347  1  0.966910  0.673770  0.436700  1.0  -0.0161
  C  C348  1  0.966030  0.663330  0.557100  1.0  -0.0
  C  C349  1  0.997930  0.661690  0.623360  1.0  0.0182
  C  C350  1  0.030710  0.670490  0.569220  1.0  -0.0731
  C  C351  1  0.031580  0.680930  0.448820  1.0  -0.0062
  C  C352  1  0.996970  0.650270  0.755080  1.0  0.6984
  C  C353  1  0.965450  0.291380  0.081880  1.0  0.3233
  C  C354  1  0.030780  0.290910  0.077060  1.0  0.3427
  C  C355  1  0.999430  0.306850  0.260550  1.0  0.373
  C  C356  1  0.931990  0.286330  0.023320  1.0  0.1088
  C  C357  1  0.899890  0.289460  0.087890  1.0  0.0679
  C  C358  1  0.866880  0.284470  0.030100  1.0  0.0225
  C  C359  1  0.865960  0.276350  0.907740  1.0  -0.0118
  C  C360  1  0.898060  0.273210  0.843160  1.0  0.0219
  C  C361  1  0.931070  0.278200  0.900960  1.0  0.0481
  C  C362  1  0.829840  0.270890  0.844510  1.0  0.668
  C  C363  1  0.063350  0.285390  0.013610  1.0  0.1262
  C  C364  1  0.063050  0.283270  0.888450  1.0  0.0515
  C  C365  1  0.095190  0.277810  0.825850  1.0  0.0211
  C  C366  1  0.127630  0.274480  0.888390  1.0  -0.0232
  C  C367  1  0.127920  0.276600  0.013550  1.0  0.0117
  C  C368  1  0.095790  0.282060  0.076160  1.0  0.0353
  C  C369  1  0.162790  0.268520  0.819900  1.0  0.6779
  C  C370  1  0.000320  0.317430  0.382560  1.0  0.1208
  C  C371  1  0.033090  0.326230  0.436700  1.0  -0.0125
  C  C372  1  0.033970  0.336670  0.557100  1.0  0.0
  C  C373  1  0.002070  0.338310  0.623360  1.0  0.0182
  C  C374  1  0.969290  0.329510  0.569220  1.0  -0.0695
  C  C375  1  0.968420  0.319070  0.448820  1.0  -0.0068
  C  C376  1  0.003030  0.349730  0.755080  1.0  0.699
  C  C377  1  0.465450  0.791380  0.581880  1.0  0.3233
  C  C378  1  0.530780  0.790910  0.577060  1.0  0.3427
  C  C379  1  0.499430  0.806850  0.760550  1.0  0.373
  C  C380  1  0.431990  0.786330  0.523320  1.0  0.1088
  C  C381  1  0.399890  0.789460  0.587890  1.0  0.0679
  C  C382  1  0.366880  0.784470  0.530100  1.0  0.0225
  C  C383  1  0.365960  0.776350  0.407740  1.0  -0.0118
  C  C384  1  0.398060  0.773210  0.343160  1.0  0.0219
  C  C385  1  0.431070  0.778200  0.400960  1.0  0.0481
  C  C386  1  0.329840  0.770890  0.344510  1.0  0.668
  C  C387  1  0.563350  0.785390  0.513610  1.0  0.1262
  C  C388  1  0.563050  0.783270  0.388450  1.0  0.0515
  C  C389  1  0.595190  0.777810  0.325850  1.0  0.0211
  C  C390  1  0.627630  0.774480  0.388390  1.0  -0.0232
  C  C391  1  0.627920  0.776600  0.513550  1.0  0.0117
  C  C392  1  0.595790  0.782060  0.576160  1.0  0.0353
  C  C393  1  0.662790  0.768520  0.319900  1.0  0.6779
  C  C394  1  0.500320  0.817430  0.882560  1.0  0.1208
  C  C395  1  0.533090  0.826230  0.936700  1.0  -0.0125
  C  C396  1  0.533970  0.836670  0.057100  1.0  0.0
  C  C397  1  0.502070  0.838310  0.123360  1.0  0.0182
  C  C398  1  0.469290  0.829510  0.069220  1.0  -0.0695
  C  C399  1  0.468420  0.819070  0.948820  1.0  -0.0068
  C  C400  1  0.503030  0.849730  0.255080  1.0  0.699
  N  N401  1  0.785910  0.502330  0.480890  1.0  -0.4268
  N  N402  1  0.801380  0.468350  0.302220  1.0  -0.406
  N  N403  1  0.801850  0.533670  0.297400  1.0  -0.3109
  N  N404  1  0.285910  0.002330  0.980890  1.0  -0.4268
  N  N405  1  0.301380  0.968350  0.802220  1.0  -0.406
  N  N406  1  0.301850  0.033670  0.797400  1.0  -0.3109
  N  N407  1  0.714090  0.997670  0.980890  1.0  -0.4283
  N  N408  1  0.698620  0.031650  0.802220  1.0  -0.4031
  N  N409  1  0.698150  0.966330  0.797400  1.0  -0.3147
  N  N410  1  0.214090  0.497670  0.480890  1.0  -0.4283
  N  N411  1  0.198620  0.531650  0.302220  1.0  -0.4031
  N  N412  1  0.198150  0.466330  0.297400  1.0  -0.3147
  N  N413  1  0.497670  0.285910  0.730890  1.0  -0.4287
  N  N414  1  0.531650  0.301380  0.552220  1.0  -0.4056
  N  N415  1  0.466330  0.301850  0.547400  1.0  -0.3105
  N  N416  1  0.997670  0.785910  0.230890  1.0  -0.4287
  N  N417  1  0.031650  0.801380  0.052220  1.0  -0.4056
  N  N418  1  0.966330  0.801850  0.047400  1.0  -0.3105
  N  N419  1  0.002330  0.214090  0.230890  1.0  -0.4293
  N  N420  1  0.968350  0.198620  0.052220  1.0  -0.4062
  N  N421  1  0.033670  0.198150  0.047400  1.0  -0.314
  N  N422  1  0.502330  0.714090  0.730890  1.0  -0.4293
  N  N423  1  0.468350  0.698620  0.552220  1.0  -0.4062
  N  N424  1  0.533670  0.698150  0.547400  1.0  -0.314
  N  N425  1  0.214090  0.997670  0.769110  1.0  -0.4316
  N  N426  1  0.198620  0.031650  0.947780  1.0  -0.4031
  N  N427  1  0.198150  0.966330  0.952600  1.0  -0.3135
  N  N428  1  0.714090  0.497670  0.269110  1.0  -0.4316
  N  N429  1  0.698620  0.531650  0.447780  1.0  -0.4031
  N  N430  1  0.698150  0.466330  0.452600  1.0  -0.3135
  N  N431  1  0.285910  0.502330  0.269110  1.0  -0.4307
  N  N432  1  0.301380  0.468350  0.447780  1.0  -0.4043
  N  N433  1  0.301850  0.533670  0.452600  1.0  -0.3122
  N  N434  1  0.785910  0.002330  0.769110  1.0  -0.4307
  N  N435  1  0.801380  0.968350  0.947780  1.0  -0.4043
  N  N436  1  0.801850  0.033670  0.952600  1.0  -0.3122
  N  N437  1  0.502330  0.214090  0.519110  1.0  -0.4322
  N  N438  1  0.468350  0.198620  0.697780  1.0  -0.4066
  N  N439  1  0.533670  0.198150  0.702600  1.0  -0.3139
  N  N440  1  0.002330  0.714090  0.019110  1.0  -0.4322
  N  N441  1  0.968350  0.698620  0.197780  1.0  -0.4066
  N  N442  1  0.033670  0.698150  0.202600  1.0  -0.3139
  N  N443  1  0.997670  0.285910  0.019110  1.0  -0.4325
  N  N444  1  0.031650  0.301380  0.197780  1.0  -0.4051
  N  N445  1  0.966330  0.301850  0.202600  1.0  -0.3116
  N  N446  1  0.497670  0.785910  0.519110  1.0  -0.4325
  N  N447  1  0.531650  0.801380  0.697780  1.0  -0.4051
  N  N448  1  0.466330  0.801850  0.702600  1.0  -0.3116
  O  O449  1  0.745260  0.673750  0.736420  1.0  -0.5888
  O  O450  1  0.791820  0.697720  0.629080  1.0  -0.6408
  O  O451  1  0.783110  0.307070  0.640880  1.0  -0.6604
  O  O452  1  0.748780  0.337030  0.778390  1.0  -0.584
  O  O453  1  0.869950  0.470370  0.704950  1.0  -0.4733
  O  O454  1  0.839370  0.522750  0.671290  1.0  -0.4972
  O  O455  1  0.758720  0.744780  0.739200  1.0  -0.6971
  O  O456  1  0.245260  0.173750  0.236420  1.0  -0.5888
  O  O457  1  0.291820  0.197720  0.129080  1.0  -0.6408
  O  O458  1  0.283110  0.807070  0.140880  1.0  -0.6604
  O  O459  1  0.248780  0.837030  0.278390  1.0  -0.584
  O  O460  1  0.369950  0.970370  0.204950  1.0  -0.4733
  O  O461  1  0.339370  0.022750  0.171290  1.0  -0.4972
  O  O462  1  0.258720  0.244780  0.239200  1.0  -0.6971
  O  O463  1  0.754740  0.826250  0.236420  1.0  -0.589
  O  O464  1  0.708180  0.802280  0.129080  1.0  -0.6413
  O  O465  1  0.716890  0.192930  0.140880  1.0  -0.6586
  O  O466  1  0.751220  0.162970  0.278390  1.0  -0.5839
  O  O467  1  0.630050  0.029630  0.204950  1.0  -0.4746
  O  O468  1  0.660630  0.977250  0.171290  1.0  -0.4978
  O  O469  1  0.741280  0.755220  0.239200  1.0  -0.6972
  O  O470  1  0.254740  0.326250  0.736420  1.0  -0.589
  O  O471  1  0.208180  0.302280  0.629080  1.0  -0.6413
  O  O472  1  0.216890  0.692930  0.640880  1.0  -0.6586
  O  O473  1  0.251220  0.662970  0.778390  1.0  -0.5839
  O  O474  1  0.130050  0.529630  0.704950  1.0  -0.4746
  O  O475  1  0.160630  0.477250  0.671290  1.0  -0.4978
  O  O476  1  0.241280  0.255220  0.739200  1.0  -0.6972
  O  O477  1  0.326250  0.245260  0.986420  1.0  -0.5888
  O  O478  1  0.302280  0.291820  0.879080  1.0  -0.643
  O  O479  1  0.692930  0.283110  0.890880  1.0  -0.6591
  O  O480  1  0.662970  0.248780  0.028390  1.0  -0.5824
  O  O481  1  0.529630  0.369950  0.954950  1.0  -0.4737
  O  O482  1  0.477250  0.339370  0.921290  1.0  -0.4975
  O  O483  1  0.255220  0.258720  0.989200  1.0  -0.6969
  O  O484  1  0.826250  0.745260  0.486420  1.0  -0.5888
  O  O485  1  0.802280  0.791820  0.379080  1.0  -0.643
  O  O486  1  0.192930  0.783110  0.390880  1.0  -0.6591
  O  O487  1  0.162970  0.748780  0.528390  1.0  -0.5824
  O  O488  1  0.029630  0.869950  0.454950  1.0  -0.4737
  O  O489  1  0.977250  0.839370  0.421290  1.0  -0.4975
  O  O490  1  0.755220  0.758720  0.489200  1.0  -0.6969
  O  O491  1  0.173750  0.254740  0.486420  1.0  -0.5881
  O  O492  1  0.197720  0.208180  0.379080  1.0  -0.6427
  O  O493  1  0.807070  0.216890  0.390880  1.0  -0.6599
  O  O494  1  0.837030  0.251220  0.528390  1.0  -0.5844
  O  O495  1  0.970370  0.130050  0.454950  1.0  -0.4727
  O  O496  1  0.022750  0.160630  0.421290  1.0  -0.4952
  O  O497  1  0.244780  0.241280  0.489200  1.0  -0.6966
  O  O498  1  0.673750  0.754740  0.986420  1.0  -0.5881
  O  O499  1  0.697720  0.708180  0.879080  1.0  -0.6427
  O  O500  1  0.307070  0.716890  0.890880  1.0  -0.6599
  O  O501  1  0.337030  0.751220  0.028390  1.0  -0.5844
  O  O502  1  0.470370  0.630050  0.954950  1.0  -0.4727
  O  O503  1  0.522750  0.660630  0.921290  1.0  -0.4952
  O  O504  1  0.744780  0.741280  0.989200  1.0  -0.6966
  O  O505  1  0.254740  0.826250  0.513580  1.0  -0.5897
  O  O506  1  0.208180  0.802280  0.620920  1.0  -0.6417
  O  O507  1  0.216890  0.192930  0.609120  1.0  -0.6595
  O  O508  1  0.251220  0.162970  0.471610  1.0  -0.5842
  O  O509  1  0.130050  0.029630  0.545050  1.0  -0.475
  O  O510  1  0.160630  0.977250  0.578710  1.0  -0.498
  O  O511  1  0.241280  0.755220  0.510800  1.0  -0.6973
  O  O512  1  0.754740  0.326250  0.013580  1.0  -0.5897
  O  O513  1  0.708180  0.302280  0.120920  1.0  -0.6417
  O  O514  1  0.716890  0.692930  0.109120  1.0  -0.6595
  O  O515  1  0.751220  0.662970  0.971610  1.0  -0.5842
  O  O516  1  0.630050  0.529630  0.045050  1.0  -0.475
  O  O517  1  0.660630  0.477250  0.078710  1.0  -0.498
  O  O518  1  0.741280  0.255220  0.010800  1.0  -0.6973
  O  O519  1  0.245260  0.673750  0.013580  1.0  -0.5886
  O  O520  1  0.291820  0.697720  0.120920  1.0  -0.6412
  O  O521  1  0.283110  0.307070  0.109120  1.0  -0.6615
  O  O522  1  0.248780  0.337030  0.971610  1.0  -0.5837
  O  O523  1  0.369950  0.470370  0.045050  1.0  -0.4753
  O  O524  1  0.339370  0.522750  0.078710  1.0  -0.4977
  O  O525  1  0.258720  0.744780  0.010800  1.0  -0.6973
  O  O526  1  0.745260  0.173750  0.513580  1.0  -0.5886
  O  O527  1  0.791820  0.197720  0.620920  1.0  -0.6412
  O  O528  1  0.783110  0.807070  0.609120  1.0  -0.6615
  O  O529  1  0.748780  0.837030  0.471610  1.0  -0.5837
  O  O530  1  0.869950  0.970370  0.545050  1.0  -0.4753
  O  O531  1  0.839370  0.022750  0.578710  1.0  -0.4977
  O  O532  1  0.758720  0.244780  0.510800  1.0  -0.6973
  O  O533  1  0.673750  0.254740  0.263580  1.0  -0.5887
  O  O534  1  0.697720  0.208180  0.370920  1.0  -0.6434
  O  O535  1  0.307070  0.216890  0.359120  1.0  -0.6608
  O  O536  1  0.337030  0.251220  0.221610  1.0  -0.5842
  O  O537  1  0.470370  0.130050  0.295050  1.0  -0.4735
  O  O538  1  0.522750  0.160630  0.328710  1.0  -0.4955
  O  O539  1  0.744780  0.241280  0.260800  1.0  -0.6968
  O  O540  1  0.173750  0.754740  0.763580  1.0  -0.5887
  O  O541  1  0.197720  0.708180  0.870920  1.0  -0.6434
  O  O542  1  0.807070  0.716890  0.859120  1.0  -0.6608
  O  O543  1  0.837030  0.751220  0.721610  1.0  -0.5842
  O  O544  1  0.970370  0.630050  0.795050  1.0  -0.4735
  O  O545  1  0.022750  0.660630  0.828710  1.0  -0.4955
  O  O546  1  0.244780  0.741280  0.760800  1.0  -0.6968
  O  O547  1  0.826250  0.245260  0.763580  1.0  -0.5889
  O  O548  1  0.802280  0.291820  0.870920  1.0  -0.6432
  O  O549  1  0.192930  0.283110  0.859120  1.0  -0.6602
  O  O550  1  0.162970  0.248780  0.721610  1.0  -0.5828
  O  O551  1  0.029630  0.369950  0.795050  1.0  -0.4751
  O  O552  1  0.977250  0.339370  0.828710  1.0  -0.498
  O  O553  1  0.755220  0.258720  0.760800  1.0  -0.697
  O  O554  1  0.326250  0.745260  0.263580  1.0  -0.5889
  O  O555  1  0.302280  0.791820  0.370920  1.0  -0.6432
  O  O556  1  0.692930  0.783110  0.359120  1.0  -0.6602
  O  O557  1  0.662970  0.748780  0.221610  1.0  -0.5828
  O  O558  1  0.529630  0.869950  0.295050  1.0  -0.4751
  O  O559  1  0.477250  0.839370  0.328710  1.0  -0.498
  O  O560  1  0.255220  0.758720  0.260800  1.0  -0.697
