# generated using pymatgen
data_CdH16(C13N3)2
_symmetry_space_group_name_H-M   'P 1'
_cell_length_a   17.57100000
_cell_length_b   17.57100000
_cell_length_c   23.40400000
_cell_angle_alpha   90.00000000
_cell_angle_beta   90.00000000
_cell_angle_gamma   90.00000000
_symmetry_Int_Tables_number   1
_chemical_formula_structural   CdH16(C13N3)2
_chemical_formula_sum   'Cd8 H128 C208 N48'
_cell_volume   7225.75191956
_cell_formula_units_Z   8
loop_
 _symmetry_equiv_pos_site_id
 _symmetry_equiv_pos_as_xyz
  1  'x, y, z'
loop_
 _atom_site_type_symbol
 _atom_site_label
 _atom_site_symmetry_multiplicity
 _atom_site_fract_x
 _atom_site_fract_y
 _atom_site_fract_z
 _atom_site_occupancy
 _atom_site_charge
  Cd  Cd1  1  0.750000  0.750000  0.436270  1.0  0.7734
  Cd  Cd2  1  0.250000  0.250000  0.063730  1.0  0.7727
  Cd  Cd3  1  0.250000  0.250000  0.563730  1.0  0.7727
  Cd  Cd4  1  0.750000  0.750000  0.936270  1.0  0.7734
  Cd  Cd5  1  0.250000  0.750000  0.500000  1.0  0.8452
  Cd  Cd6  1  0.750000  0.250000  0.500000  1.0  0.8452
  Cd  Cd7  1  0.750000  0.250000  0.000000  1.0  0.8452
  Cd  Cd8  1  0.250000  0.750000  0.000000  1.0  0.8452
  H  H9  1  0.607500  0.556800  0.460900  1.0  0.0832
  H  H10  1  0.392200  0.572200  0.520000  1.0  0.0774
  H  H11  1  0.657000  0.804100  0.545000  1.0  0.0637
  H  H12  1  0.650900  0.806500  0.643300  1.0  0.1159
  H  H13  1  0.800800  0.650200  0.731500  1.0  0.0889
  H  H14  1  0.800800  0.654300  0.828200  1.0  0.0493
  H  H15  1  0.193400  0.844700  0.393100  1.0  0.0611
  H  H16  1  0.190300  0.848400  0.294100  1.0  0.0996
  H  H17  1  0.892500  0.943200  0.460900  1.0  0.0841
  H  H18  1  0.107800  0.927800  0.520000  1.0  0.0768
  H  H19  1  0.843000  0.695900  0.545000  1.0  0.0629
  H  H20  1  0.849100  0.693500  0.643300  1.0  0.1206
  H  H21  1  0.699200  0.849800  0.731500  1.0  0.0917
  H  H22  1  0.699200  0.845700  0.828200  1.0  0.0527
  H  H23  1  0.306600  0.655300  0.393100  1.0  0.0607
  H  H24  1  0.309700  0.651600  0.294100  1.0  0.0994
  H  H25  1  0.943200  0.607500  0.460900  1.0  0.0831
  H  H26  1  0.927800  0.392200  0.520000  1.0  0.0771
  H  H27  1  0.695900  0.657000  0.545000  1.0  0.057
  H  H28  1  0.693500  0.650900  0.643300  1.0  0.1119
  H  H29  1  0.849800  0.800800  0.731500  1.0  0.0923
  H  H30  1  0.845700  0.800800  0.828200  1.0  0.0573
  H  H31  1  0.655300  0.193400  0.393100  1.0  0.0598
  H  H32  1  0.651600  0.190300  0.294100  1.0  0.0985
  H  H33  1  0.556800  0.892500  0.460900  1.0  0.0828
  H  H34  1  0.572200  0.107800  0.520000  1.0  0.0771
  H  H35  1  0.804100  0.843000  0.545000  1.0  0.0576
  H  H36  1  0.806500  0.849100  0.643300  1.0  0.1146
  H  H37  1  0.650200  0.699200  0.731500  1.0  0.0939
  H  H38  1  0.654300  0.699200  0.828200  1.0  0.0563
  H  H39  1  0.844700  0.306600  0.393100  1.0  0.0598
  H  H40  1  0.848400  0.309700  0.294100  1.0  0.0991
  H  H41  1  0.392500  0.056800  0.039100  1.0  0.0841
  H  H42  1  0.607800  0.072200  0.980000  1.0  0.0769
  H  H43  1  0.343000  0.304100  0.955000  1.0  0.0631
  H  H44  1  0.349100  0.306500  0.856700  1.0  0.1209
  H  H45  1  0.199200  0.150200  0.768500  1.0  0.09
  H  H46  1  0.199200  0.154300  0.671800  1.0  0.048
  H  H47  1  0.806600  0.344700  0.106900  1.0  0.0614
  H  H48  1  0.809700  0.348400  0.205900  1.0  0.0995
  H  H49  1  0.107500  0.443200  0.039100  1.0  0.083
  H  H50  1  0.892200  0.427800  0.980000  1.0  0.077
  H  H51  1  0.157000  0.195900  0.955000  1.0  0.0637
  H  H52  1  0.150900  0.193500  0.856700  1.0  0.1164
  H  H53  1  0.300800  0.349800  0.768500  1.0  0.0907
  H  H54  1  0.300800  0.345700  0.671800  1.0  0.0529
  H  H55  1  0.693400  0.155300  0.106900  1.0  0.0606
  H  H56  1  0.690300  0.151600  0.205900  1.0  0.0995
  H  H57  1  0.056800  0.107500  0.039100  1.0  0.0825
  H  H58  1  0.072200  0.892200  0.980000  1.0  0.0772
  H  H59  1  0.304100  0.157000  0.955000  1.0  0.0567
  H  H60  1  0.306500  0.150900  0.856700  1.0  0.1118
  H  H61  1  0.150200  0.300800  0.768500  1.0  0.0923
  H  H62  1  0.154300  0.300800  0.671800  1.0  0.0548
  H  H63  1  0.344700  0.693400  0.106900  1.0  0.0602
  H  H64  1  0.348400  0.690300  0.205900  1.0  0.0991
  H  H65  1  0.443200  0.392500  0.039100  1.0  0.0829
  H  H66  1  0.427800  0.607800  0.980000  1.0  0.0771
  H  H67  1  0.195900  0.343000  0.955000  1.0  0.0575
  H  H68  1  0.193500  0.349100  0.856700  1.0  0.1148
  H  H69  1  0.349800  0.199200  0.768500  1.0  0.0932
  H  H70  1  0.345700  0.199200  0.671800  1.0  0.0569
  H  H71  1  0.155300  0.806600  0.106900  1.0  0.0602
  H  H72  1  0.151600  0.809700  0.205900  1.0  0.0986
  H  H73  1  0.392500  0.443200  0.539100  1.0  0.0838
  H  H74  1  0.607800  0.427800  0.480000  1.0  0.0767
  H  H75  1  0.343000  0.195900  0.455000  1.0  0.0628
  H  H76  1  0.349100  0.193500  0.356700  1.0  0.1217
  H  H77  1  0.199200  0.349800  0.268500  1.0  0.091
  H  H78  1  0.199200  0.345700  0.171800  1.0  0.0531
  H  H79  1  0.806600  0.155300  0.606900  1.0  0.0609
  H  H80  1  0.809700  0.151600  0.705900  1.0  0.0997
  H  H81  1  0.107500  0.056800  0.539100  1.0  0.0833
  H  H82  1  0.892200  0.072200  0.480000  1.0  0.0773
  H  H83  1  0.157000  0.304100  0.455000  1.0  0.0627
  H  H84  1  0.150900  0.306500  0.356700  1.0  0.1163
  H  H85  1  0.300800  0.150200  0.268500  1.0  0.0895
  H  H86  1  0.300800  0.154300  0.171800  1.0  0.0485
  H  H87  1  0.693400  0.344700  0.606900  1.0  0.0614
  H  H88  1  0.690300  0.348400  0.705900  1.0  0.0995
  H  H89  1  0.056800  0.392500  0.539100  1.0  0.0827
  H  H90  1  0.072200  0.607800  0.480000  1.0  0.0771
  H  H91  1  0.304100  0.343000  0.455000  1.0  0.0566
  H  H92  1  0.306500  0.349100  0.356700  1.0  0.1155
  H  H93  1  0.150200  0.199200  0.268500  1.0  0.094
  H  H94  1  0.154300  0.199200  0.171800  1.0  0.0563
  H  H95  1  0.344700  0.806600  0.606900  1.0  0.0603
  H  H96  1  0.348400  0.809700  0.705900  1.0  0.0988
  H  H97  1  0.443200  0.107500  0.539100  1.0  0.0827
  H  H98  1  0.427800  0.892200  0.480000  1.0  0.0768
  H  H99  1  0.195900  0.157000  0.455000  1.0  0.0571
  H  H100  1  0.193500  0.150900  0.356700  1.0  0.1116
  H  H101  1  0.349800  0.300800  0.268500  1.0  0.0924
  H  H102  1  0.345700  0.300800  0.171800  1.0  0.0576
  H  H103  1  0.155300  0.693400  0.606900  1.0  0.0599
  H  H104  1  0.151600  0.690300  0.705900  1.0  0.099
  H  H105  1  0.607500  0.943200  0.960900  1.0  0.0832
  H  H106  1  0.392200  0.927800  0.020000  1.0  0.0771
  H  H107  1  0.657000  0.695900  0.045000  1.0  0.0641
  H  H108  1  0.650900  0.693500  0.143300  1.0  0.1165
  H  H109  1  0.800800  0.849800  0.231500  1.0  0.0912
  H  H110  1  0.800800  0.845700  0.328200  1.0  0.052
  H  H111  1  0.193400  0.655300  0.893100  1.0  0.0603
  H  H112  1  0.190300  0.651600  0.794100  1.0  0.0992
  H  H113  1  0.892500  0.556800  0.960900  1.0  0.0841
  H  H114  1  0.107800  0.572200  0.020000  1.0  0.0769
  H  H115  1  0.843000  0.804100  0.045000  1.0  0.064
  H  H116  1  0.849100  0.806500  0.143300  1.0  0.1199
  H  H117  1  0.699200  0.650200  0.231500  1.0  0.0898
  H  H118  1  0.699200  0.654300  0.328200  1.0  0.0492
  H  H119  1  0.306600  0.844700  0.893100  1.0  0.0612
  H  H120  1  0.309700  0.848400  0.794100  1.0  0.0996
  H  H121  1  0.943200  0.892500  0.960900  1.0  0.083
  H  H122  1  0.927800  0.107800  0.020000  1.0  0.0771
  H  H123  1  0.695900  0.843000  0.045000  1.0  0.0585
  H  H124  1  0.693500  0.849100  0.143300  1.0  0.1141
  H  H125  1  0.849800  0.699200  0.231500  1.0  0.0929
  H  H126  1  0.845700  0.699200  0.328200  1.0  0.0568
  H  H127  1  0.655300  0.306600  0.893100  1.0  0.0598
  H  H128  1  0.651600  0.309700  0.794100  1.0  0.0987
  H  H129  1  0.556800  0.607500  0.960900  1.0  0.0829
  H  H130  1  0.572200  0.392200  0.020000  1.0  0.0772
  H  H131  1  0.804100  0.657000  0.045000  1.0  0.0563
  H  H132  1  0.806500  0.650900  0.143300  1.0  0.1119
  H  H133  1  0.650200  0.800800  0.231500  1.0  0.0926
  H  H134  1  0.654300  0.800800  0.328200  1.0  0.0548
  H  H135  1  0.844700  0.193400  0.893100  1.0  0.06
  H  H136  1  0.848400  0.190300  0.794100  1.0  0.0988
  C  C137  1  0.565000  0.697500  0.456100  1.0  0.4138
  C  C138  1  0.500800  0.661700  0.478400  1.0  -0.344
  C  C139  1  0.437100  0.705500  0.490400  1.0  0.4166
  C  C140  1  0.500600  0.579400  0.489300  1.0  0.0196
  C  C141  1  0.563500  0.534000  0.477200  1.0  -0.0804
  C  C142  1  0.436600  0.543100  0.512100  1.0  -0.0869
  C  C143  1  0.697000  0.780700  0.565800  1.0  0.0025
  C  C144  1  0.692600  0.782900  0.624500  1.0  -0.1165
  C  C145  1  0.779400  0.693000  0.750400  1.0  -0.0495
  C  C146  1  0.778700  0.696000  0.808300  1.0  0.0143
  C  C147  1  0.217200  0.805000  0.372200  1.0  0.1399
  C  C148  1  0.215100  0.807500  0.313000  1.0  -0.2216
  C  C149  1  0.935000  0.802500  0.456100  1.0  0.4143
  C  C150  1  0.999200  0.838300  0.478400  1.0  -0.3437
  C  C151  1  0.062900  0.794500  0.490400  1.0  0.4178
  C  C152  1  0.999400  0.920600  0.489300  1.0  0.0175
  C  C153  1  0.936500  0.966000  0.477200  1.0  -0.0807
  C  C154  1  0.063400  0.956900  0.512100  1.0  -0.0875
  C  C155  1  0.803000  0.719300  0.565800  1.0  0.0024
  C  C156  1  0.807400  0.717100  0.624500  1.0  -0.1156
  C  C157  1  0.720600  0.807000  0.750400  1.0  -0.0508
  C  C158  1  0.721300  0.804000  0.808300  1.0  0.0127
  C  C159  1  0.282800  0.695000  0.372200  1.0  0.1417
  C  C160  1  0.284900  0.692500  0.313000  1.0  -0.2185
  C  C161  1  0.802500  0.565000  0.456100  1.0  0.4136
  C  C162  1  0.838300  0.500800  0.478400  1.0  -0.3435
  C  C163  1  0.794500  0.437100  0.490400  1.0  0.4196
  C  C164  1  0.920600  0.500600  0.489300  1.0  0.0185
  C  C165  1  0.966000  0.563500  0.477200  1.0  -0.0803
  C  C166  1  0.956900  0.436600  0.512100  1.0  -0.0864
  C  C167  1  0.719300  0.697000  0.565800  1.0  -1e-04
  C  C168  1  0.717100  0.692600  0.624500  1.0  -0.1151
  C  C169  1  0.807000  0.779400  0.750400  1.0  -0.0466
  C  C170  1  0.804000  0.778700  0.808300  1.0  0.0156
  C  C171  1  0.695000  0.217200  0.372200  1.0  0.1433
  C  C172  1  0.692500  0.215100  0.313000  1.0  -0.2176
  C  C173  1  0.697500  0.935000  0.456100  1.0  0.4172
  C  C174  1  0.661700  0.999200  0.478400  1.0  -0.345
  C  C175  1  0.705500  0.062900  0.490400  1.0  0.4199
  C  C176  1  0.579400  0.999400  0.489300  1.0  0.0184
  C  C177  1  0.534000  0.936500  0.477200  1.0  -0.0789
  C  C178  1  0.543100  0.063400  0.512100  1.0  -0.0885
  C  C179  1  0.780700  0.803000  0.565800  1.0  -0.0018
  C  C180  1  0.782900  0.807400  0.624500  1.0  -0.116
  C  C181  1  0.693000  0.720600  0.750400  1.0  -0.0498
  C  C182  1  0.696000  0.721300  0.808300  1.0  0.0132
  C  C183  1  0.805000  0.282800  0.372200  1.0  0.1418
  C  C184  1  0.807500  0.284900  0.313000  1.0  -0.217
  C  C185  1  0.435000  0.197500  0.043900  1.0  0.4153
  C  C186  1  0.499200  0.161700  0.021600  1.0  -0.3434
  C  C187  1  0.562900  0.205500  0.009600  1.0  0.4162
  C  C188  1  0.499400  0.079400  0.010700  1.0  0.0192
  C  C189  1  0.436500  0.034000  0.022800  1.0  -0.0814
  C  C190  1  0.563400  0.043100  0.987900  1.0  -0.086
  C  C191  1  0.303000  0.280700  0.934200  1.0  0.0041
  C  C192  1  0.307400  0.282900  0.875500  1.0  -0.117
  C  C193  1  0.220600  0.193000  0.749600  1.0  -0.0476
  C  C194  1  0.221300  0.196000  0.691700  1.0  0.0113
  C  C195  1  0.782800  0.305000  0.127800  1.0  0.1407
  C  C196  1  0.784900  0.307500  0.187000  1.0  -0.2211
  C  C197  1  0.065000  0.302500  0.043900  1.0  0.4145
  C  C198  1  0.000800  0.338300  0.021600  1.0  -0.3429
  C  C199  1  0.937100  0.294500  0.009600  1.0  0.4182
  C  C200  1  0.000600  0.420600  0.010700  1.0  0.016
  C  C201  1  0.063500  0.466000  0.022800  1.0  -0.0812
  C  C202  1  0.936600  0.456900  0.987900  1.0  -0.0864
  C  C203  1  0.197000  0.219300  0.934200  1.0  0.0024
  C  C204  1  0.192600  0.217100  0.875500  1.0  -0.1181
  C  C205  1  0.279400  0.307000  0.749600  1.0  -0.0479
  C  C206  1  0.278700  0.304000  0.691700  1.0  0.011
  C  C207  1  0.717200  0.195000  0.127800  1.0  0.1412
  C  C208  1  0.715100  0.192500  0.187000  1.0  -0.2193
  C  C209  1  0.197500  0.065000  0.043900  1.0  0.4183
  C  C210  1  0.161700  0.000800  0.021600  1.0  -0.3445
  C  C211  1  0.205500  0.937100  0.009600  1.0  0.4196
  C  C212  1  0.079400  0.000600  0.010700  1.0  0.0184
  C  C213  1  0.034000  0.063500  0.022800  1.0  -0.0805
  C  C214  1  0.043100  0.936600  0.987900  1.0  -0.087
  C  C215  1  0.280700  0.197000  0.934200  1.0  0.0014
  C  C216  1  0.282900  0.192600  0.875500  1.0  -0.1173
  C  C217  1  0.193000  0.279400  0.749600  1.0  -0.0466
  C  C218  1  0.196000  0.278700  0.691700  1.0  0.0136
  C  C219  1  0.305000  0.717200  0.127800  1.0  0.1419
  C  C220  1  0.307500  0.715100  0.187000  1.0  -0.2165
  C  C221  1  0.302500  0.435000  0.043900  1.0  0.4155
  C  C222  1  0.338300  0.499200  0.021600  1.0  -0.3437
  C  C223  1  0.294500  0.562900  0.009600  1.0  0.4197
  C  C224  1  0.420600  0.499400  0.010700  1.0  0.0177
  C  C225  1  0.466000  0.436500  0.022800  1.0  -0.0798
  C  C226  1  0.456900  0.563400  0.987900  1.0  -0.0868
  C  C227  1  0.219300  0.303000  0.934200  1.0  0.0007
  C  C228  1  0.217100  0.307400  0.875500  1.0  -0.1187
  C  C229  1  0.307000  0.220600  0.749600  1.0  -0.0473
  C  C230  1  0.304000  0.221300  0.691700  1.0  0.0125
  C  C231  1  0.195000  0.782800  0.127800  1.0  0.1426
  C  C232  1  0.192500  0.784900  0.187000  1.0  -0.2185
  C  C233  1  0.435000  0.302500  0.543900  1.0  0.4155
  C  C234  1  0.499200  0.338300  0.521600  1.0  -0.3433
  C  C235  1  0.562900  0.294500  0.509600  1.0  0.4178
  C  C236  1  0.499400  0.420600  0.510700  1.0  0.0171
  C  C237  1  0.436500  0.466000  0.522800  1.0  -0.0811
  C  C238  1  0.563400  0.456900  0.487900  1.0  -0.0868
  C  C239  1  0.303000  0.219300  0.434200  1.0  0.0034
  C  C240  1  0.307400  0.217100  0.375500  1.0  -0.1167
  C  C241  1  0.220600  0.307000  0.249600  1.0  -0.0491
  C  C242  1  0.221300  0.304000  0.191700  1.0  0.0119
  C  C243  1  0.782800  0.195000  0.627800  1.0  0.1406
  C  C244  1  0.784900  0.192500  0.687000  1.0  -0.2198
  C  C245  1  0.065000  0.197500  0.543900  1.0  0.4145
  C  C246  1  0.000800  0.161700  0.521600  1.0  -0.3437
  C  C247  1  0.937100  0.205500  0.509600  1.0  0.4164
  C  C248  1  0.000600  0.079400  0.510700  1.0  0.0189
  C  C249  1  0.063500  0.034000  0.522800  1.0  -0.0807
  C  C250  1  0.936600  0.043100  0.487900  1.0  -0.086
  C  C251  1  0.197000  0.280700  0.434200  1.0  0.0039
  C  C252  1  0.192600  0.282900  0.375500  1.0  -0.1189
  C  C253  1  0.279400  0.193000  0.249600  1.0  -0.0481
  C  C254  1  0.278700  0.196000  0.191700  1.0  0.0122
  C  C255  1  0.717200  0.305000  0.627800  1.0  0.141
  C  C256  1  0.715100  0.307500  0.687000  1.0  -0.2211
  C  C257  1  0.197500  0.435000  0.543900  1.0  0.4185
  C  C258  1  0.161700  0.499200  0.521600  1.0  -0.3448
  C  C259  1  0.205500  0.562900  0.509600  1.0  0.4198
  C  C260  1  0.079400  0.499400  0.510700  1.0  0.0181
  C  C261  1  0.034000  0.436500  0.522800  1.0  -0.0795
  C  C262  1  0.043100  0.563400  0.487900  1.0  -0.087
  C  C263  1  0.280700  0.303000  0.434200  1.0  -0.0
  C  C264  1  0.282900  0.307400  0.375500  1.0  -0.1183
  C  C265  1  0.193000  0.220600  0.249600  1.0  -0.0483
  C  C266  1  0.196000  0.221300  0.191700  1.0  0.0104
  C  C267  1  0.305000  0.782800  0.627800  1.0  0.142
  C  C268  1  0.307500  0.784900  0.687000  1.0  -0.2176
  C  C269  1  0.302500  0.065000  0.543900  1.0  0.415
  C  C270  1  0.338300  0.000800  0.521600  1.0  -0.3435
  C  C271  1  0.294500  0.937100  0.509600  1.0  0.4195
  C  C272  1  0.420600  0.000600  0.510700  1.0  0.0182
  C  C273  1  0.466000  0.063500  0.522800  1.0  -0.0802
  C  C274  1  0.456900  0.936600  0.487900  1.0  -0.0861
  C  C275  1  0.219300  0.197000  0.434200  1.0  0.0016
  C  C276  1  0.217100  0.192600  0.375500  1.0  -0.117
  C  C277  1  0.307000  0.279400  0.249600  1.0  -0.0455
  C  C278  1  0.304000  0.278700  0.191700  1.0  0.0131
  C  C279  1  0.195000  0.717200  0.627800  1.0  0.1426
  C  C280  1  0.192500  0.715100  0.687000  1.0  -0.2176
  C  C281  1  0.565000  0.802500  0.956100  1.0  0.414
  C  C282  1  0.500800  0.838300  0.978400  1.0  -0.3433
  C  C283  1  0.437100  0.794500  0.990400  1.0  0.4181
  C  C284  1  0.500600  0.920600  0.989300  1.0  0.0167
  C  C285  1  0.563500  0.966000  0.977200  1.0  -0.0804
  C  C286  1  0.436600  0.956900  0.012100  1.0  -0.0875
  C  C287  1  0.697000  0.719300  0.065800  1.0  -0.0004
  C  C288  1  0.692600  0.717100  0.124500  1.0  -0.1162
  C  C289  1  0.779400  0.807000  0.250400  1.0  -0.0493
  C  C290  1  0.778700  0.804000  0.308300  1.0  0.0135
  C  C291  1  0.217200  0.695000  0.872200  1.0  0.1421
  C  C292  1  0.215100  0.692500  0.813000  1.0  -0.219
  C  C293  1  0.935000  0.697500  0.956100  1.0  0.4142
  C  C294  1  0.999200  0.661700  0.978400  1.0  -0.3439
  C  C295  1  0.062900  0.705500  0.990400  1.0  0.4164
  C  C296  1  0.999400  0.579400  0.989300  1.0  0.0197
  C  C297  1  0.936500  0.534000  0.977200  1.0  -0.0804
  C  C298  1  0.063400  0.543100  0.012100  1.0  -0.087
  C  C299  1  0.803000  0.780700  0.065800  1.0  0.0022
  C  C300  1  0.807400  0.782900  0.124500  1.0  -0.115
  C  C301  1  0.720600  0.693000  0.250400  1.0  -0.0496
  C  C302  1  0.721300  0.696000  0.308300  1.0  0.0133
  C  C303  1  0.282800  0.805000  0.872200  1.0  0.1399
  C  C304  1  0.284900  0.807500  0.813000  1.0  -0.2206
  C  C305  1  0.802500  0.935000  0.956100  1.0  0.4145
  C  C306  1  0.838300  0.999200  0.978400  1.0  -0.3438
  C  C307  1  0.794500  0.062900  0.990400  1.0  0.4198
  C  C308  1  0.920600  0.999400  0.989300  1.0  0.018
  C  C309  1  0.966000  0.936500  0.977200  1.0  -0.079
  C  C310  1  0.956900  0.063400  0.012100  1.0  -0.0886
  C  C311  1  0.719300  0.803000  0.065800  1.0  -0.0002
  C  C312  1  0.717100  0.807400  0.124500  1.0  -0.1162
  C  C313  1  0.807000  0.720600  0.250400  1.0  -0.0479
  C  C314  1  0.804000  0.721300  0.308300  1.0  0.0142
  C  C315  1  0.695000  0.282800  0.872200  1.0  0.1424
  C  C316  1  0.692500  0.284900  0.813000  1.0  -0.2182
  C  C317  1  0.697500  0.565000  0.956100  1.0  0.4168
  C  C318  1  0.661700  0.500800  0.978400  1.0  -0.3446
  C  C319  1  0.705500  0.437100  0.990400  1.0  0.4196
  C  C320  1  0.579400  0.500600  0.989300  1.0  0.0188
  C  C321  1  0.534000  0.563500  0.977200  1.0  -0.08
  C  C322  1  0.543100  0.436600  0.012100  1.0  -0.0875
  C  C323  1  0.780700  0.697000  0.065800  1.0  0.0005
  C  C324  1  0.782900  0.692600  0.124500  1.0  -0.1158
  C  C325  1  0.693000  0.779400  0.250400  1.0  -0.0485
  C  C326  1  0.696000  0.778700  0.308300  1.0  0.0152
  C  C327  1  0.805000  0.217200  0.872200  1.0  0.1424
  C  C328  1  0.807500  0.215100  0.813000  1.0  -0.2161
  C  C329  1  0.750000  0.750000  0.655300  1.0  0.1919
  C  C330  1  0.750000  0.750000  0.719900  1.0  0.1551
  C  C331  1  0.250000  0.250000  0.844700  1.0  0.1881
  C  C332  1  0.250000  0.250000  0.780100  1.0  0.1585
  C  C333  1  0.250000  0.250000  0.344700  1.0  0.1881
  C  C334  1  0.250000  0.250000  0.280100  1.0  0.1585
  C  C335  1  0.750000  0.750000  0.155300  1.0  0.1919
  C  C336  1  0.750000  0.750000  0.219900  1.0  0.1551
  C  C337  1  0.250000  0.750000  0.281400  1.0  0.0572
  C  C338  1  0.750000  0.250000  0.281400  1.0  0.0572
  C  C339  1  0.750000  0.250000  0.218600  1.0  0.0567
  C  C340  1  0.250000  0.750000  0.218600  1.0  0.0567
  C  C341  1  0.750000  0.250000  0.718600  1.0  0.0567
  C  C342  1  0.250000  0.750000  0.718600  1.0  0.0567
  C  C343  1  0.250000  0.750000  0.781400  1.0  0.0572
  C  C344  1  0.750000  0.250000  0.781400  1.0  0.0572
  N  N345  1  0.620100  0.724400  0.437600  1.0  -0.5319
  N  N346  1  0.381700  0.738700  0.501740  1.0  -0.5274
  N  N347  1  0.879900  0.775600  0.437600  1.0  -0.5308
  N  N348  1  0.118300  0.761300  0.501740  1.0  -0.5254
  N  N349  1  0.775600  0.620100  0.437600  1.0  -0.5357
  N  N350  1  0.761300  0.381700  0.501740  1.0  -0.5254
  N  N351  1  0.724400  0.879900  0.437600  1.0  -0.537
  N  N352  1  0.738700  0.118300  0.501740  1.0  -0.5252
  N  N353  1  0.379900  0.224400  0.062400  1.0  -0.5303
  N  N354  1  0.618300  0.238700  0.998260  1.0  -0.526
  N  N355  1  0.120100  0.275600  0.062400  1.0  -0.5298
  N  N356  1  0.881700  0.261300  0.998260  1.0  -0.5266
  N  N357  1  0.224400  0.120100  0.062400  1.0  -0.5337
  N  N358  1  0.238700  0.881700  0.998260  1.0  -0.5238
  N  N359  1  0.275600  0.379900  0.062400  1.0  -0.536
  N  N360  1  0.261300  0.618300  0.998260  1.0  -0.5255
  N  N361  1  0.379900  0.275600  0.562400  1.0  -0.5309
  N  N362  1  0.618300  0.261300  0.498260  1.0  -0.525
  N  N363  1  0.120100  0.224400  0.562400  1.0  -0.5299
  N  N364  1  0.881700  0.238700  0.498260  1.0  -0.5269
  N  N365  1  0.224400  0.379900  0.562400  1.0  -0.5357
  N  N366  1  0.238700  0.618300  0.498260  1.0  -0.525
  N  N367  1  0.275600  0.120100  0.562400  1.0  -0.5335
  N  N368  1  0.261300  0.881700  0.498260  1.0  -0.525
  N  N369  1  0.620100  0.775600  0.937600  1.0  -0.5321
  N  N370  1  0.381700  0.761300  0.001740  1.0  -0.5271
  N  N371  1  0.879900  0.724400  0.937600  1.0  -0.53
  N  N372  1  0.118300  0.738700  0.001740  1.0  -0.5263
  N  N373  1  0.775600  0.879900  0.937600  1.0  -0.5374
  N  N374  1  0.761300  0.118300  0.001740  1.0  -0.5257
  N  N375  1  0.724400  0.620100  0.937600  1.0  -0.5358
  N  N376  1  0.738700  0.381700  0.001740  1.0  -0.5241
  N  N377  1  0.750000  0.750000  0.536800  1.0  -0.1012
  N  N378  1  0.750000  0.750000  0.839000  1.0  -0.063
  N  N379  1  0.250000  0.250000  0.963200  1.0  -0.0966
  N  N380  1  0.250000  0.250000  0.661000  1.0  -0.068
  N  N381  1  0.250000  0.250000  0.463200  1.0  -0.0966
  N  N382  1  0.250000  0.250000  0.161000  1.0  -0.068
  N  N383  1  0.750000  0.750000  0.036800  1.0  -0.1012
  N  N384  1  0.750000  0.750000  0.339000  1.0  -0.063
  N  N385  1  0.250000  0.750000  0.400700  1.0  -0.3475
  N  N386  1  0.750000  0.250000  0.400700  1.0  -0.3475
  N  N387  1  0.750000  0.250000  0.099300  1.0  -0.349
  N  N388  1  0.250000  0.750000  0.099300  1.0  -0.349
  N  N389  1  0.750000  0.250000  0.599300  1.0  -0.349
  N  N390  1  0.250000  0.750000  0.599300  1.0  -0.349
  N  N391  1  0.250000  0.750000  0.900700  1.0  -0.3475
  N  N392  1  0.750000  0.250000  0.900700  1.0  -0.3475
