# generated using pymatgen
data_FeH12(C11N3)2
_symmetry_space_group_name_H-M   'P 1'
_cell_length_a   17.29260000
_cell_length_b   17.29260000
_cell_length_c   22.89620000
_cell_angle_alpha   90.00000000
_cell_angle_beta   90.00000000
_cell_angle_gamma   90.00000000
_symmetry_Int_Tables_number   1
_chemical_formula_structural   FeH12(C11N3)2
_chemical_formula_sum   'Fe8 H96 C176 N48'
_cell_volume   6846.74260875
_cell_formula_units_Z   8
loop_
 _symmetry_equiv_pos_site_id
 _symmetry_equiv_pos_as_xyz
  1  'x, y, z'
loop_
 _atom_site_type_symbol
 _atom_site_label
 _atom_site_symmetry_multiplicity
 _atom_site_fract_x
 _atom_site_fract_y
 _atom_site_fract_z
 _atom_site_occupancy
 _atom_site_charge
  Fe  Fe1  1  0.000000  0.000000  0.000000  1.0  0.6829
  Fe  Fe2  1  0.500000  0.500000  0.500000  1.0  0.6829
  Fe  Fe3  1  0.500000  0.000000  0.051560  1.0  0.7381
  Fe  Fe4  1  0.000000  0.500000  0.948440  1.0  0.7378
  Fe  Fe5  1  0.000000  0.500000  0.448440  1.0  0.7378
  Fe  Fe6  1  0.500000  0.000000  0.551560  1.0  0.7381
  Fe  Fe7  1  0.500000  0.500000  0.000000  1.0  0.6787
  Fe  Fe8  1  0.000000  0.000000  0.500000  1.0  0.6787
  H  H9  1  0.859900  0.821600  0.978200  1.0  0.0969
  H  H10  1  0.859800  0.689100  0.961400  1.0  0.1056
  H  H11  1  0.639400  0.676400  0.018200  1.0  0.1089
  H  H12  1  0.636900  0.808500  0.032000  1.0  0.1039
  H  H13  1  0.102100  0.951000  0.895800  1.0  0.0778
  H  H14  1  0.103900  0.946300  0.794400  1.0  0.1213
  H  H15  1  0.068200  0.904400  0.705000  1.0  0.1214
  H  H16  1  0.067500  0.908700  0.605300  1.0  0.0786
  H  H17  1  0.559600  0.904100  0.946400  1.0  0.075
  H  H18  1  0.561800  0.900100  0.845500  1.0  0.1257
  H  H19  1  0.602400  0.943500  0.756600  1.0  0.1197
  H  H20  1  0.599300  0.944800  0.655900  1.0  0.0871
  H  H21  1  0.140100  0.178400  0.978200  1.0  0.0973
  H  H22  1  0.140200  0.310900  0.961400  1.0  0.1056
  H  H23  1  0.360600  0.323600  0.018200  1.0  0.109
  H  H24  1  0.363100  0.191500  0.032000  1.0  0.1041
  H  H25  1  0.897900  0.049000  0.895800  1.0  0.0773
  H  H26  1  0.896100  0.053700  0.794400  1.0  0.121
  H  H27  1  0.931800  0.095600  0.705000  1.0  0.1215
  H  H28  1  0.932500  0.091300  0.605300  1.0  0.0788
  H  H29  1  0.440400  0.095900  0.946400  1.0  0.0745
  H  H30  1  0.438200  0.099900  0.845500  1.0  0.126
  H  H31  1  0.397600  0.056500  0.756600  1.0  0.119
  H  H32  1  0.400700  0.055200  0.655900  1.0  0.0871
  H  H33  1  0.821600  0.140100  0.021800  1.0  0.0971
  H  H34  1  0.689100  0.140200  0.038600  1.0  0.1055
  H  H35  1  0.676400  0.360600  0.981800  1.0  0.1084
  H  H36  1  0.808500  0.363100  0.968000  1.0  0.1048
  H  H37  1  0.951000  0.897900  0.104200  1.0  0.0785
  H  H38  1  0.946300  0.896100  0.205600  1.0  0.1214
  H  H39  1  0.904400  0.931800  0.295000  1.0  0.1207
  H  H40  1  0.908700  0.932500  0.394700  1.0  0.0778
  H  H41  1  0.904100  0.440400  0.053600  1.0  0.0748
  H  H42  1  0.900100  0.438200  0.154500  1.0  0.1254
  H  H43  1  0.943500  0.397600  0.243400  1.0  0.1191
  H  H44  1  0.944800  0.400700  0.344100  1.0  0.0866
  H  H45  1  0.178400  0.859900  0.021800  1.0  0.0969
  H  H46  1  0.310900  0.859800  0.038600  1.0  0.106
  H  H47  1  0.323600  0.639400  0.981800  1.0  0.1087
  H  H48  1  0.191500  0.636900  0.968000  1.0  0.1044
  H  H49  1  0.049000  0.102100  0.104200  1.0  0.078
  H  H50  1  0.053700  0.103900  0.205600  1.0  0.122
  H  H51  1  0.095600  0.068200  0.295000  1.0  0.1211
  H  H52  1  0.091300  0.067500  0.394700  1.0  0.078
  H  H53  1  0.095900  0.559600  0.053600  1.0  0.0748
  H  H54  1  0.099900  0.561800  0.154500  1.0  0.1253
  H  H55  1  0.056500  0.602400  0.243400  1.0  0.12
  H  H56  1  0.055200  0.599300  0.344100  1.0  0.087
  H  H57  1  0.640100  0.321600  0.521800  1.0  0.0971
  H  H58  1  0.640200  0.189100  0.538600  1.0  0.1056
  H  H59  1  0.860600  0.176400  0.481800  1.0  0.1089
  H  H60  1  0.863100  0.308500  0.468000  1.0  0.104
  H  H61  1  0.397900  0.451000  0.604200  1.0  0.0775
  H  H62  1  0.396100  0.446300  0.705600  1.0  0.1214
  H  H63  1  0.431800  0.404400  0.795000  1.0  0.1207
  H  H64  1  0.432500  0.408700  0.894700  1.0  0.0786
  H  H65  1  0.940400  0.404100  0.553600  1.0  0.075
  H  H66  1  0.938200  0.400100  0.654500  1.0  0.1257
  H  H67  1  0.897600  0.443500  0.743400  1.0  0.119
  H  H68  1  0.900700  0.444800  0.844100  1.0  0.087
  H  H69  1  0.359900  0.678400  0.521800  1.0  0.097
  H  H70  1  0.359800  0.810900  0.538600  1.0  0.1057
  H  H71  1  0.139400  0.823600  0.481800  1.0  0.1089
  H  H72  1  0.136900  0.691500  0.468000  1.0  0.1039
  H  H73  1  0.602100  0.549000  0.604200  1.0  0.078
  H  H74  1  0.603900  0.553700  0.705600  1.0  0.1217
  H  H75  1  0.568200  0.595600  0.795000  1.0  0.1217
  H  H76  1  0.567500  0.591300  0.894700  1.0  0.0787
  H  H77  1  0.059600  0.595900  0.553600  1.0  0.0751
  H  H78  1  0.061800  0.599900  0.654500  1.0  0.1262
  H  H79  1  0.102400  0.556500  0.743400  1.0  0.1197
  H  H80  1  0.099300  0.555200  0.844100  1.0  0.0871
  H  H81  1  0.678400  0.640100  0.478200  1.0  0.0969
  H  H82  1  0.810900  0.640200  0.461400  1.0  0.1058
  H  H83  1  0.823600  0.860600  0.518200  1.0  0.1086
  H  H84  1  0.691500  0.863100  0.532000  1.0  0.1044
  H  H85  1  0.549000  0.397900  0.395800  1.0  0.079
  H  H86  1  0.553700  0.396100  0.294400  1.0  0.1214
  H  H87  1  0.595600  0.431800  0.205000  1.0  0.121
  H  H88  1  0.591300  0.432500  0.105300  1.0  0.0777
  H  H89  1  0.595900  0.940400  0.446400  1.0  0.0749
  H  H90  1  0.599900  0.938200  0.345500  1.0  0.1248
  H  H91  1  0.556500  0.897600  0.256600  1.0  0.1198
  H  H92  1  0.555200  0.900700  0.155900  1.0  0.0874
  H  H93  1  0.321600  0.359900  0.478200  1.0  0.0971
  H  H94  1  0.189100  0.359800  0.461400  1.0  0.1055
  H  H95  1  0.176400  0.139400  0.518200  1.0  0.1087
  H  H96  1  0.308500  0.136900  0.532000  1.0  0.105
  H  H97  1  0.451000  0.602100  0.395800  1.0  0.0778
  H  H98  1  0.446300  0.603900  0.294400  1.0  0.1218
  H  H99  1  0.404400  0.568200  0.205000  1.0  0.1209
  H  H100  1  0.408700  0.567500  0.105300  1.0  0.0779
  H  H101  1  0.404100  0.059600  0.446400  1.0  0.0743
  H  H102  1  0.400100  0.061800  0.345500  1.0  0.1249
  H  H103  1  0.443500  0.102400  0.256600  1.0  0.1196
  H  H104  1  0.444800  0.099300  0.155900  1.0  0.0875
  C  C105  1  0.817150  0.956830  0.008950  1.0  0.3588
  C  C106  1  0.748650  0.914750  0.016910  1.0  -0.3199
  C  C107  1  0.680970  0.951730  0.035170  1.0  0.4251
  C  C108  1  0.749200  0.831990  0.006700  1.0  -0.0318
  C  C109  1  0.814120  0.792950  0.985850  1.0  -0.0696
  C  C110  1  0.814390  0.713550  0.975780  1.0  -0.0886
  C  C111  1  0.749460  0.670150  0.987170  1.0  -0.0644
  C  C112  1  0.683850  0.706260  0.009040  1.0  -0.0862
  C  C113  1  0.682930  0.784790  0.018050  1.0  -0.0596
  C  C114  1  0.749320  0.583750  0.977890  1.0  -0.2746
  C  C115  1  0.683130  0.542330  0.989160  1.0  0.4526
  C  C116  1  0.818380  0.546800  0.962510  1.0  0.3489
  C  C117  1  0.059290  0.971090  0.874640  1.0  0.1539
  C  C118  1  0.061070  0.968930  0.813960  1.0  -0.1841
  C  C119  1  0.040220  0.943960  0.685440  1.0  -0.1984
  C  C120  1  0.038990  0.946670  0.626160  1.0  0.1685
  C  C121  1  0.534620  0.944320  0.925390  1.0  0.1753
  C  C122  1  0.536260  0.941400  0.865020  1.0  -0.2059
  C  C123  1  0.560030  0.967010  0.737070  1.0  -0.1786
  C  C124  1  0.557900  0.967700  0.676980  1.0  0.1625
  C  C125  1  0.182850  0.043170  0.008950  1.0  0.3592
  C  C126  1  0.251350  0.085250  0.016910  1.0  -0.3202
  C  C127  1  0.319030  0.048270  0.035170  1.0  0.4263
  C  C128  1  0.250800  0.168010  0.006700  1.0  -0.0327
  C  C129  1  0.185880  0.207050  0.985850  1.0  -0.0681
  C  C130  1  0.185610  0.286450  0.975780  1.0  -0.0886
  C  C131  1  0.250540  0.329850  0.987170  1.0  -0.0634
  C  C132  1  0.316150  0.293740  0.009040  1.0  -0.0856
  C  C133  1  0.317070  0.215210  0.018050  1.0  -0.0598
  C  C134  1  0.250680  0.416250  0.977890  1.0  -0.275
  C  C135  1  0.316870  0.457670  0.989160  1.0  0.4528
  C  C136  1  0.181620  0.453200  0.962510  1.0  0.3477
  C  C137  1  0.940710  0.028910  0.874640  1.0  0.1572
  C  C138  1  0.938930  0.031070  0.813960  1.0  -0.1854
  C  C139  1  0.959780  0.056040  0.685440  1.0  -0.1994
  C  C140  1  0.961010  0.053330  0.626160  1.0  0.169
  C  C141  1  0.465380  0.055680  0.925390  1.0  0.1748
  C  C142  1  0.463740  0.058600  0.865020  1.0  -0.2085
  C  C143  1  0.439970  0.032990  0.737070  1.0  -0.1795
  C  C144  1  0.442100  0.032300  0.676980  1.0  0.163
  C  C145  1  0.956830  0.182850  0.991050  1.0  0.3612
  C  C146  1  0.914750  0.251350  0.983090  1.0  -0.3185
  C  C147  1  0.951730  0.319030  0.964830  1.0  0.4273
  C  C148  1  0.831990  0.250800  0.993300  1.0  -0.0328
  C  C149  1  0.792950  0.185880  0.014150  1.0  -0.0694
  C  C150  1  0.713550  0.185610  0.024220  1.0  -0.0877
  C  C151  1  0.670150  0.250540  0.012830  1.0  -0.0642
  C  C152  1  0.706260  0.316150  0.990960  1.0  -0.086
  C  C153  1  0.784790  0.317070  0.981950  1.0  -0.0627
  C  C154  1  0.583750  0.250680  0.022110  1.0  -0.2744
  C  C155  1  0.542330  0.316870  0.010840  1.0  0.4559
  C  C156  1  0.546800  0.181620  0.037490  1.0  0.3462
  C  C157  1  0.971090  0.940710  0.125360  1.0  0.1529
  C  C158  1  0.968930  0.938930  0.186040  1.0  -0.1879
  C  C159  1  0.943960  0.959780  0.314560  1.0  -0.1962
  C  C160  1  0.946670  0.961010  0.373840  1.0  0.1708
  C  C161  1  0.944320  0.465380  0.074610  1.0  0.1761
  C  C162  1  0.941400  0.463740  0.134980  1.0  -0.2055
  C  C163  1  0.967010  0.439970  0.262930  1.0  -0.1825
  C  C164  1  0.967700  0.442100  0.323020  1.0  0.1638
  C  C165  1  0.043170  0.817150  0.991050  1.0  0.3597
  C  C166  1  0.085250  0.748650  0.983090  1.0  -0.3191
  C  C167  1  0.048270  0.680970  0.964830  1.0  0.4266
  C  C168  1  0.168010  0.749200  0.993300  1.0  -0.0333
  C  C169  1  0.207050  0.814120  0.014150  1.0  -0.069
  C  C170  1  0.286450  0.814390  0.024220  1.0  -0.0895
  C  C171  1  0.329850  0.749460  0.012830  1.0  -0.0639
  C  C172  1  0.293740  0.683850  0.990960  1.0  -0.0851
  C  C173  1  0.215210  0.682930  0.981950  1.0  -0.0608
  C  C174  1  0.416250  0.749320  0.022110  1.0  -0.2741
  C  C175  1  0.457670  0.683130  0.010840  1.0  0.456
  C  C176  1  0.453200  0.818380  0.037490  1.0  0.3486
  C  C177  1  0.028910  0.059290  0.125360  1.0  0.1551
  C  C178  1  0.031070  0.061070  0.186040  1.0  -0.189
  C  C179  1  0.056040  0.040220  0.314560  1.0  -0.1962
  C  C180  1  0.053330  0.038990  0.373840  1.0  0.1705
  C  C181  1  0.055680  0.534620  0.074610  1.0  0.1757
  C  C182  1  0.058600  0.536260  0.134980  1.0  -0.2043
  C  C183  1  0.032990  0.560030  0.262930  1.0  -0.1835
  C  C184  1  0.032300  0.557900  0.323020  1.0  0.162
  C  C185  1  0.682850  0.456830  0.491050  1.0  0.3593
  C  C186  1  0.751350  0.414750  0.483090  1.0  -0.3203
  C  C187  1  0.819030  0.451730  0.464830  1.0  0.4246
  C  C188  1  0.750800  0.331990  0.493300  1.0  -0.0313
  C  C189  1  0.685880  0.292950  0.514150  1.0  -0.0683
  C  C190  1  0.685610  0.213550  0.524220  1.0  -0.0888
  C  C191  1  0.750540  0.170150  0.512830  1.0  -0.0636
  C  C192  1  0.816150  0.206260  0.490960  1.0  -0.0856
  C  C193  1  0.817070  0.284790  0.481950  1.0  -0.0596
  C  C194  1  0.750680  0.083750  0.522110  1.0  -0.2742
  C  C195  1  0.816870  0.042330  0.510840  1.0  0.454
  C  C196  1  0.681620  0.046800  0.537490  1.0  0.3484
  C  C197  1  0.440710  0.471090  0.625360  1.0  0.1533
  C  C198  1  0.438930  0.468930  0.686040  1.0  -0.1855
  C  C199  1  0.459780  0.443960  0.814560  1.0  -0.1976
  C  C200  1  0.461010  0.446670  0.873840  1.0  0.1697
  C  C201  1  0.965380  0.444320  0.574610  1.0  0.1747
  C  C202  1  0.963740  0.441400  0.634980  1.0  -0.2075
  C  C203  1  0.939970  0.467010  0.762930  1.0  -0.1788
  C  C204  1  0.942100  0.467700  0.823020  1.0  0.1642
  C  C205  1  0.317150  0.543170  0.491050  1.0  0.359
  C  C206  1  0.248650  0.585250  0.483090  1.0  -0.3201
  C  C207  1  0.180970  0.548270  0.464830  1.0  0.4267
  C  C208  1  0.249200  0.668010  0.493300  1.0  -0.0327
  C  C209  1  0.314120  0.707050  0.514150  1.0  -0.0701
  C  C210  1  0.314390  0.786450  0.524220  1.0  -0.0896
  C  C211  1  0.249460  0.829850  0.512830  1.0  -0.0645
  C  C212  1  0.183850  0.793740  0.490960  1.0  -0.0866
  C  C213  1  0.182930  0.715210  0.481950  1.0  -0.0597
  C  C214  1  0.249320  0.916250  0.522110  1.0  -0.2749
  C  C215  1  0.183130  0.957670  0.510840  1.0  0.4504
  C  C216  1  0.318380  0.953200  0.537490  1.0  0.3484
  C  C217  1  0.559290  0.528910  0.625360  1.0  0.1567
  C  C218  1  0.561070  0.531070  0.686040  1.0  -0.1848
  C  C219  1  0.540220  0.556040  0.814560  1.0  -0.199
  C  C220  1  0.538990  0.553330  0.873840  1.0  0.1685
  C  C221  1  0.034620  0.555680  0.574610  1.0  0.175
  C  C222  1  0.036260  0.558600  0.634980  1.0  -0.207
  C  C223  1  0.060030  0.532990  0.762930  1.0  -0.1791
  C  C224  1  0.057900  0.532300  0.823020  1.0  0.163
  C  C225  1  0.543170  0.682850  0.508950  1.0  0.3602
  C  C226  1  0.585250  0.751350  0.516910  1.0  -0.3192
  C  C227  1  0.548270  0.819030  0.535170  1.0  0.4268
  C  C228  1  0.668010  0.750800  0.506700  1.0  -0.0333
  C  C229  1  0.707050  0.685880  0.485850  1.0  -0.069
  C  C230  1  0.786450  0.685610  0.475780  1.0  -0.0872
  C  C231  1  0.829850  0.750540  0.487170  1.0  -0.0637
  C  C232  1  0.793740  0.816150  0.509040  1.0  -0.0857
  C  C233  1  0.715210  0.817070  0.518050  1.0  -0.0624
  C  C234  1  0.916250  0.750680  0.477890  1.0  -0.274
  C  C235  1  0.957670  0.816870  0.489160  1.0  0.4557
  C  C236  1  0.953200  0.681620  0.462510  1.0  0.3492
  C  C237  1  0.528910  0.440710  0.374640  1.0  0.1527
  C  C238  1  0.531070  0.438930  0.313960  1.0  -0.1874
  C  C239  1  0.556040  0.459780  0.185440  1.0  -0.1958
  C  C240  1  0.553330  0.461010  0.126160  1.0  0.1697
  C  C241  1  0.555680  0.965380  0.425390  1.0  0.176
  C  C242  1  0.558600  0.963740  0.365020  1.0  -0.2041
  C  C243  1  0.532990  0.939970  0.237070  1.0  -0.1828
  C  C244  1  0.532300  0.942100  0.176980  1.0  0.1619
  C  C245  1  0.456830  0.317150  0.508950  1.0  0.3608
  C  C246  1  0.414750  0.248650  0.516910  1.0  -0.3185
  C  C247  1  0.451730  0.180970  0.535170  1.0  0.4273
  C  C248  1  0.331990  0.249200  0.506700  1.0  -0.0332
  C  C249  1  0.292950  0.314120  0.485850  1.0  -0.0695
  C  C250  1  0.213550  0.314390  0.475780  1.0  -0.0882
  C  C251  1  0.170150  0.249460  0.487170  1.0  -0.064
  C  C252  1  0.206260  0.183850  0.509040  1.0  -0.0847
  C  C253  1  0.284790  0.182930  0.518050  1.0  -0.0606
  C  C254  1  0.083750  0.249320  0.477890  1.0  -0.2744
  C  C255  1  0.042330  0.183130  0.489160  1.0  0.4555
  C  C256  1  0.046800  0.318380  0.462510  1.0  0.3458
  C  C257  1  0.471090  0.559290  0.374640  1.0  0.1555
  C  C258  1  0.468930  0.561070  0.313960  1.0  -0.1897
  C  C259  1  0.443960  0.540220  0.185440  1.0  -0.1963
  C  C260  1  0.446670  0.538990  0.126160  1.0  0.1703
  C  C261  1  0.444320  0.034620  0.425390  1.0  0.1764
  C  C262  1  0.441400  0.036260  0.365020  1.0  -0.2049
  C  C263  1  0.467010  0.060030  0.237070  1.0  -0.1845
  C  C264  1  0.467700  0.057900  0.176980  1.0  0.1629
  C  C265  1  0.500000  0.000000  0.833080  1.0  0.086
  C  C266  1  0.500000  0.000000  0.769010  1.0  0.0686
  C  C267  1  0.000000  0.500000  0.166920  1.0  0.0862
  C  C268  1  0.000000  0.500000  0.230990  1.0  0.069
  C  C269  1  0.000000  0.500000  0.666920  1.0  0.0862
  C  C270  1  0.000000  0.500000  0.730990  1.0  0.069
  C  C271  1  0.500000  0.000000  0.333080  1.0  0.086
  C  C272  1  0.500000  0.000000  0.269010  1.0  0.0686
  C  C273  1  0.000000  0.000000  0.782380  1.0  0.0881
  C  C274  1  0.000000  0.000000  0.717870  1.0  0.0624
  C  C275  1  0.000000  0.000000  0.217620  1.0  0.0882
  C  C276  1  0.000000  0.000000  0.282130  1.0  0.0624
  C  C277  1  0.500000  0.500000  0.717620  1.0  0.0882
  C  C278  1  0.500000  0.500000  0.782130  1.0  0.0624
  C  C279  1  0.500000  0.500000  0.282380  1.0  0.0881
  C  C280  1  0.500000  0.500000  0.217870  1.0  0.0624
  N  N281  1  0.876850  0.984640  0.001230  1.0  -0.5021
  N  N282  1  0.622140  0.976430  0.049890  1.0  -0.4952
  N  N283  1  0.878330  0.521480  0.949300  1.0  -0.4731
  N  N284  1  0.623150  0.514310  0.999290  1.0  -0.4819
  N  N285  1  0.123150  0.015360  0.001230  1.0  -0.5015
  N  N286  1  0.377860  0.023570  0.049890  1.0  -0.4933
  N  N287  1  0.121670  0.478520  0.949300  1.0  -0.4721
  N  N288  1  0.376850  0.485690  0.999290  1.0  -0.4816
  N  N289  1  0.984640  0.123150  0.998770  1.0  -0.5008
  N  N290  1  0.976430  0.377860  0.950110  1.0  -0.4928
  N  N291  1  0.521480  0.121670  0.050700  1.0  -0.4733
  N  N292  1  0.514310  0.376850  0.000710  1.0  -0.4823
  N  N293  1  0.015360  0.876850  0.998770  1.0  -0.5023
  N  N294  1  0.023570  0.622140  0.950110  1.0  -0.4951
  N  N295  1  0.478520  0.878330  0.050700  1.0  -0.4743
  N  N296  1  0.485690  0.623150  0.000710  1.0  -0.4828
  N  N297  1  0.623150  0.484640  0.498770  1.0  -0.5018
  N  N298  1  0.877860  0.476430  0.450110  1.0  -0.4938
  N  N299  1  0.621670  0.021480  0.550700  1.0  -0.4725
  N  N300  1  0.876850  0.014310  0.500710  1.0  -0.481
  N  N301  1  0.376850  0.515360  0.498770  1.0  -0.5019
  N  N302  1  0.122140  0.523570  0.450110  1.0  -0.4942
  N  N303  1  0.378330  0.978520  0.550700  1.0  -0.4731
  N  N304  1  0.123150  0.985690  0.500710  1.0  -0.4811
  N  N305  1  0.515360  0.623150  0.501230  1.0  -0.5016
  N  N306  1  0.523570  0.877860  0.549890  1.0  -0.4937
  N  N307  1  0.978520  0.621670  0.449300  1.0  -0.4737
  N  N308  1  0.985690  0.876850  0.499290  1.0  -0.4826
  N  N309  1  0.484640  0.376850  0.501230  1.0  -0.5012
  N  N310  1  0.476430  0.122140  0.549890  1.0  -0.4948
  N  N311  1  0.021480  0.378330  0.449300  1.0  -0.4737
  N  N312  1  0.014310  0.123150  0.499290  1.0  -0.4833
  N  N313  1  0.500000  0.000000  0.955950  1.0  -0.3243
  N  N314  1  0.500000  0.000000  0.646320  1.0  -0.2923
  N  N315  1  0.000000  0.500000  0.044050  1.0  -0.3236
  N  N316  1  0.000000  0.500000  0.353680  1.0  -0.2941
  N  N317  1  0.000000  0.500000  0.544050  1.0  -0.3236
  N  N318  1  0.000000  0.500000  0.853680  1.0  -0.2941
  N  N319  1  0.500000  0.000000  0.455950  1.0  -0.3243
  N  N320  1  0.500000  0.000000  0.146320  1.0  -0.2923
  N  N321  1  0.000000  0.000000  0.904730  1.0  -0.3047
  N  N322  1  0.000000  0.000000  0.596000  1.0  -0.3133
  N  N323  1  0.000000  0.000000  0.095270  1.0  -0.3047
  N  N324  1  0.000000  0.000000  0.404000  1.0  -0.3138
  N  N325  1  0.500000  0.500000  0.595270  1.0  -0.3047
  N  N326  1  0.500000  0.500000  0.904000  1.0  -0.3138
  N  N327  1  0.500000  0.500000  0.404730  1.0  -0.3047
  N  N328  1  0.500000  0.500000  0.096000  1.0  -0.3133
