# generated using pymatgen
data_LaGdH12(C4O5)3
_symmetry_space_group_name_H-M   'P 1'
_cell_length_a   9.27200000
_cell_length_b   9.27200000
_cell_length_c   17.71600000
_cell_angle_alpha   90.00000000
_cell_angle_beta   90.00000000
_cell_angle_gamma   120.00000000
_symmetry_Int_Tables_number   1
_chemical_formula_structural   LaGdH12(C4O5)3
_chemical_formula_sum   'La2 Gd2 H24 C24 O30'
_cell_volume   1318.99499993
_cell_formula_units_Z   2
loop_
 _symmetry_equiv_pos_site_id
 _symmetry_equiv_pos_as_xyz
  1  'x, y, z'
loop_
 _atom_site_type_symbol
 _atom_site_label
 _atom_site_symmetry_multiplicity
 _atom_site_fract_x
 _atom_site_fract_y
 _atom_site_fract_z
 _atom_site_occupancy
 _atom_site_charge
  La  La1  1  0.333333  0.666667  0.750000  1.0  2.2697
  La  La2  1  0.666667  0.333333  0.250000  1.0  2.2697
  Gd  Gd3  1  0.000000  0.000000  0.000000  1.0  2.0868
  Gd  Gd4  1  0.000000  0.000000  0.500000  1.0  2.0868
  H  H5  1  0.573500  0.599800  0.918100  1.0  0.1102
  H  H6  1  0.509500  0.677600  0.976500  1.0  0.0916
  H  H7  1  0.026300  0.426500  0.918100  1.0  0.1088
  H  H8  1  0.168100  0.490500  0.976500  1.0  0.0929
  H  H9  1  0.400200  0.973700  0.918100  1.0  0.1099
  H  H10  1  0.322400  0.831900  0.976500  1.0  0.0936
  H  H11  1  0.573500  0.599800  0.581900  1.0  0.1113
  H  H12  1  0.509500  0.677600  0.523500  1.0  0.0915
  H  H13  1  0.026300  0.426500  0.581900  1.0  0.1097
  H  H14  1  0.168100  0.490500  0.523500  1.0  0.0937
  H  H15  1  0.400200  0.973700  0.581900  1.0  0.1104
  H  H16  1  0.322400  0.831900  0.523500  1.0  0.0932
  H  H17  1  0.973700  0.400200  0.081900  1.0  0.1101
  H  H18  1  0.831900  0.322400  0.023500  1.0  0.0918
  H  H19  1  0.599800  0.573500  0.081900  1.0  0.1096
  H  H20  1  0.677600  0.509500  0.023500  1.0  0.0934
  H  H21  1  0.426500  0.026300  0.081900  1.0  0.1108
  H  H22  1  0.490500  0.168100  0.023500  1.0  0.0938
  H  H23  1  0.973700  0.400200  0.418100  1.0  0.1101
  H  H24  1  0.831900  0.322400  0.476500  1.0  0.0916
  H  H25  1  0.599800  0.573500  0.418100  1.0  0.1085
  H  H26  1  0.677600  0.509500  0.476500  1.0  0.0938
  H  H27  1  0.426500  0.026300  0.418100  1.0  0.1097
  H  H28  1  0.490500  0.168100  0.476500  1.0  0.0931
  C  C29  1  0.657200  0.841300  0.895300  1.0  0.7743
  C  C30  1  0.603200  0.695700  0.947800  1.0  -0.0814
  C  C31  1  0.184100  0.342800  0.895300  1.0  0.7718
  C  C32  1  0.092500  0.396800  0.947800  1.0  -0.0805
  C  C33  1  0.158700  0.815900  0.895300  1.0  0.7733
  C  C34  1  0.304300  0.907500  0.947800  1.0  -0.081
  C  C35  1  0.657200  0.841300  0.604700  1.0  0.7757
  C  C36  1  0.603200  0.695700  0.552200  1.0  -0.0814
  C  C37  1  0.184100  0.342800  0.604700  1.0  0.7747
  C  C38  1  0.092500  0.396800  0.552200  1.0  -0.0805
  C  C39  1  0.158700  0.815900  0.604700  1.0  0.7735
  C  C40  1  0.304300  0.907500  0.552200  1.0  -0.0815
  C  C41  1  0.815900  0.158700  0.104700  1.0  0.7753
  C  C42  1  0.907500  0.304300  0.052200  1.0  -0.0805
  C  C43  1  0.841300  0.657200  0.104700  1.0  0.7741
  C  C44  1  0.695700  0.603200  0.052200  1.0  -0.0812
  C  C45  1  0.342800  0.184100  0.104700  1.0  0.7734
  C  C46  1  0.396800  0.092500  0.052200  1.0  -0.081
  C  C47  1  0.815900  0.158700  0.395300  1.0  0.7731
  C  C48  1  0.907500  0.304300  0.447800  1.0  -0.0806
  C  C49  1  0.841300  0.657200  0.395300  1.0  0.7718
  C  C50  1  0.695700  0.603200  0.447800  1.0  -0.0809
  C  C51  1  0.342800  0.184100  0.395300  1.0  0.7737
  C  C52  1  0.396800  0.092500  0.447800  1.0  -0.0807
  O  O53  1  0.795500  0.967900  0.907130  1.0  -0.6684
  O  O54  1  0.559000  0.827100  0.844150  1.0  -0.7761
  O  O55  1  0.172400  0.204500  0.907130  1.0  -0.6696
  O  O56  1  0.268100  0.441000  0.844150  1.0  -0.7766
  O  O57  1  0.032100  0.827600  0.907130  1.0  -0.6709
  O  O58  1  0.172900  0.731900  0.844150  1.0  -0.7808
  O  O59  1  0.795500  0.967900  0.592870  1.0  -0.6698
  O  O60  1  0.559000  0.827100  0.655850  1.0  -0.7774
  O  O61  1  0.172400  0.204500  0.592870  1.0  -0.6711
  O  O62  1  0.268100  0.441000  0.655850  1.0  -0.777
  O  O63  1  0.032100  0.827600  0.592870  1.0  -0.6726
  O  O64  1  0.172900  0.731900  0.655850  1.0  -0.7826
  O  O65  1  0.827600  0.032100  0.092870  1.0  -0.6701
  O  O66  1  0.731900  0.172900  0.155850  1.0  -0.7774
  O  O67  1  0.967900  0.795500  0.092870  1.0  -0.6703
  O  O68  1  0.827100  0.559000  0.155850  1.0  -0.7772
  O  O69  1  0.204500  0.172400  0.092870  1.0  -0.6725
  O  O70  1  0.441000  0.268100  0.155850  1.0  -0.7825
  O  O71  1  0.827600  0.032100  0.407130  1.0  -0.669
  O  O72  1  0.731900  0.172900  0.344150  1.0  -0.776
  O  O73  1  0.967900  0.795500  0.407130  1.0  -0.6693
  O  O74  1  0.827100  0.559000  0.344150  1.0  -0.7771
  O  O75  1  0.204500  0.172400  0.407130  1.0  -0.6703
  O  O76  1  0.441000  0.268100  0.344150  1.0  -0.7804
  O  O77  1  0.731700  0.731700  0.000000  1.0  -0.3459
  O  O78  1  0.000000  0.268300  0.000000  1.0  -0.3466
  O  O79  1  0.268300  0.000000  0.000000  1.0  -0.3445
  O  O80  1  0.731700  0.731700  0.500000  1.0  -0.3459
  O  O81  1  0.000000  0.268300  0.500000  1.0  -0.3466
  O  O82  1  0.268300  0.000000  0.500000  1.0  -0.3445
