# generated using pymatgen
data_Sm4H22C12N3Cl5O46
_symmetry_space_group_name_H-M   'P 1'
_cell_length_a   11.56100000
_cell_length_b   20.82110000
_cell_length_c   23.69090000
_cell_angle_alpha   90.00000000
_cell_angle_beta   90.00000000
_cell_angle_gamma   90.00000000
_symmetry_Int_Tables_number   1
_chemical_formula_structural   Sm4H22C12N3Cl5O46
_chemical_formula_sum   'Sm16 H88 C48 N12 Cl20 O184'
_cell_volume   5702.70138336
_cell_formula_units_Z   4
loop_
 _symmetry_equiv_pos_site_id
 _symmetry_equiv_pos_as_xyz
  1  'x, y, z'
loop_
 _atom_site_type_symbol
 _atom_site_label
 _atom_site_symmetry_multiplicity
 _atom_site_fract_x
 _atom_site_fract_y
 _atom_site_fract_z
 _atom_site_occupancy
 _atom_site_charge
  Sm  Sm1  1  0.919870  0.036010  0.231200  1.0  2.3186
  Sm  Sm2  1  0.582240  0.026510  0.234330  1.0  2.3023
  Sm  Sm3  1  0.743860  0.123140  0.348380  1.0  2.233
  Sm  Sm4  1  0.765420  0.932660  0.343090  1.0  2.2872
  Sm  Sm5  1  0.580130  0.963990  0.731200  1.0  2.319
  Sm  Sm6  1  0.917760  0.973490  0.734330  1.0  2.3051
  Sm  Sm7  1  0.756140  0.876860  0.848380  1.0  2.2345
  Sm  Sm8  1  0.734580  0.067340  0.843090  1.0  2.2874
  Sm  Sm9  1  0.080130  0.536010  0.268800  1.0  2.3197
  Sm  Sm10  1  0.417760  0.526510  0.265670  1.0  2.3011
  Sm  Sm11  1  0.256140  0.623140  0.151620  1.0  2.2349
  Sm  Sm12  1  0.234580  0.432660  0.156910  1.0  2.2871
  Sm  Sm13  1  0.419870  0.463990  0.768800  1.0  2.3176
  Sm  Sm14  1  0.082240  0.473490  0.765670  1.0  2.3048
  Sm  Sm15  1  0.243860  0.376860  0.651620  1.0  2.2349
  Sm  Sm16  1  0.265420  0.567340  0.656910  1.0  2.2871
  H  H17  1  0.595800  0.352500  0.317700  1.0  0.2267
  H  H18  1  0.628800  0.285300  0.313300  1.0  0.2445
  H  H19  1  0.649900  0.328800  0.266400  1.0  0.2597
  H  H20  1  0.434300  0.291300  0.302200  1.0  0.1134
  H  H21  1  0.151300  0.281900  0.209100  1.0  0.2504
  H  H22  1  0.160800  0.233700  0.253200  1.0  0.2811
  H  H23  1  0.123100  0.215300  0.197000  1.0  0.2606
  H  H24  1  0.541100  0.257600  0.199500  1.0  0.1443
  H  H25  1  0.414300  0.238800  0.215400  1.0  0.1503
  H  H26  1  0.862300  0.916200  0.493600  1.0  0.2845
  H  H27  1  0.924200  0.942100  0.541900  1.0  0.2589
  H  H28  1  0.868400  0.879700  0.545800  1.0  0.3453
  H  H29  1  0.953800  0.269500  0.205500  1.0  0.1067
  H  H30  1  0.912300  0.318500  0.293100  1.0  0.1397
  H  H31  1  0.039800  0.305300  0.312000  1.0  0.1436
  H  H32  1  0.687400  0.926200  0.538300  1.0  0.1153
  H  H33  1  0.816900  0.042200  0.543200  1.0  0.1347
  H  H34  1  0.681600  0.039500  0.543300  1.0  0.1514
  H  H35  1  0.742900  0.133400  0.225300  1.0  0.4707
  H  H36  1  0.760400  0.929700  0.217700  1.0  0.4116
  H  H37  1  0.570300  0.020900  0.356000  1.0  0.392
  H  H38  1  0.944800  0.033200  0.353200  1.0  0.3721
  H  H39  1  0.904200  0.647500  0.817700  1.0  0.2262
  H  H40  1  0.871200  0.714700  0.813300  1.0  0.2423
  H  H41  1  0.850100  0.671200  0.766400  1.0  0.257
  H  H42  1  0.065700  0.708700  0.802200  1.0  0.1137
  H  H43  1  0.348700  0.718100  0.709100  1.0  0.2501
  H  H44  1  0.339200  0.766300  0.753200  1.0  0.2789
  H  H45  1  0.376900  0.784700  0.697000  1.0  0.2597
  H  H46  1  0.958900  0.742400  0.699500  1.0  0.1462
  H  H47  1  0.085700  0.761200  0.715400  1.0  0.1529
  H  H48  1  0.637700  0.083800  0.993600  1.0  0.283
  H  H49  1  0.575800  0.057900  0.041900  1.0  0.2584
  H  H50  1  0.631600  0.120300  0.045800  1.0  0.3448
  H  H51  1  0.546200  0.730500  0.705500  1.0  0.1075
  H  H52  1  0.587700  0.681500  0.793100  1.0  0.1398
  H  H53  1  0.460200  0.694700  0.812000  1.0  0.1428
  H  H54  1  0.812600  0.073800  0.038300  1.0  0.1152
  H  H55  1  0.683100  0.957800  0.043200  1.0  0.1368
  H  H56  1  0.818400  0.960500  0.043300  1.0  0.152
  H  H57  1  0.757100  0.866600  0.725300  1.0  0.4725
  H  H58  1  0.739600  0.070300  0.717700  1.0  0.4106
  H  H59  1  0.929700  0.979100  0.856000  1.0  0.3905
  H  H60  1  0.555200  0.966800  0.853200  1.0  0.3727
  H  H61  1  0.404200  0.852500  0.182300  1.0  0.2253
  H  H62  1  0.371200  0.785300  0.186700  1.0  0.2443
  H  H63  1  0.350100  0.828800  0.233600  1.0  0.259
  H  H64  1  0.565700  0.791300  0.197800  1.0  0.1145
  H  H65  1  0.848700  0.781900  0.290900  1.0  0.2495
  H  H66  1  0.839200  0.733700  0.246800  1.0  0.2794
  H  H67  1  0.876900  0.715300  0.303000  1.0  0.2611
  H  H68  1  0.458900  0.757600  0.300500  1.0  0.1458
  H  H69  1  0.585700  0.738800  0.284600  1.0  0.1536
  H  H70  1  0.137700  0.416200  0.006400  1.0  0.2829
  H  H71  1  0.075800  0.442100  0.958100  1.0  0.2583
  H  H72  1  0.131600  0.379700  0.954200  1.0  0.3424
  H  H73  1  0.046200  0.769500  0.294500  1.0  0.1082
  H  H74  1  0.087700  0.818500  0.206900  1.0  0.1409
  H  H75  1  0.960200  0.805300  0.188000  1.0  0.1423
  H  H76  1  0.312600  0.426200  0.961700  1.0  0.1145
  H  H77  1  0.183100  0.542200  0.956800  1.0  0.1353
  H  H78  1  0.318400  0.539500  0.956700  1.0  0.1527
  H  H79  1  0.257100  0.633400  0.274700  1.0  0.4708
  H  H80  1  0.239600  0.429700  0.282300  1.0  0.4115
  H  H81  1  0.429700  0.520900  0.144000  1.0  0.3906
  H  H82  1  0.055200  0.533200  0.146800  1.0  0.372
  H  H83  1  0.095800  0.147500  0.682300  1.0  0.2251
  H  H84  1  0.128800  0.214700  0.686700  1.0  0.2443
  H  H85  1  0.149900  0.171200  0.733600  1.0  0.2608
  H  H86  1  0.934300  0.208700  0.697800  1.0  0.1131
  H  H87  1  0.651300  0.218100  0.790900  1.0  0.2517
  H  H88  1  0.660800  0.266300  0.746800  1.0  0.28
  H  H89  1  0.623100  0.284700  0.803000  1.0  0.2592
  H  H90  1  0.041100  0.242400  0.800500  1.0  0.1457
  H  H91  1  0.914300  0.261200  0.784600  1.0  0.1523
  H  H92  1  0.362300  0.583800  0.506400  1.0  0.2848
  H  H93  1  0.424200  0.557900  0.458100  1.0  0.259
  H  H94  1  0.368400  0.620300  0.454200  1.0  0.3443
  H  H95  1  0.453800  0.230500  0.794500  1.0  0.1076
  H  H96  1  0.412300  0.181500  0.706900  1.0  0.1383
  H  H97  1  0.539800  0.194700  0.688000  1.0  0.1409
  H  H98  1  0.187400  0.573800  0.461700  1.0  0.116
  H  H99  1  0.316900  0.457800  0.456800  1.0  0.1357
  H  H100  1  0.181600  0.460500  0.456700  1.0  0.1531
  H  H101  1  0.242900  0.366600  0.774700  1.0  0.4714
  H  H102  1  0.260400  0.570300  0.782300  1.0  0.4095
  H  H103  1  0.070300  0.479100  0.644000  1.0  0.3904
  H  H104  1  0.444800  0.466800  0.646800  1.0  0.3715
  C  C105  1  0.432300  0.363200  0.242900  1.0  0.7147
  C  C106  1  0.484400  0.303300  0.270600  1.0  0.1705
  C  C107  1  0.490900  0.246300  0.230800  1.0  -0.3117
  C  C108  1  0.533900  0.184500  0.256100  1.0  0.7753
  C  C109  1  0.946300  0.195900  0.263600  1.0  0.7109
  C  C110  1  0.997200  0.258200  0.239600  1.0  0.1766
  C  C111  1  0.991100  0.314300  0.279600  1.0  -0.3001
  C  C112  1  0.028900  0.378100  0.253500  1.0  0.7537
  C  C113  1  0.756800  0.954300  0.615800  1.0  0.7082
  C  C114  1  0.755200  0.950400  0.551130  1.0  0.2176
  C  C115  1  0.750700  0.018800  0.528700  1.0  -0.3213
  C  C116  1  0.750200  0.024200  0.465120  1.0  0.7726
  C  C117  1  0.067700  0.636800  0.742900  1.0  0.7151
  C  C118  1  0.015600  0.696700  0.770600  1.0  0.1706
  C  C119  1  0.009100  0.753700  0.730800  1.0  -0.311
  C  C120  1  0.966100  0.815500  0.756100  1.0  0.7755
  C  C121  1  0.553700  0.804100  0.763600  1.0  0.7088
  C  C122  1  0.502800  0.741800  0.739600  1.0  0.1784
  C  C123  1  0.508900  0.685700  0.779600  1.0  -0.2988
  C  C124  1  0.471100  0.621900  0.753500  1.0  0.7542
  C  C125  1  0.743200  0.045700  0.115800  1.0  0.7086
  C  C126  1  0.744800  0.049600  0.051130  1.0  0.2196
  C  C127  1  0.749300  0.981200  0.028700  1.0  -0.3214
  C  C128  1  0.749800  0.975800  0.965120  1.0  0.772
  C  C129  1  0.567700  0.863200  0.257100  1.0  0.7124
  C  C130  1  0.515600  0.803300  0.229400  1.0  0.1718
  C  C131  1  0.509100  0.746300  0.269200  1.0  -0.3111
  C  C132  1  0.466100  0.684500  0.243900  1.0  0.7759
  C  C133  1  0.053700  0.695900  0.236400  1.0  0.7094
  C  C134  1  0.002800  0.758200  0.260400  1.0  0.1776
  C  C135  1  0.008900  0.814300  0.220400  1.0  -0.2982
  C  C136  1  0.971100  0.878100  0.246500  1.0  0.7548
  C  C137  1  0.243200  0.454300  0.884200  1.0  0.7089
  C  C138  1  0.244800  0.450400  0.948870  1.0  0.2199
  C  C139  1  0.249300  0.518800  0.971300  1.0  -0.3203
  C  C140  1  0.249800  0.524200  0.034880  1.0  0.7699
  C  C141  1  0.932300  0.136800  0.757100  1.0  0.7148
  C  C142  1  0.984400  0.196700  0.729400  1.0  0.1706
  C  C143  1  0.990900  0.253700  0.769200  1.0  -0.3135
  C  C144  1  0.033900  0.315500  0.743900  1.0  0.7758
  C  C145  1  0.446300  0.304100  0.736400  1.0  0.7097
  C  C146  1  0.497200  0.241800  0.760400  1.0  0.1764
  C  C147  1  0.491100  0.185700  0.720400  1.0  -0.2997
  C  C148  1  0.528900  0.121900  0.746500  1.0  0.7535
  C  C149  1  0.256800  0.545700  0.384200  1.0  0.7095
  C  C150  1  0.255200  0.549600  0.448870  1.0  0.2191
  C  C151  1  0.250700  0.481200  0.471300  1.0  -0.3209
  C  C152  1  0.250200  0.475800  0.534880  1.0  0.7706
  N  N153  1  0.601700  0.319100  0.294400  1.0  -0.306
  N  N154  1  0.120700  0.246000  0.223000  1.0  -0.3179
  N  N155  1  0.863400  0.918900  0.531100  1.0  -0.3392
  N  N156  1  0.898300  0.680900  0.794400  1.0  -0.3055
  N  N157  1  0.379300  0.754000  0.723000  1.0  -0.3172
  N  N158  1  0.636600  0.081100  0.031100  1.0  -0.3377
  N  N159  1  0.398300  0.819100  0.205600  1.0  -0.3061
  N  N160  1  0.879300  0.746000  0.277000  1.0  -0.3174
  N  N161  1  0.136600  0.418900  0.968900  1.0  -0.3378
  N  N162  1  0.101700  0.180900  0.705600  1.0  -0.306
  N  N163  1  0.620700  0.254000  0.777000  1.0  -0.3187
  N  N164  1  0.363400  0.581100  0.468900  1.0  -0.3399
  Cl  Cl165  1  0.746100  0.370880  0.155330  1.0  1.3808
  Cl  Cl166  1  0.246930  0.180730  0.361270  1.0  1.3481
  Cl  Cl167  1  0.988600  0.212980  0.049860  1.0  1.5892
  Cl  Cl168  1  0.405400  0.013960  0.497660  1.0  1.56
  Cl  Cl169  1  0.471200  0.851950  0.052440  1.0  1.1051
  Cl  Cl170  1  0.753900  0.629120  0.655330  1.0  1.3856
  Cl  Cl171  1  0.253070  0.819270  0.861270  1.0  1.3527
  Cl  Cl172  1  0.511400  0.787020  0.549860  1.0  1.5895
  Cl  Cl173  1  0.094600  0.986040  0.997660  1.0  1.5585
  Cl  Cl174  1  0.028800  0.148050  0.552440  1.0  1.1101
  Cl  Cl175  1  0.253900  0.870880  0.344670  1.0  1.3836
  Cl  Cl176  1  0.753070  0.680730  0.138730  1.0  1.3496
  Cl  Cl177  1  0.011400  0.712980  0.450140  1.0  1.5918
  Cl  Cl178  1  0.594600  0.513960  0.002340  1.0  1.558
  Cl  Cl179  1  0.528800  0.351950  0.447560  1.0  1.1048
  Cl  Cl180  1  0.246100  0.129120  0.844670  1.0  1.3895
  Cl  Cl181  1  0.746930  0.319270  0.638730  1.0  1.3535
  Cl  Cl182  1  0.488600  0.287020  0.950140  1.0  1.5912
  Cl  Cl183  1  0.905400  0.486040  0.502340  1.0  1.5592
  Cl  Cl184  1  0.971200  0.648050  0.947560  1.0  1.1058
  O  O185  1  0.747100  0.094980  0.249070  1.0  -0.8951
  O  O186  1  0.757900  0.966460  0.243580  1.0  -0.9231
  O  O187  1  0.638000  0.024140  0.331260  1.0  -0.86
  O  O188  1  0.875200  0.031790  0.329640  1.0  -0.8865
  O  O189  1  0.479000  0.415930  0.255300  1.0  -0.6488
  O  O190  1  0.349100  0.354600  0.211260  1.0  -0.5929
  O  O191  1  0.600100  0.188200  0.298450  1.0  -0.5815
  O  O192  1  0.504100  0.133100  0.233100  1.0  -0.6625
  O  O193  1  0.987600  0.144000  0.244800  1.0  -0.6711
  O  O194  1  0.867700  0.201900  0.298300  1.0  -0.6076
  O  O195  1  0.001200  0.428300  0.279500  1.0  -0.6584
  O  O196  1  0.085100  0.376100  0.208200  1.0  -0.5877
  O  O197  1  0.854200  0.955700  0.639790  1.0  -0.6554
  O  O198  1  0.660300  0.958500  0.638510  1.0  -0.6635
  O  O199  1  0.754300  0.973270  0.437610  1.0  -0.571
  O  O200  1  0.744100  0.079570  0.444530  1.0  -0.6552
  O  O201  1  0.114400  0.032400  0.280000  1.0  -0.2212
  O  O202  1  0.075600  0.052600  0.157500  1.0  -0.2748
  O  O203  1  0.399600  0.027700  0.293400  1.0  -0.2092
  O  O204  1  0.415200  0.014400  0.169500  1.0  -0.2197
  O  O205  1  0.933700  0.143000  0.401300  1.0  -0.2325
  O  O206  1  0.733000  0.229100  0.396900  1.0  -0.2421
  O  O207  1  0.551200  0.135000  0.399700  1.0  -0.2105
  O  O208  1  0.575200  0.903900  0.393000  1.0  -0.2042
  O  O209  1  0.786600  0.822500  0.387000  1.0  -0.2379
  O  O210  1  0.954800  0.917900  0.403000  1.0  -0.2149
  O  O211  1  0.752900  0.905020  0.749070  1.0  -0.8973
  O  O212  1  0.742100  0.033540  0.743580  1.0  -0.9212
  O  O213  1  0.862000  0.975860  0.831260  1.0  -0.8588
  O  O214  1  0.624800  0.968210  0.829640  1.0  -0.8873
  O  O215  1  0.021000  0.584070  0.755300  1.0  -0.6497
  O  O216  1  0.150900  0.645400  0.711260  1.0  -0.5935
  O  O217  1  0.899900  0.811800  0.798450  1.0  -0.5823
  O  O218  1  0.995900  0.866900  0.733100  1.0  -0.6597
  O  O219  1  0.512400  0.856000  0.744800  1.0  -0.6721
  O  O220  1  0.632300  0.798100  0.798300  1.0  -0.6072
  O  O221  1  0.498800  0.571700  0.779500  1.0  -0.6567
  O  O222  1  0.414900  0.623900  0.708200  1.0  -0.5879
  O  O223  1  0.645800  0.044300  0.139790  1.0  -0.6578
  O  O224  1  0.839700  0.041500  0.138510  1.0  -0.6607
  O  O225  1  0.745700  0.026730  0.937610  1.0  -0.5708
  O  O226  1  0.755900  0.920430  0.944530  1.0  -0.6552
  O  O227  1  0.385600  0.967600  0.780000  1.0  -0.2228
  O  O228  1  0.424400  0.947400  0.657500  1.0  -0.2785
  O  O229  1  0.100400  0.972300  0.793400  1.0  -0.2086
  O  O230  1  0.084800  0.985600  0.669500  1.0  -0.2191
  O  O231  1  0.566300  0.857000  0.901300  1.0  -0.2322
  O  O232  1  0.767000  0.770900  0.896900  1.0  -0.2429
  O  O233  1  0.948800  0.865000  0.899700  1.0  -0.2101
  O  O234  1  0.924800  0.096100  0.893000  1.0  -0.2044
  O  O235  1  0.713400  0.177500  0.887000  1.0  -0.2358
  O  O236  1  0.545200  0.082100  0.903000  1.0  -0.2157
  O  O237  1  0.252900  0.594980  0.250930  1.0  -0.8954
  O  O238  1  0.242100  0.466460  0.256420  1.0  -0.9238
  O  O239  1  0.362000  0.524140  0.168740  1.0  -0.8588
  O  O240  1  0.124800  0.531790  0.170360  1.0  -0.8864
  O  O241  1  0.521000  0.915930  0.244700  1.0  -0.6494
  O  O242  1  0.650900  0.854600  0.288740  1.0  -0.5933
  O  O243  1  0.399900  0.688200  0.201550  1.0  -0.5814
  O  O244  1  0.495900  0.633100  0.266900  1.0  -0.6605
  O  O245  1  0.012400  0.644000  0.255200  1.0  -0.6709
  O  O246  1  0.132300  0.701900  0.201700  1.0  -0.6082
  O  O247  1  0.998800  0.928300  0.220500  1.0  -0.6561
  O  O248  1  0.914900  0.876100  0.291800  1.0  -0.5882
  O  O249  1  0.145800  0.455700  0.860210  1.0  -0.6582
  O  O250  1  0.339700  0.458500  0.861490  1.0  -0.66
  O  O251  1  0.245700  0.473270  0.062390  1.0  -0.5708
  O  O252  1  0.255900  0.579570  0.055470  1.0  -0.6554
  O  O253  1  0.885600  0.532400  0.220000  1.0  -0.2232
  O  O254  1  0.924400  0.552600  0.342500  1.0  -0.2785
  O  O255  1  0.600400  0.527700  0.206600  1.0  -0.2085
  O  O256  1  0.584800  0.514400  0.330500  1.0  -0.2194
  O  O257  1  0.066300  0.643000  0.098700  1.0  -0.2306
  O  O258  1  0.267000  0.729100  0.103100  1.0  -0.2464
  O  O259  1  0.448800  0.635000  0.100300  1.0  -0.2096
  O  O260  1  0.424800  0.403900  0.107000  1.0  -0.2039
  O  O261  1  0.213400  0.322500  0.113000  1.0  -0.2384
  O  O262  1  0.045200  0.417900  0.097000  1.0  -0.2164
  O  O263  1  0.247100  0.405020  0.750930  1.0  -0.8977
  O  O264  1  0.257900  0.533540  0.756420  1.0  -0.9216
  O  O265  1  0.138000  0.475860  0.668740  1.0  -0.8591
  O  O266  1  0.375200  0.468210  0.670360  1.0  -0.8868
  O  O267  1  0.979000  0.084070  0.744700  1.0  -0.6499
  O  O268  1  0.849100  0.145400  0.788740  1.0  -0.5933
  O  O269  1  0.100100  0.311800  0.701550  1.0  -0.5818
  O  O270  1  0.004100  0.366900  0.766900  1.0  -0.6624
  O  O271  1  0.487600  0.356000  0.755200  1.0  -0.6714
  O  O272  1  0.367700  0.298100  0.701700  1.0  -0.6079
  O  O273  1  0.501200  0.071700  0.720500  1.0  -0.6584
  O  O274  1  0.585100  0.123900  0.791800  1.0  -0.5878
  O  O275  1  0.354200  0.544300  0.360210  1.0  -0.6555
  O  O276  1  0.160300  0.541500  0.361490  1.0  -0.6625
  O  O277  1  0.254300  0.526730  0.562390  1.0  -0.5713
  O  O278  1  0.244100  0.420430  0.555470  1.0  -0.6548
  O  O279  1  0.614400  0.467600  0.720000  1.0  -0.2213
  O  O280  1  0.575600  0.447400  0.842500  1.0  -0.2757
  O  O281  1  0.899600  0.472300  0.706600  1.0  -0.2093
  O  O282  1  0.915200  0.485600  0.830500  1.0  -0.2198
  O  O283  1  0.433700  0.357000  0.598700  1.0  -0.2321
  O  O284  1  0.233000  0.270900  0.603100  1.0  -0.2464
  O  O285  1  0.051200  0.365000  0.600300  1.0  -0.2102
  O  O286  1  0.075200  0.596100  0.607000  1.0  -0.2044
  O  O287  1  0.286600  0.677500  0.613000  1.0  -0.2405
  O  O288  1  0.454800  0.582100  0.597000  1.0  -0.2151
  O  O289  1  0.751600  0.438000  0.149700  1.0  -0.5551
  O  O290  1  0.783200  0.369100  0.212900  1.0  -0.5619
  O  O291  1  0.638400  0.346800  0.142000  1.0  -0.5612
  O  O292  1  0.830200  0.344700  0.119300  1.0  -0.5403
  O  O293  1  0.247200  0.113800  0.355000  1.0  -0.5427
  O  O294  1  0.140400  0.210900  0.364200  1.0  -0.569
  O  O295  1  0.268800  0.206000  0.307000  1.0  -0.612
  O  O296  1  0.334500  0.211700  0.391300  1.0  -0.5516
  O  O297  1  0.017300  0.186300  0.102000  1.0  -0.536
  O  O298  1  0.016200  0.278900  0.050500  1.0  -0.5375
  O  O299  1  0.043400  0.186600  0.001800  1.0  -0.5298
  O  O300  1  0.868000  0.203400  0.044300  1.0  -0.5328
  O  O301  1  0.342800  0.025000  0.548400  1.0  -0.5814
  O  O302  1  0.319500  0.007300  0.457900  1.0  -0.5123
  O  O303  1  0.476900  0.066600  0.488700  1.0  -0.5494
  O  O304  1  0.476500  0.961800  0.507900  1.0  -0.5512
  O  O305  1  0.513900  0.876500  0.105000  1.0  -0.5605
  O  O306  1  0.354900  0.876500  0.059900  1.0  -0.5904
  O  O307  1  0.475200  0.784000  0.062900  1.0  -0.5585
  O  O308  1  0.510500  0.897200  0.010400  1.0  -0.5711
  O  O309  1  0.748400  0.562000  0.649700  1.0  -0.5574
  O  O310  1  0.716800  0.630900  0.712900  1.0  -0.5608
  O  O311  1  0.861600  0.653200  0.642000  1.0  -0.5599
  O  O312  1  0.669800  0.655300  0.619300  1.0  -0.5409
  O  O313  1  0.252800  0.886200  0.855000  1.0  -0.5378
  O  O314  1  0.359600  0.789100  0.864200  1.0  -0.5685
  O  O315  1  0.231200  0.794000  0.807000  1.0  -0.6125
  O  O316  1  0.165500  0.788300  0.891300  1.0  -0.5513
  O  O317  1  0.482700  0.813700  0.602000  1.0  -0.5366
  O  O318  1  0.483800  0.721100  0.550500  1.0  -0.5354
  O  O319  1  0.456600  0.813400  0.501800  1.0  -0.5286
  O  O320  1  0.632000  0.796600  0.544300  1.0  -0.5337
  O  O321  1  0.157200  0.975000  0.048400  1.0  -0.5819
  O  O322  1  0.180500  0.992700  0.957900  1.0  -0.5111
  O  O323  1  0.023100  0.933400  0.988700  1.0  -0.5489
  O  O324  1  0.023500  0.038200  0.007900  1.0  -0.5553
  O  O325  1  0.986100  0.123500  0.605000  1.0  -0.5614
  O  O326  1  0.145100  0.123500  0.559900  1.0  -0.5943
  O  O327  1  0.024800  0.216000  0.562900  1.0  -0.5589
  O  O328  1  0.989500  0.102800  0.510400  1.0  -0.5707
  O  O329  1  0.248400  0.938000  0.350300  1.0  -0.5538
  O  O330  1  0.216800  0.869100  0.287100  1.0  -0.5616
  O  O331  1  0.361600  0.846800  0.358000  1.0  -0.5592
  O  O332  1  0.169800  0.844700  0.380700  1.0  -0.5404
  O  O333  1  0.752800  0.613800  0.145000  1.0  -0.5442
  O  O334  1  0.859600  0.710900  0.135800  1.0  -0.5694
  O  O335  1  0.731200  0.706000  0.193000  1.0  -0.6118
  O  O336  1  0.665500  0.711700  0.108700  1.0  -0.5511
  O  O337  1  0.982700  0.686300  0.398000  1.0  -0.5371
  O  O338  1  0.983800  0.778900  0.449500  1.0  -0.5361
  O  O339  1  0.956600  0.686600  0.498200  1.0  -0.5304
  O  O340  1  0.132000  0.703400  0.455700  1.0  -0.5327
  O  O341  1  0.657200  0.525000  0.951600  1.0  -0.5792
  O  O342  1  0.680500  0.507300  0.042100  1.0  -0.5145
  O  O343  1  0.523100  0.566600  0.011300  1.0  -0.5489
  O  O344  1  0.523500  0.461800  0.992100  1.0  -0.5543
  O  O345  1  0.486100  0.376500  0.395000  1.0  -0.5609
  O  O346  1  0.645100  0.376500  0.440100  1.0  -0.593
  O  O347  1  0.524800  0.284000  0.437100  1.0  -0.5574
  O  O348  1  0.489500  0.397200  0.489600  1.0  -0.5721
  O  O349  1  0.251600  0.062000  0.850300  1.0  -0.5558
  O  O350  1  0.283200  0.130900  0.787100  1.0  -0.5606
  O  O351  1  0.138400  0.153200  0.858000  1.0  -0.5589
  O  O352  1  0.330200  0.155300  0.880700  1.0  -0.5405
  O  O353  1  0.747200  0.386200  0.645000  1.0  -0.5417
  O  O354  1  0.640400  0.289100  0.635800  1.0  -0.5689
  O  O355  1  0.768800  0.294000  0.693000  1.0  -0.6123
  O  O356  1  0.834500  0.288300  0.608700  1.0  -0.5524
  O  O357  1  0.517300  0.313700  0.898000  1.0  -0.5384
  O  O358  1  0.516200  0.221100  0.949500  1.0  -0.5354
  O  O359  1  0.543400  0.313400  0.998200  1.0  -0.5319
  O  O360  1  0.368000  0.296600  0.955700  1.0  -0.5314
  O  O361  1  0.842800  0.475000  0.451600  1.0  -0.5779
  O  O362  1  0.819500  0.492700  0.542100  1.0  -0.5141
  O  O363  1  0.976900  0.433400  0.511300  1.0  -0.5495
  O  O364  1  0.976500  0.538200  0.492100  1.0  -0.5543
  O  O365  1  0.013900  0.623500  0.895000  1.0  -0.562
  O  O366  1  0.854900  0.623500  0.940100  1.0  -0.59
  O  O367  1  0.975200  0.716000  0.937100  1.0  -0.5555
  O  O368  1  0.010500  0.602800  0.989600  1.0  -0.5728
