# generated using pymatgen
data_Gd4H22C12N3O16
_symmetry_space_group_name_H-M   'P 1'
_cell_length_a   11.53770000
_cell_length_b   20.72380000
_cell_length_c   23.58440000
_cell_angle_alpha   90.00000000
_cell_angle_beta   90.00000000
_cell_angle_gamma   90.00000000
_symmetry_Int_Tables_number   1
_chemical_formula_structural   Gd4H22C12N3O16
_chemical_formula_sum   'Gd16 H88 C48 N12 O64'
_cell_volume   5639.14766153
_cell_formula_units_Z   4
loop_
 _symmetry_equiv_pos_site_id
 _symmetry_equiv_pos_as_xyz
  1  'x, y, z'
loop_
 _atom_site_type_symbol
 _atom_site_label
 _atom_site_symmetry_multiplicity
 _atom_site_fract_x
 _atom_site_fract_y
 _atom_site_fract_z
 _atom_site_occupancy
 _atom_site_charge
  Gd  Gd1  1  0.581320  0.964300  0.268260  1.0  2.1161
  Gd  Gd2  1  0.916440  0.973180  0.265630  1.0  2.1009
  Gd  Gd3  1  0.756220  0.877160  0.152200  1.0  2.0939
  Gd  Gd4  1  0.735580  0.066780  0.157270  1.0  2.1035
  Gd  Gd5  1  0.918680  0.035700  0.768260  1.0  2.1098
  Gd  Gd6  1  0.583560  0.026820  0.765630  1.0  2.1072
  Gd  Gd7  1  0.743780  0.122840  0.652200  1.0  2.0928
  Gd  Gd8  1  0.764420  0.933220  0.657270  1.0  2.1035
  Gd  Gd9  1  0.418680  0.464300  0.231740  1.0  2.1097
  Gd  Gd10  1  0.083560  0.473180  0.234370  1.0  2.1071
  Gd  Gd11  1  0.243780  0.377160  0.347800  1.0  2.0965
  Gd  Gd12  1  0.264420  0.566780  0.342730  1.0  2.1033
  Gd  Gd13  1  0.081320  0.535700  0.731740  1.0  2.1146
  Gd  Gd14  1  0.416440  0.526820  0.734370  1.0  2.1011
  Gd  Gd15  1  0.256220  0.622840  0.847800  1.0  2.0957
  Gd  Gd16  1  0.235580  0.433220  0.842730  1.0  2.1038
  H  H17  1  0.859600  0.915100  0.506200  1.0  0.1529
  H  H18  1  0.923200  0.939900  0.457600  1.0  0.1466
  H  H19  1  0.864000  0.878200  0.453800  1.0  0.2115
  H  H20  1  0.686500  0.926900  0.460900  1.0  -0.0097
  H  H21  1  0.349600  0.718300  0.291800  1.0  0.1748
  H  H22  1  0.339100  0.767200  0.247900  1.0  0.1561
  H  H23  1  0.378800  0.785100  0.304200  1.0  0.2192
  H  H24  1  0.818000  0.042500  0.457300  1.0  0.0258
  H  H25  1  0.682500  0.040300  0.456500  1.0  0.0373
  H  H26  1  0.866600  0.714700  0.189300  1.0  0.1437
  H  H27  1  0.850500  0.666667  0.233600  1.0  0.1842
  H  H28  1  0.903600  0.648500  0.180000  1.0  0.207
  H  H29  1  0.546500  0.730600  0.294300  1.0  0.0089
  H  H30  1  0.588100  0.681400  0.207900  1.0  0.0147
  H  H31  1  0.461300  0.695400  0.187800  1.0  0.0285
  H  H32  1  0.066600  0.708000  0.197900  1.0  0.0103
  H  H33  1  0.958300  0.742600  0.300700  1.0  0.0436
  H  H34  1  0.085300  0.761700  0.284900  1.0  0.0441
  H  H35  1  0.757600  0.866500  0.274900  1.0  0.3623
  H  H36  1  0.741200  0.070300  0.282300  1.0  0.3297
  H  H37  1  0.929700  0.978600  0.144500  1.0  0.252
  H  H38  1  0.556100  0.967200  0.147000  1.0  0.3099
  H  H39  1  0.640400  0.084900  0.006200  1.0  0.1516
  H  H40  1  0.576800  0.060100  0.957600  1.0  0.1462
  H  H41  1  0.636000  0.121800  0.953800  1.0  0.2105
  H  H42  1  0.813500  0.073100  0.960900  1.0  -0.011
  H  H43  1  0.150400  0.281700  0.791800  1.0  0.1733
  H  H44  1  0.160900  0.232800  0.747900  1.0  0.1571
  H  H45  1  0.121200  0.214900  0.804200  1.0  0.2183
  H  H46  1  0.682000  0.957500  0.957300  1.0  0.0259
  H  H47  1  0.817500  0.959700  0.956500  1.0  0.0363
  H  H48  1  0.633400  0.285300  0.689300  1.0  0.1475
  H  H49  1  0.649500  0.333333  0.733600  1.0  0.1849
  H  H50  1  0.596400  0.351500  0.680000  1.0  0.2084
  H  H51  1  0.953500  0.269400  0.794300  1.0  0.0093
  H  H52  1  0.911900  0.318600  0.707900  1.0  0.016
  H  H53  1  0.038700  0.304600  0.687800  1.0  0.0279
  H  H54  1  0.433400  0.292000  0.697900  1.0  0.0105
  H  H55  1  0.541700  0.257400  0.800700  1.0  0.0441
  H  H56  1  0.414700  0.238300  0.784900  1.0  0.0459
  H  H57  1  0.742400  0.133500  0.774900  1.0  0.3617
  H  H58  1  0.758800  0.929700  0.782300  1.0  0.332
  H  H59  1  0.570300  0.021400  0.644500  1.0  0.2507
  H  H60  1  0.943900  0.032800  0.647000  1.0  0.3096
  H  H61  1  0.140400  0.415100  0.993800  1.0  0.1524
  H  H62  1  0.076800  0.439900  0.042400  1.0  0.1467
  H  H63  1  0.136000  0.378200  0.046200  1.0  0.2116
  H  H64  1  0.313500  0.426900  0.039100  1.0  -0.0125
  H  H65  1  0.650400  0.218300  0.208200  1.0  0.1722
  H  H66  1  0.660900  0.267200  0.252100  1.0  0.1574
  H  H67  1  0.621200  0.285100  0.195800  1.0  0.2162
  H  H68  1  0.182000  0.542500  0.042700  1.0  0.0263
  H  H69  1  0.317500  0.540300  0.043500  1.0  0.0374
  H  H70  1  0.133400  0.214700  0.310700  1.0  0.1449
  H  H71  1  0.149500  0.166700  0.266400  1.0  0.1836
  H  H72  1  0.096400  0.148500  0.320000  1.0  0.2081
  H  H73  1  0.453500  0.230600  0.205700  1.0  0.0081
  H  H74  1  0.411900  0.181400  0.292100  1.0  0.0154
  H  H75  1  0.538700  0.195400  0.312200  1.0  0.03
  H  H76  1  0.933400  0.208000  0.302100  1.0  0.0117
  H  H77  1  0.041700  0.242600  0.199300  1.0  0.0412
  H  H78  1  0.914700  0.261700  0.215100  1.0  0.0453
  H  H79  1  0.242400  0.366500  0.225100  1.0  0.3625
  H  H80  1  0.258800  0.570300  0.217700  1.0  0.3304
  H  H81  1  0.070300  0.478600  0.355500  1.0  0.2521
  H  H82  1  0.443900  0.467200  0.353000  1.0  0.3099
  H  H83  1  0.359600  0.584900  0.493800  1.0  0.1534
  H  H84  1  0.423200  0.560100  0.542400  1.0  0.1464
  H  H85  1  0.364000  0.621800  0.546200  1.0  0.2099
  H  H86  1  0.186500  0.573100  0.539100  1.0  -0.0096
  H  H87  1  0.849600  0.781700  0.708200  1.0  0.1719
  H  H88  1  0.839100  0.732800  0.752100  1.0  0.1597
  H  H89  1  0.878800  0.714900  0.695800  1.0  0.2167
  H  H90  1  0.318000  0.457500  0.542700  1.0  0.0261
  H  H91  1  0.182500  0.459700  0.543500  1.0  0.0371
  H  H92  1  0.366600  0.785300  0.810700  1.0  0.1498
  H  H93  1  0.350500  0.833300  0.766400  1.0  0.1826
  H  H94  1  0.403600  0.851500  0.820000  1.0  0.209
  H  H95  1  0.046500  0.769400  0.705700  1.0  0.0074
  H  H96  1  0.088100  0.818600  0.792100  1.0  0.0146
  H  H97  1  0.961300  0.804600  0.812200  1.0  0.0295
  H  H98  1  0.566600  0.792000  0.802100  1.0  0.0116
  H  H99  1  0.458300  0.757400  0.699300  1.0  0.042
  H  H100  1  0.585300  0.738300  0.715100  1.0  0.0452
  H  H101  1  0.257600  0.633500  0.725100  1.0  0.3624
  H  H102  1  0.241200  0.429700  0.717700  1.0  0.3318
  H  H103  1  0.429700  0.521400  0.855500  1.0  0.2526
  H  H104  1  0.056100  0.532800  0.853000  1.0  0.3111
  C  C105  1  0.755800  0.955500  0.383800  1.0  0.6082
  C  C106  1  0.755200  0.950800  0.448400  1.0  0.109
  C  C107  1  0.751100  0.019200  0.471400  1.0  -0.4223
  C  C108  1  0.749200  0.024600  0.535600  1.0  0.6976
  C  C109  1  0.554500  0.804400  0.236400  1.0  0.6055
  C  C110  1  0.502600  0.742000  0.260200  1.0  0.0869
  C  C111  1  0.508700  0.686000  0.220800  1.0  -0.3686
  C  C112  1  0.469400  0.621800  0.245900  1.0  0.6685
  C  C113  1  0.067000  0.636300  0.257500  1.0  0.5988
  C  C114  1  0.016200  0.696100  0.229700  1.0  0.0576
  C  C115  1  0.008800  0.753800  0.269400  1.0  -0.4117
  C  C116  1  0.965200  0.815800  0.243500  1.0  0.6785
  C  C117  1  0.744200  0.044500  0.883800  1.0  0.6081
  C  C118  1  0.744800  0.049200  0.948400  1.0  0.1101
  C  C119  1  0.748900  0.980800  0.971400  1.0  -0.4243
  C  C120  1  0.750800  0.975400  0.035600  1.0  0.6964
  C  C121  1  0.945500  0.195600  0.736400  1.0  0.6063
  C  C122  1  0.997400  0.258000  0.760200  1.0  0.0851
  C  C123  1  0.991300  0.314000  0.720800  1.0  -0.3668
  C  C124  1  0.030600  0.378200  0.745900  1.0  0.6692
  C  C125  1  0.433000  0.363700  0.757500  1.0  0.5979
  C  C126  1  0.483800  0.303900  0.729700  1.0  0.0568
  C  C127  1  0.491200  0.246200  0.769400  1.0  -0.4115
  C  C128  1  0.534800  0.184200  0.743500  1.0  0.678
  C  C129  1  0.244200  0.455500  0.116200  1.0  0.6081
  C  C130  1  0.244800  0.450800  0.051600  1.0  0.11
  C  C131  1  0.248900  0.519200  0.028600  1.0  -0.4252
  C  C132  1  0.250800  0.524600  0.964400  1.0  0.6974
  C  C133  1  0.445500  0.304400  0.263600  1.0  0.6039
  C  C134  1  0.497400  0.242000  0.239800  1.0  0.0849
  C  C135  1  0.491300  0.186000  0.279200  1.0  -0.3679
  C  C136  1  0.530600  0.121800  0.254100  1.0  0.6691
  C  C137  1  0.933000  0.136300  0.242500  1.0  0.5994
  C  C138  1  0.983800  0.196100  0.270300  1.0  0.0554
  C  C139  1  0.991200  0.253800  0.230600  1.0  -0.41
  C  C140  1  0.034800  0.315800  0.256500  1.0  0.6785
  C  C141  1  0.255800  0.544500  0.616200  1.0  0.6078
  C  C142  1  0.255200  0.549200  0.551600  1.0  0.1094
  C  C143  1  0.251100  0.480800  0.528600  1.0  -0.4242
  C  C144  1  0.249200  0.475400  0.464400  1.0  0.697
  C  C145  1  0.054500  0.695600  0.763600  1.0  0.604
  C  C146  1  0.002600  0.758000  0.739800  1.0  0.0881
  C  C147  1  0.008700  0.814000  0.779200  1.0  -0.3688
  C  C148  1  0.969400  0.878200  0.754100  1.0  0.6691
  C  C149  1  0.567000  0.863700  0.742500  1.0  0.5995
  C  C150  1  0.516200  0.803900  0.770300  1.0  0.0574
  C  C151  1  0.508800  0.746200  0.730600  1.0  -0.4094
  C  C152  1  0.465200  0.684200  0.756500  1.0  0.6796
  N  N153  1  0.861000  0.917700  0.468500  1.0  -0.4796
  N  N154  1  0.380100  0.754400  0.277800  1.0  -0.4244
  N  N155  1  0.896800  0.679800  0.205600  1.0  -0.4429
  N  N156  1  0.639000  0.082300  0.968500  1.0  -0.4787
  N  N157  1  0.119900  0.245600  0.777800  1.0  -0.4226
  N  N158  1  0.603200  0.320200  0.705600  1.0  -0.4439
  N  N159  1  0.139000  0.417700  0.031500  1.0  -0.4779
  N  N160  1  0.619900  0.254400  0.222200  1.0  -0.4211
  N  N161  1  0.103200  0.179800  0.294400  1.0  -0.4449
  N  N162  1  0.361000  0.582300  0.531500  1.0  -0.4817
  N  N163  1  0.880100  0.745600  0.722200  1.0  -0.4215
  N  N164  1  0.396800  0.820200  0.794400  1.0  -0.4457
  O  O165  1  0.753600  0.905110  0.250950  1.0  -1.0072
  O  O166  1  0.743400  0.033400  0.256340  1.0  -1.0741
  O  O167  1  0.861800  0.975400  0.169250  1.0  -0.974
  O  O168  1  0.625800  0.968500  0.170740  1.0  -0.984
  O  O169  1  0.853100  0.957600  0.359800  1.0  -0.7738
  O  O170  1  0.659200  0.958900  0.360800  1.0  -0.8293
  O  O171  1  0.744700  0.079900  0.556820  1.0  -0.8139
  O  O172  1  0.754200  0.972800  0.563170  1.0  -0.7134
  O  O173  1  0.513400  0.856800  0.255900  1.0  -0.7663
  O  O174  1  0.633000  0.798500  0.201700  1.0  -0.7052
  O  O175  1  0.412400  0.624300  0.292200  1.0  -0.7122
  O  O176  1  0.496200  0.571400  0.220900  1.0  -0.7331
  O  O177  1  0.023200  0.583300  0.243000  1.0  -0.7691
  O  O178  1  0.149800  0.644500  0.288700  1.0  -0.6995
  O  O179  1  0.994100  0.867100  0.266800  1.0  -0.7877
  O  O180  1  0.897500  0.811200  0.201700  1.0  -0.6924
  O  O181  1  0.746400  0.094890  0.750950  1.0  -1.0045
  O  O182  1  0.756600  0.966600  0.756340  1.0  -1.0764
  O  O183  1  0.638200  0.024600  0.669250  1.0  -0.9778
  O  O184  1  0.874200  0.031500  0.670740  1.0  -0.9806
  O  O185  1  0.646900  0.042400  0.859800  1.0  -0.7748
  O  O186  1  0.840800  0.041100  0.860800  1.0  -0.8242
  O  O187  1  0.755300  0.920100  0.056820  1.0  -0.8114
  O  O188  1  0.745800  0.027200  0.063170  1.0  -0.7133
  O  O189  1  0.986600  0.143200  0.755900  1.0  -0.7639
  O  O190  1  0.867000  0.201500  0.701700  1.0  -0.7043
  O  O191  1  0.087600  0.375700  0.792200  1.0  -0.7134
  O  O192  1  0.003800  0.428600  0.720900  1.0  -0.7325
  O  O193  1  0.476800  0.416700  0.743000  1.0  -0.7699
  O  O194  1  0.350200  0.355500  0.788700  1.0  -0.6993
  O  O195  1  0.505900  0.132900  0.766800  1.0  -0.7878
  O  O196  1  0.602500  0.188800  0.701700  1.0  -0.6926
  O  O197  1  0.246400  0.405110  0.249050  1.0  -1.0075
  O  O198  1  0.256600  0.533400  0.243660  1.0  -1.0728
  O  O199  1  0.138200  0.475400  0.330750  1.0  -0.9773
  O  O200  1  0.374200  0.468500  0.329260  1.0  -0.9802
  O  O201  1  0.146900  0.457600  0.140200  1.0  -0.7735
  O  O202  1  0.340800  0.458900  0.139200  1.0  -0.825
  O  O203  1  0.255300  0.579900  0.943180  1.0  -0.815
  O  O204  1  0.245800  0.472800  0.936830  1.0  -0.7133
  O  O205  1  0.486600  0.356800  0.244100  1.0  -0.7648
  O  O206  1  0.367000  0.298500  0.298300  1.0  -0.706
  O  O207  1  0.587600  0.124300  0.207800  1.0  -0.7124
  O  O208  1  0.503800  0.071400  0.279100  1.0  -0.7336
  O  O209  1  0.976800  0.083300  0.257000  1.0  -0.7696
  O  O210  1  0.850200  0.144500  0.211300  1.0  -0.6987
  O  O211  1  0.005900  0.367100  0.233200  1.0  -0.7865
  O  O212  1  0.102500  0.311200  0.298300  1.0  -0.6932
  O  O213  1  0.253600  0.594890  0.749050  1.0  -1.0046
  O  O214  1  0.243400  0.466600  0.743660  1.0  -1.0744
  O  O215  1  0.361800  0.524600  0.830750  1.0  -0.9734
  O  O216  1  0.125800  0.531500  0.829260  1.0  -0.9838
  O  O217  1  0.353100  0.542400  0.640200  1.0  -0.7735
  O  O218  1  0.159200  0.541100  0.639200  1.0  -0.8291
  O  O219  1  0.244700  0.420100  0.443180  1.0  -0.81
  O  O220  1  0.254200  0.527200  0.436830  1.0  -0.7139
  O  O221  1  0.013400  0.643200  0.744100  1.0  -0.7646
  O  O222  1  0.133000  0.701500  0.798300  1.0  -0.707
  O  O223  1  0.912400  0.875700  0.707800  1.0  -0.7118
  O  O224  1  0.996200  0.928600  0.779100  1.0  -0.7329
  O  O225  1  0.523200  0.916700  0.757000  1.0  -0.7704
  O  O226  1  0.649800  0.855500  0.711300  1.0  -0.6992
  O  O227  1  0.494100  0.632900  0.733200  1.0  -0.7903
  O  O228  1  0.397500  0.688800  0.798300  1.0  -0.693
