# generated using pymatgen
data_Nd4H22C12N3Cl5O46
_symmetry_space_group_name_H-M   'P 1'
_cell_length_a   11.56750000
_cell_length_b   20.92400000
_cell_length_c   23.79930000
_cell_angle_alpha   90.00000000
_cell_angle_beta   90.00000000
_cell_angle_gamma   90.00000000
_symmetry_Int_Tables_number   1
_chemical_formula_structural   Nd4H22C12N3Cl5O46
_chemical_formula_sum   'Nd16 H88 C48 N12 Cl20 O184'
_cell_volume   5760.34377914
_cell_formula_units_Z   4
loop_
 _symmetry_equiv_pos_site_id
 _symmetry_equiv_pos_as_xyz
  1  'x, y, z'
loop_
 _atom_site_type_symbol
 _atom_site_label
 _atom_site_symmetry_multiplicity
 _atom_site_fract_x
 _atom_site_fract_y
 _atom_site_fract_z
 _atom_site_occupancy
 _atom_site_charge
  Nd  Nd1  1  0.421590  0.036390  0.731020  1.0  2.3104
  Nd  Nd2  1  0.243650  0.123800  0.849520  1.0  2.237
  Nd  Nd3  1  0.080070  0.026350  0.734180  1.0  2.2987
  Nd  Nd4  1  0.265690  0.932240  0.844010  1.0  2.2551
  Nd  Nd5  1  0.078410  0.963610  0.231020  1.0  2.309
  Nd  Nd6  1  0.256350  0.876200  0.349520  1.0  2.2381
  Nd  Nd7  1  0.419930  0.973650  0.234180  1.0  2.3001
  Nd  Nd8  1  0.234310  0.067760  0.344010  1.0  2.2551
  Nd  Nd9  1  0.578410  0.536390  0.768980  1.0  2.3106
  Nd  Nd10  1  0.756350  0.623800  0.650480  1.0  2.2386
  Nd  Nd11  1  0.919930  0.526350  0.765820  1.0  2.301
  Nd  Nd12  1  0.734310  0.432240  0.655990  1.0  2.2548
  Nd  Nd13  1  0.921590  0.463610  0.268980  1.0  2.3078
  Nd  Nd14  1  0.743650  0.376200  0.150480  1.0  2.2389
  Nd  Nd15  1  0.580070  0.473650  0.265820  1.0  2.3008
  Nd  Nd16  1  0.765690  0.567760  0.155990  1.0  2.2546
  H  H17  1  0.350100  0.783000  0.790900  1.0  0.2333
  H  H18  1  0.339400  0.733700  0.748100  1.0  0.2494
  H  H19  1  0.379400  0.717200  0.804200  1.0  0.253
  H  H20  1  0.902800  0.852600  0.683700  1.0  0.2715
  H  H21  1  0.870300  0.785700  0.688100  1.0  0.2531
  H  H22  1  0.850600  0.828700  0.735100  1.0  0.2583
  H  H23  1  0.587700  0.817900  0.707300  1.0  0.1313
  H  H24  1  0.460100  0.805000  0.688600  1.0  0.145
  H  H25  1  0.547600  0.770000  0.793200  1.0  0.1046
  H  H26  1  0.364600  0.917000  0.993200  1.0  0.2711
  H  H27  1  0.426700  0.941400  0.041700  1.0  0.2594
  H  H28  1  0.370700  0.879300  0.044400  1.0  0.3323
  H  H29  1  0.066400  0.792000  0.698000  1.0  0.112
  H  H30  1  0.955400  0.756700  0.799400  1.0  0.1482
  H  H31  1  0.083700  0.739000  0.785800  1.0  0.147
  H  H32  1  0.180300  0.037400  0.044700  1.0  0.1449
  H  H33  1  0.315300  0.041400  0.044900  1.0  0.1381
  H  H34  1  0.188900  0.925800  0.038700  1.0  0.1036
  H  H35  1  0.260100  0.930200  0.718100  1.0  0.4136
  H  H36  1  0.241900  0.133600  0.726000  1.0  0.4653
  H  H37  1  0.068500  0.020900  0.856300  1.0  0.4045
  H  H38  1  0.445700  0.033400  0.853700  1.0  0.4195
  H  H39  1  0.149900  0.217000  0.290900  1.0  0.2337
  H  H40  1  0.160600  0.266300  0.248100  1.0  0.2497
  H  H41  1  0.120600  0.282800  0.304200  1.0  0.2493
  H  H42  1  0.597200  0.147400  0.183700  1.0  0.2697
  H  H43  1  0.629700  0.214300  0.188100  1.0  0.2546
  H  H44  1  0.649400  0.171300  0.235100  1.0  0.2612
  H  H45  1  0.912300  0.182100  0.207300  1.0  0.1281
  H  H46  1  0.039900  0.195000  0.188600  1.0  0.1436
  H  H47  1  0.952400  0.230000  0.293200  1.0  0.1044
  H  H48  1  0.135400  0.083000  0.493200  1.0  0.2707
  H  H49  1  0.073300  0.058600  0.541700  1.0  0.2593
  H  H50  1  0.129300  0.120700  0.544400  1.0  0.3335
  H  H51  1  0.433600  0.208000  0.198000  1.0  0.111
  H  H52  1  0.544600  0.243300  0.299400  1.0  0.1487
  H  H53  1  0.416300  0.261000  0.285800  1.0  0.1447
  H  H54  1  0.319700  0.962600  0.544700  1.0  0.1451
  H  H55  1  0.184700  0.958600  0.544900  1.0  0.1395
  H  H56  1  0.311100  0.074200  0.538700  1.0  0.1033
  H  H57  1  0.239900  0.069800  0.218100  1.0  0.4118
  H  H58  1  0.258100  0.866400  0.226000  1.0  0.4674
  H  H59  1  0.431500  0.979100  0.356300  1.0  0.403
  H  H60  1  0.054300  0.966600  0.353700  1.0  0.4194
  H  H61  1  0.649900  0.283000  0.709100  1.0  0.2336
  H  H62  1  0.660600  0.233700  0.751900  1.0  0.2516
  H  H63  1  0.620600  0.217200  0.695800  1.0  0.2527
  H  H64  1  0.097200  0.352600  0.816300  1.0  0.2711
  H  H65  1  0.129700  0.285700  0.811900  1.0  0.2539
  H  H66  1  0.149400  0.328700  0.764900  1.0  0.2586
  H  H67  1  0.412300  0.317900  0.792700  1.0  0.1288
  H  H68  1  0.539900  0.305000  0.811400  1.0  0.1454
  H  H69  1  0.452400  0.270000  0.706800  1.0  0.1039
  H  H70  1  0.635400  0.417000  0.506800  1.0  0.2719
  H  H71  1  0.573300  0.441400  0.458300  1.0  0.2601
  H  H72  1  0.629300  0.379300  0.455600  1.0  0.3304
  H  H73  1  0.933600  0.292000  0.802000  1.0  0.1115
  H  H74  1  0.044600  0.256700  0.700600  1.0  0.1473
  H  H75  1  0.916300  0.239000  0.714200  1.0  0.1433
  H  H76  1  0.819700  0.537400  0.455300  1.0  0.1453
  H  H77  1  0.684700  0.541400  0.455100  1.0  0.1382
  H  H78  1  0.811100  0.425800  0.461300  1.0  0.1033
  H  H79  1  0.739900  0.430200  0.781900  1.0  0.4138
  H  H80  1  0.758100  0.633600  0.774000  1.0  0.465
  H  H81  1  0.931500  0.520900  0.643700  1.0  0.4036
  H  H82  1  0.554300  0.533400  0.646300  1.0  0.4182
  H  H83  1  0.850100  0.717000  0.209100  1.0  0.2326
  H  H84  1  0.839400  0.766300  0.251900  1.0  0.2488
  H  H85  1  0.879400  0.782800  0.195800  1.0  0.2512
  H  H86  1  0.402800  0.647400  0.316300  1.0  0.2713
  H  H87  1  0.370300  0.714300  0.311900  1.0  0.2541
  H  H88  1  0.350600  0.671300  0.264900  1.0  0.2562
  H  H89  1  0.087700  0.682100  0.292700  1.0  0.131
  H  H90  1  0.960100  0.695000  0.311400  1.0  0.1459
  H  H91  1  0.047600  0.730000  0.206800  1.0  0.1042
  H  H92  1  0.864600  0.583000  0.006800  1.0  0.2719
  H  H93  1  0.926700  0.558600  0.958300  1.0  0.2583
  H  H94  1  0.870700  0.620700  0.955600  1.0  0.3322
  H  H95  1  0.566400  0.708000  0.302000  1.0  0.112
  H  H96  1  0.455400  0.743300  0.200600  1.0  0.1489
  H  H97  1  0.583700  0.761000  0.214200  1.0  0.146
  H  H98  1  0.680300  0.462600  0.955300  1.0  0.146
  H  H99  1  0.815300  0.458600  0.955100  1.0  0.1381
  H  H100  1  0.688900  0.574200  0.961300  1.0  0.1027
  H  H101  1  0.760100  0.569800  0.281900  1.0  0.4114
  H  H102  1  0.741900  0.366400  0.274000  1.0  0.4661
  H  H103  1  0.568500  0.479100  0.143700  1.0  0.4041
  H  H104  1  0.945700  0.466600  0.146300  1.0  0.4185
  C  C105  1  0.472200  0.878200  0.746000  1.0  0.7633
  C  C106  1  0.508900  0.814000  0.720800  1.0  -0.2537
  C  C107  1  0.503000  0.759000  0.759600  1.0  0.2028
  C  C108  1  0.551600  0.696600  0.736200  1.0  0.7003
  C  C109  1  0.066700  0.863200  0.757900  1.0  0.7099
  C  C110  1  0.016300  0.803600  0.729600  1.0  0.1746
  C  C111  1  0.008200  0.746100  0.769200  1.0  -0.3108
  C  C112  1  0.968700  0.684900  0.742800  1.0  0.7671
  C  C113  1  0.249900  0.024400  0.966600  1.0  0.7787
  C  C114  1  0.250000  0.017800  0.030000  1.0  -0.3216
  C  C115  1  0.256500  0.950000  0.051400  1.0  0.2083
  C  C116  1  0.258900  0.952900  0.115400  1.0  0.7131
  C  C117  1  0.027800  0.121800  0.246000  1.0  0.7614
  C  C118  1  0.991100  0.186000  0.220800  1.0  -0.2547
  C  C119  1  0.997000  0.241000  0.259600  1.0  0.2014
  C  C120  1  0.948400  0.303400  0.236200  1.0  0.7003
  C  C121  1  0.433300  0.136800  0.257900  1.0  0.7125
  C  C122  1  0.483700  0.196400  0.229600  1.0  0.1714
  C  C123  1  0.491800  0.253900  0.269200  1.0  -0.3135
  C  C124  1  0.531300  0.315100  0.242800  1.0  0.7678
  C  C125  1  0.250100  0.975600  0.466600  1.0  0.7781
  C  C126  1  0.250000  0.982200  0.530000  1.0  -0.3228
  C  C127  1  0.243500  0.050000  0.551400  1.0  0.2098
  C  C128  1  0.241100  0.047100  0.615400  1.0  0.7129
  C  C129  1  0.527800  0.378200  0.754000  1.0  0.7627
  C  C130  1  0.491100  0.314000  0.779200  1.0  -0.2545
  C  C131  1  0.497000  0.259000  0.740400  1.0  0.2013
  C  C132  1  0.448400  0.196600  0.763800  1.0  0.7012
  C  C133  1  0.933300  0.363200  0.742100  1.0  0.7118
  C  C134  1  0.983700  0.303600  0.770400  1.0  0.172
  C  C135  1  0.991800  0.246100  0.730800  1.0  -0.3099
  C  C136  1  0.031300  0.184900  0.757200  1.0  0.7672
  C  C137  1  0.750100  0.524400  0.533400  1.0  0.7785
  C  C138  1  0.750000  0.517800  0.470000  1.0  -0.3213
  C  C139  1  0.743500  0.450000  0.448600  1.0  0.2104
  C  C140  1  0.741100  0.452900  0.384600  1.0  0.7123
  C  C141  1  0.972200  0.621800  0.254000  1.0  0.7627
  C  C142  1  0.008900  0.686000  0.279200  1.0  -0.2551
  C  C143  1  0.003000  0.741000  0.240400  1.0  0.2041
  C  C144  1  0.051600  0.803400  0.263800  1.0  0.7
  C  C145  1  0.566700  0.636800  0.242100  1.0  0.7129
  C  C146  1  0.516300  0.696400  0.270400  1.0  0.174
  C  C147  1  0.508200  0.753900  0.230800  1.0  -0.3094
  C  C148  1  0.468700  0.815100  0.257200  1.0  0.7682
  C  C149  1  0.749900  0.475600  0.033400  1.0  0.7787
  C  C150  1  0.750000  0.482200  0.970000  1.0  -0.3217
  C  C151  1  0.756500  0.550000  0.948600  1.0  0.2103
  C  C152  1  0.758900  0.547100  0.884600  1.0  0.7135
  N  N153  1  0.380500  0.747000  0.777500  1.0  -0.2969
  N  N154  1  0.897900  0.819300  0.706800  1.0  -0.3317
  N  N155  1  0.365900  0.918700  0.030600  1.0  -0.3433
  N  N156  1  0.119500  0.253000  0.277500  1.0  -0.2976
  N  N157  1  0.602100  0.180700  0.206800  1.0  -0.331
  N  N158  1  0.134100  0.081300  0.530600  1.0  -0.3416
  N  N159  1  0.619500  0.247000  0.722500  1.0  -0.2965
  N  N160  1  0.102100  0.319300  0.793200  1.0  -0.3308
  N  N161  1  0.634100  0.418700  0.469400  1.0  -0.3416
  N  N162  1  0.880500  0.753000  0.222500  1.0  -0.2969
  N  N163  1  0.397900  0.680700  0.293200  1.0  -0.3309
  N  N164  1  0.865900  0.581300  0.969400  1.0  -0.3442
  Cl  Cl165  1  0.487700  0.212190  0.550210  1.0  1.6162
  Cl  Cl166  1  0.746500  0.182460  0.860820  1.0  1.4168
  Cl  Cl167  1  0.753900  0.870350  0.845250  1.0  1.625
  Cl  Cl168  1  0.905900  0.014040  0.997250  1.0  1.2855
  Cl  Cl169  1  0.968600  0.853400  0.552680  1.0  1.0396
  Cl  Cl170  1  0.012300  0.787810  0.050210  1.0  1.6168
  Cl  Cl171  1  0.753500  0.817540  0.360820  1.0  1.4171
  Cl  Cl172  1  0.746100  0.129650  0.345250  1.0  1.6263
  Cl  Cl173  1  0.594100  0.985960  0.497250  1.0  1.2834
  Cl  Cl174  1  0.531400  0.146600  0.052680  1.0  1.0443
  Cl  Cl175  1  0.512300  0.712190  0.949790  1.0  1.6173
  Cl  Cl176  1  0.253500  0.682460  0.639180  1.0  1.4148
  Cl  Cl177  1  0.246100  0.370350  0.654750  1.0  1.6236
  Cl  Cl178  1  0.094100  0.514040  0.502750  1.0  1.2835
  Cl  Cl179  1  0.031400  0.353400  0.947320  1.0  1.0427
  Cl  Cl180  1  0.987700  0.287810  0.449790  1.0  1.617
  Cl  Cl181  1  0.246500  0.317540  0.139180  1.0  1.4132
  Cl  Cl182  1  0.253900  0.629650  0.154750  1.0  1.6239
  Cl  Cl183  1  0.405900  0.485960  0.002750  1.0  1.2853
  Cl  Cl184  1  0.468600  0.646600  0.447320  1.0  1.0416
  O  O185  1  0.257500  0.966730  0.743840  1.0  -0.9563
  O  O186  1  0.246400  0.095300  0.749600  1.0  -0.8873
  O  O187  1  0.136200  0.024200  0.831760  1.0  -0.8567
  O  O188  1  0.376100  0.031900  0.830220  1.0  -0.868
  O  O189  1  0.500800  0.927400  0.720600  1.0  -0.6045
  O  O190  1  0.419000  0.876500  0.791800  1.0  -0.5995
  O  O191  1  0.510900  0.645600  0.754200  1.0  -0.6475
  O  O192  1  0.631200  0.702400  0.701100  1.0  -0.6475
  O  O193  1  0.150600  0.854100  0.789100  1.0  -0.6071
  O  O194  1  0.021400  0.915300  0.746300  1.0  -0.6217
  O  O195  1  0.998800  0.633800  0.764900  1.0  -0.6641
  O  O196  1  0.902100  0.688700  0.701100  1.0  -0.5996
  O  O197  1  0.255000  0.973900  0.938370  1.0  -0.5953
  O  O198  1  0.242600  0.079900  0.946600  1.0  -0.6634
  O  O199  1  0.160700  0.958300  0.138500  1.0  -0.7134
  O  O200  1  0.354200  0.953600  0.138900  1.0  -0.639
  O  O201  1  0.617000  0.032900  0.780300  1.0  -0.174
  O  O202  1  0.578500  0.054300  0.656300  1.0  -0.2999
  O  O203  1  0.233200  0.230600  0.898100  1.0  -0.2361
  O  O204  1  0.434300  0.143700  0.902600  1.0  -0.2317
  O  O205  1  0.049700  0.136500  0.901500  1.0  -0.2104
  O  O206  1  0.896300  0.027600  0.794600  1.0  -0.1932
  O  O207  1  0.910900  0.014100  0.668900  1.0  -0.1944
  O  O208  1  0.456600  0.917100  0.904000  1.0  -0.253
  O  O209  1  0.288200  0.820000  0.887400  1.0  -0.2461
  O  O210  1  0.075500  0.903800  0.894900  1.0  -0.2249
  O  O211  1  0.242500  0.033270  0.243840  1.0  -0.9546
  O  O212  1  0.253600  0.904700  0.249600  1.0  -0.8892
  O  O213  1  0.363800  0.975800  0.331760  1.0  -0.8565
  O  O214  1  0.123900  0.968100  0.330220  1.0  -0.8684
  O  O215  1  0.999200  0.072600  0.220600  1.0  -0.604
  O  O216  1  0.081000  0.123500  0.291800  1.0  -0.599
  O  O217  1  0.989100  0.354400  0.254200  1.0  -0.6468
  O  O218  1  0.868800  0.297600  0.201100  1.0  -0.6464
  O  O219  1  0.349400  0.145900  0.289100  1.0  -0.6069
  O  O220  1  0.478600  0.084700  0.246300  1.0  -0.6231
  O  O221  1  0.501200  0.366200  0.264900  1.0  -0.6642
  O  O222  1  0.597900  0.311300  0.201100  1.0  -0.6002
  O  O223  1  0.245000  0.026100  0.438370  1.0  -0.595
  O  O224  1  0.257400  0.920100  0.446600  1.0  -0.6574
  O  O225  1  0.339300  0.041700  0.638500  1.0  -0.712
  O  O226  1  0.145800  0.046400  0.638900  1.0  -0.6405
  O  O227  1  0.883000  0.967100  0.280300  1.0  -0.1755
  O  O228  1  0.921500  0.945700  0.156300  1.0  -0.3032
  O  O229  1  0.266800  0.769400  0.398100  1.0  -0.2364
  O  O230  1  0.065700  0.856300  0.402600  1.0  -0.2313
  O  O231  1  0.450300  0.863500  0.401500  1.0  -0.21
  O  O232  1  0.603700  0.972400  0.294600  1.0  -0.1919
  O  O233  1  0.589100  0.985900  0.168900  1.0  -0.1935
  O  O234  1  0.043400  0.082900  0.404000  1.0  -0.255
  O  O235  1  0.211800  0.180000  0.387400  1.0  -0.2459
  O  O236  1  0.424500  0.096200  0.394900  1.0  -0.2253
  O  O237  1  0.742500  0.466730  0.756160  1.0  -0.9573
  O  O238  1  0.753600  0.595300  0.750400  1.0  -0.8864
  O  O239  1  0.863800  0.524200  0.668240  1.0  -0.855
  O  O240  1  0.623900  0.531900  0.669780  1.0  -0.8688
  O  O241  1  0.499200  0.427400  0.779400  1.0  -0.6041
  O  O242  1  0.581000  0.376500  0.708200  1.0  -0.5985
  O  O243  1  0.489100  0.145600  0.745800  1.0  -0.647
  O  O244  1  0.368800  0.202400  0.798900  1.0  -0.644
  O  O245  1  0.849400  0.354100  0.710900  1.0  -0.6061
  O  O246  1  0.978600  0.415300  0.753700  1.0  -0.6216
  O  O247  1  0.001200  0.133800  0.735100  1.0  -0.6633
  O  O248  1  0.097900  0.188700  0.798900  1.0  -0.5995
  O  O249  1  0.745000  0.473900  0.561630  1.0  -0.5943
  O  O250  1  0.757400  0.579900  0.553400  1.0  -0.6621
  O  O251  1  0.839300  0.458300  0.361500  1.0  -0.7113
  O  O252  1  0.645800  0.453600  0.361100  1.0  -0.6408
  O  O253  1  0.383000  0.532900  0.719700  1.0  -0.1764
  O  O254  1  0.421500  0.554300  0.843700  1.0  -0.3024
  O  O255  1  0.766800  0.730600  0.601900  1.0  -0.2382
  O  O256  1  0.565700  0.643700  0.597400  1.0  -0.2297
  O  O257  1  0.950300  0.636500  0.598500  1.0  -0.2103
  O  O258  1  0.103700  0.527600  0.705400  1.0  -0.1922
  O  O259  1  0.089100  0.514100  0.831100  1.0  -0.1924
  O  O260  1  0.543400  0.417100  0.596000  1.0  -0.2548
  O  O261  1  0.711800  0.320000  0.612600  1.0  -0.2482
  O  O262  1  0.924500  0.403800  0.605100  1.0  -0.2241
  O  O263  1  0.757500  0.533270  0.256160  1.0  -0.9552
  O  O264  1  0.746400  0.404700  0.250400  1.0  -0.8894
  O  O265  1  0.636200  0.475800  0.168240  1.0  -0.8547
  O  O266  1  0.876100  0.468100  0.169780  1.0  -0.8691
  O  O267  1  0.000800  0.572600  0.279400  1.0  -0.6043
  O  O268  1  0.919000  0.623500  0.208200  1.0  -0.599
  O  O269  1  0.010900  0.854400  0.245800  1.0  -0.6488
  O  O270  1  0.131200  0.797600  0.298900  1.0  -0.6442
  O  O271  1  0.650600  0.645900  0.210900  1.0  -0.6068
  O  O272  1  0.521400  0.584700  0.253700  1.0  -0.6224
  O  O273  1  0.498800  0.866200  0.235100  1.0  -0.6637
  O  O274  1  0.402100  0.811300  0.298900  1.0  -0.5994
  O  O275  1  0.755000  0.526100  0.061630  1.0  -0.595
  O  O276  1  0.742600  0.420100  0.053400  1.0  -0.6584
  O  O277  1  0.660700  0.541700  0.861500  1.0  -0.7127
  O  O278  1  0.854200  0.546400  0.861100  1.0  -0.6391
  O  O279  1  0.117000  0.467100  0.219700  1.0  -0.1746
  O  O280  1  0.078500  0.445700  0.343700  1.0  -0.3004
  O  O281  1  0.733200  0.269400  0.101900  1.0  -0.237
  O  O282  1  0.934300  0.356300  0.097400  1.0  -0.2316
  O  O283  1  0.549700  0.363500  0.098500  1.0  -0.2107
  O  O284  1  0.396300  0.472400  0.205400  1.0  -0.1937
  O  O285  1  0.410900  0.485900  0.331100  1.0  -0.1931
  O  O286  1  0.956600  0.582900  0.096000  1.0  -0.2527
  O  O287  1  0.788200  0.680000  0.112600  1.0  -0.2474
  O  O288  1  0.575500  0.596200  0.105100  1.0  -0.2239
  O  O289  1  0.512200  0.187300  0.602800  1.0  -0.5449
  O  O290  1  0.514700  0.277300  0.548700  1.0  -0.5279
  O  O291  1  0.369000  0.203500  0.543100  1.0  -0.5466
  O  O292  1  0.542300  0.184200  0.503900  1.0  -0.5365
  O  O293  1  0.748700  0.116000  0.856500  1.0  -0.5482
  O  O294  1  0.786100  0.204400  0.808900  1.0  -0.5365
  O  O295  1  0.789000  0.194300  0.914700  1.0  -0.5595
  O  O296  1  0.639900  0.210400  0.868500  1.0  -0.6045
  O  O297  1  0.746700  0.936500  0.852100  1.0  -0.5402
  O  O298  1  0.861200  0.846700  0.859900  1.0  -0.5589
  O  O299  1  0.725200  0.851600  0.790700  1.0  -0.5483
  O  O300  1  0.665900  0.844300  0.878600  1.0  -0.5721
  O  O301  1  0.985000  0.963600  0.006500  1.0  -0.5703
  O  O302  1  0.984000  0.064600  0.986700  1.0  -0.5416
  O  O303  1  0.846000  0.018400  0.049400  1.0  -0.5499
  O  O304  1  0.806000  0.005300  0.963800  1.0  -0.5379
  O  O305  1  0.012800  0.874200  0.604900  1.0  -0.5535
  O  O306  1  0.009200  0.898400  0.512400  1.0  -0.5513
  O  O307  1  0.924000  0.798900  0.525000  1.0  -0.5562
  O  O308  1  0.856300  0.879900  0.560300  1.0  -0.58
  O  O309  1  0.987800  0.812700  0.102800  1.0  -0.5463
  O  O310  1  0.985300  0.722700  0.048700  1.0  -0.5235
  O  O311  1  0.131000  0.796500  0.043100  1.0  -0.5477
  O  O312  1  0.957700  0.815800  0.003900  1.0  -0.5354
  O  O313  1  0.751300  0.884000  0.356500  1.0  -0.5464
  O  O314  1  0.713900  0.795600  0.308900  1.0  -0.5365
  O  O315  1  0.711000  0.805700  0.414700  1.0  -0.5601
  O  O316  1  0.860100  0.789600  0.368500  1.0  -0.6056
  O  O317  1  0.753300  0.063500  0.352100  1.0  -0.5424
  O  O318  1  0.638800  0.153300  0.359900  1.0  -0.5584
  O  O319  1  0.774800  0.148400  0.290700  1.0  -0.5494
  O  O320  1  0.834100  0.155700  0.378600  1.0  -0.5742
  O  O321  1  0.515000  0.036400  0.506500  1.0  -0.5735
  O  O322  1  0.516000  0.935400  0.486700  1.0  -0.5436
  O  O323  1  0.654000  0.981600  0.549400  1.0  -0.5507
  O  O324  1  0.694000  0.994700  0.463800  1.0  -0.5377
  O  O325  1  0.487200  0.125800  0.104900  1.0  -0.554
  O  O326  1  0.490800  0.101600  0.012400  1.0  -0.5513
  O  O327  1  0.576000  0.201100  0.025000  1.0  -0.5571
  O  O328  1  0.643700  0.120100  0.060300  1.0  -0.5817
  O  O329  1  0.487800  0.687300  0.897200  1.0  -0.5463
  O  O330  1  0.485300  0.777300  0.951300  1.0  -0.5254
  O  O331  1  0.631000  0.703500  0.956900  1.0  -0.5464
  O  O332  1  0.457700  0.684200  0.996100  1.0  -0.5377
  O  O333  1  0.251300  0.616000  0.643500  1.0  -0.5486
  O  O334  1  0.213900  0.704400  0.691100  1.0  -0.536
  O  O335  1  0.211000  0.694300  0.585300  1.0  -0.5599
  O  O336  1  0.360100  0.710400  0.631500  1.0  -0.6036
  O  O337  1  0.253300  0.436500  0.647900  1.0  -0.5416
  O  O338  1  0.138800  0.346700  0.640100  1.0  -0.5593
  O  O339  1  0.274800  0.351600  0.709300  1.0  -0.5486
  O  O340  1  0.334100  0.344300  0.621400  1.0  -0.5757
  O  O341  1  0.015000  0.463600  0.493500  1.0  -0.5719
  O  O342  1  0.016000  0.564600  0.513300  1.0  -0.5408
  O  O343  1  0.154000  0.518400  0.450600  1.0  -0.5499
  O  O344  1  0.194000  0.505300  0.536200  1.0  -0.5397
  O  O345  1  0.987200  0.374200  0.895100  1.0  -0.5527
  O  O346  1  0.990800  0.398400  0.987600  1.0  -0.5517
  O  O347  1  0.076000  0.298900  0.975000  1.0  -0.5575
  O  O348  1  0.143700  0.379900  0.939700  1.0  -0.58
  O  O349  1  0.012200  0.312700  0.397200  1.0  -0.5466
  O  O350  1  0.014700  0.222700  0.451300  1.0  -0.5238
  O  O351  1  0.869000  0.296500  0.456900  1.0  -0.5459
  O  O352  1  0.042300  0.315800  0.496100  1.0  -0.5366
  O  O353  1  0.248700  0.384000  0.143500  1.0  -0.5477
  O  O354  1  0.286100  0.295600  0.191100  1.0  -0.5358
  O  O355  1  0.289000  0.305700  0.085300  1.0  -0.56
  O  O356  1  0.139900  0.289600  0.131500  1.0  -0.604
  O  O357  1  0.246700  0.563500  0.147900  1.0  -0.5429
  O  O358  1  0.361200  0.653300  0.140100  1.0  -0.5581
  O  O359  1  0.225200  0.648400  0.209300  1.0  -0.549
  O  O360  1  0.165900  0.655700  0.121400  1.0  -0.5711
  O  O361  1  0.485000  0.536400  0.993500  1.0  -0.5716
  O  O362  1  0.484000  0.435400  0.013300  1.0  -0.5441
  O  O363  1  0.346000  0.481600  0.950600  1.0  -0.548
  O  O364  1  0.306000  0.494700  0.036200  1.0  -0.5373
  O  O365  1  0.512800  0.625800  0.395100  1.0  -0.5546
  O  O366  1  0.509200  0.601600  0.487600  1.0  -0.5521
  O  O367  1  0.424000  0.701100  0.475000  1.0  -0.5569
  O  O368  1  0.356300  0.620100  0.439700  1.0  -0.5801
