# generated using pymatgen
data_Eu4H22C12N3O16
_symmetry_space_group_name_H-M   'P 1'
_cell_length_a   11.56100000
_cell_length_b   20.81600000
_cell_length_c   23.67600000
_cell_angle_alpha   90.00000000
_cell_angle_beta   90.00000000
_cell_angle_gamma   90.00000000
_symmetry_Int_Tables_number   1
_chemical_formula_structural   Eu4H22C12N3O16
_chemical_formula_sum   'Eu16 H88 C48 N12 O64'
_cell_volume   5697.71880058
_cell_formula_units_Z   4
loop_
 _symmetry_equiv_pos_site_id
 _symmetry_equiv_pos_as_xyz
  1  'x, y, z'
loop_
 _atom_site_type_symbol
 _atom_site_label
 _atom_site_symmetry_multiplicity
 _atom_site_fract_x
 _atom_site_fract_y
 _atom_site_fract_z
 _atom_site_occupancy
 _atom_site_charge
  Eu  Eu1  1  0.580770  0.964200  0.268400  1.0  2.0655
  Eu  Eu2  1  0.917250  0.973280  0.265760  1.0  2.0621
  Eu  Eu3  1  0.756340  0.876990  0.151930  1.0  2.0447
  Eu  Eu4  1  0.735320  0.067030  0.157050  1.0  2.0557
  Eu  Eu5  1  0.919230  0.035800  0.768400  1.0  2.0658
  Eu  Eu6  1  0.582750  0.026720  0.765760  1.0  2.0614
  Eu  Eu7  1  0.743660  0.123010  0.651930  1.0  2.044
  Eu  Eu8  1  0.764680  0.932970  0.657050  1.0  2.0556
  Eu  Eu9  1  0.419230  0.464200  0.231600  1.0  2.0649
  Eu  Eu10  1  0.082750  0.473280  0.234240  1.0  2.0612
  Eu  Eu11  1  0.243660  0.376990  0.348070  1.0  2.0463
  Eu  Eu12  1  0.264680  0.567030  0.342950  1.0  2.0565
  Eu  Eu13  1  0.080770  0.535800  0.731600  1.0  2.0643
  Eu  Eu14  1  0.417250  0.526720  0.734240  1.0  2.0621
  Eu  Eu15  1  0.256340  0.623010  0.848070  1.0  2.0456
  Eu  Eu16  1  0.235320  0.432970  0.842950  1.0  2.0572
  H  H17  1  0.738200  0.069700  0.282100  1.0  0.3239
  H  H18  1  0.130800  0.216300  0.309800  1.0  0.149
  H  H19  1  0.147000  0.167900  0.266200  1.0  0.1489
  H  H20  1  0.094700  0.150400  0.319900  1.0  0.2151
  H  H21  1  0.930100  0.979300  0.144700  1.0  0.253
  H  H22  1  0.934700  0.209000  0.302300  1.0  0.0095
  H  H23  1  0.859800  0.915400  0.506200  1.0  0.1592
  H  H24  1  0.923100  0.939400  0.457600  1.0  0.1926
  H  H25  1  0.863200  0.878100  0.454400  1.0  0.2153
  H  H26  1  0.756300  0.866700  0.275200  1.0  0.3627
  H  H27  1  0.916000  0.260500  0.214900  1.0  0.0507
  H  H28  1  0.043000  0.241400  0.199900  1.0  0.0434
  H  H29  1  0.350600  0.719400  0.292800  1.0  0.1803
  H  H30  1  0.339900  0.768100  0.249100  1.0  0.1675
  H  H31  1  0.381000  0.785800  0.304900  1.0  0.223
  H  H32  1  0.554400  0.966500  0.147000  1.0  0.2533
  H  H33  1  0.688900  0.926200  0.461700  1.0  -0.0066
  H  H34  1  0.813400  0.043000  0.456200  1.0  0.0289
  H  H35  1  0.678400  0.037900  0.457300  1.0  0.0397
  H  H36  1  0.546200  0.731100  0.294500  1.0  0.0113
  H  H37  1  0.585800  0.681000  0.207300  1.0  0.0371
  H  H38  1  0.458100  0.694200  0.188600  1.0  0.0409
  H  H39  1  0.761800  0.930300  0.782100  1.0  0.3266
  H  H40  1  0.369200  0.783700  0.809800  1.0  0.1533
  H  H41  1  0.353000  0.832100  0.766200  1.0  0.1483
  H  H42  1  0.405300  0.849600  0.819900  1.0  0.2158
  H  H43  1  0.569900  0.020700  0.644700  1.0  0.2522
  H  H44  1  0.565300  0.791000  0.802300  1.0  0.009
  H  H45  1  0.640200  0.084600  0.006200  1.0  0.1578
  H  H46  1  0.576900  0.060600  0.957600  1.0  0.1926
  H  H47  1  0.636800  0.121900  0.954400  1.0  0.2143
  H  H48  1  0.743700  0.133300  0.775200  1.0  0.3621
  H  H49  1  0.584000  0.739500  0.714900  1.0  0.0506
  H  H50  1  0.457000  0.758600  0.699900  1.0  0.0445
  H  H51  1  0.149400  0.280600  0.792800  1.0  0.1779
  H  H52  1  0.160100  0.231900  0.749100  1.0  0.1684
  H  H53  1  0.119000  0.214200  0.804900  1.0  0.2239
  H  H54  1  0.945600  0.033500  0.647000  1.0  0.2529
  H  H55  1  0.811100  0.073800  0.961700  1.0  -0.006
  H  H56  1  0.686600  0.957000  0.956200  1.0  0.0303
  H  H57  1  0.821600  0.962100  0.957300  1.0  0.0381
  H  H58  1  0.953800  0.268900  0.794500  1.0  0.0117
  H  H59  1  0.914200  0.319000  0.707300  1.0  0.0401
  H  H60  1  0.041900  0.305800  0.688600  1.0  0.0399
  H  H61  1  0.261800  0.569700  0.217900  1.0  0.3244
  H  H62  1  0.869200  0.716300  0.190200  1.0  0.1495
  H  H63  1  0.853000  0.667900  0.233800  1.0  0.1503
  H  H64  1  0.905300  0.650400  0.180100  1.0  0.2141
  H  H65  1  0.069900  0.479300  0.355300  1.0  0.2528
  H  H66  1  0.065300  0.709000  0.197700  1.0  0.008
  H  H67  1  0.140200  0.415400  0.993800  1.0  0.1587
  H  H68  1  0.076900  0.439400  0.042400  1.0  0.1927
  H  H69  1  0.136800  0.378100  0.045600  1.0  0.2152
  H  H70  1  0.243700  0.366700  0.224800  1.0  0.363
  H  H71  1  0.084000  0.760500  0.285100  1.0  0.0494
  H  H72  1  0.957000  0.741400  0.300100  1.0  0.0459
  H  H73  1  0.649400  0.219400  0.207200  1.0  0.1771
  H  H74  1  0.660100  0.268100  0.250900  1.0  0.168
  H  H75  1  0.619000  0.285800  0.195100  1.0  0.2208
  H  H76  1  0.445600  0.466500  0.353000  1.0  0.2527
  H  H77  1  0.311100  0.426200  0.038300  1.0  -0.0078
  H  H78  1  0.186600  0.543000  0.043800  1.0  0.0299
  H  H79  1  0.321600  0.537900  0.042700  1.0  0.0386
  H  H80  1  0.453800  0.231100  0.205500  1.0  0.0105
  H  H81  1  0.414200  0.181000  0.292700  1.0  0.0388
  H  H82  1  0.541900  0.194200  0.311400  1.0  0.0428
  H  H83  1  0.238200  0.430300  0.717900  1.0  0.3261
  H  H84  1  0.630800  0.283700  0.690200  1.0  0.1521
  H  H85  1  0.647000  0.332100  0.733800  1.0  0.1501
  H  H86  1  0.594700  0.349600  0.680100  1.0  0.2124
  H  H87  1  0.430100  0.520700  0.855300  1.0  0.2527
  H  H88  1  0.434700  0.291000  0.697700  1.0  0.0089
  H  H89  1  0.359800  0.584600  0.493800  1.0  0.1598
  H  H90  1  0.423100  0.560600  0.542400  1.0  0.192
  H  H91  1  0.363200  0.621900  0.545600  1.0  0.2129
  H  H92  1  0.256300  0.633300  0.724800  1.0  0.3629
  H  H93  1  0.416000  0.239500  0.785100  1.0  0.0502
  H  H94  1  0.543000  0.258600  0.800100  1.0  0.0458
  H  H95  1  0.850600  0.780600  0.707200  1.0  0.1771
  H  H96  1  0.839900  0.731900  0.750900  1.0  0.17
  H  H97  1  0.881000  0.714200  0.695100  1.0  0.2217
  H  H98  1  0.054400  0.533500  0.853000  1.0  0.254
  H  H99  1  0.188900  0.573800  0.538300  1.0  -0.0065
  H  H100  1  0.313400  0.457000  0.543800  1.0  0.029
  H  H101  1  0.178400  0.462100  0.542700  1.0  0.0403
  H  H102  1  0.046200  0.768900  0.705500  1.0  0.0099
  H  H103  1  0.085800  0.819000  0.792700  1.0  0.0361
  H  H104  1  0.958100  0.805800  0.811400  1.0  0.0422
  C  C105  1  0.931300  0.136200  0.244500  1.0  0.5924
  C  C106  1  0.984100  0.196300  0.270600  1.0  0.0742
  C  C107  1  0.992100  0.253100  0.230800  1.0  -0.4223
  C  C108  1  0.035200  0.316000  0.255800  1.0  0.6786
  C  C109  1  0.754000  0.955200  0.383900  1.0  0.5969
  C  C110  1  0.756900  0.950300  0.448900  1.0  0.1144
  C  C111  1  0.749200  0.018500  0.471300  1.0  -0.4152
  C  C112  1  0.750800  0.024100  0.535000  1.0  0.7086
  C  C113  1  0.553200  0.804700  0.237200  1.0  0.6179
  C  C114  1  0.502000  0.742400  0.260600  1.0  0.103
  C  C115  1  0.507200  0.685400  0.221000  1.0  -0.3833
  C  C116  1  0.470000  0.622000  0.247000  1.0  0.6655
  C  C117  1  0.568700  0.863800  0.744500  1.0  0.5909
  C  C118  1  0.515900  0.803700  0.770600  1.0  0.0772
  C  C119  1  0.507900  0.746900  0.730800  1.0  -0.4241
  C  C120  1  0.464800  0.684000  0.755800  1.0  0.6775
  C  C121  1  0.746000  0.044800  0.883900  1.0  0.5968
  C  C122  1  0.743100  0.049700  0.948900  1.0  0.1137
  C  C123  1  0.750800  0.981500  0.971300  1.0  -0.4172
  C  C124  1  0.749200  0.975900  0.035000  1.0  0.707
  C  C125  1  0.946800  0.195300  0.737200  1.0  0.6184
  C  C126  1  0.998000  0.257600  0.760600  1.0  0.1
  C  C127  1  0.992800  0.314600  0.721000  1.0  -0.3807
  C  C128  1  0.030000  0.378000  0.747000  1.0  0.6658
  C  C129  1  0.068700  0.636200  0.255500  1.0  0.5908
  C  C130  1  0.015900  0.696300  0.229400  1.0  0.0781
  C  C131  1  0.007900  0.753100  0.269200  1.0  -0.4233
  C  C132  1  0.964800  0.816000  0.244200  1.0  0.6784
  C  C133  1  0.246000  0.455200  0.116100  1.0  0.5963
  C  C134  1  0.243100  0.450300  0.051100  1.0  0.1138
  C  C135  1  0.250800  0.518500  0.028700  1.0  -0.4186
  C  C136  1  0.249200  0.524100  0.965000  1.0  0.7107
  C  C137  1  0.446800  0.304700  0.262800  1.0  0.6161
  C  C138  1  0.498000  0.242400  0.239400  1.0  0.1002
  C  C139  1  0.492800  0.185400  0.279000  1.0  -0.3829
  C  C140  1  0.530000  0.122000  0.253000  1.0  0.6647
  C  C141  1  0.431300  0.363800  0.755500  1.0  0.5903
  C  C142  1  0.484100  0.303700  0.729400  1.0  0.0746
  C  C143  1  0.492100  0.246900  0.769200  1.0  -0.4245
  C  C144  1  0.535200  0.184000  0.744200  1.0  0.6773
  C  C145  1  0.254000  0.544800  0.616100  1.0  0.5958
  C  C146  1  0.256900  0.549700  0.551100  1.0  0.1145
  C  C147  1  0.249200  0.481500  0.528700  1.0  -0.4173
  C  C148  1  0.250800  0.475900  0.465000  1.0  0.7083
  C  C149  1  0.053200  0.695300  0.762800  1.0  0.6165
  C  C150  1  0.002000  0.757600  0.739400  1.0  0.1033
  C  C151  1  0.007200  0.814600  0.779000  1.0  -0.3843
  C  C152  1  0.970000  0.878000  0.753000  1.0  0.6653
  N  N153  1  0.100900  0.181200  0.294000  1.0  -0.4149
  N  N154  1  0.860900  0.917600  0.468700  1.0  -0.4451
  N  N155  1  0.381300  0.755200  0.278700  1.0  -0.4188
  N  N156  1  0.399100  0.818800  0.794000  1.0  -0.4151
  N  N157  1  0.639100  0.082400  0.968700  1.0  -0.4454
  N  N158  1  0.118700  0.244800  0.778700  1.0  -0.4172
  N  N159  1  0.899100  0.681200  0.206000  1.0  -0.4123
  N  N160  1  0.139100  0.417600  0.031300  1.0  -0.4435
  N  N161  1  0.618700  0.255200  0.221300  1.0  -0.4149
  N  N162  1  0.600900  0.318800  0.706000  1.0  -0.4132
  N  N163  1  0.360900  0.582400  0.531300  1.0  -0.4461
  N  N164  1  0.881300  0.744800  0.721300  1.0  -0.4151
  O  O165  1  0.740900  0.033000  0.256300  1.0  -1.0537
  O  O166  1  0.862200  0.976000  0.169300  1.0  -0.9683
  O  O167  1  0.752400  0.905100  0.251300  1.0  -1.0154
  O  O168  1  0.624000  0.967900  0.170600  1.0  -0.9528
  O  O169  1  0.977600  0.084100  0.257500  1.0  -0.7403
  O  O170  1  0.848600  0.146000  0.212000  1.0  -0.7358
  O  O171  1  0.100400  0.313200  0.297300  1.0  -0.6846
  O  O172  1  0.007200  0.367100  0.232400  1.0  -0.7857
  O  O173  1  0.657300  0.959600  0.362000  1.0  -0.8188
  O  O174  1  0.850900  0.956400  0.360200  1.0  -0.7781
  O  O175  1  0.743800  0.079500  0.555600  1.0  -0.7909
  O  O176  1  0.754800  0.973700  0.562900  1.0  -0.7193
  O  O177  1  0.512400  0.856400  0.255600  1.0  -0.751
  O  O178  1  0.632500  0.798300  0.201400  1.0  -0.7526
  O  O179  1  0.414000  0.624600  0.291500  1.0  -0.6723
  O  O180  1  0.496200  0.571200  0.221000  1.0  -0.7643
  O  O181  1  0.759100  0.967000  0.756300  1.0  -1.0558
  O  O182  1  0.637800  0.024000  0.669300  1.0  -0.9711
  O  O183  1  0.747600  0.094900  0.751300  1.0  -1.0124
  O  O184  1  0.876000  0.032100  0.670600  1.0  -0.9485
  O  O185  1  0.522400  0.915900  0.757500  1.0  -0.7415
  O  O186  1  0.651400  0.854000  0.712000  1.0  -0.737
  O  O187  1  0.399600  0.686800  0.797300  1.0  -0.6835
  O  O188  1  0.492800  0.632900  0.732400  1.0  -0.7881
  O  O189  1  0.842700  0.040400  0.862000  1.0  -0.813
  O  O190  1  0.649100  0.043600  0.860200  1.0  -0.7769
  O  O191  1  0.756200  0.920500  0.055600  1.0  -0.7908
  O  O192  1  0.745200  0.026300  0.062900  1.0  -0.7197
  O  O193  1  0.987600  0.143600  0.755600  1.0  -0.7501
  O  O194  1  0.867500  0.201700  0.701400  1.0  -0.7517
  O  O195  1  0.086000  0.375400  0.791500  1.0  -0.6739
  O  O196  1  0.003800  0.428800  0.721000  1.0  -0.7624
  O  O197  1  0.259100  0.533000  0.243700  1.0  -1.0531
  O  O198  1  0.137800  0.476000  0.330700  1.0  -0.9706
  O  O199  1  0.247600  0.405100  0.248700  1.0  -1.0161
  O  O200  1  0.376000  0.467900  0.329400  1.0  -0.9479
  O  O201  1  0.022400  0.584100  0.242500  1.0  -0.7403
  O  O202  1  0.151400  0.646000  0.288000  1.0  -0.7365
  O  O203  1  0.899600  0.813200  0.202700  1.0  -0.6828
  O  O204  1  0.992800  0.867100  0.267600  1.0  -0.7833
  O  O205  1  0.342700  0.459600  0.138000  1.0  -0.8137
  O  O206  1  0.149100  0.456400  0.139800  1.0  -0.7774
  O  O207  1  0.256200  0.579500  0.944400  1.0  -0.7921
  O  O208  1  0.245200  0.473700  0.937100  1.0  -0.7204
  O  O209  1  0.487600  0.356400  0.244400  1.0  -0.7503
  O  O210  1  0.367500  0.298300  0.298600  1.0  -0.7532
  O  O211  1  0.586000  0.124600  0.208500  1.0  -0.6728
  O  O212  1  0.503800  0.071200  0.279000  1.0  -0.7624
  O  O213  1  0.240900  0.467000  0.743700  1.0  -1.0552
  O  O214  1  0.362200  0.524000  0.830700  1.0  -0.9684
  O  O215  1  0.252400  0.594900  0.748700  1.0  -1.013
  O  O216  1  0.124000  0.532100  0.829400  1.0  -0.9525
  O  O217  1  0.477600  0.415900  0.742500  1.0  -0.7392
  O  O218  1  0.348600  0.354000  0.788000  1.0  -0.7358
  O  O219  1  0.600400  0.186800  0.702700  1.0  -0.6832
  O  O220  1  0.507200  0.132900  0.767600  1.0  -0.7837
  O  O221  1  0.157300  0.540400  0.638000  1.0  -0.8187
  O  O222  1  0.350900  0.543600  0.639800  1.0  -0.7788
  O  O223  1  0.243800  0.420500  0.444400  1.0  -0.7903
  O  O224  1  0.254800  0.526300  0.437100  1.0  -0.7196
  O  O225  1  0.012400  0.643600  0.744400  1.0  -0.7494
  O  O226  1  0.132500  0.701700  0.798600  1.0  -0.7543
  O  O227  1  0.914000  0.875400  0.708500  1.0  -0.672
  O  O228  1  0.996200  0.928800  0.779000  1.0  -0.7629
