# generated using pymatgen
data_ErH3C9(NO2)3
_symmetry_space_group_name_H-M   'P 1'
_cell_length_a   6.03270000
_cell_length_b   12.77520000
_cell_length_c   13.17750000
_cell_angle_alpha   118.99000000
_cell_angle_beta   90.57500000
_cell_angle_gamma   91.67000000
_symmetry_Int_Tables_number   1
_chemical_formula_structural   ErH3C9(NO2)3
_chemical_formula_sum   'Er2 H6 C18 N6 O12'
_cell_volume   887.61239961
_cell_formula_units_Z   2
loop_
 _symmetry_equiv_pos_site_id
 _symmetry_equiv_pos_as_xyz
  1  'x, y, z'
loop_
 _atom_site_type_symbol
 _atom_site_label
 _atom_site_symmetry_multiplicity
 _atom_site_fract_x
 _atom_site_fract_y
 _atom_site_fract_z
 _atom_site_occupancy
 _atom_site_charge
  Er  Er1  1  0.276330  0.160110  0.321980  1.0  1.4912
  Er  Er2  1  0.723670  0.839890  0.678020  1.0  1.4913
  H  H3  1  0.144700  0.058500  0.015600  1.0  0.1141
  H  H4  1  0.807900  0.966300  0.338100  1.0  0.1057
  H  H5  1  0.577700  0.383400  0.579600  1.0  0.1099
  H  H6  1  0.855300  0.941500  0.984400  1.0  0.1137
  H  H7  1  0.192100  0.033700  0.661900  1.0  0.1066
  H  H8  1  0.422300  0.616600  0.420400  1.0  0.1102
  C  C9  1  0.624500  0.039700  0.096600  1.0  0.1114
  C  C10  1  0.290100  0.034600  0.010900  1.0  0.1899
  C  C11  1  0.187900  0.065900  0.526700  1.0  0.1474
  C  C12  1  0.889300  0.981400  0.404500  1.0  0.1961
  C  C13  1  0.385000  0.450700  0.400100  1.0  0.1107
  C  C14  1  0.544300  0.429800  0.545100  1.0  0.1902
  C  C15  1  0.761300  0.094200  0.207300  1.0  0.7298
  C  C16  1  0.401800  0.139700  0.553800  1.0  0.7167
  C  C17  1  0.249600  0.393600  0.287800  1.0  0.6838
  C  C18  1  0.375500  0.960300  0.903400  1.0  0.1115
  C  C19  1  0.709900  0.965400  0.989100  1.0  0.1915
  C  C20  1  0.812100  0.934100  0.473300  1.0  0.1475
  C  C21  1  0.110700  0.018600  0.595500  1.0  0.2005
  C  C22  1  0.615000  0.549300  0.599900  1.0  0.1159
  C  C23  1  0.455700  0.570200  0.454900  1.0  0.1938
  C  C24  1  0.238700  0.905800  0.792700  1.0  0.7296
  C  C25  1  0.598200  0.860300  0.446200  1.0  0.7133
  C  C26  1  0.750400  0.606400  0.712200  1.0  0.6867
  N  N27  1  0.414000  0.073000  0.109100  1.0  -0.391
  N  N28  1  0.076800  0.047900  0.431100  1.0  -0.4532
  N  N29  1  0.430500  0.379500  0.445000  1.0  -0.4445
  N  N30  1  0.586000  0.927000  0.890900  1.0  -0.3905
  N  N31  1  0.923200  0.952100  0.568900  1.0  -0.4496
  N  N32  1  0.569500  0.620500  0.555000  1.0  -0.4472
  O  O33  1  0.663100  0.165500  0.297300  1.0  -0.6282
  O  O34  1  0.449000  0.179000  0.485500  1.0  -0.6638
  O  O35  1  0.191900  0.285000  0.248100  1.0  -0.6376
  O  O36  1  0.960500  0.067900  0.203400  1.0  -0.6789
  O  O37  1  0.519200  0.155900  0.638700  1.0  -0.535
  O  O38  1  0.202600  0.456600  0.243300  1.0  -0.4745
  O  O39  1  0.336900  0.834500  0.702700  1.0  -0.629
  O  O40  1  0.551000  0.821000  0.514500  1.0  -0.6679
  O  O41  1  0.808100  0.715000  0.751900  1.0  -0.6357
  O  O42  1  0.039500  0.932100  0.796600  1.0  -0.6789
  O  O43  1  0.480800  0.844100  0.361300  1.0  -0.5304
  O  O44  1  0.797400  0.543400  0.756700  1.0  -0.4732
