# generated using pymatgen
data_EuH3C9(NO2)3
_symmetry_space_group_name_H-M   'P 1'
_cell_length_a   6.05200000
_cell_length_b   10.49940000
_cell_length_c   13.45470000
_cell_angle_alpha   71.63000000
_cell_angle_beta   89.25400000
_cell_angle_gamma   89.10100000
_symmetry_Int_Tables_number   1
_chemical_formula_structural   EuH3C9(NO2)3
_chemical_formula_sum   'Eu2 H6 C18 N6 O12'
_cell_volume   811.24732546
_cell_formula_units_Z   2
loop_
 _symmetry_equiv_pos_site_id
 _symmetry_equiv_pos_as_xyz
  1  'x, y, z'
loop_
 _atom_site_type_symbol
 _atom_site_label
 _atom_site_symmetry_multiplicity
 _atom_site_fract_x
 _atom_site_fract_y
 _atom_site_fract_z
 _atom_site_occupancy
 _atom_site_charge
  Eu  Eu1  1  0.250430  0.659490  0.707070  1.0  2.1143
  Eu  Eu2  1  0.749570  0.340510  0.292930  1.0  2.1141
  H  H3  1  0.814600  0.911300  0.652500  1.0  0.0739
  H  H4  1  0.700500  0.465600  0.867700  1.0  0.0749
  H  H5  1  0.353300  0.572700  0.471000  1.0  0.0778
  H  H6  1  0.185400  0.088700  0.347500  1.0  0.0735
  H  H7  1  0.299500  0.534400  0.132300  1.0  0.0753
  H  H8  1  0.646700  0.427300  0.529000  1.0  0.0793
  C  C9  1  0.186500  0.939300  0.485200  1.0  0.1127
  C  C10  1  0.893600  0.946100  0.590300  1.0  0.1713
  C  C11  1  0.317400  0.574400  0.975900  1.0  0.1058
  C  C12  1  0.615600  0.481200  0.920900  1.0  0.1559
  C  C13  1  0.883500  0.529300  0.574600  1.0  0.1199
  C  C14  1  0.208200  0.543700  0.484100  1.0  0.1555
  C  C15  1  0.398600  0.869100  0.470700  1.0  0.6503
  C  C16  1  0.110000  0.659800  0.947200  1.0  0.667
  C  C17  1  0.752800  0.569400  0.657100  1.0  0.6841
  C  C18  1  0.813500  0.060700  0.514800  1.0  0.1158
  C  C19  1  0.106400  0.053900  0.409700  1.0  0.1777
  C  C20  1  0.682600  0.425600  0.024100  1.0  0.1062
  C  C21  1  0.384400  0.518800  0.079100  1.0  0.1647
  C  C22  1  0.116500  0.470700  0.425400  1.0  0.1211
  C  C23  1  0.791800  0.456300  0.515900  1.0  0.1552
  C  C24  1  0.601400  0.130900  0.529300  1.0  0.6497
  C  C25  1  0.890000  0.340200  0.052800  1.0  0.6695
  C  C26  1  0.247200  0.430600  0.342900  1.0  0.6853
  N  N27  1  0.080200  0.885000  0.576000  1.0  -0.4894
  N  N28  1  0.433300  0.556000  0.896600  1.0  -0.4637
  N  N29  1  0.091400  0.573000  0.559000  1.0  -0.4748
  N  N30  1  0.919800  0.115000  0.424000  1.0  -0.4903
  N  N31  1  0.566700  0.444000  0.103400  1.0  -0.4617
  N  N32  1  0.908600  0.427000  0.441000  1.0  -0.477
  O  O33  1  0.450800  0.768700  0.546400  1.0  -0.6663
  O  O34  1  0.065300  0.701900  0.851400  1.0  -0.6829
  O  O35  1  0.851700  0.641700  0.699500  1.0  -0.6365
  O  O36  1  0.558600  0.527600  0.676300  1.0  -0.6643
  O  O37  1  0.505100  0.914300  0.388200  1.0  -0.5636
  O  O38  1  0.998900  0.682000  0.017300  1.0  -0.5353
  O  O39  1  0.549200  0.231300  0.453600  1.0  -0.6667
  O  O40  1  0.934700  0.298100  0.148600  1.0  -0.6825
  O  O41  1  0.148300  0.358300  0.300500  1.0  -0.6371
  O  O42  1  0.441400  0.472400  0.323700  1.0  -0.6647
  O  O43  1  0.494900  0.085700  0.611800  1.0  -0.5616
  O  O44  1  0.001100  0.318000  0.982700  1.0  -0.5327
