# generated using pymatgen
data_PrH3C9(NO2)3
_symmetry_space_group_name_H-M   'P 1'
_cell_length_a   6.08200000
_cell_length_b   10.50910000
_cell_length_c   13.62800000
_cell_angle_alpha   72.39800000
_cell_angle_beta   88.98000000
_cell_angle_gamma   89.04300000
_symmetry_Int_Tables_number   1
_chemical_formula_structural   PrH3C9(NO2)3
_chemical_formula_sum   'Pr2 H6 C18 N6 O12'
_cell_volume   830.07929850
_cell_formula_units_Z   2
loop_
 _symmetry_equiv_pos_site_id
 _symmetry_equiv_pos_as_xyz
  1  'x, y, z'
loop_
 _atom_site_type_symbol
 _atom_site_label
 _atom_site_symmetry_multiplicity
 _atom_site_fract_x
 _atom_site_fract_y
 _atom_site_fract_z
 _atom_site_occupancy
 _atom_site_charge
  Pr  Pr1  1  0.251280  0.660560  0.708780  1.0  2.1487
  Pr  Pr2  1  0.748720  0.339440  0.291220  1.0  2.1486
  H  H3  1  0.810500  0.913700  0.649700  1.0  0.0675
  H  H4  1  0.703700  0.468400  0.868500  1.0  0.0774
  H  H5  1  0.349400  0.572300  0.473200  1.0  0.069
  H  H6  1  0.189500  0.086300  0.350300  1.0  0.067
  H  H7  1  0.296300  0.531600  0.131500  1.0  0.0777
  H  H8  1  0.650600  0.427700  0.526800  1.0  0.0701
  C  C9  1  0.186700  0.940000  0.486100  1.0  0.0994
  C  C10  1  0.891000  0.947400  0.589000  1.0  0.1553
  C  C11  1  0.318300  0.573200  0.977300  1.0  0.1146
  C  C12  1  0.617600  0.482700  0.921300  1.0  0.1519
  C  C13  1  0.882800  0.528900  0.574600  1.0  0.0881
  C  C14  1  0.204900  0.543500  0.485200  1.0  0.1537
  C  C15  1  0.400000  0.868200  0.473000  1.0  0.6342
  C  C16  1  0.109600  0.657800  0.950600  1.0  0.6626
  C  C17  1  0.753100  0.567700  0.656200  1.0  0.6832
  C  C18  1  0.813300  0.060000  0.513900  1.0  0.0975
  C  C19  1  0.109000  0.052600  0.411000  1.0  0.1573
  C  C20  1  0.681700  0.426800  0.022700  1.0  0.1151
  C  C21  1  0.382400  0.517300  0.078700  1.0  0.1518
  C  C22  1  0.117200  0.471100  0.425400  1.0  0.084
  C  C23  1  0.795100  0.456500  0.514800  1.0  0.1639
  C  C24  1  0.600000  0.131800  0.527000  1.0  0.6361
  C  C25  1  0.890400  0.342200  0.049400  1.0  0.6662
  C  C26  1  0.246900  0.432300  0.343800  1.0  0.6894
  N  N27  1  0.078200  0.887000  0.575500  1.0  -0.475
  N  N28  1  0.434000  0.556900  0.898400  1.0  -0.4478
  N  N29  1  0.089600  0.572200  0.558200  1.0  -0.4006
  N  N30  1  0.921800  0.113000  0.424500  1.0  -0.4791
  N  N31  1  0.566000  0.443100  0.101600  1.0  -0.4437
  N  N32  1  0.910400  0.427800  0.441800  1.0  -0.4031
  O  O33  1  0.453400  0.771200  0.547200  1.0  -0.6589
  O  O34  1  0.063300  0.698200  0.856800  1.0  -0.7183
  O  O35  1  0.845800  0.641400  0.699200  1.0  -0.6356
  O  O36  1  0.560100  0.523900  0.675400  1.0  -0.6563
  O  O37  1  0.502800  0.911300  0.389800  1.0  -0.5698
  O  O38  1  0.998100  0.679200  0.020800  1.0  -0.5531
  O  O39  1  0.546600  0.228800  0.452800  1.0  -0.658
  O  O40  1  0.936700  0.301800  0.143200  1.0  -0.7164
  O  O41  1  0.154200  0.358600  0.300800  1.0  -0.6363
  O  O42  1  0.439900  0.476100  0.324600  1.0  -0.6576
  O  O43  1  0.497200  0.088700  0.610200  1.0  -0.5696
  O  O44  1  0.001900  0.320800  0.979200  1.0  -0.5514
