# generated using pymatgen
data_CeH3C9(NO2)3
_symmetry_space_group_name_H-M   'P 1'
_cell_length_a   6.09900000
_cell_length_b   10.50100000
_cell_length_c   13.68800000
_cell_angle_alpha   72.60700000
_cell_angle_beta   88.78900000
_cell_angle_gamma   88.98000000
_symmetry_Int_Tables_number   1
_chemical_formula_structural   CeH3C9(NO2)3
_chemical_formula_sum   'Ce2 H6 C18 N6 O12'
_cell_volume   836.32523863
_cell_formula_units_Z   2
loop_
 _symmetry_equiv_pos_site_id
 _symmetry_equiv_pos_as_xyz
  1  'x, y, z'
loop_
 _atom_site_type_symbol
 _atom_site_label
 _atom_site_symmetry_multiplicity
 _atom_site_fract_x
 _atom_site_fract_y
 _atom_site_fract_z
 _atom_site_occupancy
 _atom_site_charge
  Ce  Ce1  1  0.748600  0.338980  0.290690  1.0  2.2134
  Ce  Ce2  1  0.251400  0.661020  0.709310  1.0  2.2109
  H  H3  1  0.189400  0.085300  0.351100  1.0  0.0684
  H  H4  1  0.297100  0.531900  0.131200  1.0  0.076
  H  H5  1  0.651000  0.426200  0.528600  1.0  0.0735
  H  H6  1  0.810600  0.914700  0.648900  1.0  0.0691
  H  H7  1  0.702900  0.468100  0.868800  1.0  0.077
  H  H8  1  0.349000  0.573800  0.471400  1.0  0.0721
  C  C9  1  0.600700  0.131300  0.526900  1.0  0.6539
  C  C10  1  0.108900  0.051700  0.411600  1.0  0.1632
  C  C11  1  0.813300  0.060300  0.513600  1.0  0.1059
  C  C12  1  0.682600  0.426200  0.022300  1.0  0.0871
  C  C13  1  0.890800  0.343000  0.048100  1.0  0.6722
  C  C14  1  0.382600  0.517700  0.078300  1.0  0.1557
  C  C15  1  0.247500  0.432600  0.343300  1.0  0.6873
  C  C16  1  0.116600  0.471000  0.425700  1.0  0.0953
  C  C17  1  0.794600  0.455800  0.515600  1.0  0.1634
  C  C18  1  0.399300  0.868700  0.473100  1.0  0.6524
  C  C19  1  0.891100  0.948300  0.588400  1.0  0.1668
  C  C20  1  0.186700  0.939700  0.486400  1.0  0.1056
  C  C21  1  0.317400  0.573800  0.977700  1.0  0.0873
  C  C22  1  0.109200  0.657000  0.951900  1.0  0.6691
  C  C23  1  0.617400  0.482300  0.921700  1.0  0.1634
  C  C24  1  0.752500  0.567400  0.656700  1.0  0.6872
  C  C25  1  0.883400  0.529000  0.574300  1.0  0.0936
  C  C26  1  0.205400  0.544200  0.484400  1.0  0.1733
  N  N27  1  0.565600  0.443700  0.100500  1.0  -0.4486
  N  N28  1  0.921400  0.111900  0.424900  1.0  -0.477
  N  N29  1  0.910200  0.427300  0.441300  1.0  -0.4372
  N  N30  1  0.434400  0.556300  0.899500  1.0  -0.4538
  N  N31  1  0.078600  0.888100  0.575100  1.0  -0.4711
  N  N32  1  0.089800  0.572700  0.558700  1.0  -0.436
  O  O33  1  0.545800  0.228400  0.452900  1.0  -0.6703
  O  O34  1  0.497400  0.089400  0.609700  1.0  -0.5692
  O  O35  1  0.937600  0.302400  0.141600  1.0  -0.7199
  O  O36  1  0.001500  0.321100  0.977800  1.0  -0.542
  O  O37  1  0.439000  0.477400  0.325100  1.0  -0.717
  O  O38  1  0.155400  0.358900  0.301100  1.0  -0.6385
  O  O39  1  0.454200  0.771600  0.547100  1.0  -0.6702
  O  O40  1  0.502600  0.910600  0.390300  1.0  -0.5691
  O  O41  1  0.062400  0.697600  0.858400  1.0  -0.7234
  O  O42  1  0.998500  0.678900  0.022200  1.0  -0.5451
  O  O43  1  0.561000  0.522600  0.674900  1.0  -0.7168
  O  O44  1  0.844600  0.641100  0.698900  1.0  -0.6381
