# generated using pymatgen
data_NdH3C9(NO2)3
_symmetry_space_group_name_H-M   'P 1'
_cell_length_a   6.07360000
_cell_length_b   10.49120000
_cell_length_c   13.57900000
_cell_angle_alpha   72.13300000
_cell_angle_beta   89.02300000
_cell_angle_gamma   89.00900000
_symmetry_Int_Tables_number   1
_chemical_formula_structural   NdH3C9(NO2)3
_chemical_formula_sum   'Nd2 H6 C18 N6 O12'
_cell_volume   823.32952573
_cell_formula_units_Z   2
loop_
 _symmetry_equiv_pos_site_id
 _symmetry_equiv_pos_as_xyz
  1  'x, y, z'
loop_
 _atom_site_type_symbol
 _atom_site_label
 _atom_site_symmetry_multiplicity
 _atom_site_fract_x
 _atom_site_fract_y
 _atom_site_fract_z
 _atom_site_occupancy
 _atom_site_charge
  Nd  Nd1  1  0.250940  0.660190  0.708380  1.0  2.2472
  Nd  Nd2  1  0.749060  0.339810  0.291620  1.0  2.2474
  H  H3  1  0.811900  0.913300  0.650600  1.0  0.0729
  H  H4  1  0.701900  0.466800  0.868200  1.0  0.0794
  H  H5  1  0.350800  0.573100  0.471400  1.0  0.0782
  H  H6  1  0.188100  0.086700  0.349400  1.0  0.0725
  H  H7  1  0.298100  0.533200  0.131800  1.0  0.0804
  H  H8  1  0.649200  0.426900  0.528600  1.0  0.0798
  C  C9  1  0.187100  0.939300  0.486200  1.0  0.1039
  C  C10  1  0.891600  0.947200  0.589300  1.0  0.1634
  C  C11  1  0.316700  0.574200  0.977000  1.0  0.1049
  C  C12  1  0.617000  0.481800  0.921300  1.0  0.1646
  C  C13  1  0.884100  0.529000  0.574400  1.0  0.1229
  C  C14  1  0.206500  0.543900  0.484400  1.0  0.1573
  C  C15  1  0.399700  0.869000  0.472300  1.0  0.6507
  C  C16  1  0.109800  0.658000  0.949800  1.0  0.6678
  C  C17  1  0.754000  0.568100  0.657100  1.0  0.6644
  C  C18  1  0.812900  0.060700  0.513800  1.0  0.1041
  C  C19  1  0.108400  0.052800  0.410700  1.0  0.1701
  C  C20  1  0.683300  0.425800  0.023000  1.0  0.1072
  C  C21  1  0.383000  0.518200  0.078700  1.0  0.1735
  C  C22  1  0.115900  0.471000  0.425600  1.0  0.1242
  C  C23  1  0.793500  0.456100  0.515600  1.0  0.1631
  C  C24  1  0.600300  0.131000  0.527700  1.0  0.6516
  C  C25  1  0.890200  0.342000  0.050200  1.0  0.6717
  C  C26  1  0.246000  0.431900  0.342900  1.0  0.664
  N  N27  1  0.078400  0.886400  0.575400  1.0  -0.4683
  N  N28  1  0.433700  0.556800  0.897900  1.0  -0.5186
  N  N29  1  0.090200  0.572600  0.559100  1.0  -0.4603
  N  N30  1  0.921600  0.113600  0.424600  1.0  -0.4719
  N  N31  1  0.566300  0.443200  0.102100  1.0  -0.5147
  N  N32  1  0.909800  0.427400  0.440900  1.0  -0.4617
  O  O33  1  0.454100  0.770300  0.547000  1.0  -0.6716
  O  O34  1  0.063600  0.699500  0.855300  1.0  -0.7156
  O  O35  1  0.848200  0.641300  0.699300  1.0  -0.6308
  O  O36  1  0.559800  0.524200  0.675800  1.0  -0.7257
  O  O37  1  0.503900  0.912300  0.389700  1.0  -0.5597
  O  O38  1  0.998800  0.680500  0.020100  1.0  -0.5459
  O  O39  1  0.545900  0.229700  0.453000  1.0  -0.672
  O  O40  1  0.936400  0.300500  0.144700  1.0  -0.7119
  O  O41  1  0.151800  0.358700  0.300700  1.0  -0.631
  O  O42  1  0.440200  0.475800  0.324200  1.0  -0.7262
  O  O43  1  0.496100  0.087700  0.610300  1.0  -0.5591
  O  O44  1  0.001200  0.319500  0.979900  1.0  -0.5426
