# generated using pymatgen
data_InH11C12O5
_symmetry_space_group_name_H-M   'P 1'
_cell_length_a   15.67290000
_cell_length_b   23.59900000
_cell_length_c   18.21740000
_cell_angle_alpha   90.00000000
_cell_angle_beta   105.44600000
_cell_angle_gamma   90.00000000
_symmetry_Int_Tables_number   1
_chemical_formula_structural   InH11C12O5
_chemical_formula_sum   'In12 H132 C144 O60'
_cell_volume   6494.61151694
_cell_formula_units_Z   12
loop_
 _symmetry_equiv_pos_site_id
 _symmetry_equiv_pos_as_xyz
  1  'x, y, z'
loop_
 _atom_site_type_symbol
 _atom_site_label
 _atom_site_symmetry_multiplicity
 _atom_site_fract_x
 _atom_site_fract_y
 _atom_site_fract_z
 _atom_site_occupancy
 _atom_site_charge
  In  In1  1  0.290020  0.513790  0.865630  1.0  1.6172
  In  In2  1  0.190780  0.530380  0.655460  1.0  1.708
  In  In3  1  0.709980  0.013790  0.634370  1.0  1.6142
  In  In4  1  0.809220  0.030380  0.844540  1.0  1.7077
  In  In5  1  0.709980  0.486210  0.134370  1.0  1.6135
  In  In6  1  0.809220  0.469620  0.344540  1.0  1.7048
  In  In7  1  0.290020  0.986210  0.365630  1.0  1.6162
  In  In8  1  0.190780  0.969620  0.155460  1.0  1.7051
  In  In9  1  0.500000  0.500000  0.000000  1.0  1.7063
  In  In10  1  0.500000  0.000000  0.500000  1.0  1.7063
  In  In11  1  0.000000  0.500000  0.500000  1.0  1.7028
  In  In12  1  0.000000  0.000000  0.000000  1.0  1.7028
  H  H13  1  0.456700  0.522300  0.849900  1.0  0.4024
  H  H14  1  0.308300  0.461600  0.742400  1.0  0.4185
  H  H15  1  0.085700  0.596900  0.550900  1.0  0.3584
  H  H16  1  0.352900  0.624900  0.117900  1.0  0.0826
  H  H17  1  0.186200  0.587300  0.045500  1.0  0.0919
  H  H18  1  0.231100  0.770300  0.111100  1.0  0.0954
  H  H19  1  0.292400  0.721100  0.097500  1.0  0.1242
  H  H20  1  0.194900  0.725800  0.046400  1.0  0.1252
  H  H21  1  0.104100  0.682600  0.361100  1.0  0.1001
  H  H22  1  0.172900  0.731600  0.365500  1.0  0.1192
  H  H23  1  0.075600  0.738600  0.314700  1.0  0.1287
  H  H24  1  0.178600  0.528700  0.138500  1.0  0.0974
  H  H25  1  0.198100  0.520500  0.226800  1.0  0.1227
  H  H26  1  0.100200  0.525700  0.176800  1.0  0.1028
  H  H27  1  0.155700  0.802500  0.180300  1.0  0.113
  H  H28  1  0.265100  0.791400  0.323300  1.0  0.0836
  H  H29  1  0.125600  0.595700  0.357000  1.0  0.1195
  H  H30  1  0.999900  0.563900  0.227200  1.0  0.0868
  H  H31  1  0.216300  0.374800  0.459700  1.0  0.0901
  H  H32  1  0.334700  0.400000  0.594500  1.0  0.086
  H  H33  1  0.522400  0.437400  0.500500  1.0  0.1063
  H  H34  1  0.419300  0.443000  0.470600  1.0  0.1194
  H  H35  1  0.464900  0.444900  0.558300  1.0  0.1139
  H  H36  1  0.561600  0.190400  0.493900  1.0  0.1123
  H  H37  1  0.586900  0.235700  0.440400  1.0  0.1145
  H  H38  1  0.636300  0.234800  0.527400  1.0  0.1145
  H  H39  1  0.292400  0.218600  0.551400  1.0  0.0981
  H  H40  1  0.292700  0.271100  0.604200  1.0  0.1274
  H  H41  1  0.237100  0.272700  0.518900  1.0  0.1202
  H  H42  1  0.660600  0.339600  0.534400  1.0  0.0612
  H  H43  1  0.571500  0.388700  0.404100  1.0  0.0817
  H  H44  1  0.463000  0.163000  0.544500  1.0  0.0978
  H  H45  1  0.307800  0.178400  0.436100  1.0  0.0924
  H  H46  1  0.543300  0.022300  0.650100  1.0  0.4035
  H  H47  1  0.691700  0.961600  0.757600  1.0  0.4192
  H  H48  1  0.914300  0.096900  0.949100  1.0  0.3595
  H  H49  1  0.647100  0.124900  0.382100  1.0  0.0834
  H  H50  1  0.813800  0.087300  0.454500  1.0  0.0937
  H  H51  1  0.768900  0.270300  0.388900  1.0  0.096
  H  H52  1  0.707600  0.221100  0.402500  1.0  0.1261
  H  H53  1  0.805100  0.225800  0.453600  1.0  0.1252
  H  H54  1  0.895900  0.182600  0.138900  1.0  0.0984
  H  H55  1  0.827100  0.231600  0.134500  1.0  0.1207
  H  H56  1  0.924400  0.238600  0.185300  1.0  0.1298
  H  H57  1  0.821400  0.028700  0.361500  1.0  0.0979
  H  H58  1  0.801900  0.020500  0.273200  1.0  0.1227
  H  H59  1  0.899800  0.025700  0.323200  1.0  0.0914
  H  H60  1  0.844300  0.302500  0.319700  1.0  0.1129
  H  H61  1  0.734900  0.291400  0.176700  1.0  0.0837
  H  H62  1  0.874400  0.095700  0.143000  1.0  0.1193
  H  H63  1  0.000100  0.063900  0.272800  1.0  0.0864
  H  H64  1  0.783700  0.874800  0.040300  1.0  0.0897
  H  H65  1  0.665300  0.900000  0.905500  1.0  0.0869
  H  H66  1  0.477600  0.937400  0.999500  1.0  0.1051
  H  H67  1  0.580700  0.943000  0.029400  1.0  0.1201
  H  H68  1  0.535100  0.944900  0.941700  1.0  0.1139
  H  H69  1  0.438400  0.690400  0.006100  1.0  0.1126
  H  H70  1  0.413100  0.735700  0.059600  1.0  0.1142
  H  H71  1  0.363700  0.734800  0.972600  1.0  0.1141
  H  H72  1  0.707600  0.718600  0.948600  1.0  0.0994
  H  H73  1  0.707300  0.771100  0.895800  1.0  0.1271
  H  H74  1  0.762900  0.772700  0.981100  1.0  0.1209
  H  H75  1  0.339400  0.839600  0.965600  1.0  0.0609
  H  H76  1  0.428500  0.888700  0.095900  1.0  0.0823
  H  H77  1  0.537000  0.663000  0.955500  1.0  0.0977
  H  H78  1  0.692200  0.678400  0.063900  1.0  0.0921
  H  H79  1  0.543300  0.477700  0.150100  1.0  0.3953
  H  H80  1  0.691700  0.538400  0.257600  1.0  0.4206
  H  H81  1  0.914300  0.403100  0.449100  1.0  0.3618
  H  H82  1  0.647100  0.375100  0.882100  1.0  0.0833
  H  H83  1  0.813800  0.412700  0.954500  1.0  0.0936
  H  H84  1  0.768900  0.229700  0.888900  1.0  0.0946
  H  H85  1  0.707600  0.278900  0.902500  1.0  0.1266
  H  H86  1  0.805100  0.274200  0.953600  1.0  0.1251
  H  H87  1  0.895900  0.317400  0.638900  1.0  0.0978
  H  H88  1  0.827100  0.268400  0.634500  1.0  0.1206
  H  H89  1  0.924400  0.261400  0.685300  1.0  0.1293
  H  H90  1  0.821400  0.471300  0.861500  1.0  0.0984
  H  H91  1  0.801900  0.479500  0.773200  1.0  0.1233
  H  H92  1  0.899800  0.474300  0.823200  1.0  0.0922
  H  H93  1  0.844300  0.197500  0.819700  1.0  0.1127
  H  H94  1  0.734900  0.208600  0.676700  1.0  0.0835
  H  H95  1  0.874400  0.404300  0.643000  1.0  0.1193
  H  H96  1  0.000100  0.436100  0.772800  1.0  0.0861
  H  H97  1  0.783700  0.625200  0.540300  1.0  0.0898
  H  H98  1  0.665300  0.600000  0.405500  1.0  0.0871
  H  H99  1  0.477600  0.562600  0.499500  1.0  0.1053
  H  H100  1  0.580700  0.557000  0.529400  1.0  0.1201
  H  H101  1  0.535100  0.555100  0.441700  1.0  0.1139
  H  H102  1  0.438400  0.809600  0.506100  1.0  0.1136
  H  H103  1  0.413100  0.764300  0.559600  1.0  0.1141
  H  H104  1  0.363700  0.765200  0.472600  1.0  0.1142
  H  H105  1  0.707600  0.781400  0.448600  1.0  0.0994
  H  H106  1  0.707300  0.728900  0.395800  1.0  0.1266
  H  H107  1  0.762900  0.727300  0.481100  1.0  0.1205
  H  H108  1  0.339400  0.660400  0.465600  1.0  0.0607
  H  H109  1  0.428500  0.611300  0.595900  1.0  0.0824
  H  H110  1  0.537000  0.837000  0.455500  1.0  0.0981
  H  H111  1  0.692200  0.821600  0.563900  1.0  0.0924
  H  H112  1  0.456700  0.977700  0.349900  1.0  0.3936
  H  H113  1  0.308300  0.038400  0.242400  1.0  0.4184
  H  H114  1  0.085700  0.903100  0.050900  1.0  0.3599
  H  H115  1  0.352900  0.875100  0.617900  1.0  0.0825
  H  H116  1  0.186200  0.912700  0.545500  1.0  0.0918
  H  H117  1  0.231100  0.729700  0.611100  1.0  0.0944
  H  H118  1  0.292400  0.778900  0.597500  1.0  0.1243
  H  H119  1  0.194900  0.774200  0.546400  1.0  0.1252
  H  H120  1  0.104100  0.817400  0.861100  1.0  0.0994
  H  H121  1  0.172900  0.768400  0.865500  1.0  0.12
  H  H122  1  0.075600  0.761400  0.814700  1.0  0.1285
  H  H123  1  0.178600  0.971300  0.638500  1.0  0.0976
  H  H124  1  0.198100  0.979500  0.726800  1.0  0.1223
  H  H125  1  0.100200  0.974300  0.676800  1.0  0.1022
  H  H126  1  0.155700  0.697500  0.680300  1.0  0.1131
  H  H127  1  0.265100  0.708600  0.823300  1.0  0.0833
  H  H128  1  0.125600  0.904300  0.857000  1.0  0.1194
  H  H129  1  0.999900  0.936100  0.727200  1.0  0.0868
  H  H130  1  0.216300  0.125200  0.959700  1.0  0.0899
  H  H131  1  0.334700  0.100000  0.094500  1.0  0.0861
  H  H132  1  0.522400  0.062600  0.000500  1.0  0.1058
  H  H133  1  0.419300  0.057000  0.970600  1.0  0.1201
  H  H134  1  0.464900  0.055100  0.058300  1.0  0.1146
  H  H135  1  0.561600  0.309600  0.993900  1.0  0.1133
  H  H136  1  0.586900  0.264300  0.940400  1.0  0.1141
  H  H137  1  0.636300  0.265200  0.027400  1.0  0.1145
  H  H138  1  0.292400  0.281400  0.051400  1.0  0.098
  H  H139  1  0.292700  0.228900  0.104200  1.0  0.1271
  H  H140  1  0.237100  0.227300  0.018900  1.0  0.1204
  H  H141  1  0.660600  0.160400  0.034400  1.0  0.0613
  H  H142  1  0.571500  0.111300  0.904100  1.0  0.0814
  H  H143  1  0.463000  0.337000  0.044500  1.0  0.0976
  H  H144  1  0.307800  0.321600  0.936100  1.0  0.0922
  C  C145  1  0.342900  0.567900  0.028600  1.0  0.7416
  C  C146  1  0.311700  0.603200  0.082900  1.0  -0.1883
  C  C147  1  0.228200  0.605500  0.084200  1.0  -0.1225
  C  C148  1  0.197800  0.635600  0.144300  1.0  -0.0101
  C  C149  1  0.201800  0.694400  0.152100  1.0  0.0655
  C  C150  1  0.180400  0.719700  0.214800  1.0  -0.0154
  C  C151  1  0.149700  0.686900  0.266100  1.0  0.0519
  C  C152  1  0.140300  0.628100  0.254400  1.0  -0.0347
  C  C153  1  0.164000  0.602000  0.193700  1.0  0.0566
  C  C154  1  0.232900  0.731300  0.096800  1.0  -0.4173
  C  C155  1  0.123200  0.712200  0.332900  1.0  -0.3905
  C  C156  1  0.159900  0.538400  0.183000  1.0  -0.3831
  C  C157  1  0.187000  0.781600  0.222100  1.0  -0.0666
  C  C158  1  0.231800  0.810700  0.280700  1.0  -0.1577
  C  C159  1  0.231500  0.873200  0.281700  1.0  0.7094
  C  C160  1  0.098700  0.595500  0.304900  1.0  -0.0915
  C  C161  1  0.025200  0.566100  0.279400  1.0  -0.2002
  C  C162  1  0.981500  0.536600  0.331200  1.0  0.7143
  C  C163  1  0.179200  0.434500  0.531700  1.0  0.6903
  C  C164  1  0.237300  0.392900  0.506300  1.0  -0.1598
  C  C165  1  0.316700  0.381400  0.547900  1.0  -0.0714
  C  C166  1  0.381900  0.341800  0.529300  1.0  0.0234
  C  C167  1  0.457900  0.364000  0.514900  1.0  0.0609
  C  C168  1  0.524200  0.327100  0.505200  1.0  0.0023
  C  C169  1  0.512400  0.268900  0.506500  1.0  0.0632
  C  C170  1  0.433200  0.247100  0.515900  1.0  0.0187
  C  C171  1  0.369500  0.283400  0.530800  1.0  0.042
  C  C172  1  0.467000  0.428300  0.510700  1.0  -0.3569
  C  C173  1  0.580500  0.228800  0.490600  1.0  -0.3753
  C  C174  1  0.290700  0.259300  0.553400  1.0  -0.3981
  C  C175  1  0.610200  0.348900  0.496200  1.0  -0.1056
  C  C176  1  0.621500  0.378600  0.442300  1.0  -0.1186
  C  C177  1  0.710300  0.399400  0.434600  1.0  0.7105
  C  C178  1  0.420200  0.184800  0.511400  1.0  -0.0782
  C  C179  1  0.355100  0.157700  0.465600  1.0  -0.0858
  C  C180  1  0.353200  0.094600  0.458700  1.0  0.7138
  C  C181  1  0.657100  0.067900  0.471400  1.0  0.741
  C  C182  1  0.688300  0.103200  0.417100  1.0  -0.1894
  C  C183  1  0.771800  0.105500  0.415800  1.0  -0.1223
  C  C184  1  0.802200  0.135600  0.355700  1.0  -0.0109
  C  C185  1  0.798200  0.194400  0.347900  1.0  0.0657
  C  C186  1  0.819600  0.219700  0.285200  1.0  -0.0167
  C  C187  1  0.850300  0.186900  0.233900  1.0  0.0509
  C  C188  1  0.859700  0.128100  0.245600  1.0  -0.0343
  C  C189  1  0.836000  0.102000  0.306300  1.0  0.0572
  C  C190  1  0.767100  0.231300  0.403200  1.0  -0.4184
  C  C191  1  0.876800  0.212200  0.167100  1.0  -0.3904
  C  C192  1  0.840100  0.038400  0.317000  1.0  -0.3832
  C  C193  1  0.813000  0.281600  0.277900  1.0  -0.0658
  C  C194  1  0.768200  0.310700  0.219300  1.0  -0.1582
  C  C195  1  0.768500  0.373200  0.218300  1.0  0.7099
  C  C196  1  0.901300  0.095500  0.195100  1.0  -0.0923
  C  C197  1  0.974800  0.066100  0.220600  1.0  -0.2003
  C  C198  1  0.018500  0.036600  0.168800  1.0  0.715
  C  C199  1  0.820800  0.934500  0.968300  1.0  0.6908
  C  C200  1  0.762700  0.892900  0.993700  1.0  -0.1591
  C  C201  1  0.683300  0.881400  0.952100  1.0  -0.0713
  C  C202  1  0.618100  0.841800  0.970700  1.0  0.0249
  C  C203  1  0.542100  0.864000  0.985100  1.0  0.0615
  C  C204  1  0.475800  0.827100  0.994800  1.0  0.0017
  C  C205  1  0.487600  0.768900  0.993500  1.0  0.0631
  C  C206  1  0.566800  0.747100  0.984100  1.0  0.0193
  C  C207  1  0.630500  0.783400  0.969200  1.0  0.0428
  C  C208  1  0.533000  0.928300  0.989300  1.0  -0.357
  C  C209  1  0.419500  0.728800  0.009400  1.0  -0.3746
  C  C210  1  0.709300  0.759300  0.946600  1.0  -0.3985
  C  C211  1  0.389800  0.848900  0.003800  1.0  -0.1059
  C  C212  1  0.378500  0.878600  0.057700  1.0  -0.1182
  C  C213  1  0.289700  0.899400  0.065400  1.0  0.7101
  C  C214  1  0.579800  0.684800  0.988600  1.0  -0.0786
  C  C215  1  0.644900  0.657700  0.034400  1.0  -0.0855
  C  C216  1  0.646800  0.594600  0.041300  1.0  0.713
  C  C217  1  0.657100  0.432100  0.971400  1.0  0.7403
  C  C218  1  0.688300  0.396800  0.917100  1.0  -0.19
  C  C219  1  0.771800  0.394500  0.915800  1.0  -0.1217
  C  C220  1  0.802200  0.364400  0.855700  1.0  -0.0109
  C  C221  1  0.798200  0.305600  0.847900  1.0  0.0654
  C  C222  1  0.819600  0.280300  0.785200  1.0  -0.0165
  C  C223  1  0.850300  0.313100  0.733900  1.0  0.0509
  C  C224  1  0.859700  0.371900  0.745600  1.0  -0.0342
  C  C225  1  0.836000  0.398000  0.806300  1.0  0.0566
  C  C226  1  0.767100  0.268700  0.903200  1.0  -0.4194
  C  C227  1  0.876800  0.287800  0.667100  1.0  -0.3902
  C  C228  1  0.840100  0.461600  0.817000  1.0  -0.3854
  C  C229  1  0.813000  0.218400  0.777900  1.0  -0.0659
  C  C230  1  0.768200  0.189300  0.719300  1.0  -0.1589
  C  C231  1  0.768500  0.126800  0.718300  1.0  0.7104
  C  C232  1  0.901300  0.404500  0.695100  1.0  -0.0926
  C  C233  1  0.974800  0.433900  0.720600  1.0  -0.2006
  C  C234  1  0.018500  0.463400  0.668800  1.0  0.7153
  C  C235  1  0.820800  0.565500  0.468300  1.0  0.6907
  C  C236  1  0.762700  0.607100  0.493700  1.0  -0.159
  C  C237  1  0.683300  0.618600  0.452100  1.0  -0.0701
  C  C238  1  0.618100  0.658200  0.470700  1.0  0.0251
  C  C239  1  0.542100  0.636000  0.485100  1.0  0.0614
  C  C240  1  0.475800  0.672900  0.494800  1.0  0.0013
  C  C241  1  0.487600  0.731100  0.493500  1.0  0.0627
  C  C242  1  0.566800  0.752900  0.484100  1.0  0.0199
  C  C243  1  0.630500  0.716600  0.469200  1.0  0.0428
  C  C244  1  0.533000  0.571700  0.489300  1.0  -0.3582
  C  C245  1  0.419500  0.771200  0.509400  1.0  -0.374
  C  C246  1  0.709300  0.740700  0.446600  1.0  -0.3978
  C  C247  1  0.389800  0.651100  0.503800  1.0  -0.106
  C  C248  1  0.378500  0.621400  0.557700  1.0  -0.1188
  C  C249  1  0.289700  0.600600  0.565400  1.0  0.7105
  C  C250  1  0.579800  0.815200  0.488600  1.0  -0.079
  C  C251  1  0.644900  0.842300  0.534400  1.0  -0.0866
  C  C252  1  0.646800  0.905400  0.541300  1.0  0.7125
  C  C253  1  0.342900  0.932100  0.528600  1.0  0.7415
  C  C254  1  0.311700  0.896800  0.582900  1.0  -0.1889
  C  C255  1  0.228200  0.894500  0.584200  1.0  -0.1217
  C  C256  1  0.197800  0.864400  0.644300  1.0  -0.0103
  C  C257  1  0.201800  0.805600  0.652100  1.0  0.0651
  C  C258  1  0.180400  0.780300  0.714800  1.0  -0.0152
  C  C259  1  0.149700  0.813100  0.766100  1.0  0.0523
  C  C260  1  0.140300  0.871900  0.754400  1.0  -0.0346
  C  C261  1  0.164000  0.898000  0.693700  1.0  0.0563
  C  C262  1  0.232900  0.768700  0.596800  1.0  -0.4178
  C  C263  1  0.123200  0.787800  0.832900  1.0  -0.3904
  C  C264  1  0.159900  0.961600  0.683000  1.0  -0.385
  C  C265  1  0.187000  0.718400  0.722100  1.0  -0.0666
  C  C266  1  0.231800  0.689300  0.780700  1.0  -0.1589
  C  C267  1  0.231500  0.626800  0.781700  1.0  0.711
  C  C268  1  0.098700  0.904500  0.804900  1.0  -0.0915
  C  C269  1  0.025200  0.933900  0.779400  1.0  -0.2002
  C  C270  1  0.981500  0.963400  0.831200  1.0  0.7144
  C  C271  1  0.179200  0.065500  0.031700  1.0  0.6906
  C  C272  1  0.237300  0.107100  0.006300  1.0  -0.1602
  C  C273  1  0.316700  0.118600  0.047900  1.0  -0.0706
  C  C274  1  0.381900  0.158200  0.029300  1.0  0.0235
  C  C275  1  0.457900  0.136000  0.014900  1.0  0.0609
  C  C276  1  0.524200  0.172900  0.005200  1.0  0.0024
  C  C277  1  0.512400  0.231100  0.006500  1.0  0.063
  C  C278  1  0.433200  0.252900  0.015900  1.0  0.0192
  C  C279  1  0.369500  0.216600  0.030800  1.0  0.0422
  C  C280  1  0.467000  0.071700  0.010700  1.0  -0.3581
  C  C281  1  0.580500  0.271200  0.990600  1.0  -0.3748
  C  C282  1  0.290700  0.240700  0.053400  1.0  -0.3981
  C  C283  1  0.610200  0.151100  0.996200  1.0  -0.1057
  C  C284  1  0.621500  0.121400  0.942300  1.0  -0.119
  C  C285  1  0.710300  0.100600  0.934600  1.0  0.7106
  C  C286  1  0.420200  0.315200  0.011400  1.0  -0.0786
  C  C287  1  0.355100  0.342300  0.965600  1.0  -0.0861
  C  C288  1  0.353200  0.405400  0.958700  1.0  0.7138
  O  O289  1  0.428700  0.515230  0.888100  1.0  -0.9463
  O  O290  1  0.274400  0.491810  0.751430  1.0  -0.9764
  O  O291  1  0.090400  0.558660  0.563650  1.0  -0.968
  O  O292  1  0.286500  0.543650  0.976100  1.0  -0.645
  O  O293  1  0.425900  0.564290  0.040100  1.0  -0.6008
  O  O294  1  0.281400  0.896530  0.339100  1.0  -0.5756
  O  O295  1  0.179900  0.898700  0.227000  1.0  -0.6297
  O  O296  1  0.009900  0.545200  0.400700  1.0  -0.6213
  O  O297  1  0.916600  0.505250  0.300200  1.0  -0.639
  O  O298  1  0.205100  0.452990  0.597300  1.0  -0.6122
  O  O299  1  0.107300  0.445780  0.485000  1.0  -0.6019
  O  O300  1  0.779300  0.387100  0.482300  1.0  -0.5426
  O  O301  1  0.704500  0.429100  0.377200  1.0  -0.5931
  O  O302  1  0.408100  0.066980  0.508300  1.0  -0.6322
  O  O303  1  0.296900  0.074350  0.402300  1.0  -0.5731
  O  O304  1  0.571300  0.015230  0.611900  1.0  -0.9509
  O  O305  1  0.725600  0.991810  0.748570  1.0  -0.9774
  O  O306  1  0.909600  0.058660  0.936350  1.0  -0.9685
  O  O307  1  0.713500  0.043650  0.523900  1.0  -0.6462
  O  O308  1  0.574100  0.064290  0.459900  1.0  -0.6015
  O  O309  1  0.718600  0.396530  0.160900  1.0  -0.5755
  O  O310  1  0.820100  0.398700  0.273000  1.0  -0.6307
  O  O311  1  0.990100  0.045200  0.099300  1.0  -0.6212
  O  O312  1  0.083400  0.005250  0.199800  1.0  -0.6401
  O  O313  1  0.794900  0.952990  0.902700  1.0  -0.6129
  O  O314  1  0.892700  0.945780  0.015000  1.0  -0.6034
  O  O315  1  0.220700  0.887100  0.017700  1.0  -0.5441
  O  O316  1  0.295500  0.929100  0.122800  1.0  -0.5936
  O  O317  1  0.591900  0.566980  0.991700  1.0  -0.6325
  O  O318  1  0.703100  0.574350  0.097700  1.0  -0.5732
  O  O319  1  0.571300  0.484770  0.111900  1.0  -0.9509
  O  O320  1  0.725600  0.508190  0.248570  1.0  -0.9759
  O  O321  1  0.909600  0.441340  0.436350  1.0  -0.9697
  O  O322  1  0.713500  0.456350  0.023900  1.0  -0.6465
  O  O323  1  0.574100  0.435710  0.959900  1.0  -0.6017
  O  O324  1  0.718600  0.103470  0.660900  1.0  -0.5762
  O  O325  1  0.820100  0.101300  0.773000  1.0  -0.6305
  O  O326  1  0.990100  0.454800  0.599300  1.0  -0.6209
  O  O327  1  0.083400  0.494750  0.699800  1.0  -0.6395
  O  O328  1  0.794900  0.547010  0.402700  1.0  -0.613
  O  O329  1  0.892700  0.554220  0.515000  1.0  -0.604
  O  O330  1  0.220700  0.612900  0.517700  1.0  -0.5439
  O  O331  1  0.295500  0.570900  0.622800  1.0  -0.5932
  O  O332  1  0.591900  0.933020  0.491700  1.0  -0.6328
  O  O333  1  0.703100  0.925650  0.597700  1.0  -0.5726
  O  O334  1  0.428700  0.984770  0.388100  1.0  -0.9458
  O  O335  1  0.274400  0.008190  0.251430  1.0  -0.9752
  O  O336  1  0.090400  0.941340  0.063650  1.0  -0.9695
  O  O337  1  0.286500  0.956350  0.476100  1.0  -0.6452
  O  O338  1  0.425900  0.935710  0.540100  1.0  -0.6014
  O  O339  1  0.281400  0.603470  0.839100  1.0  -0.5757
  O  O340  1  0.179900  0.601300  0.727000  1.0  -0.6302
  O  O341  1  0.009900  0.954800  0.900700  1.0  -0.6208
  O  O342  1  0.916600  0.994750  0.800200  1.0  -0.6385
  O  O343  1  0.205100  0.047010  0.097300  1.0  -0.6129
  O  O344  1  0.107300  0.054220  0.985000  1.0  -0.6022
  O  O345  1  0.779300  0.112900  0.982300  1.0  -0.5422
  O  O346  1  0.704500  0.070900  0.877200  1.0  -0.5933
  O  O347  1  0.408100  0.433020  0.008300  1.0  -0.6326
  O  O348  1  0.296900  0.425650  0.902300  1.0  -0.5727
