# generated using pymatgen
data_ScH5C8O5
_symmetry_space_group_name_H-M   'P 1'
_cell_length_a   7.30130000
_cell_length_b   9.18020000
_cell_length_c   19.34400000
_cell_angle_alpha   90.00000000
_cell_angle_beta   90.00000000
_cell_angle_gamma   90.00000000
_symmetry_Int_Tables_number   1
_chemical_formula_structural   ScH5C8O5
_chemical_formula_sum   'Sc4 H20 C32 O20'
_cell_volume   1296.57791457
_cell_formula_units_Z   4
loop_
 _symmetry_equiv_pos_site_id
 _symmetry_equiv_pos_as_xyz
  1  'x, y, z'
loop_
 _atom_site_type_symbol
 _atom_site_label
 _atom_site_symmetry_multiplicity
 _atom_site_fract_x
 _atom_site_fract_y
 _atom_site_fract_z
 _atom_site_occupancy
 _atom_site_charge
  Sc  Sc1  1  0.646100  0.504400  0.499500  1.0  2.0609
  Sc  Sc2  1  0.146100  0.495600  0.500500  1.0  2.0612
  Sc  Sc3  1  0.646100  0.995600  0.999500  1.0  2.0612
  Sc  Sc4  1  0.146100  0.004400  0.000500  1.0  2.0612
  H  H5  1  0.127900  0.239000  0.687900  1.0  0.1244
  H  H6  1  0.131900  0.169700  0.802800  1.0  0.0883
  H  H7  1  0.664600  0.275300  0.821000  1.0  0.0992
  H  H8  1  0.663200  0.359000  0.705000  1.0  0.1115
  H  H9  1  0.346000  0.662000  0.531000  1.0  0.3981
  H  H10  1  0.627900  0.761000  0.312100  1.0  0.1243
  H  H11  1  0.631900  0.830300  0.197200  1.0  0.0886
  H  H12  1  0.164600  0.724700  0.179000  1.0  0.0989
  H  H13  1  0.163200  0.641000  0.295000  1.0  0.1113
  H  H14  1  0.846000  0.338000  0.469000  1.0  0.3963
  H  H15  1  0.127900  0.261000  0.187900  1.0  0.1245
  H  H16  1  0.131900  0.330300  0.302800  1.0  0.0883
  H  H17  1  0.664600  0.224700  0.321000  1.0  0.0993
  H  H18  1  0.663200  0.141000  0.205000  1.0  0.1115
  H  H19  1  0.346000  0.838000  0.031000  1.0  0.3964
  H  H20  1  0.627900  0.739000  0.812100  1.0  0.1248
  H  H21  1  0.631900  0.669700  0.697200  1.0  0.0886
  H  H22  1  0.164600  0.775300  0.679000  1.0  0.0991
  H  H23  1  0.163200  0.859000  0.795000  1.0  0.1115
  H  H24  1  0.846000  0.162000  0.969000  1.0  0.3983
  C  C25  1  0.401400  0.360100  0.612300  1.0  0.753
  C  C26  1  0.395900  0.309500  0.687200  1.0  -0.1175
  C  C27  1  0.235500  0.249700  0.715000  1.0  -0.0817
  C  C28  1  0.240400  0.207600  0.782400  1.0  -0.0495
  C  C29  1  0.402400  0.218100  0.824100  1.0  -0.1498
  C  C30  1  0.554800  0.270700  0.794800  1.0  -0.0483
  C  C31  1  0.555200  0.319800  0.725100  1.0  -0.0751
  C  C32  1  0.404100  0.170500  0.896900  1.0  0.7868
  C  C33  1  0.901400  0.639900  0.387700  1.0  0.7535
  C  C34  1  0.895900  0.690500  0.312800  1.0  -0.117
  C  C35  1  0.735500  0.750300  0.285000  1.0  -0.082
  C  C36  1  0.740400  0.792400  0.217600  1.0  -0.0498
  C  C37  1  0.902400  0.781900  0.175900  1.0  -0.1498
  C  C38  1  0.054800  0.729300  0.205200  1.0  -0.0484
  C  C39  1  0.055200  0.680200  0.274900  1.0  -0.0741
  C  C40  1  0.904100  0.829500  0.103100  1.0  0.7844
  C  C41  1  0.401400  0.139900  0.112300  1.0  0.7525
  C  C42  1  0.395900  0.190500  0.187200  1.0  -0.1177
  C  C43  1  0.235500  0.250300  0.215000  1.0  -0.0819
  C  C44  1  0.240400  0.292400  0.282400  1.0  -0.0502
  C  C45  1  0.402400  0.281900  0.324100  1.0  -0.1504
  C  C46  1  0.554800  0.229300  0.294800  1.0  -0.0482
  C  C47  1  0.555200  0.180200  0.225100  1.0  -0.0744
  C  C48  1  0.404100  0.329500  0.396900  1.0  0.7853
  C  C49  1  0.901400  0.860100  0.887700  1.0  0.7543
  C  C50  1  0.895900  0.809500  0.812800  1.0  -0.1176
  C  C51  1  0.735500  0.749700  0.785000  1.0  -0.0816
  C  C52  1  0.740400  0.707600  0.717600  1.0  -0.0492
  C  C53  1  0.902400  0.718100  0.675900  1.0  -0.1495
  C  C54  1  0.054800  0.770700  0.705200  1.0  -0.0486
  C  C55  1  0.055200  0.819800  0.774900  1.0  -0.0749
  C  C56  1  0.904100  0.670500  0.603100  1.0  0.7856
  O  O57  1  0.551400  0.387000  0.585500  1.0  -0.6963
  O  O58  1  0.247000  0.372300  0.582500  1.0  -0.7191
  O  O59  1  0.246800  0.154900  0.926600  1.0  -0.7225
  O  O60  1  0.550300  0.150300  0.926000  1.0  -0.6914
  O  O61  1  0.390100  0.606700  0.491600  1.0  -1.0737
  O  O62  1  0.051400  0.613000  0.414500  1.0  -0.6948
  O  O63  1  0.747000  0.627700  0.417500  1.0  -0.7172
  O  O64  1  0.746800  0.845100  0.073400  1.0  -0.7215
  O  O65  1  0.050300  0.849700  0.074000  1.0  -0.6904
  O  O66  1  0.890100  0.393300  0.508400  1.0  -1.0707
  O  O67  1  0.551400  0.113000  0.085500  1.0  -0.6968
  O  O68  1  0.247000  0.127700  0.082500  1.0  -0.7191
  O  O69  1  0.246800  0.345100  0.426600  1.0  -0.7215
  O  O70  1  0.550300  0.349700  0.426000  1.0  -0.6878
  O  O71  1  0.390100  0.893300  0.991600  1.0  -1.0725
  O  O72  1  0.051400  0.887000  0.914500  1.0  -0.695
  O  O73  1  0.747000  0.872300  0.917500  1.0  -0.7178
  O  O74  1  0.746800  0.654900  0.573400  1.0  -0.7223
  O  O75  1  0.050300  0.650300  0.574000  1.0  -0.6938
  O  O76  1  0.890100  0.106700  0.008400  1.0  -1.0715
