# generated using pymatgen
data_Cd2H27C35N8O7
_symmetry_space_group_name_H-M   'P 1'
_cell_length_a   12.70500000
_cell_length_b   24.22530000
_cell_length_c   15.05420000
_cell_angle_alpha   90.00000000
_cell_angle_beta   92.80200000
_cell_angle_gamma   90.00000000
_symmetry_Int_Tables_number   1
_chemical_formula_structural   Cd2H27C35N8O7
_chemical_formula_sum   'Cd8 H108 C140 N32 O28'
_cell_volume   4627.87878678
_cell_formula_units_Z   4
loop_
 _symmetry_equiv_pos_site_id
 _symmetry_equiv_pos_as_xyz
  1  'x, y, z'
loop_
 _atom_site_type_symbol
 _atom_site_label
 _atom_site_symmetry_multiplicity
 _atom_site_fract_x
 _atom_site_fract_y
 _atom_site_fract_z
 _atom_site_occupancy
 _atom_site_charge
  Cd  Cd1  1  0.962700  0.904680  0.054260  1.0  0.9328
  Cd  Cd2  1  0.957680  0.909770  0.326490  1.0  0.8694
  Cd  Cd3  1  0.497200  0.899170  0.781250  1.0  0.9605
  Cd  Cd4  1  0.511460  0.905740  0.508900  1.0  0.9388
  Cd  Cd5  1  0.037300  0.404680  0.945740  1.0  0.9366
  Cd  Cd6  1  0.042320  0.409770  0.673510  1.0  0.8678
  Cd  Cd7  1  0.502800  0.399170  0.218750  1.0  0.9564
  Cd  Cd8  1  0.488540  0.405740  0.491100  1.0  0.9401
  H  H9  1  0.968500  0.533100  0.898100  1.0  0.0843
  H  H10  1  0.696200  0.881800  0.253600  1.0  0.0997
  H  H11  1  0.136700  0.835300  0.563500  1.0  0.1074
  H  H12  1  0.221400  0.390600  0.472400  1.0  0.0966
  H  H13  1  0.883400  0.686100  0.342000  1.0  0.0951
  H  H14  1  0.307000  0.379200  0.993900  1.0  0.1064
  H  H15  1  0.600500  0.686800  0.875900  1.0  0.1198
  H  H16  1  0.962000  0.930200  0.718800  1.0  0.1042
  H  H17  1  0.113000  0.185000  0.918000  1.0  0.1021
  H  H18  1  0.541500  0.536000  0.434100  1.0  0.0793
  H  H19  1  0.205900  0.768100  0.276800  1.0  0.0803
  H  H20  1  0.122100  0.310500  0.423700  1.0  0.1186
  H  H21  1  0.026600  0.041100  0.364800  1.0  0.0853
  H  H22  1  0.758500  0.430200  0.507800  1.0  0.1091
  H  H23  1  0.449900  0.028100  0.832700  1.0  0.0851
  H  H24  1  0.860000  0.595100  0.383000  1.0  0.0977
  H  H25  1  0.247300  0.772600  0.561100  1.0  0.0911
  H  H26  1  0.390300  0.194600  0.366000  1.0  0.1059
  H  H27  1  0.089500  0.218500  0.419800  1.0  0.1104
  H  H28  1  0.319000  0.831600  0.272500  1.0  0.1021
  H  H29  1  0.137600  0.687600  0.212400  1.0  0.1134
  H  H30  1  0.049300  0.721600  0.160700  1.0  0.116
  H  H31  1  0.049900  0.717200  0.264600  1.0  0.1191
  H  H32  1  0.146700  0.015400  0.772400  1.0  0.1194
  H  H33  1  0.305600  0.020800  0.269600  1.0  0.1189
  H  H34  1  0.143400  0.809600  0.827400  1.0  0.1228
  H  H35  1  0.413500  0.212000  0.874500  1.0  0.1088
  H  H36  1  0.509300  0.916800  0.118600  1.0  0.1013
  H  H37  1  0.565800  0.766200  0.812800  1.0  0.102
  H  H38  1  0.582000  0.716400  0.380800  1.0  0.1134
  H  H39  1  0.355000  0.103600  0.338400  1.0  0.096
  H  H40  1  0.844000  0.516200  0.463100  1.0  0.1136
  H  H41  1  0.904500  0.711800  0.833900  1.0  0.1176
  H  H42  1  0.305200  0.806100  0.009400  1.0  0.1195
  H  H43  1  0.607700  0.792100  0.271700  1.0  0.1195
  H  H44  1  0.423200  0.274800  0.446700  1.0  0.0796
  H  H45  1  0.869800  0.801900  0.826600  1.0  0.121
  H  H46  1  0.782800  0.426300  0.993500  1.0  0.0784
  H  H47  1  0.433200  0.121300  0.831900  1.0  0.1104
  H  H48  1  0.127500  0.093700  0.872900  1.0  0.1221
  H  H49  1  0.307500  0.689300  0.621000  1.0  0.1154
  H  H50  1  0.396300  0.720200  0.677300  1.0  0.1195
  H  H51  1  0.399300  0.718600  0.573400  1.0  0.1124
  H  H52  1  0.770400  0.886100  0.784200  1.0  0.1031
  H  H53  1  0.638500  0.597500  0.922500  1.0  0.1089
  H  H54  1  0.093000  0.278500  0.896900  1.0  0.0855
  H  H55  1  0.939600  0.621500  0.876200  1.0  0.0982
  H  H56  1  0.683600  0.511900  0.976700  1.0  0.1216
  H  H57  1  0.559900  0.623900  0.416000  1.0  0.1061
  H  H58  1  0.052000  0.130500  0.379800  1.0  0.1061
  H  H59  1  0.231300  0.929900  0.739000  1.0  0.084
  H  H60  1  0.898000  0.783100  0.376100  1.0  0.0987
  H  H61  1  0.210800  0.933200  0.260800  1.0  0.0816
  H  H62  1  0.394000  0.291900  0.973500  1.0  0.1165
  H  H63  1  0.031500  0.033100  0.101900  1.0  0.0844
  H  H64  1  0.303800  0.381800  0.746400  1.0  0.0994
  H  H65  1  0.863300  0.335300  0.436500  1.0  0.1071
  H  H66  1  0.778600  0.890600  0.527600  1.0  0.0966
  H  H67  1  0.116600  0.186100  0.658000  1.0  0.0949
  H  H68  1  0.693000  0.879200  0.006100  1.0  0.1067
  H  H69  1  0.399500  0.186800  0.124100  1.0  0.1202
  H  H70  1  0.038000  0.430200  0.281200  1.0  0.1038
  H  H71  1  0.887000  0.685000  0.082000  1.0  0.1021
  H  H72  1  0.458500  0.036000  0.565900  1.0  0.0793
  H  H73  1  0.794100  0.268100  0.723200  1.0  0.0802
  H  H74  1  0.877900  0.810500  0.576300  1.0  0.1186
  H  H75  1  0.973400  0.541100  0.635200  1.0  0.0848
  H  H76  1  0.241500  0.930200  0.492200  1.0  0.1077
  H  H77  1  0.550100  0.528100  0.167300  1.0  0.0856
  H  H78  1  0.140000  0.095100  0.617000  1.0  0.0954
  H  H79  1  0.752700  0.272600  0.438900  1.0  0.0914
  H  H80  1  0.609700  0.694600  0.634000  1.0  0.1057
  H  H81  1  0.910500  0.718500  0.580200  1.0  0.1107
  H  H82  1  0.681000  0.331600  0.727500  1.0  0.1029
  H  H83  1  0.862400  0.187600  0.787600  1.0  0.1119
  H  H84  1  0.950700  0.221600  0.839300  1.0  0.1144
  H  H85  1  0.950100  0.217200  0.735400  1.0  0.1185
  H  H86  1  0.853300  0.515400  0.227600  1.0  0.1189
  H  H87  1  0.694400  0.520800  0.730400  1.0  0.1188
  H  H88  1  0.856600  0.309600  0.172600  1.0  0.1224
  H  H89  1  0.586500  0.712000  0.125500  1.0  0.1081
  H  H90  1  0.490700  0.416800  0.881400  1.0  0.1019
  H  H91  1  0.434200  0.266200  0.187200  1.0  0.1005
  H  H92  1  0.418000  0.216400  0.619200  1.0  0.1136
  H  H93  1  0.645000  0.603600  0.661600  1.0  0.0947
  H  H94  1  0.156000  0.016200  0.536900  1.0  0.1151
  H  H95  1  0.095500  0.211800  0.166100  1.0  0.1176
  H  H96  1  0.694800  0.306100  0.990600  1.0  0.1201
  H  H97  1  0.392300  0.292100  0.728300  1.0  0.1195
  H  H98  1  0.576800  0.774800  0.553300  1.0  0.0795
  H  H99  1  0.130200  0.301900  0.173400  1.0  0.1224
  H  H100  1  0.217200  0.926300  0.006500  1.0  0.078
  H  H101  1  0.566800  0.621300  0.168100  1.0  0.1087
  H  H102  1  0.872500  0.593700  0.127100  1.0  0.1235
  H  H103  1  0.692500  0.189300  0.379000  1.0  0.1164
  H  H104  1  0.603700  0.220200  0.322700  1.0  0.1203
  H  H105  1  0.600700  0.218600  0.426600  1.0  0.1135
  H  H106  1  0.229600  0.386100  0.215800  1.0  0.1029
  H  H107  1  0.361500  0.097500  0.077500  1.0  0.11
  H  H108  1  0.907000  0.778500  0.103100  1.0  0.0858
  H  H109  1  0.060400  0.121500  0.123800  1.0  0.0973
  H  H110  1  0.316400  0.011900  0.023300  1.0  0.1216
  H  H111  1  0.440100  0.123900  0.584000  1.0  0.1075
  H  H112  1  0.948000  0.630500  0.620200  1.0  0.1054
  H  H113  1  0.768700  0.429900  0.261000  1.0  0.0836
  H  H114  1  0.102000  0.283100  0.623900  1.0  0.099
  H  H115  1  0.789200  0.433200  0.739200  1.0  0.081
  H  H116  1  0.606000  0.791900  0.026500  1.0  0.1188
  C  C117  1  0.302700  0.811500  0.142000  1.0  0.2719
  C  C118  1  0.997700  0.916100  0.545500  1.0  0.6959
  C  C119  1  0.907800  0.517000  0.918400  1.0  0.1037
  C  C120  1  0.470200  0.903700  0.291200  1.0  0.682
  C  C121  1  0.726300  0.850500  0.280000  1.0  -0.007
  C  C122  1  0.114300  0.844700  0.619400  1.0  -0.1393
  C  C123  1  0.734900  0.710500  0.355400  1.0  0.1878
  C  C124  1  0.250900  0.356300  0.460700  1.0  0.0624
  C  C125  1  0.817300  0.674200  0.357700  1.0  -0.1493
  C  C126  1  0.274600  0.347400  0.971300  1.0  0.0459
  C  C127  1  0.669400  0.673800  0.877000  1.0  -0.149
  C  C128  1  0.046400  0.870600  0.785200  1.0  -0.118
  C  C129  1  0.452400  0.877000  0.959700  1.0  0.6638
  C  C130  1  0.153200  0.816600  0.693100  1.0  0.2236
  C  C131  1  0.008600  0.901100  0.711600  1.0  -0.034
  C  C132  1  0.199400  0.106700  0.352500  1.0  0.1449
  C  C133  1  0.177000  0.171900  0.899100  1.0  -0.1292
  C  C134  1  0.607000  0.519800  0.446300  1.0  0.1564
  C  C135  1  0.160600  0.770500  0.222400  1.0  0.1179
  C  C136  1  0.194800  0.312400  0.434100  1.0  -0.1504
  C  C137  1  0.084400  0.024500  0.340400  1.0  0.1361
  C  C138  1  0.724500  0.461900  0.486700  1.0  -0.0446
  C  C139  1  0.366200  0.823300  0.617300  1.0  0.6413
  C  C140  1  0.384400  0.014400  0.813200  1.0  0.1313
  C  C141  1  0.794900  0.599800  0.901500  1.0  0.1248
  C  C142  1  0.803400  0.619400  0.383200  1.0  -0.1441
  C  C143  1  0.414600  0.862100  0.051100  1.0  -0.1557
  C  C144  1  0.290800  0.772700  0.616700  1.0  0.0723
  C  C145  1  0.322500  0.181000  0.371700  1.0  -0.1786
  C  C146  1  0.010100  0.885500  0.877300  1.0  0.6641
  C  C147  1  0.143100  0.195400  0.402000  1.0  -0.1528
  C  C148  1  0.709000  0.601100  0.408100  1.0  0.0867
  C  C149  1  0.282500  0.098600  0.843400  1.0  0.1285
  C  C150  1  0.344200  0.839300  0.216900  1.0  -0.148
  C  C151  1  0.093300  0.719600  0.214300  1.0  -0.354
  C  C152  1  0.218200  0.007800  0.780800  1.0  -0.1172
  C  C153  1  0.238300  0.014300  0.288900  1.0  -0.1725
  C  C154  1  0.118300  0.829100  0.777600  1.0  -0.1121
  C  C155  1  0.356100  0.188100  0.873700  1.0  -0.1429
  C  C156  1  0.041200  0.887600  0.627600  1.0  -0.1949
  C  C157  1  0.422600  0.878100  0.208600  1.0  -0.1896
  C  C158  1  0.457600  0.890200  0.125200  1.0  -0.0154
  C  C159  1  0.628800  0.785600  0.810200  1.0  0.148
  C  C160  1  0.638800  0.692200  0.379800  1.0  -0.1584
  C  C161  1  0.300400  0.127100  0.352200  1.0  -0.109
  C  C162  1  0.771800  0.509500  0.462200  1.0  -0.1403
  C  C163  1  0.850400  0.688900  0.851200  1.0  -0.1927
  C  C164  1  0.335500  0.823500  0.059400  1.0  -0.1514
  C  C165  1  0.676800  0.800600  0.289900  1.0  -0.127
  C  C166  1  0.359700  0.294000  0.447100  1.0  0.1683
  C  C167  1  0.260800  0.206500  0.898500  1.0  0.1501
  C  C168  1  0.797100  0.805000  0.818100  1.0  -0.1742
  C  C169  1  0.808400  0.459000  0.970600  1.0  0.0264
  C  C170  1  0.367500  0.134000  0.847300  1.0  -0.1569
  C  C171  1  0.185200  0.117300  0.872100  1.0  -0.1832
  C  C172  1  0.354200  0.720500  0.622600  1.0  -0.3584
  C  C173  1  0.741600  0.851600  0.794800  1.0  0.0006
  C  C174  1  0.692100  0.620100  0.903400  1.0  -0.1482
  C  C175  1  0.749900  0.707900  0.852300  1.0  0.1072
  C  C176  1  0.157200  0.292700  0.918500  1.0  0.1356
  C  C177  1  0.243600  0.215100  0.400000  1.0  0.1332
  C  C178  1  0.870700  0.634400  0.876500  1.0  -0.0968
  C  C179  1  0.752800  0.506200  0.961300  1.0  -0.1395
  C  C180  1  0.626500  0.636700  0.403300  1.0  -0.1275
  C  C181  1  0.121100  0.143000  0.378600  1.0  -0.1111
  C  C182  1  0.265400  0.961100  0.762100  1.0  0.0623
  C  C183  1  0.836900  0.796300  0.346800  1.0  0.1825
  C  C184  1  0.184600  0.966000  0.282800  1.0  0.0369
  C  C185  1  0.323200  0.299400  0.960500  1.0  -0.1512
  C  C186  1  0.092100  0.822000  0.225900  1.0  0.6729
  C  C187  1  0.697300  0.311500  0.858000  1.0  0.272
  C  C188  1  0.002300  0.416100  0.454500  1.0  0.6955
  C  C189  1  0.092200  0.017000  0.081600  1.0  0.1004
  C  C190  1  0.529800  0.403700  0.708800  1.0  0.6837
  C  C191  1  0.273700  0.350500  0.720000  1.0  -0.0053
  C  C192  1  0.885700  0.344700  0.380600  1.0  -0.1402
  C  C193  1  0.265100  0.210500  0.644600  1.0  0.1879
  C  C194  1  0.749100  0.856300  0.539300  1.0  0.063
  C  C195  1  0.182700  0.174200  0.642300  1.0  -0.1493
  C  C196  1  0.725400  0.847400  0.028700  1.0  0.0462
  C  C197  1  0.330600  0.173800  0.123000  1.0  -0.1473
  C  C198  1  0.953600  0.370600  0.214800  1.0  -0.1169
  C  C199  1  0.547600  0.377000  0.040300  1.0  0.6613
  C  C200  1  0.846800  0.316600  0.306900  1.0  0.2231
  C  C201  1  0.991400  0.401100  0.288400  1.0  -0.0353
  C  C202  1  0.800600  0.606700  0.647500  1.0  0.1468
  C  C203  1  0.823000  0.671900  0.100900  1.0  -0.1299
  C  C204  1  0.393000  0.019800  0.553700  1.0  0.1565
  C  C205  1  0.839400  0.270500  0.777600  1.0  0.1167
  C  C206  1  0.805200  0.812400  0.565900  1.0  -0.1495
  C  C207  1  0.915600  0.524500  0.659600  1.0  0.1393
  C  C208  1  0.275500  0.961900  0.513300  1.0  -0.0447
  C  C209  1  0.633800  0.323300  0.382700  1.0  0.6405
  C  C210  1  0.615600  0.514400  0.186800  1.0  0.13
  C  C211  1  0.205100  0.099800  0.098500  1.0  0.125
  C  C212  1  0.196600  0.119400  0.616800  1.0  -0.1422
  C  C213  1  0.585400  0.362100  0.948900  1.0  -0.1538
  C  C214  1  0.709200  0.272700  0.383300  1.0  0.0723
  C  C215  1  0.677500  0.681000  0.628300  1.0  -0.1798
  C  C216  1  0.989900  0.385500  0.122700  1.0  0.6648
  C  C217  1  0.856900  0.695400  0.598000  1.0  -0.1537
  C  C218  1  0.291000  0.101100  0.591900  1.0  0.0873
  C  C219  1  0.717500  0.598600  0.156600  1.0  0.1283
  C  C220  1  0.655800  0.339300  0.783100  1.0  -0.1477
  C  C221  1  0.906700  0.219600  0.785700  1.0  -0.3568
  C  C222  1  0.781800  0.507800  0.219200  1.0  -0.1175
  C  C223  1  0.761700  0.514300  0.711100  1.0  -0.1714
  C  C224  1  0.881700  0.329100  0.222400  1.0  -0.1125
  C  C225  1  0.643900  0.688100  0.126300  1.0  -0.1442
  C  C226  1  0.958800  0.387600  0.372400  1.0  -0.1952
  C  C227  1  0.577400  0.378100  0.791400  1.0  -0.19
  C  C228  1  0.542400  0.390200  0.874800  1.0  -0.0151
  C  C229  1  0.371200  0.285600  0.189800  1.0  0.1487
  C  C230  1  0.361200  0.192200  0.620200  1.0  -0.1566
  C  C231  1  0.699600  0.627100  0.647800  1.0  -0.1086
  C  C232  1  0.228200  0.009500  0.537800  1.0  -0.1413
  C  C233  1  0.149600  0.188900  0.148800  1.0  -0.1942
  C  C234  1  0.664500  0.323500  0.940600  1.0  -0.1508
  C  C235  1  0.323200  0.300600  0.710100  1.0  -0.126
  C  C236  1  0.640300  0.794000  0.552900  1.0  0.1686
  C  C237  1  0.739200  0.706500  0.101500  1.0  0.1499
  C  C238  1  0.202900  0.305000  0.181900  1.0  -0.1783
  C  C239  1  0.191600  0.959000  0.029400  1.0  0.0262
  C  C240  1  0.632500  0.634000  0.152700  1.0  -0.1595
  C  C241  1  0.814800  0.617300  0.127900  1.0  -0.1817
  C  C242  1  0.645800  0.220500  0.377400  1.0  -0.357
  C  C243  1  0.258400  0.351600  0.205200  1.0  -0.0008
  C  C244  1  0.307900  0.120100  0.096600  1.0  -0.148
  C  C245  1  0.250100  0.207900  0.147700  1.0  0.1073
  C  C246  1  0.842800  0.792700  0.081500  1.0  0.1357
  C  C247  1  0.756400  0.715100  0.600000  1.0  0.1328
  C  C248  1  0.129300  0.134400  0.123500  1.0  -0.098
  C  C249  1  0.247200  0.006200  0.038700  1.0  -0.1403
  C  C250  1  0.373500  0.136700  0.596700  1.0  -0.1276
  C  C251  1  0.878900  0.643000  0.621400  1.0  -0.1113
  C  C252  1  0.734600  0.461100  0.237900  1.0  0.0622
  C  C253  1  0.163100  0.296300  0.653200  1.0  0.1819
  C  C254  1  0.815400  0.466000  0.717200  1.0  0.0373
  C  C255  1  0.676800  0.799400  0.039500  1.0  -0.1518
  C  C256  1  0.907900  0.322000  0.774100  1.0  0.673
  N  N257  1  0.085400  0.972700  0.314200  1.0  -0.4145
  N  N258  1  0.635000  0.838800  0.789700  1.0  -0.3869
  N  N259  1  0.170800  0.343600  0.944900  1.0  -0.388
  N  N260  1  0.618400  0.469100  0.474900  1.0  -0.378
  N  N261  1  0.353600  0.345800  0.468800  1.0  -0.4043
  N  N262  1  0.903700  0.465900  0.942900  1.0  -0.379
  N  N263  1  0.369100  0.964800  0.780900  1.0  -0.3724
  N  N264  1  0.825300  0.846500  0.315100  1.0  -0.332
  N  N265  1  0.248000  0.262900  0.926200  1.0  0.0014
  N  N266  1  0.818100  0.544500  0.924600  1.0  0.0399
  N  N267  1  0.176100  0.051000  0.328000  1.0  0.0488
  N  N268  1  0.723800  0.763300  0.826800  1.0  0.053
  N  N269  1  0.294400  0.043200  0.814800  1.0  0.0512
  N  N270  1  0.747700  0.765800  0.331100  1.0  0.0548
  N  N271  1  0.265800  0.270400  0.425000  1.0  0.0153
  N  N272  1  0.695100  0.545200  0.436500  1.0  0.079
  N  N273  1  0.914600  0.472700  0.685800  1.0  -0.4106
  N  N274  1  0.365000  0.338800  0.210300  1.0  -0.3881
  N  N275  1  0.829200  0.843600  0.055100  1.0  -0.3881
  N  N276  1  0.381600  0.969100  0.525100  1.0  -0.3778
  N  N277  1  0.646400  0.845800  0.531200  1.0  -0.4033
  N  N278  1  0.096300  0.965900  0.057100  1.0  -0.3822
  N  N279  1  0.630900  0.464800  0.219100  1.0  -0.373
  N  N280  1  0.174700  0.346500  0.684900  1.0  -0.3326
  N  N281  1  0.752000  0.762900  0.073800  1.0  0.0013
  N  N282  1  0.181900  0.044500  0.075400  1.0  0.0399
  N  N283  1  0.823900  0.551000  0.672000  1.0  0.0483
  N  N284  1  0.276200  0.263300  0.173200  1.0  0.0532
  N  N285  1  0.705600  0.543200  0.185200  1.0  0.0505
  N  N286  1  0.252300  0.265800  0.668900  1.0  0.0552
  N  N287  1  0.734200  0.770400  0.575000  1.0  0.0154
  N  N288  1  0.304900  0.045200  0.563500  1.0  0.0796
  O  O289  1  0.072900  0.837000  0.302700  1.0  -0.6333
  O  O290  1  0.400100  0.834700  0.542900  1.0  -0.6299
  O  O291  1  0.042100  0.855400  0.942600  1.0  -0.605
  O  O292  1  0.008700  0.892200  0.473500  1.0  -0.7122
  O  O293  1  0.421600  0.846000  0.895700  1.0  -0.6195
  O  O294  1  0.509000  0.917600  0.949300  1.0  -0.64
  O  O295  1  0.225400  0.771000  0.146100  1.0  -0.3365
  O  O296  1  0.527800  0.945700  0.282100  1.0  -0.573
  O  O297  1  0.951200  0.961400  0.554600  1.0  -0.5506
  O  O298  1  0.951900  0.926000  0.887500  1.0  -0.6217
  O  O299  1  0.224700  0.772990  0.689100  1.0  -0.3257
  O  O300  1  0.454500  0.881600  0.365100  1.0  -0.6686
  O  O301  1  0.387400  0.845200  0.689600  1.0  -0.6658
  O  O302  1  0.061600  0.842900  0.154000  1.0  -0.6965
  O  O303  1  0.927100  0.337000  0.697300  1.0  -0.6338
  O  O304  1  0.599900  0.334700  0.457100  1.0  -0.6307
  O  O305  1  0.957900  0.355400  0.057400  1.0  -0.6029
  O  O306  1  0.991300  0.392200  0.526500  1.0  -0.7097
  O  O307  1  0.578400  0.346000  0.104300  1.0  -0.622
  O  O308  1  0.491000  0.417600  0.050700  1.0  -0.641
  O  O309  1  0.774600  0.271000  0.853900  1.0  -0.3394
  O  O310  1  0.472200  0.445700  0.717900  1.0  -0.5728
  O  O311  1  0.048800  0.461400  0.445400  1.0  -0.548
  O  O312  1  0.048100  0.426000  0.112500  1.0  -0.6207
  O  O313  1  0.775300  0.272990  0.310900  1.0  -0.3229
  O  O314  1  0.545500  0.381600  0.634900  1.0  -0.6692
  O  O315  1  0.612600  0.345200  0.310400  1.0  -0.6648
  O  O316  1  0.938400  0.342900  0.846000  1.0  -0.6972
