# generated using pymatgen
data_Cd2H27C35N8O7
_symmetry_space_group_name_H-M   'P 1'
_cell_length_a   12.71100000
_cell_length_b   24.30000000
_cell_length_c   15.08500000
_cell_angle_alpha   90.00000000
_cell_angle_beta   92.50600000
_cell_angle_gamma   90.00000000
_symmetry_Int_Tables_number   1
_chemical_formula_structural   Cd2H27C35N8O7
_chemical_formula_sum   'Cd8 H108 C140 N32 O28'
_cell_volume   4654.95803190
_cell_formula_units_Z   4
loop_
 _symmetry_equiv_pos_site_id
 _symmetry_equiv_pos_as_xyz
  1  'x, y, z'
loop_
 _atom_site_type_symbol
 _atom_site_label
 _atom_site_symmetry_multiplicity
 _atom_site_fract_x
 _atom_site_fract_y
 _atom_site_fract_z
 _atom_site_occupancy
 _atom_site_charge
  Cd  Cd1  1  0.962810  0.134160  0.554850  1.0  0.9333
  Cd  Cd2  1  0.497030  0.139710  0.278980  1.0  0.9333
  Cd  Cd3  1  0.958380  0.129730  0.826820  1.0  0.9095
  Cd  Cd4  1  0.510270  0.133870  0.006640  1.0  0.8867
  Cd  Cd5  1  0.037190  0.634160  0.445150  1.0  0.9363
  Cd  Cd6  1  0.502970  0.639710  0.721020  1.0  0.9298
  Cd  Cd7  1  0.041620  0.629730  0.173180  1.0  0.9071
  Cd  Cd8  1  0.489730  0.633870  0.993360  1.0  0.8896
  H  H9  1  0.434400  0.771900  0.687200  1.0  0.0983
  H  H10  1  0.301000  0.658100  0.246100  1.0  0.0938
  H  H11  1  0.959500  0.110000  0.219500  1.0  0.0935
  H  H12  1  0.574800  0.265800  0.050300  1.0  0.0895
  H  H13  1  0.450200  0.009900  0.329500  1.0  0.0899
  H  H14  1  0.776700  0.147700  0.029800  1.0  0.0943
  H  H15  1  0.459400  0.003900  0.062700  1.0  0.0866
  H  H16  1  0.511000  0.122600  0.616400  1.0  0.1091
  H  H17  1  0.137500  0.203500  0.063700  1.0  0.1113
  H  H18  1  0.110700  0.855000  0.418300  1.0  0.1103
  H  H19  1  0.247300  0.266500  0.060400  1.0  0.0927
  H  H20  1  0.031800  0.005000  0.605600  1.0  0.0951
  H  H21  1  0.434700  0.918500  0.331700  1.0  0.1118
  H  H22  1  0.907600  0.322000  0.077100  1.0  0.097
  H  H23  1  0.138700  0.351800  0.711600  1.0  0.1162
  H  H24  1  0.052000  0.322800  0.765800  1.0  0.1146
  H  H25  1  0.048300  0.318600  0.662000  1.0  0.1157
  H  H26  1  0.644800  0.435600  0.165200  1.0  0.1045
  H  H27  1  0.206900  0.270300  0.774400  1.0  0.0899
  H  H28  1  0.129100  0.945900  0.371500  1.0  0.1109
  H  H29  1  0.143700  0.229300  0.327000  1.0  0.1184
  H  H30  1  0.317400  0.207500  0.770100  1.0  0.1047
  H  H31  1  0.308000  0.659800  0.495600  1.0  0.1012
  H  H32  1  0.398600  0.851900  0.618900  1.0  0.1123
  H  H33  1  0.608900  0.345800  0.131900  1.0  0.0935
  H  H34  1  0.144500  0.022600  0.274600  1.0  0.1277
  H  H35  1  0.392200  0.746700  0.226900  1.0  0.1302
  H  H36  1  0.972900  0.498100  0.135700  1.0  0.0869
  H  H37  1  0.308700  0.233900  0.507400  1.0  0.1188
  H  H38  1  0.137900  0.945200  0.116700  1.0  0.1108
  H  H39  1  0.094000  0.760900  0.396500  1.0  0.0877
  H  H40  1  0.419700  0.825200  0.125800  1.0  0.112
  H  H41  1  0.232200  0.108200  0.235100  1.0  0.0844
  H  H42  1  0.395200  0.748300  0.473400  1.0  0.124
  H  H43  1  0.238600  0.109300  0.991300  1.0  0.1081
  H  H44  1  0.153500  0.024100  0.037100  1.0  0.1109
  H  H45  1  0.690700  0.519200  0.226800  1.0  0.1221
  H  H46  1  0.129800  0.736200  0.677300  1.0  0.1263
  H  H47  1  0.231600  0.652800  0.713900  1.0  0.0986
  H  H48  1  0.416400  0.828000  0.378200  1.0  0.1032
  H  H49  1  0.218700  0.111800  0.507300  1.0  0.0856
  H  H50  1  0.115200  0.853400  0.157200  1.0  0.1002
  H  H51  1  0.309000  0.349700  0.121800  1.0  0.1218
  H  H52  1  0.400000  0.320700  0.072700  1.0  0.1136
  H  H53  1  0.397800  0.318200  0.176400  1.0  0.1204
  H  H54  1  0.363200  0.942600  0.584500  1.0  0.1167
  H  H55  1  0.058700  0.916500  0.622200  1.0  0.1137
  H  H56  1  0.439700  0.914300  0.078800  1.0  0.1104
  H  H57  1  0.318800  0.025900  0.525800  1.0  0.1261
  H  H58  1  0.786200  0.605900  0.239500  1.0  0.0949
  H  H59  1  0.096300  0.826900  0.664400  1.0  0.1066
  H  H60  1  0.947700  0.409500  0.122000  1.0  0.1206
  H  H61  1  0.878200  0.229200  0.076600  1.0  0.1265
  H  H62  1  0.098500  0.758600  0.127000  1.0  0.1025
  H  H63  1  0.565600  0.271900  0.312800  1.0  0.0996
  H  H64  1  0.699000  0.158100  0.753900  1.0  0.0934
  H  H65  1  0.040500  0.610000  0.780500  1.0  0.0938
  H  H66  1  0.425200  0.765800  0.949700  1.0  0.0897
  H  H67  1  0.549800  0.509900  0.670500  1.0  0.0906
  H  H68  1  0.223300  0.647700  0.970200  1.0  0.0943
  H  H69  1  0.540600  0.503900  0.937300  1.0  0.0871
  H  H70  1  0.489000  0.622600  0.383600  1.0  0.1087
  H  H71  1  0.862500  0.703500  0.936300  1.0  0.1109
  H  H72  1  0.889300  0.355000  0.581700  1.0  0.1106
  H  H73  1  0.752700  0.766500  0.939600  1.0  0.0924
  H  H74  1  0.968200  0.505000  0.394400  1.0  0.0951
  H  H75  1  0.565300  0.418500  0.668300  1.0  0.1113
  H  H76  1  0.092400  0.822000  0.922900  1.0  0.0962
  H  H77  1  0.861300  0.851800  0.288400  1.0  0.1161
  H  H78  1  0.948000  0.822800  0.234200  1.0  0.1132
  H  H79  1  0.951700  0.818600  0.338000  1.0  0.1123
  H  H80  1  0.355200  0.935600  0.834800  1.0  0.106
  H  H81  1  0.793100  0.770300  0.225600  1.0  0.0906
  H  H82  1  0.870900  0.445900  0.628500  1.0  0.1119
  H  H83  1  0.856300  0.729300  0.673000  1.0  0.1178
  H  H84  1  0.682600  0.707500  0.229900  1.0  0.1056
  H  H85  1  0.692000  0.159800  0.504400  1.0  0.1011
  H  H86  1  0.601400  0.351900  0.381100  1.0  0.1105
  H  H87  1  0.391100  0.845800  0.868100  1.0  0.0944
  H  H88  1  0.855500  0.522600  0.725400  1.0  0.1279
  H  H89  1  0.607800  0.246700  0.773100  1.0  0.13
  H  H90  1  0.027100  0.998100  0.864300  1.0  0.0877
  H  H91  1  0.691300  0.733900  0.492600  1.0  0.1192
  H  H92  1  0.862100  0.445200  0.883300  1.0  0.1115
  H  H93  1  0.906000  0.260900  0.603500  1.0  0.0874
  H  H94  1  0.580300  0.325200  0.874200  1.0  0.1103
  H  H95  1  0.767800  0.608200  0.764900  1.0  0.0842
  H  H96  1  0.604800  0.248300  0.526600  1.0  0.1252
  H  H97  1  0.761400  0.609300  0.008700  1.0  0.1078
  H  H98  1  0.846500  0.524100  0.962900  1.0  0.1109
  H  H99  1  0.309300  0.019200  0.773200  1.0  0.121
  H  H100  1  0.870200  0.236200  0.322700  1.0  0.1251
  H  H101  1  0.768400  0.152800  0.286100  1.0  0.0984
  H  H102  1  0.583600  0.328000  0.621800  1.0  0.1021
  H  H103  1  0.781300  0.611800  0.492700  1.0  0.0858
  H  H104  1  0.884800  0.353400  0.842800  1.0  0.1003
  H  H105  1  0.691000  0.849700  0.878200  1.0  0.1219
  H  H106  1  0.600000  0.820700  0.927300  1.0  0.1147
  H  H107  1  0.602200  0.818200  0.823600  1.0  0.1208
  H  H108  1  0.636800  0.442600  0.415500  1.0  0.1152
  H  H109  1  0.941300  0.416500  0.377800  1.0  0.1146
  H  H110  1  0.560300  0.414300  0.921200  1.0  0.1076
  H  H111  1  0.681200  0.525900  0.474200  1.0  0.1268
  H  H112  1  0.213800  0.105900  0.760500  1.0  0.0947
  H  H113  1  0.903700  0.326900  0.335600  1.0  0.1076
  H  H114  1  0.052300  0.909500  0.878000  1.0  0.1202
  H  H115  1  0.121800  0.729200  0.923400  1.0  0.1265
  H  H116  1  0.901500  0.258600  0.873000  1.0  0.1024
  C  C117  1  0.997200  0.123820  0.045700  1.0  0.6917
  C  C118  1  0.754800  0.324390  0.099700  1.0  0.1604
  C  C119  1  0.364800  0.216170  0.115900  1.0  0.6585
  C  C120  1  0.371400  0.752670  0.690600  1.0  0.1633
  C  C121  1  0.449800  0.162100  0.456300  1.0  0.6754
  C  C122  1  0.271400  0.689300  0.219600  1.0  0.0227
  C  C123  1  0.471700  0.136300  0.789200  1.0  0.7027
  C  C124  1  0.799700  0.432360  0.147800  1.0  0.089
  C  C125  1  0.007700  0.138300  0.212600  1.0  -0.0241
  C  C126  1  0.422300  0.161880  0.706600  1.0  -0.1675
  C  C127  1  0.153900  0.222370  0.193600  1.0  0.2544
  C  C128  1  0.638000  0.246560  0.051000  1.0  0.1782
  C  C129  1  0.384700  0.023990  0.311400  1.0  0.1471
  C  C130  1  0.010500  0.152970  0.378500  1.0  0.6698
  C  C131  1  0.250800  0.830790  0.648200  1.0  0.0518
  C  C132  1  0.301400  0.227590  0.639600  1.0  0.2583
  C  C133  1  0.748200  0.182300  0.039700  1.0  0.0512
  C  C134  1  0.260700  0.831860  0.399100  1.0  0.1181
  C  C135  1  0.393800  0.020040  0.051500  1.0  0.1646
  C  C136  1  0.458500  0.148900  0.622600  1.0  -0.011
  C  C137  1  0.093000  0.217170  0.725300  1.0  0.6708
  C  C138  1  0.114800  0.194160  0.119500  1.0  -0.1304
  C  C139  1  0.283600  0.940480  0.343800  1.0  0.118
  C  C140  1  0.046100  0.167450  0.287100  1.0  -0.131
  C  C141  1  0.175200  0.867400  0.399500  1.0  -0.1364
  C  C142  1  0.264800  0.830300  0.144800  1.0  0.1255
  C  C143  1  0.290800  0.266160  0.115600  1.0  0.1033
  C  C144  1  0.091800  0.021030  0.583800  1.0  0.1316
  C  C145  1  0.369300  0.905700  0.347700  1.0  -0.1424
  C  C146  1  0.854500  0.344600  0.096800  1.0  -0.1171
  C  C147  1  0.093700  0.320140  0.714500  1.0  -0.348
  C  C148  1  0.699000  0.412430  0.149300  1.0  -0.1561
  C  C149  1  0.160700  0.268290  0.720800  1.0  0.1021
  C  C150  1  0.186300  0.922000  0.371600  1.0  -0.1322
  C  C151  1  0.118600  0.209590  0.277600  1.0  -0.099
  C  C152  1  0.290900  0.938630  0.092200  1.0  0.0414
  C  C153  1  0.343200  0.200040  0.714600  1.0  -0.1396
  C  C154  1  0.040700  0.151270  0.127800  1.0  -0.1992
  C  C155  1  0.275700  0.691500  0.472900  1.0  0.0209
  C  C156  1  0.414200  0.176200  0.548200  1.0  -0.1485
  C  C157  1  0.206500  0.938860  0.600200  1.0  0.0804
  C  C158  1  0.330300  0.865200  0.621800  1.0  -0.1404
  C  C159  1  0.677200  0.359100  0.127700  1.0  -0.1166
  C  C160  1  0.216200  0.030200  0.281300  1.0  -0.1589
  C  C161  1  0.322700  0.738570  0.210000  1.0  -0.1224
  C  C162  1  0.914700  0.514640  0.159700  1.0  0.1386
  C  C163  1  0.336700  0.215600  0.557200  1.0  -0.1449
  C  C164  1  0.194500  0.920900  0.116800  1.0  -0.1434
  C  C165  1  0.157800  0.746710  0.418800  1.0  0.1713
  C  C166  1  0.362000  0.848800  0.122500  1.0  -0.1583
  C  C167  1  0.265600  0.077500  0.259900  1.0  0.059
  C  C168  1  0.324500  0.740400  0.461100  1.0  -0.1658
  C  C169  1  0.272900  0.077700  0.012100  1.0  -0.0169
  C  C170  1  0.225700  0.030600  0.037200  1.0  -0.1552
  C  C171  1  0.759000  0.525400  0.209400  1.0  -0.1724
  C  C172  1  0.202700  0.733500  0.683900  1.0  -0.191
  C  C173  1  0.259900  0.687600  0.705200  1.0  0.0185
  C  C174  1  0.358200  0.851300  0.375500  1.0  -0.1478
  C  C175  1  0.193000  0.079200  0.530300  1.0  0.0271
  C  C176  1  0.181300  0.865800  0.142100  1.0  -0.1281
  C  C177  1  0.355300  0.318500  0.122200  1.0  -0.3598
  C  C178  1  0.308800  0.919300  0.599700  1.0  -0.1529
  C  C179  1  0.127900  0.904000  0.623100  1.0  -0.1278
  C  C180  1  0.373900  0.902360  0.095400  1.0  -0.0987
  C  C181  1  0.249300  0.031600  0.540200  1.0  -0.1648
  C  C182  1  0.812600  0.573300  0.216900  1.0  0.0292
  C  C183  1  0.150400  0.850000  0.647900  1.0  -0.1345
  C  C184  1  0.878400  0.397200  0.122100  1.0  -0.1478
  C  C185  1  0.805600  0.227200  0.066100  1.0  -0.1741
  C  C186  1  0.159800  0.744790  0.154500  1.0  0.1614
  C  C187  1  0.002800  0.623820  0.954300  1.0  0.6931
  C  C188  1  0.245200  0.824390  0.900300  1.0  0.1603
  C  C189  1  0.635200  0.716170  0.884100  1.0  0.6573
  C  C190  1  0.628600  0.252670  0.309400  1.0  0.1632
  C  C191  1  0.550200  0.662100  0.543700  1.0  0.6759
  C  C192  1  0.728600  0.189300  0.780400  1.0  0.0226
  C  C193  1  0.528300  0.636300  0.210800  1.0  0.6994
  C  C194  1  0.200300  0.932360  0.852200  1.0  0.087
  C  C195  1  0.992300  0.638300  0.787400  1.0  -0.0247
  C  C196  1  0.577700  0.661880  0.293400  1.0  -0.1683
  C  C197  1  0.846100  0.722370  0.806400  1.0  0.2553
  C  C198  1  0.362000  0.746560  0.949000  1.0  0.1784
  C  C199  1  0.615300  0.523990  0.688600  1.0  0.1473
  C  C200  1  0.989500  0.652970  0.621500  1.0  0.67
  C  C201  1  0.749200  0.330790  0.351800  1.0  0.0517
  C  C202  1  0.698600  0.727590  0.360400  1.0  0.2578
  C  C203  1  0.251800  0.682300  0.960300  1.0  0.0506
  C  C204  1  0.739300  0.331860  0.600900  1.0  0.1178
  C  C205  1  0.606200  0.520040  0.948500  1.0  0.1622
  C  C206  1  0.541500  0.648900  0.377400  1.0  -0.0106
  C  C207  1  0.907000  0.717170  0.274700  1.0  0.6705
  C  C208  1  0.885200  0.694160  0.880500  1.0  -0.1294
  C  C209  1  0.716400  0.440480  0.656200  1.0  0.1174
  C  C210  1  0.953900  0.667450  0.712900  1.0  -0.1315
  C  C211  1  0.824800  0.367400  0.600500  1.0  -0.1359
  C  C212  1  0.735200  0.330300  0.855200  1.0  0.1257
  C  C213  1  0.709200  0.766160  0.884400  1.0  0.1042
  C  C214  1  0.908200  0.521030  0.416200  1.0  0.1345
  C  C215  1  0.630700  0.405700  0.652300  1.0  -0.143
  C  C216  1  0.145500  0.844600  0.903200  1.0  -0.1157
  C  C217  1  0.906300  0.820140  0.285500  1.0  -0.3493
  C  C218  1  0.301000  0.912430  0.850700  1.0  -0.1568
  C  C219  1  0.839300  0.768290  0.279200  1.0  0.1024
  C  C220  1  0.813700  0.422000  0.628400  1.0  -0.1333
  C  C221  1  0.881400  0.709590  0.722400  1.0  -0.1
  C  C222  1  0.709100  0.438630  0.907800  1.0  0.0394
  C  C223  1  0.656800  0.700040  0.285400  1.0  -0.1404
  C  C224  1  0.959300  0.651270  0.872200  1.0  -0.1983
  C  C225  1  0.724300  0.191500  0.527100  1.0  0.0209
  C  C226  1  0.585800  0.676200  0.451800  1.0  -0.1473
  C  C227  1  0.793500  0.438860  0.399800  1.0  0.0819
  C  C228  1  0.669700  0.365200  0.378200  1.0  -0.1433
  C  C229  1  0.322800  0.859100  0.872300  1.0  -0.1189
  C  C230  1  0.783800  0.530200  0.718700  1.0  -0.1595
  C  C231  1  0.677300  0.238570  0.790000  1.0  -0.1217
  C  C232  1  0.085300  0.014640  0.840300  1.0  0.1363
  C  C233  1  0.663300  0.715600  0.442800  1.0  -0.144
  C  C234  1  0.805500  0.420900  0.883200  1.0  -0.1453
  C  C235  1  0.842200  0.246710  0.581200  1.0  0.1719
  C  C236  1  0.638000  0.348800  0.877500  1.0  -0.1582
  C  C237  1  0.734400  0.577500  0.740100  1.0  0.0593
  C  C238  1  0.675500  0.240400  0.538900  1.0  -0.1667
  C  C239  1  0.727100  0.577700  0.987900  1.0  -0.0157
  C  C240  1  0.774300  0.530600  0.962800  1.0  -0.1527
  C  C241  1  0.241000  0.025400  0.790600  1.0  -0.1719
  C  C242  1  0.797300  0.233500  0.316100  1.0  -0.1873
  C  C243  1  0.740100  0.187600  0.294800  1.0  0.0177
  C  C244  1  0.641800  0.351300  0.624500  1.0  -0.1495
  C  C245  1  0.807000  0.579200  0.469700  1.0  0.0267
  C  C246  1  0.818700  0.365800  0.857900  1.0  -0.1293
  C  C247  1  0.644700  0.818500  0.877800  1.0  -0.359
  C  C248  1  0.691200  0.419300  0.400300  1.0  -0.1546
  C  C249  1  0.872100  0.404000  0.376900  1.0  -0.129
  C  C250  1  0.626100  0.402360  0.904600  1.0  -0.096
  C  C251  1  0.750700  0.531600  0.459800  1.0  -0.1679
  C  C252  1  0.187400  0.073300  0.783100  1.0  0.0297
  C  C253  1  0.849600  0.350000  0.352100  1.0  -0.1363
  C  C254  1  0.121600  0.897200  0.877900  1.0  -0.1467
  C  C255  1  0.194400  0.727200  0.933900  1.0  -0.1758
  C  C256  1  0.840200  0.244790  0.845500  1.0  0.1625
  N  N257  1  0.912500  0.566700  0.185700  1.0  -0.4206
  N  N258  1  0.170500  0.695780  0.445900  1.0  -0.3947
  N  N259  1  0.381400  0.070870  0.022800  1.0  -0.3973
  N  N260  1  0.365500  0.700080  0.712000  1.0  -0.3957
  N  N261  1  0.096100  0.072330  0.558200  1.0  -0.3629
  N  N262  1  0.645700  0.194270  0.029900  1.0  -0.3636
  N  N263  1  0.172000  0.692830  0.184900  1.0  -0.3819
  N  N264  1  0.248000  0.776480  0.426800  1.0  0.028
  N  N265  1  0.248900  0.773750  0.169700  1.0  0.0347
  N  N266  1  0.294200  0.995650  0.314900  1.0  0.0454
  N  N267  1  0.370400  0.073750  0.279700  1.0  -0.3712
  N  N268  1  0.303500  0.993980  0.062700  1.0  0.0447
  N  N269  1  0.275700  0.775360  0.674200  1.0  0.0375
  N  N270  1  0.733200  0.269280  0.074100  1.0  0.0416
  N  N271  1  0.182600  0.993920  0.575500  1.0  0.0551
  N  N272  1  0.822500  0.488260  0.172300  1.0  0.0645
  N  N273  1  0.087500  0.066700  0.814300  1.0  -0.4233
  N  N274  1  0.829500  0.195780  0.554100  1.0  -0.3936
  N  N275  1  0.618600  0.570870  0.977200  1.0  -0.3992
  N  N276  1  0.634500  0.200080  0.288000  1.0  -0.3948
  N  N277  1  0.903900  0.572330  0.441800  1.0  -0.3603
  N  N278  1  0.354300  0.694270  0.970100  1.0  -0.3644
  N  N279  1  0.828000  0.192830  0.815100  1.0  -0.3804
  N  N280  1  0.752000  0.276480  0.573200  1.0  0.0283
  N  N281  1  0.751100  0.273750  0.830300  1.0  0.0349
  N  N282  1  0.705800  0.495650  0.685100  1.0  0.0453
  N  N283  1  0.629600  0.573750  0.720300  1.0  -0.372
  N  N284  1  0.696500  0.493980  0.937300  1.0  0.0444
  N  N285  1  0.724300  0.275360  0.325800  1.0  0.038
  N  N286  1  0.266800  0.769280  0.925900  1.0  0.0415
  N  N287  1  0.817400  0.493920  0.424500  1.0  0.0559
  N  N288  1  0.177500  0.988260  0.827700  1.0  0.0651
  O  O289  1  0.073800  0.201950  0.802700  1.0  -0.6722
  O  O290  1  0.398300  0.204820  0.041300  1.0  -0.6539
  O  O291  1  0.509500  0.122180  0.446490  1.0  -0.6561
  O  O292  1  0.008400  0.147000  0.973060  1.0  -0.712
  O  O293  1  0.420000  0.192110  0.393900  1.0  -0.6474
  O  O294  1  0.951700  0.112770  0.388370  1.0  -0.6303
  O  O295  1  0.043200  0.183200  0.442900  1.0  -0.5981
  O  O296  1  0.060100  0.196020  0.653400  1.0  -0.7051
  O  O297  1  0.455500  0.157650  0.863020  1.0  -0.641
  O  O298  1  0.948600  0.078480  0.055100  1.0  -0.5651
  O  O299  1  0.387800  0.193980  0.187300  1.0  -0.6671
  O  O300  1  0.224500  0.265060  0.189300  1.0  -0.3192
  O  O301  1  0.224600  0.267800  0.643840  1.0  -0.3195
  O  O302  1  0.528600  0.093880  0.780200  1.0  -0.5481
  O  O303  1  0.926200  0.701950  0.197300  1.0  -0.6725
  O  O304  1  0.601700  0.704820  0.958700  1.0  -0.6547
  O  O305  1  0.490500  0.622180  0.553510  1.0  -0.6549
  O  O306  1  0.991600  0.647000  0.026940  1.0  -0.7077
  O  O307  1  0.580000  0.692110  0.606100  1.0  -0.6482
  O  O308  1  0.048300  0.612770  0.611630  1.0  -0.6308
  O  O309  1  0.956800  0.683200  0.557100  1.0  -0.5986
  O  O310  1  0.939900  0.696020  0.346600  1.0  -0.7062
  O  O311  1  0.544500  0.657650  0.136980  1.0  -0.6425
  O  O312  1  0.051400  0.578480  0.944900  1.0  -0.5666
  O  O313  1  0.612200  0.693980  0.812700  1.0  -0.6666
  O  O314  1  0.775500  0.765060  0.810700  1.0  -0.3192
  O  O315  1  0.775400  0.767800  0.356160  1.0  -0.3205
  O  O316  1  0.471400  0.593880  0.219800  1.0  -0.5469
