# generated using pymatgen
data_MnH15C26(NO2)3
_symmetry_space_group_name_H-M   'P 1'
_cell_length_a   23.64080000
_cell_length_b   16.37140000
_cell_length_c   6.58700000
_cell_angle_alpha   90.00000000
_cell_angle_beta   90.00000000
_cell_angle_gamma   90.00000000
_symmetry_Int_Tables_number   1
_chemical_formula_structural   MnH15C26(NO2)3
_chemical_formula_sum   'Mn4 H60 C104 N12 O24'
_cell_volume   2549.38632568
_cell_formula_units_Z   4
loop_
 _symmetry_equiv_pos_site_id
 _symmetry_equiv_pos_as_xyz
  1  'x, y, z'
loop_
 _atom_site_type_symbol
 _atom_site_label
 _atom_site_symmetry_multiplicity
 _atom_site_fract_x
 _atom_site_fract_y
 _atom_site_fract_z
 _atom_site_occupancy
 _atom_site_charge
  Mn  Mn1  1  0.825560  0.889300  0.884900  1.0  1.0516
  Mn  Mn2  1  0.174440  0.110700  0.384900  1.0  1.0526
  Mn  Mn3  1  0.325560  0.610700  0.884900  1.0  1.0516
  Mn  Mn4  1  0.674440  0.389300  0.384900  1.0  1.0526
  H  H5  1  0.890600  0.720700  0.911400  1.0  0.3635
  H  H6  1  0.846000  0.532700  0.870100  1.0  0.1263
  H  H7  1  0.787400  0.419900  0.865500  1.0  0.1028
  H  H8  1  0.709900  0.677400  0.910400  1.0  0.0994
  H  H9  1  0.594400  0.464200  0.838200  1.0  0.1086
  H  H10  1  0.500600  0.502000  0.837700  1.0  0.1081
  H  H11  1  0.548600  0.726200  0.990000  1.0  0.0778
  H  H12  1  0.699300  0.813300  0.845200  1.0  0.0861
  H  H13  1  0.605400  0.851300  0.823000  1.0  0.1283
  H  H14  1  0.582500  0.987200  0.844700  1.0  0.1246
  H  H15  1  0.614800  0.133900  0.878900  1.0  0.1289
  H  H16  1  0.686000  0.224300  0.910800  1.0  0.1096
  H  H17  1  0.790800  0.252000  0.924400  1.0  0.1109
  H  H18  1  0.882500  0.203600  0.934900  1.0  0.1266
  H  H19  1  0.898300  0.062200  0.914900  1.0  0.0866
  H  H20  1  0.109400  0.279300  0.411400  1.0  0.3649
  H  H21  1  0.154000  0.467300  0.370100  1.0  0.1268
  H  H22  1  0.212600  0.580100  0.365500  1.0  0.1022
  H  H23  1  0.290100  0.322600  0.410400  1.0  0.0996
  H  H24  1  0.405600  0.535800  0.338200  1.0  0.1097
  H  H25  1  0.499400  0.498000  0.337700  1.0  0.108
  H  H26  1  0.451400  0.273800  0.490000  1.0  0.0784
  H  H27  1  0.300700  0.186700  0.345200  1.0  0.0858
  H  H28  1  0.394600  0.148700  0.323000  1.0  0.1287
  H  H29  1  0.417500  0.012800  0.344700  1.0  0.1233
  H  H30  1  0.385200  0.866100  0.378900  1.0  0.1287
  H  H31  1  0.314000  0.775700  0.410800  1.0  0.1085
  H  H32  1  0.209200  0.748000  0.424400  1.0  0.1117
  H  H33  1  0.117500  0.796400  0.434900  1.0  0.1257
  H  H34  1  0.101700  0.937800  0.414900  1.0  0.0858
  H  H35  1  0.390600  0.779300  0.911400  1.0  0.364
  H  H36  1  0.346000  0.967300  0.870100  1.0  0.1263
  H  H37  1  0.287400  0.080100  0.865500  1.0  0.103
  H  H38  1  0.209900  0.822600  0.910400  1.0  0.0992
  H  H39  1  0.094400  0.035800  0.838200  1.0  0.1091
  H  H40  1  0.000600  0.998000  0.837700  1.0  0.1084
  H  H41  1  0.048600  0.773800  0.990000  1.0  0.0782
  H  H42  1  0.199300  0.686700  0.845200  1.0  0.0859
  H  H43  1  0.105400  0.648700  0.823000  1.0  0.1286
  H  H44  1  0.082500  0.512800  0.844700  1.0  0.1244
  H  H45  1  0.114800  0.366100  0.878900  1.0  0.1288
  H  H46  1  0.186000  0.275700  0.910800  1.0  0.1091
  H  H47  1  0.290800  0.248000  0.924400  1.0  0.1112
  H  H48  1  0.382500  0.296400  0.934900  1.0  0.126
  H  H49  1  0.398300  0.437800  0.914900  1.0  0.0862
  H  H50  1  0.609400  0.220700  0.411400  1.0  0.3633
  H  H51  1  0.654000  0.032700  0.370100  1.0  0.1265
  H  H52  1  0.712600  0.919900  0.365500  1.0  0.1018
  H  H53  1  0.790100  0.177400  0.410400  1.0  0.0996
  H  H54  1  0.905600  0.964200  0.338200  1.0  0.1091
  H  H55  1  0.999400  0.002000  0.337700  1.0  0.1079
  H  H56  1  0.951400  0.226200  0.490000  1.0  0.0776
  H  H57  1  0.800700  0.313300  0.345200  1.0  0.0849
  H  H58  1  0.894600  0.351300  0.323000  1.0  0.1288
  H  H59  1  0.917500  0.487200  0.344700  1.0  0.1236
  H  H60  1  0.885200  0.633900  0.378900  1.0  0.1289
  H  H61  1  0.814000  0.724300  0.410800  1.0  0.1089
  H  H62  1  0.709200  0.752000  0.424400  1.0  0.1118
  H  H63  1  0.617500  0.703600  0.434900  1.0  0.1262
  H  H64  1  0.601700  0.562200  0.414900  1.0  0.0858
  C  C65  1  0.819500  0.692400  0.896700  1.0  0.6689
  C  C66  1  0.783190  0.616940  0.891400  1.0  -0.1631
  C  C67  1  0.806960  0.539100  0.877300  1.0  -0.0497
  C  C68  1  0.771750  0.471900  0.874200  1.0  -0.0786
  C  C69  1  0.713150  0.480310  0.883900  1.0  -0.0627
  C  C70  1  0.679630  0.401500  0.882900  1.0  0.6966
  C  C71  1  0.688490  0.558800  0.898000  1.0  -0.0569
  C  C72  1  0.725170  0.625100  0.901200  1.0  -0.0663
  C  C73  1  0.626080  0.575500  0.904200  1.0  0.131
  C  C74  1  0.584410  0.518000  0.866100  1.0  -0.112
  C  C75  1  0.528430  0.540100  0.869400  1.0  -0.0013
  C  C76  1  0.513600  0.618500  0.919500  1.0  -0.1498
  C  C77  1  0.557870  0.672600  0.957900  1.0  0.2121
  C  C78  1  0.453520  0.647500  0.927500  1.0  0.6897
  C  C79  1  0.690300  0.868600  0.850300  1.0  0.1825
  C  C80  1  0.633400  0.890600  0.838800  1.0  -0.1626
  C  C81  1  0.620120  0.971000  0.851300  1.0  -0.0397
  C  C82  1  0.662680  0.029800  0.874100  1.0  0.0385
  C  C83  1  0.718990  0.001200  0.878500  1.0  0.1547
  C  C84  1  0.651900  0.115200  0.884000  1.0  -0.1201
  C  C85  1  0.694300  0.168900  0.900300  1.0  -0.1531
  C  C86  1  0.752900  0.142600  0.902100  1.0  0.0131
  C  C87  1  0.765150  0.059400  0.894500  1.0  0.1517
  C  C88  1  0.797700  0.196200  0.917700  1.0  0.0014
  C  C89  1  0.852200  0.167700  0.923500  1.0  -0.1363
  C  C90  1  0.861400  0.082000  0.911700  1.0  0.1617
  C  C91  1  0.180500  0.307600  0.396700  1.0  0.6681
  C  C92  1  0.216810  0.383060  0.391400  1.0  -0.1634
  C  C93  1  0.193040  0.460900  0.377300  1.0  -0.0484
  C  C94  1  0.228250  0.528100  0.374200  1.0  -0.0781
  C  C95  1  0.286850  0.519690  0.383900  1.0  -0.063
  C  C96  1  0.320370  0.598500  0.382900  1.0  0.6972
  C  C97  1  0.311510  0.441200  0.398000  1.0  -0.0566
  C  C98  1  0.274830  0.374900  0.401200  1.0  -0.0666
  C  C99  1  0.373920  0.424500  0.404200  1.0  0.1314
  C  C100  1  0.415590  0.482000  0.366100  1.0  -0.113
  C  C101  1  0.471570  0.459900  0.369400  1.0  -0.001
  C  C102  1  0.486400  0.381500  0.419500  1.0  -0.1477
  C  C103  1  0.442130  0.327400  0.457900  1.0  0.2133
  C  C104  1  0.546480  0.352500  0.427500  1.0  0.688
  C  C105  1  0.309700  0.131400  0.350300  1.0  0.1813
  C  C106  1  0.366600  0.109400  0.338800  1.0  -0.1575
  C  C107  1  0.379880  0.029000  0.351300  1.0  -0.0387
  C  C108  1  0.337320  0.970200  0.374100  1.0  0.0377
  C  C109  1  0.281010  0.998800  0.378500  1.0  0.1555
  C  C110  1  0.348100  0.884800  0.384000  1.0  -0.1213
  C  C111  1  0.305700  0.831100  0.400300  1.0  -0.1522
  C  C112  1  0.247100  0.857400  0.402100  1.0  0.0137
  C  C113  1  0.234850  0.940600  0.394500  1.0  0.1515
  C  C114  1  0.202300  0.803800  0.417700  1.0  0.0003
  C  C115  1  0.147800  0.832300  0.423500  1.0  -0.1379
  C  C116  1  0.138600  0.918000  0.411700  1.0  0.1622
  C  C117  1  0.319500  0.807600  0.896700  1.0  0.6687
  C  C118  1  0.283190  0.883060  0.891400  1.0  -0.1635
  C  C119  1  0.306960  0.960900  0.877300  1.0  -0.05
  C  C120  1  0.271750  0.028100  0.874200  1.0  -0.0787
  C  C121  1  0.213150  0.019690  0.883900  1.0  -0.0625
  C  C122  1  0.179630  0.098500  0.882900  1.0  0.6978
  C  C123  1  0.188490  0.941200  0.898000  1.0  -0.0566
  C  C124  1  0.225170  0.874900  0.901200  1.0  -0.067
  C  C125  1  0.126080  0.924500  0.904200  1.0  0.1312
  C  C126  1  0.084410  0.982000  0.866100  1.0  -0.1121
  C  C127  1  0.028430  0.959900  0.869400  1.0  -0.0009
  C  C128  1  0.013600  0.881500  0.919500  1.0  -0.1504
  C  C129  1  0.057870  0.827400  0.957900  1.0  0.2127
  C  C130  1  0.953520  0.852500  0.927500  1.0  0.6898
  C  C131  1  0.190300  0.631400  0.850300  1.0  0.182
  C  C132  1  0.133400  0.609400  0.838800  1.0  -0.1625
  C  C133  1  0.120120  0.529000  0.851300  1.0  -0.039
  C  C134  1  0.162680  0.470200  0.874100  1.0  0.0385
  C  C135  1  0.218990  0.498800  0.878500  1.0  0.1552
  C  C136  1  0.151900  0.384800  0.884000  1.0  -0.1197
  C  C137  1  0.194300  0.331100  0.900300  1.0  -0.1514
  C  C138  1  0.252900  0.357400  0.902100  1.0  0.0129
  C  C139  1  0.265150  0.440600  0.894500  1.0  0.1518
  C  C140  1  0.297700  0.303800  0.917700  1.0  0.0018
  C  C141  1  0.352200  0.332300  0.923500  1.0  -0.1387
  C  C142  1  0.361400  0.418000  0.911700  1.0  0.1621
  C  C143  1  0.680500  0.192400  0.396700  1.0  0.6678
  C  C144  1  0.716810  0.116940  0.391400  1.0  -0.163
  C  C145  1  0.693040  0.039100  0.377300  1.0  -0.049
  C  C146  1  0.728250  0.971900  0.374200  1.0  -0.0782
  C  C147  1  0.786850  0.980310  0.383900  1.0  -0.0627
  C  C148  1  0.820370  0.901500  0.382900  1.0  0.696
  C  C149  1  0.811510  0.058800  0.398000  1.0  -0.057
  C  C150  1  0.774830  0.125100  0.401200  1.0  -0.0658
  C  C151  1  0.873920  0.075500  0.404200  1.0  0.1313
  C  C152  1  0.915590  0.018000  0.366100  1.0  -0.1126
  C  C153  1  0.971570  0.040100  0.369400  1.0  -0.0012
  C  C154  1  0.986400  0.118500  0.419500  1.0  -0.1484
  C  C155  1  0.942130  0.172600  0.457900  1.0  0.2126
  C  C156  1  0.046480  0.147500  0.427500  1.0  0.6889
  C  C157  1  0.809700  0.368600  0.350300  1.0  0.1828
  C  C158  1  0.866600  0.390600  0.338800  1.0  -0.1579
  C  C159  1  0.879880  0.471000  0.351300  1.0  -0.0387
  C  C160  1  0.837320  0.529800  0.374100  1.0  0.038
  C  C161  1  0.781010  0.501200  0.378500  1.0  0.1549
  C  C162  1  0.848100  0.615200  0.384000  1.0  -0.122
  C  C163  1  0.805700  0.668900  0.400300  1.0  -0.1539
  C  C164  1  0.747100  0.642600  0.402100  1.0  0.0139
  C  C165  1  0.734850  0.559400  0.394500  1.0  0.1514
  C  C166  1  0.702300  0.696200  0.417700  1.0  0.0009
  C  C167  1  0.647800  0.667700  0.423500  1.0  -0.1353
  C  C168  1  0.638600  0.582000  0.411700  1.0  0.162
  N  N169  1  0.612700  0.652900  0.951900  1.0  -0.4216
  N  N170  1  0.732390  0.921590  0.868000  1.0  -0.3512
  N  N171  1  0.818700  0.029280  0.896100  1.0  -0.3707
  N  N172  1  0.387300  0.347100  0.451900  1.0  -0.4208
  N  N173  1  0.267610  0.078410  0.368000  1.0  -0.3525
  N  N174  1  0.181300  0.970720  0.396100  1.0  -0.3717
  N  N175  1  0.112700  0.847100  0.951900  1.0  -0.4213
  N  N176  1  0.232390  0.578410  0.868000  1.0  -0.3527
  N  N177  1  0.318700  0.470720  0.896100  1.0  -0.3715
  N  N178  1  0.887300  0.152900  0.451900  1.0  -0.4212
  N  N179  1  0.767610  0.421590  0.368000  1.0  -0.3517
  N  N180  1  0.681300  0.529280  0.396100  1.0  -0.3711
  O  O181  1  0.799030  0.760300  0.885900  1.0  -0.5512
  O  O182  1  0.873050  0.677480  0.910000  1.0  -0.4984
  O  O183  1  0.669720  0.369100  0.715400  1.0  -0.6402
  O  O184  1  0.665800  0.371500  0.050800  1.0  -0.6744
  O  O185  1  0.415140  0.598690  0.877300  1.0  -0.5888
  O  O186  1  0.445900  0.720550  0.987300  1.0  -0.5971
  O  O187  1  0.200970  0.239700  0.385900  1.0  -0.5524
  O  O188  1  0.126950  0.322520  0.410000  1.0  -0.4936
  O  O189  1  0.330280  0.630900  0.215400  1.0  -0.6395
  O  O190  1  0.334200  0.628500  0.550800  1.0  -0.674
  O  O191  1  0.584860  0.401310  0.377300  1.0  -0.5881
  O  O192  1  0.554100  0.279450  0.487300  1.0  -0.5975
  O  O193  1  0.299030  0.739700  0.885900  1.0  -0.5523
  O  O194  1  0.373050  0.822520  0.910000  1.0  -0.4939
  O  O195  1  0.169720  0.130900  0.715400  1.0  -0.64
  O  O196  1  0.165800  0.128500  0.050800  1.0  -0.675
  O  O197  1  0.915140  0.901310  0.877300  1.0  -0.5886
  O  O198  1  0.945900  0.779450  0.987300  1.0  -0.5983
  O  O199  1  0.700970  0.260300  0.385900  1.0  -0.5517
  O  O200  1  0.626950  0.177480  0.410000  1.0  -0.4941
  O  O201  1  0.830280  0.869100  0.215400  1.0  -0.6399
  O  O202  1  0.834200  0.871500  0.550800  1.0  -0.6744
  O  O203  1  0.084860  0.098690  0.377300  1.0  -0.5884
  O  O204  1  0.054100  0.220550  0.487300  1.0  -0.5986
