# generated using pymatgen
data_U(CO2)5
_symmetry_space_group_name_H-M   'P 1'
_cell_length_a   12.72800000
_cell_length_b   19.17700000
_cell_length_c   19.17700000
_cell_angle_alpha   120.00000000
_cell_angle_beta   90.00000000
_cell_angle_gamma   90.00000000
_symmetry_Int_Tables_number   1
_chemical_formula_structural   U(CO2)5
_chemical_formula_sum   'U12 C60 O120'
_cell_volume   4053.70494594
_cell_formula_units_Z   12
loop_
 _symmetry_equiv_pos_site_id
 _symmetry_equiv_pos_as_xyz
  1  'x, y, z'
loop_
 _atom_site_type_symbol
 _atom_site_label
 _atom_site_symmetry_multiplicity
 _atom_site_fract_x
 _atom_site_fract_y
 _atom_site_fract_z
 _atom_site_occupancy
 _atom_site_charge
  U  U1  1  0.500000  0.666950  0.000000  1.0  2.5522
  U  U2  1  0.500000  0.333050  0.333050  1.0  2.5522
  U  U3  1  0.500000  0.000000  0.666950  1.0  2.5525
  U  U4  1  0.000000  0.333050  0.000000  1.0  2.5524
  U  U5  1  0.000000  0.666950  0.666950  1.0  2.5524
  U  U6  1  0.000000  0.000000  0.333050  1.0  2.5525
  U  U7  1  0.500000  0.333050  0.000000  1.0  2.5524
  U  U8  1  0.500000  0.666950  0.666950  1.0  2.5524
  U  U9  1  0.500000  0.000000  0.333050  1.0  2.5525
  U  U10  1  0.000000  0.666950  0.000000  1.0  2.5522
  U  U11  1  0.000000  0.333050  0.333050  1.0  2.5522
  U  U12  1  0.000000  0.000000  0.666950  1.0  2.5525
  C  C13  1  0.250000  0.672500  0.044900  1.0  0.5979
  C  C14  1  0.250000  0.686800  0.975000  1.0  0.6131
  C  C15  1  0.250000  0.372400  0.327500  1.0  0.5944
  C  C16  1  0.250000  0.288200  0.313200  1.0  0.6072
  C  C17  1  0.250000  0.955100  0.627600  1.0  0.5958
  C  C18  1  0.250000  0.025000  0.711800  1.0  0.6074
  C  C19  1  0.750000  0.327500  0.955100  1.0  0.599
  C  C20  1  0.750000  0.313200  0.025000  1.0  0.6126
  C  C21  1  0.750000  0.627600  0.672500  1.0  0.5945
  C  C22  1  0.750000  0.711800  0.686800  1.0  0.6071
  C  C23  1  0.750000  0.044900  0.372400  1.0  0.5949
  C  C24  1  0.750000  0.975000  0.288200  1.0  0.6063
  C  C25  1  0.750000  0.627600  0.955100  1.0  0.594
  C  C26  1  0.750000  0.711800  0.025000  1.0  0.6068
  C  C27  1  0.750000  0.044900  0.672500  1.0  0.597
  C  C28  1  0.750000  0.975000  0.686800  1.0  0.607
  C  C29  1  0.750000  0.327500  0.372400  1.0  0.598
  C  C30  1  0.750000  0.313200  0.288200  1.0  0.613
  C  C31  1  0.250000  0.372400  0.044900  1.0  0.5943
  C  C32  1  0.250000  0.288200  0.975000  1.0  0.6073
  C  C33  1  0.250000  0.955100  0.327500  1.0  0.5953
  C  C34  1  0.250000  0.025000  0.313200  1.0  0.6081
  C  C35  1  0.250000  0.672500  0.627600  1.0  0.5983
  C  C36  1  0.250000  0.686800  0.711800  1.0  0.6126
  C  C37  1  0.470000  0.852300  0.147700  1.0  0.5885
  C  C38  1  0.506000  0.808650  0.191350  1.0  0.5635
  C  C39  1  0.470000  0.295400  0.147700  1.0  0.5858
  C  C40  1  0.506000  0.382700  0.191350  1.0  0.5624
  C  C41  1  0.470000  0.852300  0.704600  1.0  0.5859
  C  C42  1  0.506000  0.808650  0.617300  1.0  0.5613
  C  C43  1  0.970000  0.147700  0.852300  1.0  0.5856
  C  C44  1  0.006000  0.191350  0.808650  1.0  0.5626
  C  C45  1  0.970000  0.704600  0.852300  1.0  0.5878
  C  C46  1  0.006000  0.617300  0.808650  1.0  0.5606
  C  C47  1  0.970000  0.147700  0.295400  1.0  0.5869
  C  C48  1  0.006000  0.191350  0.382700  1.0  0.5642
  C  C49  1  0.530000  0.704600  0.852300  1.0  0.5868
  C  C50  1  0.494000  0.617300  0.808650  1.0  0.5607
  C  C51  1  0.530000  0.147700  0.852300  1.0  0.5856
  C  C52  1  0.494000  0.191350  0.808650  1.0  0.563
  C  C53  1  0.530000  0.147700  0.295400  1.0  0.586
  C  C54  1  0.494000  0.191350  0.382700  1.0  0.5641
  C  C55  1  0.030000  0.295400  0.147700  1.0  0.5854
  C  C56  1  0.994000  0.382700  0.191350  1.0  0.5627
  C  C57  1  0.030000  0.852300  0.147700  1.0  0.5874
  C  C58  1  0.994000  0.808650  0.191350  1.0  0.5635
  C  C59  1  0.030000  0.852300  0.704600  1.0  0.5858
  C  C60  1  0.994000  0.808650  0.617300  1.0  0.5617
  C  C61  1  0.540500  0.516300  0.032600  1.0  0.5603
  C  C62  1  0.540500  0.516300  0.483700  1.0  0.5588
  C  C63  1  0.540500  0.967400  0.483700  1.0  0.5562
  C  C64  1  0.040500  0.483700  0.967400  1.0  0.5575
  C  C65  1  0.040500  0.483700  0.516300  1.0  0.5594
  C  C66  1  0.040500  0.032600  0.516300  1.0  0.5555
  C  C67  1  0.459500  0.483700  0.967400  1.0  0.5585
  C  C68  1  0.459500  0.032600  0.516300  1.0  0.5563
  C  C69  1  0.459500  0.483700  0.516300  1.0  0.5595
  C  C70  1  0.959500  0.516300  0.032600  1.0  0.5603
  C  C71  1  0.959500  0.967400  0.483700  1.0  0.5568
  C  C72  1  0.959500  0.516300  0.483700  1.0  0.5598
  O  O73  1  0.339200  0.672000  0.073700  1.0  -0.5662
  O  O74  1  0.521700  0.734100  0.149800  1.0  -0.5352
  O  O75  1  0.456900  0.810500  0.072900  1.0  -0.5383
  O  O76  1  0.578600  0.587000  0.053700  1.0  -0.5413
  O  O77  1  0.337000  0.694700  0.951200  1.0  -0.5537
  O  O78  1  0.339200  0.401700  0.328000  1.0  -0.5622
  O  O79  1  0.521700  0.415700  0.265900  1.0  -0.5339
  O  O80  1  0.456900  0.262400  0.189500  1.0  -0.5392
  O  O81  1  0.578600  0.466700  0.413000  1.0  -0.5391
  O  O82  1  0.337000  0.256500  0.305300  1.0  -0.5556
  O  O83  1  0.339200  0.926300  0.598300  1.0  -0.5636
  O  O84  1  0.521700  0.850200  0.584300  1.0  -0.5346
  O  O85  1  0.456900  0.927100  0.737600  1.0  -0.5391
  O  O86  1  0.578600  0.946300  0.533300  1.0  -0.5423
  O  O87  1  0.337000  0.048800  0.743500  1.0  -0.5544
  O  O88  1  0.839200  0.328000  0.926300  1.0  -0.5652
  O  O89  1  0.021700  0.265900  0.850200  1.0  -0.5338
  O  O90  1  0.956900  0.189500  0.927100  1.0  -0.5385
  O  O91  1  0.078600  0.413000  0.946300  1.0  -0.5418
  O  O92  1  0.837000  0.305300  0.048800  1.0  -0.5533
  O  O93  1  0.839200  0.598300  0.672000  1.0  -0.5638
  O  O94  1  0.021700  0.584300  0.734100  1.0  -0.5352
  O  O95  1  0.956900  0.737600  0.810500  1.0  -0.539
  O  O96  1  0.078600  0.533300  0.587000  1.0  -0.5375
  O  O97  1  0.837000  0.743500  0.694700  1.0  -0.5554
  O  O98  1  0.839200  0.073700  0.401700  1.0  -0.5627
  O  O99  1  0.021700  0.149800  0.415700  1.0  -0.5326
  O  O100  1  0.956900  0.072900  0.262400  1.0  -0.5387
  O  O101  1  0.078600  0.053700  0.466700  1.0  -0.543
  O  O102  1  0.837000  0.951200  0.256500  1.0  -0.5541
  O  O103  1  0.660800  0.598300  0.926300  1.0  -0.5649
  O  O104  1  0.478300  0.584300  0.850200  1.0  -0.5346
  O  O105  1  0.543100  0.737600  0.927100  1.0  -0.5394
  O  O106  1  0.421400  0.533300  0.946300  1.0  -0.5391
  O  O107  1  0.663000  0.743500  0.048800  1.0  -0.5548
  O  O108  1  0.660800  0.073700  0.672000  1.0  -0.5627
  O  O109  1  0.478300  0.149800  0.734100  1.0  -0.5327
  O  O110  1  0.543100  0.072900  0.810500  1.0  -0.5398
  O  O111  1  0.421400  0.053700  0.587000  1.0  -0.5435
  O  O112  1  0.663000  0.951200  0.694700  1.0  -0.5535
  O  O113  1  0.660800  0.328000  0.401700  1.0  -0.5665
  O  O114  1  0.478300  0.265900  0.415700  1.0  -0.5341
  O  O115  1  0.543100  0.189500  0.262400  1.0  -0.5391
  O  O116  1  0.421400  0.413000  0.466700  1.0  -0.5433
  O  O117  1  0.663000  0.305300  0.256500  1.0  -0.5536
  O  O118  1  0.160800  0.401700  0.073700  1.0  -0.5631
  O  O119  1  0.978300  0.415700  0.149800  1.0  -0.5335
  O  O120  1  0.043100  0.262400  0.072900  1.0  -0.5392
  O  O121  1  0.921400  0.466700  0.053700  1.0  -0.5395
  O  O122  1  0.163000  0.256500  0.951200  1.0  -0.5552
  O  O123  1  0.160800  0.926300  0.328000  1.0  -0.5636
  O  O124  1  0.978300  0.850200  0.265900  1.0  -0.5327
  O  O125  1  0.043100  0.927100  0.189500  1.0  -0.5383
  O  O126  1  0.921400  0.946300  0.413000  1.0  -0.5432
  O  O127  1  0.163000  0.048800  0.305300  1.0  -0.5538
  O  O128  1  0.160800  0.672000  0.598300  1.0  -0.5659
  O  O129  1  0.978300  0.734100  0.584300  1.0  -0.5348
  O  O130  1  0.043100  0.810500  0.737600  1.0  -0.5375
  O  O131  1  0.921400  0.587000  0.533300  1.0  -0.5412
  O  O132  1  0.163000  0.694700  0.743500  1.0  -0.5531
  O  O133  1  0.660800  0.328000  0.926300  1.0  -0.565
  O  O134  1  0.478300  0.265900  0.850200  1.0  -0.5335
  O  O135  1  0.543100  0.189500  0.927100  1.0  -0.5386
  O  O136  1  0.421400  0.413000  0.946300  1.0  -0.5417
  O  O137  1  0.663000  0.305300  0.048800  1.0  -0.5531
  O  O138  1  0.660800  0.598300  0.672000  1.0  -0.5636
  O  O139  1  0.478300  0.584300  0.734100  1.0  -0.5347
  O  O140  1  0.543100  0.737600  0.810500  1.0  -0.5387
  O  O141  1  0.421400  0.533300  0.587000  1.0  -0.5379
  O  O142  1  0.663000  0.743500  0.694700  1.0  -0.5545
  O  O143  1  0.660800  0.073700  0.401700  1.0  -0.5618
  O  O144  1  0.478300  0.149800  0.415700  1.0  -0.5326
  O  O145  1  0.543100  0.072900  0.262400  1.0  -0.5389
  O  O146  1  0.421400  0.053700  0.466700  1.0  -0.5437
  O  O147  1  0.663000  0.951200  0.256500  1.0  -0.554
  O  O148  1  0.160800  0.672000  0.073700  1.0  -0.5659
  O  O149  1  0.978300  0.734100  0.149800  1.0  -0.5345
  O  O150  1  0.043100  0.810500  0.072900  1.0  -0.5383
  O  O151  1  0.921400  0.587000  0.053700  1.0  -0.5422
  O  O152  1  0.163000  0.694700  0.951200  1.0  -0.5529
  O  O153  1  0.160800  0.401700  0.328000  1.0  -0.5614
  O  O154  1  0.978300  0.415700  0.265900  1.0  -0.5333
  O  O155  1  0.043100  0.262400  0.189500  1.0  -0.5391
  O  O156  1  0.921400  0.466700  0.413000  1.0  -0.5399
  O  O157  1  0.163000  0.256500  0.305300  1.0  -0.5554
  O  O158  1  0.160800  0.926300  0.598300  1.0  -0.5637
  O  O159  1  0.978300  0.850200  0.584300  1.0  -0.5337
  O  O160  1  0.043100  0.927100  0.737600  1.0  -0.539
  O  O161  1  0.921400  0.946300  0.533300  1.0  -0.5423
  O  O162  1  0.163000  0.048800  0.743500  1.0  -0.554
  O  O163  1  0.339200  0.401700  0.073700  1.0  -0.5638
  O  O164  1  0.521700  0.415700  0.149800  1.0  -0.5337
  O  O165  1  0.456900  0.262400  0.072900  1.0  -0.5393
  O  O166  1  0.578600  0.466700  0.053700  1.0  -0.539
  O  O167  1  0.337000  0.256500  0.951200  1.0  -0.5553
  O  O168  1  0.339200  0.926300  0.328000  1.0  -0.5636
  O  O169  1  0.521700  0.850200  0.265900  1.0  -0.5333
  O  O170  1  0.456900  0.927100  0.189500  1.0  -0.5382
  O  O171  1  0.578600  0.946300  0.413000  1.0  -0.5433
  O  O172  1  0.337000  0.048800  0.305300  1.0  -0.5545
  O  O173  1  0.339200  0.672000  0.598300  1.0  -0.5658
  O  O174  1  0.521700  0.734100  0.584300  1.0  -0.5354
  O  O175  1  0.456900  0.810500  0.737600  1.0  -0.5377
  O  O176  1  0.578600  0.587000  0.533300  1.0  -0.5411
  O  O177  1  0.337000  0.694700  0.743500  1.0  -0.5537
  O  O178  1  0.839200  0.598300  0.926300  1.0  -0.5647
  O  O179  1  0.021700  0.584300  0.850200  1.0  -0.5351
  O  O180  1  0.956900  0.737600  0.927100  1.0  -0.5396
  O  O181  1  0.078600  0.533300  0.946300  1.0  -0.5387
  O  O182  1  0.837000  0.743500  0.048800  1.0  -0.5557
  O  O183  1  0.839200  0.073700  0.672000  1.0  -0.5633
  O  O184  1  0.021700  0.149800  0.734100  1.0  -0.533
  O  O185  1  0.956900  0.072900  0.810500  1.0  -0.5394
  O  O186  1  0.078600  0.053700  0.587000  1.0  -0.5427
  O  O187  1  0.837000  0.951200  0.694700  1.0  -0.5535
  O  O188  1  0.839200  0.328000  0.401700  1.0  -0.5666
  O  O189  1  0.021700  0.265900  0.415700  1.0  -0.5342
  O  O190  1  0.956900  0.189500  0.262400  1.0  -0.5387
  O  O191  1  0.078600  0.413000  0.466700  1.0  -0.5427
  O  O192  1  0.837000  0.305300  0.256500  1.0  -0.5539
