# generated using pymatgen
data_Nd(CO2)4
_symmetry_space_group_name_H-M   'P 1'
_cell_length_a   8.50700000
_cell_length_b   9.76200000
_cell_length_c   10.24900000
_cell_angle_alpha   62.37800000
_cell_angle_beta   76.68100000
_cell_angle_gamma   73.85800000
_symmetry_Int_Tables_number   1
_chemical_formula_structural   Nd(CO2)4
_chemical_formula_sum   'Nd2 C8 O16'
_cell_volume   719.22651920
_cell_formula_units_Z   2
loop_
 _symmetry_equiv_pos_site_id
 _symmetry_equiv_pos_as_xyz
  1  'x, y, z'
loop_
 _atom_site_type_symbol
 _atom_site_label
 _atom_site_symmetry_multiplicity
 _atom_site_fract_x
 _atom_site_fract_y
 _atom_site_fract_z
 _atom_site_occupancy
 _atom_site_charge
  Nd  Nd1  1  0.666140  0.630760  0.160700  1.0  2.1691
  Nd  Nd2  1  0.333860  0.369240  0.839300  1.0  2.1688
  C  C3  1  0.015800  0.584600  0.952800  1.0  0.5619
  C  C4  1  0.574500  0.021600  0.010900  1.0  0.5713
  C  C5  1  0.446900  0.582900  0.484200  1.0  0.5645
  C  C6  1  0.442900  0.462500  0.073400  1.0  0.5932
  C  C7  1  0.984200  0.415400  0.047200  1.0  0.5619
  C  C8  1  0.425500  0.978400  0.989100  1.0  0.5722
  C  C9  1  0.553100  0.417100  0.515800  1.0  0.5652
  C  C10  1  0.557100  0.537500  0.926600  1.0  0.5939
  O  O11  1  0.924300  0.689500  0.988900  1.0  -0.5535
  O  O12  1  0.685800  0.909100  0.075400  1.0  -0.5754
  O  O13  1  0.468700  0.688900  0.355300  1.0  -0.5725
  O  O14  1  0.458300  0.484500  0.180000  1.0  -0.5713
  O  O15  1  0.573500  0.165600  0.962600  1.0  -0.5354
  O  O16  1  0.130200  0.603700  0.848100  1.0  -0.5504
  O  O17  1  0.346600  0.389400  0.071900  1.0  -0.5556
  O  O18  1  0.347500  0.598500  0.589200  1.0  -0.5474
  O  O19  1  0.075700  0.310500  0.011100  1.0  -0.5512
  O  O20  1  0.314200  0.090900  0.924600  1.0  -0.5727
  O  O21  1  0.531300  0.311100  0.644700  1.0  -0.5728
  O  O22  1  0.541700  0.515500  0.820000  1.0  -0.573
  O  O23  1  0.426500  0.834400  0.037400  1.0  -0.5373
  O  O24  1  0.869800  0.396300  0.151900  1.0  -0.5484
  O  O25  1  0.653400  0.610600  0.928100  1.0  -0.5568
  O  O26  1  0.652500  0.401500  0.410800  1.0  -0.5484
