# generated using pymatgen
data_Gd(CO2)4
_symmetry_space_group_name_H-M   'P 1'
_cell_length_a   8.86100000
_cell_length_b   9.35200000
_cell_length_c   10.12400000
_cell_angle_alpha   64.10600000
_cell_angle_beta   75.00400000
_cell_angle_gamma   75.38900000
_symmetry_Int_Tables_number   1
_chemical_formula_structural   Gd(CO2)4
_chemical_formula_sum   'Gd2 C8 O16'
_cell_volume   719.60279929
_cell_formula_units_Z   2
loop_
 _symmetry_equiv_pos_site_id
 _symmetry_equiv_pos_as_xyz
  1  'x, y, z'
loop_
 _atom_site_type_symbol
 _atom_site_label
 _atom_site_symmetry_multiplicity
 _atom_site_fract_x
 _atom_site_fract_y
 _atom_site_fract_z
 _atom_site_occupancy
 _atom_site_charge
  Gd  Gd1  1  0.331390  0.365760  0.843940  1.0  2.0873
  Gd  Gd2  1  0.668610  0.634240  0.156060  1.0  2.0883
  C  C3  1  0.982600  0.411200  0.049400  1.0  0.6154
  C  C4  1  0.432100  0.970400  0.987600  1.0  0.5667
  C  C5  1  0.553500  0.416800  0.514800  1.0  0.573
  C  C6  1  0.553500  0.540400  0.924400  1.0  0.5567
  C  C7  1  0.017400  0.588800  0.950600  1.0  0.6136
  C  C8  1  0.567900  0.029600  0.012400  1.0  0.5669
  C  C9  1  0.446500  0.583200  0.485200  1.0  0.5743
  C  C10  1  0.446500  0.459600  0.075600  1.0  0.5563
  O  O11  1  0.084100  0.298200  0.025300  1.0  -0.5435
  O  O12  1  0.327900  0.080600  0.917100  1.0  -0.575
  O  O13  1  0.527100  0.308500  0.643800  1.0  -0.5597
  O  O14  1  0.525400  0.529000  0.811300  1.0  -0.5562
  O  O15  1  0.434700  0.820100  0.039200  1.0  -0.5316
  O  O16  1  0.859100  0.395600  0.144600  1.0  -0.546
  O  O17  1  0.661200  0.608700  0.923000  1.0  -0.5399
  O  O18  1  0.659200  0.403200  0.407100  1.0  -0.5485
  O  O19  1  0.915900  0.701800  0.974700  1.0  -0.5441
  O  O20  1  0.672100  0.919400  0.082900  1.0  -0.5742
  O  O21  1  0.472900  0.691500  0.356200  1.0  -0.5602
  O  O22  1  0.474600  0.471000  0.188700  1.0  -0.5558
  O  O23  1  0.565300  0.179900  0.960800  1.0  -0.5295
  O  O24  1  0.140900  0.604400  0.855400  1.0  -0.546
  O  O25  1  0.338800  0.391300  0.077000  1.0  -0.5395
  O  O26  1  0.340800  0.596800  0.592900  1.0  -0.5491
