# generated using pymatgen
data_Nd(CO2)4
_symmetry_space_group_name_H-M   'P 1'
_cell_length_a   8.67300000
_cell_length_b   9.41100000
_cell_length_c   10.04800000
_cell_angle_alpha   63.70800000
_cell_angle_beta   76.11300000
_cell_angle_gamma   75.45000000
_symmetry_Int_Tables_number   1
_chemical_formula_structural   Nd(CO2)4
_chemical_formula_sum   'Nd2 C8 O16'
_cell_volume   703.83392585
_cell_formula_units_Z   2
loop_
 _symmetry_equiv_pos_site_id
 _symmetry_equiv_pos_as_xyz
  1  'x, y, z'
loop_
 _atom_site_type_symbol
 _atom_site_label
 _atom_site_symmetry_multiplicity
 _atom_site_fract_x
 _atom_site_fract_y
 _atom_site_fract_z
 _atom_site_occupancy
 _atom_site_charge
  Nd  Nd1  1  0.329800  0.364540  0.842350  1.0  2.1703
  Nd  Nd2  1  0.670200  0.635460  0.157650  1.0  2.1708
  C  C3  1  0.984000  0.410900  0.050000  1.0  0.5784
  C  C4  1  0.429900  0.973700  0.986100  1.0  0.5771
  C  C5  1  0.555500  0.418300  0.514800  1.0  0.5547
  C  C6  1  0.555200  0.538700  0.923800  1.0  0.5737
  C  C7  1  0.016000  0.589100  0.950000  1.0  0.5772
  C  C8  1  0.570100  0.026300  0.013900  1.0  0.5767
  C  C9  1  0.444500  0.581700  0.485200  1.0  0.5548
  C  C10  1  0.444800  0.461300  0.076200  1.0  0.5726
  O  O11  1  0.080800  0.302400  0.021700  1.0  -0.5624
  O  O12  1  0.326200  0.079400  0.917600  1.0  -0.5499
  O  O13  1  0.528100  0.309400  0.643600  1.0  -0.5708
  O  O14  1  0.529700  0.524400  0.812300  1.0  -0.5767
  O  O15  1  0.435500  0.822800  0.037100  1.0  -0.534
  O  O16  1  0.861800  0.397200  0.149900  1.0  -0.5519
  O  O17  1  0.659600  0.607300  0.925500  1.0  -0.5488
  O  O18  1  0.662000  0.407100  0.407900  1.0  -0.5593
  O  O19  1  0.919200  0.697600  0.978300  1.0  -0.5607
  O  O20  1  0.673800  0.920600  0.082400  1.0  -0.5497
  O  O21  1  0.471900  0.690600  0.356400  1.0  -0.5708
  O  O22  1  0.470300  0.475600  0.187700  1.0  -0.5773
  O  O23  1  0.564500  0.177200  0.962900  1.0  -0.531
  O  O24  1  0.138200  0.602800  0.850100  1.0  -0.5545
  O  O25  1  0.340400  0.392700  0.074500  1.0  -0.5491
  O  O26  1  0.338000  0.592900  0.592100  1.0  -0.5596
