# generated using pymatgen
data_Gd(CO2)4
_symmetry_space_group_name_H-M   'P 1'
_cell_length_a   8.52000000
_cell_length_b   9.51000000
_cell_length_c   10.14000000
_cell_angle_alpha   62.11000000
_cell_angle_beta   76.15000000
_cell_angle_gamma   73.73000000
_symmetry_Int_Tables_number   1
_chemical_formula_structural   Gd(CO2)4
_chemical_formula_sum   'Gd2 C8 O16'
_cell_volume   691.37861856
_cell_formula_units_Z   2
loop_
 _symmetry_equiv_pos_site_id
 _symmetry_equiv_pos_as_xyz
  1  'x, y, z'
loop_
 _atom_site_type_symbol
 _atom_site_label
 _atom_site_symmetry_multiplicity
 _atom_site_fract_x
 _atom_site_fract_y
 _atom_site_fract_z
 _atom_site_occupancy
 _atom_site_charge
  Gd  Gd1  1  0.667060  0.628030  0.159900  1.0  2.0786
  Gd  Gd2  1  0.332940  0.371970  0.840100  1.0  2.0785
  C  C3  1  0.013400  0.587300  0.951700  1.0  0.5565
  C  C4  1  0.573300  0.023100  0.014600  1.0  0.588
  C  C5  1  0.447700  0.586800  0.483100  1.0  0.5603
  C  C6  1  0.442100  0.462300  0.075000  1.0  0.5691
  C  C7  1  0.986600  0.412700  0.048300  1.0  0.5571
  C  C8  1  0.426700  0.976900  0.985400  1.0  0.5878
  C  C9  1  0.552300  0.413200  0.516900  1.0  0.5612
  C  C10  1  0.557900  0.537700  0.925000  1.0  0.5687
  O  O11  1  0.918900  0.695800  0.984400  1.0  -0.5492
  O  O12  1  0.682700  0.908000  0.078200  1.0  -0.556
  O  O13  1  0.472300  0.693400  0.350200  1.0  -0.5603
  O  O14  1  0.462600  0.480100  0.185000  1.0  -0.5484
  O  O15  1  0.567200  0.171000  0.968100  1.0  -0.522
  O  O16  1  0.133100  0.607900  0.847300  1.0  -0.5475
  O  O17  1  0.340900  0.391000  0.073500  1.0  -0.5384
  O  O18  1  0.348200  0.603800  0.588800  1.0  -0.5311
  O  O19  1  0.081100  0.304200  0.015600  1.0  -0.5493
  O  O20  1  0.317300  0.092000  0.921800  1.0  -0.5545
  O  O21  1  0.527700  0.306600  0.649800  1.0  -0.561
  O  O22  1  0.537400  0.519900  0.815000  1.0  -0.5485
  O  O23  1  0.432800  0.829000  0.031900  1.0  -0.5222
  O  O24  1  0.866900  0.392100  0.152700  1.0  -0.5459
  O  O25  1  0.659100  0.609000  0.926500  1.0  -0.5389
  O  O26  1  0.651800  0.396200  0.411200  1.0  -0.5327
