# generated using pymatgen
data_CaC9NO6
_symmetry_space_group_name_H-M   'P 1'
_cell_length_a   18.26300000
_cell_length_b   6.85200000
_cell_length_c   9.56400000
_cell_angle_alpha   90.00000000
_cell_angle_beta   90.00000000
_cell_angle_gamma   90.00000000
_symmetry_Int_Tables_number   1
_chemical_formula_structural   CaC9NO6
_chemical_formula_sum   'Ca4 C36 N4 O24'
_cell_volume   1196.82055886
_cell_formula_units_Z   4
loop_
 _symmetry_equiv_pos_site_id
 _symmetry_equiv_pos_as_xyz
  1  'x, y, z'
loop_
 _atom_site_type_symbol
 _atom_site_label
 _atom_site_symmetry_multiplicity
 _atom_site_fract_x
 _atom_site_fract_y
 _atom_site_fract_z
 _atom_site_occupancy
 _atom_site_charge
  Ca  Ca1  1  0.980500  0.750000  0.394200  1.0  1.6467
  Ca  Ca2  1  0.519500  0.250000  0.894200  1.0  1.6486
  Ca  Ca3  1  0.019500  0.250000  0.605800  1.0  1.6502
  Ca  Ca4  1  0.480500  0.750000  0.105800  1.0  1.6478
  C  C5  1  0.207500  0.574500  0.093000  1.0  0.2727
  C  C6  1  0.275000  0.571000  0.022000  1.0  0.0567
  C  C7  1  0.292500  0.425500  0.593000  1.0  0.2721
  C  C8  1  0.225000  0.429000  0.522000  1.0  0.0577
  C  C9  1  0.792500  0.074500  0.907000  1.0  0.2706
  C  C10  1  0.725000  0.071000  0.978000  1.0  0.0555
  C  C11  1  0.707500  0.925500  0.407000  1.0  0.2747
  C  C12  1  0.775000  0.929000  0.478000  1.0  0.0568
  C  C13  1  0.792500  0.425500  0.907000  1.0  0.2721
  C  C14  1  0.725000  0.429000  0.978000  1.0  0.0548
  C  C15  1  0.707500  0.574500  0.407000  1.0  0.2721
  C  C16  1  0.775000  0.571000  0.478000  1.0  0.0561
  C  C17  1  0.207500  0.925500  0.093000  1.0  0.2747
  C  C18  1  0.275000  0.929000  0.022000  1.0  0.0576
  C  C19  1  0.292500  0.074500  0.593000  1.0  0.2706
  C  C20  1  0.225000  0.071000  0.522000  1.0  0.0559
  C  C21  1  0.105000  0.750000  0.209000  1.0  0.7244
  C  C22  1  0.174000  0.750000  0.127000  1.0  -0.0736
  C  C23  1  0.307000  0.750000  0.980000  1.0  0.1641
  C  C24  1  0.073000  0.750000  0.639000  1.0  0.7447
  C  C25  1  0.126000  0.750000  0.767000  1.0  0.0043
  C  C26  1  0.395000  0.250000  0.709000  1.0  0.7258
  C  C27  1  0.326000  0.250000  0.627000  1.0  -0.0746
  C  C28  1  0.193000  0.250000  0.480000  1.0  0.1637
  C  C29  1  0.427000  0.250000  0.139000  1.0  0.746
  C  C30  1  0.374000  0.250000  0.267000  1.0  0.0048
  C  C31  1  0.895000  0.250000  0.791000  1.0  0.7246
  C  C32  1  0.826000  0.250000  0.873000  1.0  -0.0745
  C  C33  1  0.693000  0.250000  0.020000  1.0  0.1645
  C  C34  1  0.927000  0.250000  0.361000  1.0  0.7473
  C  C35  1  0.874000  0.250000  0.233000  1.0  0.0077
  C  C36  1  0.605000  0.750000  0.291000  1.0  0.723
  C  C37  1  0.674000  0.750000  0.373000  1.0  -0.0734
  C  C38  1  0.807000  0.750000  0.520000  1.0  0.1647
  C  C39  1  0.573000  0.750000  0.861000  1.0  0.7465
  C  C40  1  0.626000  0.750000  0.733000  1.0  0.0067
  N  N41  1  0.378000  0.750000  0.917000  1.0  -0.2819
  N  N42  1  0.122000  0.250000  0.417000  1.0  -0.2823
  N  N43  1  0.622000  0.250000  0.083000  1.0  -0.2821
  N  N44  1  0.878000  0.750000  0.583000  1.0  -0.2838
  O  O45  1  0.076500  0.592500  0.244000  1.0  -0.5599
  O  O46  1  0.171000  0.395000  0.091000  1.0  -0.5988
  O  O47  1  0.053500  0.906000  0.585500  1.0  -0.6356
  O  O48  1  0.423500  0.407500  0.744000  1.0  -0.5605
  O  O49  1  0.329000  0.605000  0.591000  1.0  -0.6007
  O  O50  1  0.446500  0.094000  0.085500  1.0  -0.6362
  O  O51  1  0.923500  0.092500  0.756000  1.0  -0.5618
  O  O52  1  0.829000  0.895000  0.909000  1.0  -0.5991
  O  O53  1  0.946500  0.406000  0.414500  1.0  -0.6342
  O  O54  1  0.576500  0.907500  0.256000  1.0  -0.558
  O  O55  1  0.671000  0.105000  0.409000  1.0  -0.5991
  O  O56  1  0.553500  0.594000  0.914500  1.0  -0.6347
  O  O57  1  0.923500  0.407500  0.756000  1.0  -0.5592
  O  O58  1  0.829000  0.605000  0.909000  1.0  -0.6
  O  O59  1  0.946500  0.094000  0.414500  1.0  -0.6345
  O  O60  1  0.576500  0.592500  0.256000  1.0  -0.5592
  O  O61  1  0.671000  0.395000  0.409000  1.0  -0.599
  O  O62  1  0.553500  0.906000  0.914500  1.0  -0.6343
  O  O63  1  0.076500  0.907500  0.244000  1.0  -0.5618
  O  O64  1  0.171000  0.105000  0.091000  1.0  -0.6006
  O  O65  1  0.053500  0.594000  0.585500  1.0  -0.6365
  O  O66  1  0.423500  0.092500  0.744000  1.0  -0.5624
  O  O67  1  0.329000  0.895000  0.591000  1.0  -0.5991
  O  O68  1  0.446500  0.406000  0.085500  1.0  -0.6359
