# generated using pymatgen
data_CaC9NO6
_symmetry_space_group_name_H-M   'P 1'
_cell_length_a   19.53000000
_cell_length_b   9.56400000
_cell_length_c   6.85200000
_cell_angle_alpha   90.00000000
_cell_angle_beta   110.75000000
_cell_angle_gamma   90.00000000
_symmetry_Int_Tables_number   1
_chemical_formula_structural   CaC9NO6
_chemical_formula_sum   'Ca4 C36 N4 O24'
_cell_volume   1196.83305232
_cell_formula_units_Z   4
loop_
 _symmetry_equiv_pos_site_id
 _symmetry_equiv_pos_as_xyz
  1  'x, y, z'
loop_
 _atom_site_type_symbol
 _atom_site_label
 _atom_site_symmetry_multiplicity
 _atom_site_fract_x
 _atom_site_fract_y
 _atom_site_fract_z
 _atom_site_occupancy
 _atom_site_charge
  Ca  Ca1  1  0.480500  0.105800  0.230900  1.0  1.6418
  Ca  Ca2  1  0.019500  0.605800  0.269100  1.0  1.6438
  Ca  Ca3  1  0.519500  0.894200  0.769100  1.0  1.6442
  Ca  Ca4  1  0.980500  0.394200  0.730900  1.0  1.642
  C  C5  1  0.605000  0.291000  0.350000  1.0  0.7387
  C  C6  1  0.674000  0.373000  0.423000  1.0  -0.1475
  C  C7  1  0.708000  0.403000  0.284000  1.0  0.2779
  C  C8  1  0.774000  0.472000  0.343000  1.0  0.0847
  C  C9  1  0.807000  0.520000  0.559000  1.0  0.1772
  C  C10  1  0.776000  0.484000  0.703000  1.0  0.0649
  C  C11  1  0.707000  0.411000  0.634000  1.0  0.2205
  C  C12  1  0.427000  0.139000  0.677000  1.0  0.7534
  C  C13  1  0.374000  0.267000  0.625000  1.0  -0.0052
  C  C14  1  0.895000  0.791000  0.150000  1.0  0.7401
  C  C15  1  0.826000  0.873000  0.077000  1.0  -0.1479
  C  C16  1  0.792000  0.903000  0.216000  1.0  0.2763
  C  C17  1  0.726000  0.972000  0.157000  1.0  0.08
  C  C18  1  0.693000  0.020000  0.941000  1.0  0.1773
  C  C19  1  0.724000  0.984000  0.797000  1.0  0.0687
  C  C20  1  0.793000  0.911000  0.866000  1.0  0.2206
  C  C21  1  0.073000  0.639000  0.823000  1.0  0.7519
  C  C22  1  0.126000  0.767000  0.875000  1.0  -0.0057
  C  C23  1  0.395000  0.709000  0.650000  1.0  0.7399
  C  C24  1  0.326000  0.627000  0.577000  1.0  -0.1473
  C  C25  1  0.292000  0.597000  0.716000  1.0  0.2759
  C  C26  1  0.226000  0.528000  0.657000  1.0  0.0802
  C  C27  1  0.193000  0.480000  0.441000  1.0  0.1769
  C  C28  1  0.224000  0.516000  0.297000  1.0  0.0725
  C  C29  1  0.293000  0.589000  0.366000  1.0  0.221
  C  C30  1  0.573000  0.861000  0.323000  1.0  0.7512
  C  C31  1  0.626000  0.733000  0.375000  1.0  -0.0073
  C  C32  1  0.105000  0.209000  0.850000  1.0  0.7386
  C  C33  1  0.174000  0.127000  0.923000  1.0  -0.147
  C  C34  1  0.208000  0.097000  0.784000  1.0  0.2778
  C  C35  1  0.274000  0.028000  0.843000  1.0  0.0844
  C  C36  1  0.307000  0.980000  0.059000  1.0  0.1766
  C  C37  1  0.276000  0.016000  0.203000  1.0  0.0682
  C  C38  1  0.207000  0.089000  0.134000  1.0  0.2202
  C  C39  1  0.927000  0.361000  0.177000  1.0  0.7528
  C  C40  1  0.874000  0.233000  0.125000  1.0  -0.0074
  N  N41  1  0.378000  0.917000  0.126000  1.0  -0.273
  N  N42  1  0.122000  0.417000  0.374000  1.0  -0.2728
  N  N43  1  0.622000  0.083000  0.874000  1.0  -0.2699
  N  N44  1  0.878000  0.583000  0.626000  1.0  -0.27
  O  O45  1  0.578000  0.256000  0.169000  1.0  -0.5258
  O  O46  1  0.575000  0.256000  0.481000  1.0  -0.5883
  O  O47  1  0.671000  0.409000  0.064000  1.0  -0.581
  O  O48  1  0.671000  0.409000  0.774000  1.0  -0.573
  O  O49  1  0.447000  0.088000  0.540000  1.0  -0.6285
  O  O50  1  0.446000  0.083000  0.851000  1.0  -0.6382
  O  O51  1  0.922000  0.756000  0.331000  1.0  -0.5293
  O  O52  1  0.925000  0.756000  0.019000  1.0  -0.589
  O  O53  1  0.829000  0.909000  0.436000  1.0  -0.5822
  O  O54  1  0.829000  0.909000  0.726000  1.0  -0.5728
  O  O55  1  0.053000  0.588000  0.960000  1.0  -0.6272
  O  O56  1  0.054000  0.583000  0.649000  1.0  -0.6379
  O  O57  1  0.422000  0.744000  0.831000  1.0  -0.5284
  O  O58  1  0.425000  0.744000  0.519000  1.0  -0.5886
  O  O59  1  0.329000  0.591000  0.936000  1.0  -0.5821
  O  O60  1  0.329000  0.591000  0.226000  1.0  -0.5722
  O  O61  1  0.553000  0.912000  0.460000  1.0  -0.6252
  O  O62  1  0.554000  0.917000  0.149000  1.0  -0.6377
  O  O63  1  0.078000  0.244000  0.669000  1.0  -0.5259
  O  O64  1  0.075000  0.244000  0.981000  1.0  -0.588
  O  O65  1  0.171000  0.091000  0.564000  1.0  -0.5811
  O  O66  1  0.171000  0.091000  0.274000  1.0  -0.5724
  O  O67  1  0.947000  0.412000  0.040000  1.0  -0.6281
  O  O68  1  0.946000  0.417000  0.351000  1.0  -0.6362
