# generated using pymatgen
data_CuH32(C5N3)4
_symmetry_space_group_name_H-M   'P 1'
_cell_length_a   12.55990000
_cell_length_b   12.74810000
_cell_length_c   13.36700000
_cell_angle_alpha   99.74900000
_cell_angle_beta   105.53700000
_cell_angle_gamma   111.87800000
_symmetry_Int_Tables_number   1
_chemical_formula_structural   CuH32(C5N3)4
_chemical_formula_sum   'Cu2 H64 C40 N24'
_cell_volume   1824.77298513
_cell_formula_units_Z   2
loop_
 _symmetry_equiv_pos_site_id
 _symmetry_equiv_pos_as_xyz
  1  'x, y, z'
loop_
 _atom_site_type_symbol
 _atom_site_label
 _atom_site_symmetry_multiplicity
 _atom_site_fract_x
 _atom_site_fract_y
 _atom_site_fract_z
 _atom_site_occupancy
 _atom_site_charge
  Cu  Cu1  1  0.000000  0.000000  0.000000  1.0  0.2208
  Cu  Cu2  1  0.500000  0.500000  0.500000  1.0  0.3934
  H  H3  1  0.602300  0.431600  0.712900  1.0  0.0781
  H  H4  1  0.671000  0.377700  0.448500  1.0  0.06
  H  H5  1  0.669600  0.671800  0.395500  1.0  0.0806
  H  H6  1  0.696400  0.729400  0.696600  1.0  0.0553
  H  H7  1  0.800400  0.284400  0.756200  1.0  0.0676
  H  H8  1  0.717600  0.318300  0.811800  1.0  0.0723
  H  H9  1  0.932400  0.946100  0.531800  1.0  0.0736
  H  H10  1  0.842200  0.871600  0.412000  1.0  0.071
  H  H11  1  0.709800  0.904800  0.891300  1.0  0.0836
  H  H12  1  0.958700  0.151100  0.833300  1.0  0.0765
  H  H13  1  0.995500  0.243300  0.112500  1.0  0.0738
  H  H14  1  0.920000  0.961500  0.204500  1.0  0.06
  H  H15  1  0.862200  0.520800  0.865000  1.0  0.0562
  H  H16  1  0.946900  0.480700  0.817500  1.0  0.0572
  H  H17  1  0.850100  0.061800  0.453500  1.0  0.0569
  H  H18  1  0.805200  0.038800  0.549800  1.0  0.0593
  H  H19  1  0.884800  0.415900  0.994200  1.0  0.0507
  H  H20  1  0.974300  0.382200  0.948500  1.0  0.0519
  H  H21  1  0.615400  0.895200  0.429600  1.0  0.0429
  H  H22  1  0.659700  0.906000  0.331300  1.0  0.0452
  H  H23  1  0.553500  0.885900  0.641000  1.0  0.0709
  H  H24  1  0.515200  0.883800  0.743300  1.0  0.0639
  H  H25  1  0.825700  0.275400  0.269800  1.0  0.0785
  H  H26  1  0.929700  0.361300  0.238900  1.0  0.071
  H  H27  1  0.632000  0.087600  0.455600  1.0  0.0517
  H  H28  1  0.669900  0.093200  0.353000  1.0  0.052
  H  H29  1  0.562400  0.071300  0.654700  1.0  0.047
  H  H30  1  0.524600  0.069700  0.757400  1.0  0.0413
  H  H31  1  0.075100  0.391000  0.406800  1.0  0.0466
  H  H32  1  0.968400  0.308700  0.437800  1.0  0.0512
  H  H33  1  0.992900  0.527900  0.401700  1.0  0.053
  H  H34  1  0.879200  0.443800  0.423100  1.0  0.0581
  H  H35  1  0.397700  0.568400  0.287100  1.0  0.0779
  H  H36  1  0.329000  0.622300  0.551500  1.0  0.059
  H  H37  1  0.330400  0.328200  0.604500  1.0  0.0808
  H  H38  1  0.303600  0.270600  0.303400  1.0  0.0548
  H  H39  1  0.199600  0.715600  0.243800  1.0  0.0673
  H  H40  1  0.282400  0.681700  0.188200  1.0  0.072
  H  H41  1  0.067600  0.053900  0.468200  1.0  0.0716
  H  H42  1  0.157800  0.128400  0.588000  1.0  0.0696
  H  H43  1  0.290200  0.095200  0.108700  1.0  0.0813
  H  H44  1  0.041300  0.848900  0.166700  1.0  0.0762
  H  H45  1  0.004500  0.756700  0.887500  1.0  0.0743
  H  H46  1  0.080000  0.038500  0.795500  1.0  0.0588
  H  H47  1  0.137800  0.479200  0.135000  1.0  0.0569
  H  H48  1  0.053100  0.519300  0.182500  1.0  0.0558
  H  H49  1  0.149900  0.938200  0.546500  1.0  0.0569
  H  H50  1  0.194800  0.961200  0.450200  1.0  0.0593
  H  H51  1  0.115200  0.584100  0.005800  1.0  0.0488
  H  H52  1  0.025700  0.617800  0.051500  1.0  0.0517
  H  H53  1  0.384600  0.104800  0.570400  1.0  0.0416
  H  H54  1  0.340300  0.094000  0.668700  1.0  0.046
  H  H55  1  0.446500  0.114100  0.359000  1.0  0.0715
  H  H56  1  0.484800  0.116200  0.256700  1.0  0.0617
  H  H57  1  0.174300  0.724600  0.730200  1.0  0.0765
  H  H58  1  0.070300  0.638700  0.761100  1.0  0.0679
  H  H59  1  0.368000  0.912400  0.544400  1.0  0.052
  H  H60  1  0.330100  0.906800  0.647000  1.0  0.0539
  H  H61  1  0.437600  0.928700  0.345300  1.0  0.0472
  H  H62  1  0.475400  0.930300  0.242600  1.0  0.042
  H  H63  1  0.924900  0.609000  0.593200  1.0  0.0466
  H  H64  1  0.031600  0.691300  0.562200  1.0  0.0496
  H  H65  1  0.007100  0.472100  0.598300  1.0  0.0538
  H  H66  1  0.120800  0.556200  0.576900  1.0  0.0578
  C  C67  1  0.635000  0.412200  0.661800  1.0  0.1229
  C  C68  1  0.673600  0.382400  0.519400  1.0  0.2837
  C  C69  1  0.692800  0.707100  0.469600  1.0  0.1252
  C  C70  1  0.708500  0.740700  0.632900  1.0  0.252
  C  C71  1  0.775100  0.345800  0.775300  1.0  -0.0167
  C  C72  1  0.846600  0.908000  0.483800  1.0  -0.0556
  C  C73  1  0.749500  0.962000  0.862000  1.0  0.105
  C  C74  1  0.882600  0.095800  0.828500  1.0  0.2446
  C  C75  1  0.970100  0.187700  0.148600  1.0  0.1264
  C  C76  1  0.928600  0.035900  0.199600  1.0  0.2469
  C  C77  1  0.886500  0.457500  0.852000  1.0  -0.1121
  C  C78  1  0.798800  0.001200  0.477600  1.0  -0.1363
  C  C79  1  0.946000  0.442600  0.961000  1.0  -0.1248
  C  C80  1  0.667400  0.950400  0.401500  1.0  -0.1592
  C  C81  1  0.562800  0.935000  0.709600  1.0  -0.0121
  C  C82  1  0.911800  0.303700  0.278500  1.0  -0.0324
  C  C83  1  0.622000  0.040600  0.385600  1.0  -0.1431
  C  C84  1  0.514900  0.020300  0.688700  1.0  -0.1275
  C  C85  1  0.988700  0.364300  0.396800  1.0  -0.1191
  C  C86  1  0.966800  0.470200  0.439700  1.0  -0.1349
  C  C87  1  0.365000  0.587800  0.338200  1.0  0.1258
  C  C88  1  0.326400  0.617600  0.480600  1.0  0.2839
  C  C89  1  0.307200  0.292900  0.530400  1.0  0.1263
  C  C90  1  0.291500  0.259300  0.367100  1.0  0.252
  C  C91  1  0.224900  0.654200  0.224700  1.0  -0.0182
  C  C92  1  0.153400  0.092000  0.516200  1.0  -0.057
  C  C93  1  0.250500  0.038000  0.138000  1.0  0.1053
  C  C94  1  0.117400  0.904200  0.171500  1.0  0.2445
  C  C95  1  0.029900  0.812300  0.851400  1.0  0.1272
  C  C96  1  0.071400  0.964100  0.800400  1.0  0.2459
  C  C97  1  0.113500  0.542500  0.148000  1.0  -0.1141
  C  C98  1  0.201200  0.998800  0.522400  1.0  -0.1348
  C  C99  1  0.054000  0.557400  0.039000  1.0  -0.1246
  C  C100  1  0.332600  0.049600  0.598500  1.0  -0.1589
  C  C101  1  0.437200  0.065000  0.290400  1.0  -0.0086
  C  C102  1  0.088200  0.696300  0.721500  1.0  -0.0306
  C  C103  1  0.378000  0.959400  0.614400  1.0  -0.1448
  C  C104  1  0.485100  0.979700  0.311300  1.0  -0.1236
  C  C105  1  0.011300  0.635700  0.603200  1.0  -0.1208
  C  C106  1  0.033200  0.529800  0.560300  1.0  -0.1324
  N  N107  1  0.608800  0.426700  0.563800  1.0  -0.4219
  N  N108  1  0.353300  0.345100  0.464300  1.0  -0.4209
  N  N109  1  0.714000  0.366100  0.676500  1.0  0.1632
  N  N110  1  0.740800  0.346600  0.585500  1.0  -0.3872
  N  N111  1  0.776300  0.816400  0.523900  1.0  0.1482
  N  N112  1  0.786200  0.840500  0.629400  1.0  -0.3835
  N  N113  1  0.869900  0.024200  0.893500  1.0  -0.4141
  N  N114  1  0.967700  0.081600  0.125500  1.0  -0.3979
  N  N115  1  0.694200  0.994000  0.781500  1.0  0.1314
  N  N116  1  0.778400  0.080200  0.758700  1.0  -0.3818
  N  N117  1  0.931600  0.203400  0.229800  1.0  0.1538
  N  N118  1  0.903400  0.105700  0.264900  1.0  -0.3852
  N  N119  1  0.391200  0.573300  0.436200  1.0  -0.419
  N  N120  1  0.646700  0.654900  0.535700  1.0  -0.42
  N  N121  1  0.286000  0.633900  0.323500  1.0  0.1649
  N  N122  1  0.259200  0.653400  0.414500  1.0  -0.3871
  N  N123  1  0.223700  0.183600  0.476100  1.0  0.1478
  N  N124  1  0.213800  0.159500  0.370600  1.0  -0.3841
  N  N125  1  0.130100  0.975800  0.106500  1.0  -0.4151
  N  N126  1  0.032300  0.918400  0.874500  1.0  -0.3978
  N  N127  1  0.305800  0.006000  0.218500  1.0  0.1306
  N  N128  1  0.221600  0.919800  0.241300  1.0  -0.3824
  N  N129  1  0.068400  0.796600  0.770200  1.0  0.1544
  N  N130  1  0.096600  0.894300  0.735100  1.0  -0.3849
