# generated using pymatgen
data_CdH27(C11O3)3
_symmetry_space_group_name_H-M   'P 1'
_cell_length_a   23.68100000
_cell_length_b   9.69280000
_cell_length_c   35.38900000
_cell_angle_alpha   90.00000000
_cell_angle_beta   92.78900000
_cell_angle_gamma   90.00000000
_symmetry_Int_Tables_number   1
_chemical_formula_structural   CdH27(C11O3)3
_chemical_formula_sum   'Cd8 H216 C264 O72'
_cell_volume   8113.39934010
_cell_formula_units_Z   8
loop_
 _symmetry_equiv_pos_site_id
 _symmetry_equiv_pos_as_xyz
  1  'x, y, z'
loop_
 _atom_site_type_symbol
 _atom_site_label
 _atom_site_symmetry_multiplicity
 _atom_site_fract_x
 _atom_site_fract_y
 _atom_site_fract_z
 _atom_site_occupancy
 _atom_site_charge
  Cd  Cd1  1  0.190550  0.951790  0.324920  1.0  1.0609
  Cd  Cd2  1  0.690550  0.451790  0.324920  1.0  1.0609
  Cd  Cd3  1  0.190550  0.048210  0.824920  1.0  1.0607
  Cd  Cd4  1  0.690550  0.548210  0.824920  1.0  1.0607
  Cd  Cd5  1  0.809450  0.951790  0.175080  1.0  1.0614
  Cd  Cd6  1  0.309450  0.451790  0.175080  1.0  1.0614
  Cd  Cd7  1  0.809450  0.048210  0.675080  1.0  1.0606
  Cd  Cd8  1  0.309450  0.548210  0.675080  1.0  1.0606
  H  H9  1  0.189200  0.111400  0.448700  1.0  0.1006
  H  H10  1  0.140600  0.086600  0.417400  1.0  0.0971
  H  H11  1  0.232400  0.996700  0.516600  1.0  0.1414
  H  H12  1  0.198200  0.084600  0.544800  1.0  0.1208
  H  H13  1  0.205100  0.137100  0.503400  1.0  0.1318
  H  H14  1  0.134000  0.766500  0.577200  1.0  0.1058
  H  H15  1  0.184900  0.867000  0.570100  1.0  0.0819
  H  H16  1  0.016500  0.652200  0.526100  1.0  0.128
  H  H17  1  0.026100  0.745200  0.562100  1.0  0.1328
  H  H18  1  0.073400  0.642800  0.550400  1.0  0.1159
  H  H19  1  0.967200  0.762100  0.493600  1.0  0.0736
  H  H20  1  0.960200  0.873400  0.461400  1.0  0.0861
  H  H21  1  0.001600  0.962700  0.419100  1.0  0.1291
  H  H22  1  0.059600  0.940400  0.400400  1.0  0.137
  H  H23  1  0.044000  0.086000  0.416100  1.0  0.1219
  H  H24  1  0.097900  0.670800  0.416700  1.0  0.1095
  H  H25  1  0.081700  0.477500  0.452300  1.0  0.1117
  H  H26  1  0.200800  0.273700  0.399900  1.0  0.1276
  H  H27  1  0.217400  0.466800  0.364600  1.0  0.1141
  H  H28  1  0.197400  0.828100  0.700800  1.0  0.1141
  H  H29  1  0.178900  0.797600  0.637000  1.0  0.1221
  H  H30  1  0.087300  0.144300  0.634000  1.0  0.121
  H  H31  1  0.104500  0.171000  0.698200  1.0  0.1138
  H  H32  1  0.903000  0.490800  0.347600  1.0  0.1389
  H  H33  1  0.980500  0.565700  0.383100  1.0  0.129
  H  H34  1  0.882800  0.716300  0.461300  1.0  0.1298
  H  H35  1  0.804800  0.644400  0.425000  1.0  0.097
  H  H36  1  0.689200  0.611400  0.448700  1.0  0.1006
  H  H37  1  0.640600  0.586600  0.417400  1.0  0.0971
  H  H38  1  0.732400  0.496700  0.516600  1.0  0.1414
  H  H39  1  0.698200  0.584600  0.544800  1.0  0.1208
  H  H40  1  0.705100  0.637100  0.503400  1.0  0.1318
  H  H41  1  0.634000  0.266500  0.577200  1.0  0.1058
  H  H42  1  0.684900  0.367000  0.570100  1.0  0.0819
  H  H43  1  0.516500  0.152200  0.526100  1.0  0.128
  H  H44  1  0.526100  0.245200  0.562100  1.0  0.1328
  H  H45  1  0.573400  0.142800  0.550400  1.0  0.1159
  H  H46  1  0.467200  0.262100  0.493600  1.0  0.0736
  H  H47  1  0.460200  0.373400  0.461400  1.0  0.0861
  H  H48  1  0.501600  0.462700  0.419100  1.0  0.1291
  H  H49  1  0.559600  0.440400  0.400400  1.0  0.137
  H  H50  1  0.544000  0.586000  0.416100  1.0  0.1219
  H  H51  1  0.597900  0.170800  0.416700  1.0  0.1095
  H  H52  1  0.581700  0.977500  0.452300  1.0  0.1117
  H  H53  1  0.700800  0.773700  0.399900  1.0  0.1276
  H  H54  1  0.717400  0.966800  0.364600  1.0  0.1141
  H  H55  1  0.697400  0.328100  0.700800  1.0  0.1141
  H  H56  1  0.678900  0.297600  0.637000  1.0  0.122
  H  H57  1  0.587300  0.644300  0.634000  1.0  0.121
  H  H58  1  0.604500  0.671000  0.698200  1.0  0.1138
  H  H59  1  0.403000  0.990800  0.347600  1.0  0.1389
  H  H60  1  0.480500  0.065700  0.383100  1.0  0.129
  H  H61  1  0.382800  0.216300  0.461300  1.0  0.1298
  H  H62  1  0.304800  0.144400  0.425000  1.0  0.097
  H  H63  1  0.189200  0.888600  0.948700  1.0  0.1005
  H  H64  1  0.140600  0.913400  0.917400  1.0  0.0969
  H  H65  1  0.232400  0.003300  0.016600  1.0  0.1422
  H  H66  1  0.198200  0.915400  0.044800  1.0  0.1209
  H  H67  1  0.205100  0.862900  0.003400  1.0  0.131
  H  H68  1  0.134000  0.233500  0.077200  1.0  0.1048
  H  H69  1  0.184900  0.133000  0.070100  1.0  0.082
  H  H70  1  0.016500  0.347800  0.026100  1.0  0.1292
  H  H71  1  0.026100  0.254800  0.062100  1.0  0.1331
  H  H72  1  0.073400  0.357200  0.050400  1.0  0.1159
  H  H73  1  0.967200  0.237900  0.993600  1.0  0.073
  H  H74  1  0.960200  0.126600  0.961400  1.0  0.0859
  H  H75  1  0.001600  0.037300  0.919100  1.0  0.1295
  H  H76  1  0.059600  0.059600  0.900400  1.0  0.137
  H  H77  1  0.044000  0.914000  0.916100  1.0  0.1197
  H  H78  1  0.097900  0.329200  0.916700  1.0  0.1094
  H  H79  1  0.081700  0.522500  0.952300  1.0  0.1117
  H  H80  1  0.200800  0.726300  0.899900  1.0  0.1276
  H  H81  1  0.217400  0.533200  0.864600  1.0  0.1142
  H  H82  1  0.197400  0.171900  0.200800  1.0  0.1139
  H  H83  1  0.178900  0.202400  0.137000  1.0  0.1224
  H  H84  1  0.087300  0.855700  0.134000  1.0  0.1211
  H  H85  1  0.104500  0.829000  0.198200  1.0  0.1138
  H  H86  1  0.903000  0.509200  0.847600  1.0  0.139
  H  H87  1  0.980500  0.434300  0.883100  1.0  0.1293
  H  H88  1  0.882800  0.283700  0.961300  1.0  0.1299
  H  H89  1  0.804800  0.355600  0.925000  1.0  0.0967
  H  H90  1  0.689200  0.388600  0.948700  1.0  0.1005
  H  H91  1  0.640600  0.413400  0.917400  1.0  0.0969
  H  H92  1  0.732400  0.503300  0.016600  1.0  0.1422
  H  H93  1  0.698200  0.415400  0.044800  1.0  0.1209
  H  H94  1  0.705100  0.362900  0.003400  1.0  0.131
  H  H95  1  0.634000  0.733500  0.077200  1.0  0.1048
  H  H96  1  0.684900  0.633000  0.070100  1.0  0.082
  H  H97  1  0.516500  0.847800  0.026100  1.0  0.1292
  H  H98  1  0.526100  0.754800  0.062100  1.0  0.1331
  H  H99  1  0.573400  0.857200  0.050400  1.0  0.1159
  H  H100  1  0.467200  0.737900  0.993600  1.0  0.073
  H  H101  1  0.460200  0.626600  0.961400  1.0  0.0859
  H  H102  1  0.501600  0.537300  0.919100  1.0  0.1295
  H  H103  1  0.559600  0.559600  0.900400  1.0  0.137
  H  H104  1  0.544000  0.414000  0.916100  1.0  0.1197
  H  H105  1  0.597900  0.829200  0.916700  1.0  0.1094
  H  H106  1  0.581700  0.022500  0.952300  1.0  0.1117
  H  H107  1  0.700800  0.226300  0.899900  1.0  0.1276
  H  H108  1  0.717400  0.033200  0.864600  1.0  0.1142
  H  H109  1  0.697400  0.671900  0.200800  1.0  0.1139
  H  H110  1  0.678900  0.702400  0.137000  1.0  0.1223
  H  H111  1  0.587300  0.355700  0.134000  1.0  0.1211
  H  H112  1  0.604500  0.329000  0.198200  1.0  0.1138
  H  H113  1  0.403000  0.009200  0.847600  1.0  0.139
  H  H114  1  0.480500  0.934300  0.883100  1.0  0.1293
  H  H115  1  0.382800  0.783700  0.961300  1.0  0.1299
  H  H116  1  0.304800  0.855600  0.925000  1.0  0.0967
  H  H117  1  0.810800  0.111400  0.051300  1.0  0.0985
  H  H118  1  0.859400  0.086600  0.082600  1.0  0.0966
  H  H119  1  0.767600  0.996700  0.983400  1.0  0.1413
  H  H120  1  0.801800  0.084600  0.955200  1.0  0.1222
  H  H121  1  0.794900  0.137100  0.996600  1.0  0.1305
  H  H122  1  0.866000  0.766500  0.922800  1.0  0.1047
  H  H123  1  0.815100  0.867000  0.929900  1.0  0.082
  H  H124  1  0.983500  0.652200  0.973900  1.0  0.1284
  H  H125  1  0.973900  0.745200  0.937900  1.0  0.1322
  H  H126  1  0.926600  0.642800  0.949600  1.0  0.1157
  H  H127  1  0.032800  0.762100  0.006400  1.0  0.0725
  H  H128  1  0.039800  0.873400  0.038600  1.0  0.0856
  H  H129  1  0.998400  0.962700  0.080900  1.0  0.1299
  H  H130  1  0.940400  0.940400  0.099600  1.0  0.1385
  H  H131  1  0.956000  0.086000  0.083900  1.0  0.1208
  H  H132  1  0.902100  0.670800  0.083300  1.0  0.1098
  H  H133  1  0.918300  0.477500  0.047700  1.0  0.1113
  H  H134  1  0.799200  0.273700  0.100100  1.0  0.1276
  H  H135  1  0.782600  0.466800  0.135400  1.0  0.1141
  H  H136  1  0.802600  0.828100  0.799200  1.0  0.1133
  H  H137  1  0.821100  0.797600  0.863000  1.0  0.1216
  H  H138  1  0.912700  0.144300  0.866000  1.0  0.1206
  H  H139  1  0.895500  0.171000  0.801800  1.0  0.1145
  H  H140  1  0.097000  0.490800  0.152400  1.0  0.1395
  H  H141  1  0.019500  0.565700  0.116900  1.0  0.1292
  H  H142  1  0.117200  0.716300  0.038700  1.0  0.1295
  H  H143  1  0.195200  0.644400  0.075000  1.0  0.0968
  H  H144  1  0.310800  0.611400  0.051300  1.0  0.0985
  H  H145  1  0.359400  0.586600  0.082600  1.0  0.0966
  H  H146  1  0.267600  0.496700  0.983400  1.0  0.1413
  H  H147  1  0.301800  0.584600  0.955200  1.0  0.1222
  H  H148  1  0.294900  0.637100  0.996600  1.0  0.1305
  H  H149  1  0.366000  0.266500  0.922800  1.0  0.1047
  H  H150  1  0.315100  0.367000  0.929900  1.0  0.082
  H  H151  1  0.483500  0.152200  0.973900  1.0  0.1284
  H  H152  1  0.473900  0.245200  0.937900  1.0  0.1322
  H  H153  1  0.426600  0.142800  0.949600  1.0  0.1157
  H  H154  1  0.532800  0.262100  0.006400  1.0  0.0725
  H  H155  1  0.539800  0.373400  0.038600  1.0  0.0856
  H  H156  1  0.498400  0.462700  0.080900  1.0  0.1299
  H  H157  1  0.440400  0.440400  0.099600  1.0  0.1385
  H  H158  1  0.456000  0.586000  0.083900  1.0  0.1208
  H  H159  1  0.402100  0.170800  0.083300  1.0  0.1098
  H  H160  1  0.418300  0.977500  0.047700  1.0  0.1113
  H  H161  1  0.299200  0.773700  0.100100  1.0  0.1276
  H  H162  1  0.282600  0.966800  0.135400  1.0  0.1141
  H  H163  1  0.302600  0.328100  0.799200  1.0  0.1133
  H  H164  1  0.321100  0.297600  0.863000  1.0  0.1216
  H  H165  1  0.412700  0.644300  0.866000  1.0  0.1206
  H  H166  1  0.395500  0.671000  0.801800  1.0  0.1145
  H  H167  1  0.597000  0.990800  0.152400  1.0  0.1395
  H  H168  1  0.519500  0.065700  0.116900  1.0  0.1292
  H  H169  1  0.617200  0.216300  0.038700  1.0  0.1295
  H  H170  1  0.695200  0.144400  0.075000  1.0  0.0968
  H  H171  1  0.810800  0.888600  0.551300  1.0  0.099
  H  H172  1  0.859400  0.913400  0.582600  1.0  0.0958
  H  H173  1  0.767600  0.003300  0.483400  1.0  0.1413
  H  H174  1  0.801800  0.915400  0.455200  1.0  0.1228
  H  H175  1  0.794900  0.862900  0.496600  1.0  0.1304
  H  H176  1  0.866000  0.233500  0.422800  1.0  0.104
  H  H177  1  0.815100  0.133000  0.429900  1.0  0.0818
  H  H178  1  0.983500  0.347800  0.473900  1.0  0.1282
  H  H179  1  0.973900  0.254800  0.437900  1.0  0.1323
  H  H180  1  0.926600  0.357200  0.449600  1.0  0.1161
  H  H181  1  0.032800  0.237900  0.506400  1.0  0.0728
  H  H182  1  0.039800  0.126600  0.538600  1.0  0.0856
  H  H183  1  0.998400  0.037300  0.580900  1.0  0.1303
  H  H184  1  0.940400  0.059600  0.599600  1.0  0.1387
  H  H185  1  0.956000  0.914000  0.583900  1.0  0.1207
  H  H186  1  0.902100  0.329200  0.583300  1.0  0.1101
  H  H187  1  0.918300  0.522500  0.547700  1.0  0.1112
  H  H188  1  0.799200  0.726300  0.600100  1.0  0.1278
  H  H189  1  0.782600  0.533200  0.635400  1.0  0.1141
  H  H190  1  0.802600  0.171900  0.299200  1.0  0.1136
  H  H191  1  0.821100  0.202400  0.363000  1.0  0.1215
  H  H192  1  0.912700  0.855700  0.366000  1.0  0.1205
  H  H193  1  0.895500  0.829000  0.301800  1.0  0.1143
  H  H194  1  0.097000  0.509200  0.652400  1.0  0.1391
  H  H195  1  0.019500  0.434300  0.616900  1.0  0.1287
  H  H196  1  0.117200  0.283700  0.538700  1.0  0.1297
  H  H197  1  0.195200  0.355600  0.575000  1.0  0.0969
  H  H198  1  0.310800  0.388600  0.551300  1.0  0.099
  H  H199  1  0.359400  0.413400  0.582600  1.0  0.0958
  H  H200  1  0.267600  0.503300  0.483400  1.0  0.1413
  H  H201  1  0.301800  0.415400  0.455200  1.0  0.1228
  H  H202  1  0.294900  0.362900  0.496600  1.0  0.1304
  H  H203  1  0.366000  0.733500  0.422800  1.0  0.104
  H  H204  1  0.315100  0.633000  0.429900  1.0  0.0818
  H  H205  1  0.483500  0.847800  0.473900  1.0  0.1282
  H  H206  1  0.473900  0.754800  0.437900  1.0  0.1323
  H  H207  1  0.426600  0.857200  0.449600  1.0  0.1161
  H  H208  1  0.532800  0.737900  0.506400  1.0  0.0728
  H  H209  1  0.539800  0.626600  0.538600  1.0  0.0856
  H  H210  1  0.498400  0.537300  0.580900  1.0  0.1303
  H  H211  1  0.440400  0.559600  0.599600  1.0  0.1387
  H  H212  1  0.456000  0.414000  0.583900  1.0  0.1207
  H  H213  1  0.402100  0.829200  0.583300  1.0  0.1101
  H  H214  1  0.418300  0.022500  0.547700  1.0  0.1112
  H  H215  1  0.299200  0.226300  0.600100  1.0  0.1278
  H  H216  1  0.282600  0.033200  0.635400  1.0  0.1141
  H  H217  1  0.302600  0.671900  0.299200  1.0  0.1136
  H  H218  1  0.321100  0.702400  0.363000  1.0  0.1215
  H  H219  1  0.412700  0.355700  0.366000  1.0  0.1205
  H  H220  1  0.395500  0.329000  0.301800  1.0  0.1143
  H  H221  1  0.597000  0.009200  0.652400  1.0  0.1391
  H  H222  1  0.519500  0.934300  0.616900  1.0  0.1287
  H  H223  1  0.617200  0.783700  0.538700  1.0  0.1297
  H  H224  1  0.695200  0.855600  0.575000  1.0  0.0969
  C  C225  1  0.120600  0.010400  0.469610  1.0  -0.0787
  C  C226  1  0.145700  0.980200  0.505760  1.0  0.0478
  C  C227  1  0.120800  0.883100  0.528950  1.0  -0.0619
  C  C228  1  0.069700  0.818300  0.516460  1.0  0.0357
  C  C229  1  0.042850  0.855900  0.482270  1.0  -0.0817
  C  C230  1  0.068200  0.949900  0.458370  1.0  0.0745
  C  C231  1  0.148600  0.110900  0.443720  1.0  0.0743
  C  C232  1  0.200500  0.057000  0.518850  1.0  -0.3221
  C  C233  1  0.144000  0.858000  0.568650  1.0  0.0505
  C  C234  1  0.044000  0.703700  0.541110  1.0  -0.3129
  C  C235  1  0.984250  0.799700  0.471440  1.0  0.0416
  C  C236  1  0.040800  0.988300  0.419950  1.0  -0.3415
  C  C237  1  0.166700  0.710400  0.361510  1.0  0.7101
  C  C238  1  0.158500  0.587400  0.385830  1.0  -0.1419
  C  C239  1  0.118400  0.590600  0.412930  1.0  -0.0375
  C  C240  1  0.109000  0.474800  0.434280  1.0  -0.1792
  C  C241  1  0.139200  0.355500  0.429530  1.0  0.2727
  C  C242  1  0.179700  0.353200  0.403310  1.0  -0.2629
  C  C243  1  0.189300  0.469000  0.382030  1.0  -0.012
  C  C244  1  0.165400  0.022300  0.748860  1.0  0.6833
  C  C245  1  0.152500  0.001200  0.706630  1.0  -0.1249
  C  C246  1  0.174800  0.891700  0.687480  1.0  -0.0261
  C  C247  1  0.164300  0.873900  0.649130  1.0  -0.2271
  C  C248  1  0.132200  0.969800  0.628890  1.0  0.3168
  C  C249  1  0.109600  0.080200  0.647460  1.0  -0.1918
  C  C250  1  0.119800  0.095800  0.685920  1.0  -0.0375
  C  C251  1  0.792000  0.522400  0.358310  1.0  0.6791
  C  C252  1  0.844500  0.564000  0.382550  1.0  -0.135
  C  C253  1  0.898400  0.537800  0.370160  1.0  -0.1273
  C  C254  1  0.944600  0.582400  0.391680  1.0  -0.1446
  C  C255  1  0.939860  0.650400  0.425150  1.0  0.2958
  C  C256  1  0.887200  0.672700  0.438200  1.0  -0.2538
  C  C257  1  0.840600  0.628600  0.416200  1.0  0.0203
  C  C258  1  0.620600  0.510400  0.469610  1.0  -0.0787
  C  C259  1  0.645700  0.480200  0.505760  1.0  0.0478
  C  C260  1  0.620800  0.383100  0.528950  1.0  -0.0619
  C  C261  1  0.569700  0.318300  0.516460  1.0  0.0357
  C  C262  1  0.542850  0.355900  0.482270  1.0  -0.0817
  C  C263  1  0.568200  0.449900  0.458370  1.0  0.0745
  C  C264  1  0.648600  0.610900  0.443720  1.0  0.0743
  C  C265  1  0.700500  0.557000  0.518850  1.0  -0.3221
  C  C266  1  0.644000  0.358000  0.568650  1.0  0.0505
  C  C267  1  0.544000  0.203700  0.541110  1.0  -0.3129
  C  C268  1  0.484250  0.299700  0.471440  1.0  0.0416
  C  C269  1  0.540800  0.488300  0.419950  1.0  -0.3415
  C  C270  1  0.666667  0.210400  0.361510  1.0  0.7109
  C  C271  1  0.658500  0.087400  0.385830  1.0  -0.1417
  C  C272  1  0.618400  0.090600  0.412930  1.0  -0.0375
  C  C273  1  0.609000  0.974800  0.434280  1.0  -0.1792
  C  C274  1  0.639200  0.855500  0.429530  1.0  0.2727
  C  C275  1  0.679700  0.853200  0.403310  1.0  -0.2629
  C  C276  1  0.689300  0.969000  0.382030  1.0  -0.0125
  C  C277  1  0.665400  0.522300  0.748860  1.0  0.6833
  C  C278  1  0.652500  0.501200  0.706630  1.0  -0.1249
  C  C279  1  0.674800  0.391700  0.687480  1.0  -0.0261
  C  C280  1  0.664300  0.373900  0.649130  1.0  -0.2271
  C  C281  1  0.632200  0.469800  0.628890  1.0  0.3168
  C  C282  1  0.609600  0.580200  0.647460  1.0  -0.1918
  C  C283  1  0.619800  0.595800  0.685920  1.0  -0.0375
  C  C284  1  0.292000  0.022400  0.358310  1.0  0.6791
  C  C285  1  0.344500  0.064000  0.382550  1.0  -0.135
  C  C286  1  0.398400  0.037800  0.370160  1.0  -0.1273
  C  C287  1  0.444600  0.082400  0.391680  1.0  -0.1446
  C  C288  1  0.439860  0.150400  0.425150  1.0  0.2958
  C  C289  1  0.387200  0.172700  0.438200  1.0  -0.2538
  C  C290  1  0.340600  0.128600  0.416200  1.0  0.0203
  C  C291  1  0.120600  0.989600  0.969610  1.0  -0.0788
  C  C292  1  0.145700  0.019800  0.005760  1.0  0.0486
  C  C293  1  0.120800  0.116900  0.028950  1.0  -0.0618
  C  C294  1  0.069700  0.181700  0.016460  1.0  0.036
  C  C295  1  0.042850  0.144100  0.982270  1.0  -0.082
  C  C296  1  0.068200  0.050100  0.958370  1.0  0.0753
  C  C297  1  0.148600  0.889100  0.943720  1.0  0.0743
  C  C298  1  0.200500  0.943000  0.018850  1.0  -0.3223
  C  C299  1  0.144000  0.142000  0.068650  1.0  0.0503
  C  C300  1  0.044000  0.296300  0.041110  1.0  -0.3124
  C  C301  1  0.984250  0.200300  0.971440  1.0  0.042
  C  C302  1  0.040800  0.011700  0.919950  1.0  -0.3413
  C  C303  1  0.166700  0.289600  0.861510  1.0  0.7108
  C  C304  1  0.158500  0.412600  0.885830  1.0  -0.1427
  C  C305  1  0.118400  0.409400  0.912930  1.0  -0.0375
  C  C306  1  0.109000  0.525200  0.934280  1.0  -0.1789
  C  C307  1  0.139200  0.644500  0.929530  1.0  0.2722
  C  C308  1  0.179700  0.646800  0.903310  1.0  -0.2625
  C  C309  1  0.189300  0.531000  0.882030  1.0  -0.012
  C  C310  1  0.165400  0.977700  0.248860  1.0  0.6834
  C  C311  1  0.152500  0.998800  0.206630  1.0  -0.1247
  C  C312  1  0.174800  0.108300  0.187480  1.0  -0.0263
  C  C313  1  0.164300  0.126100  0.149130  1.0  -0.2279
  C  C314  1  0.132200  0.030200  0.128890  1.0  0.3168
  C  C315  1  0.109600  0.919800  0.147460  1.0  -0.1919
  C  C316  1  0.119800  0.904200  0.185920  1.0  -0.0357
  C  C317  1  0.792000  0.477600  0.858310  1.0  0.6792
  C  C318  1  0.844500  0.436000  0.882550  1.0  -0.1343
  C  C319  1  0.898400  0.462200  0.870160  1.0  -0.1269
  C  C320  1  0.944600  0.417600  0.891680  1.0  -0.1456
  C  C321  1  0.939860  0.349600  0.925150  1.0  0.2962
  C  C322  1  0.887200  0.327300  0.938200  1.0  -0.2542
  C  C323  1  0.840600  0.371400  0.916200  1.0  0.0201
  C  C324  1  0.620600  0.489600  0.969610  1.0  -0.0788
  C  C325  1  0.645700  0.519800  0.005760  1.0  0.0486
  C  C326  1  0.620800  0.616900  0.028950  1.0  -0.0618
  C  C327  1  0.569700  0.681700  0.016460  1.0  0.036
  C  C328  1  0.542850  0.644100  0.982270  1.0  -0.082
  C  C329  1  0.568200  0.550100  0.958370  1.0  0.0753
  C  C330  1  0.648600  0.389100  0.943720  1.0  0.0743
  C  C331  1  0.700500  0.443000  0.018850  1.0  -0.3223
  C  C332  1  0.644000  0.642000  0.068650  1.0  0.0503
  C  C333  1  0.544000  0.796300  0.041110  1.0  -0.3124
  C  C334  1  0.484250  0.700300  0.971440  1.0  0.042
  C  C335  1  0.540800  0.511700  0.919950  1.0  -0.3413
  C  C336  1  0.666667  0.789600  0.861510  1.0  0.7115
  C  C337  1  0.658500  0.912600  0.885830  1.0  -0.1426
  C  C338  1  0.618400  0.909400  0.912930  1.0  -0.0375
  C  C339  1  0.609000  0.025200  0.934280  1.0  -0.1789
  C  C340  1  0.639200  0.144500  0.929530  1.0  0.2722
  C  C341  1  0.679700  0.146800  0.903310  1.0  -0.2625
  C  C342  1  0.689300  0.031000  0.882030  1.0  -0.0125
  C  C343  1  0.665400  0.477700  0.248860  1.0  0.6834
  C  C344  1  0.652500  0.498800  0.206630  1.0  -0.1247
  C  C345  1  0.674800  0.608300  0.187480  1.0  -0.0263
  C  C346  1  0.664300  0.626100  0.149130  1.0  -0.2279
  C  C347  1  0.632200  0.530200  0.128890  1.0  0.3168
  C  C348  1  0.609600  0.419800  0.147460  1.0  -0.1919
  C  C349  1  0.619800  0.404200  0.185920  1.0  -0.0357
  C  C350  1  0.292000  0.977600  0.858310  1.0  0.6792
  C  C351  1  0.344500  0.936000  0.882550  1.0  -0.1343
  C  C352  1  0.398400  0.962200  0.870160  1.0  -0.1269
  C  C353  1  0.444600  0.917600  0.891680  1.0  -0.1456
  C  C354  1  0.439860  0.849600  0.925150  1.0  0.2962
  C  C355  1  0.387200  0.827300  0.938200  1.0  -0.2542
  C  C356  1  0.340600  0.871400  0.916200  1.0  0.0201
  C  C357  1  0.879400  0.010400  0.030390  1.0  -0.0778
  C  C358  1  0.854300  0.980200  0.994240  1.0  0.0465
  C  C359  1  0.879200  0.883100  0.971050  1.0  -0.0656
  C  C360  1  0.930300  0.818300  0.983540  1.0  0.0354
  C  C361  1  0.957150  0.855900  0.017730  1.0  -0.0818
  C  C362  1  0.931800  0.949900  0.041630  1.0  0.0758
  C  C363  1  0.851400  0.110900  0.056280  1.0  0.0731
  C  C364  1  0.799500  0.057000  0.981150  1.0  -0.3222
  C  C365  1  0.856000  0.858000  0.931350  1.0  0.0513
  C  C366  1  0.956000  0.703700  0.958890  1.0  -0.3127
  C  C367  1  0.015750  0.799700  0.028560  1.0  0.0422
  C  C368  1  0.959200  0.988300  0.080050  1.0  -0.3393
  C  C369  1  0.833300  0.710400  0.138490  1.0  0.7113
  C  C370  1  0.841500  0.587400  0.114170  1.0  -0.1427
  C  C371  1  0.881600  0.590600  0.087070  1.0  -0.0385
  C  C372  1  0.891000  0.474800  0.065720  1.0  -0.1801
  C  C373  1  0.860800  0.355500  0.070470  1.0  0.2741
  C  C374  1  0.820300  0.353200  0.096690  1.0  -0.2618
  C  C375  1  0.810700  0.469000  0.117970  1.0  -0.0112
  C  C376  1  0.834600  0.022300  0.751140  1.0  0.6827
  C  C377  1  0.847500  0.001200  0.793370  1.0  -0.1248
  C  C378  1  0.825200  0.891700  0.812520  1.0  -0.0248
  C  C379  1  0.835700  0.873900  0.850870  1.0  -0.2269
  C  C380  1  0.867800  0.969800  0.871110  1.0  0.3178
  C  C381  1  0.890400  0.080200  0.852540  1.0  -0.1921
  C  C382  1  0.880200  0.095800  0.814080  1.0  -0.0381
  C  C383  1  0.208000  0.522400  0.141690  1.0  0.6804
  C  C384  1  0.155500  0.564000  0.117450  1.0  -0.1347
  C  C385  1  0.101600  0.537800  0.129840  1.0  -0.1258
  C  C386  1  0.055400  0.582400  0.108320  1.0  -0.1438
  C  C387  1  0.060140  0.650400  0.074850  1.0  0.2956
  C  C388  1  0.112800  0.672700  0.061800  1.0  -0.254
  C  C389  1  0.159400  0.628600  0.083800  1.0  0.0175
  C  C390  1  0.379400  0.510400  0.030390  1.0  -0.0778
  C  C391  1  0.354300  0.480200  0.994240  1.0  0.0465
  C  C392  1  0.379200  0.383100  0.971050  1.0  -0.0656
  C  C393  1  0.430300  0.318300  0.983540  1.0  0.0354
  C  C394  1  0.457150  0.355900  0.017730  1.0  -0.0818
  C  C395  1  0.431800  0.449900  0.041630  1.0  0.0758
  C  C396  1  0.351400  0.610900  0.056280  1.0  0.0731
  C  C397  1  0.299500  0.557000  0.981150  1.0  -0.3222
  C  C398  1  0.356000  0.358000  0.931350  1.0  0.0513
  C  C399  1  0.456000  0.203700  0.958890  1.0  -0.3127
  C  C400  1  0.515750  0.299700  0.028560  1.0  0.0422
  C  C401  1  0.459200  0.488300  0.080050  1.0  -0.3393
  C  C402  1  0.333333  0.210400  0.138490  1.0  0.7122
  C  C403  1  0.341500  0.087400  0.114170  1.0  -0.1426
  C  C404  1  0.381600  0.090600  0.087070  1.0  -0.0385
  C  C405  1  0.391000  0.974800  0.065720  1.0  -0.1801
  C  C406  1  0.360800  0.855500  0.070470  1.0  0.2741
  C  C407  1  0.320300  0.853200  0.096690  1.0  -0.2618
  C  C408  1  0.310700  0.969000  0.117970  1.0  -0.0115
  C  C409  1  0.334600  0.522300  0.751140  1.0  0.6827
  C  C410  1  0.347500  0.501200  0.793370  1.0  -0.1248
  C  C411  1  0.325200  0.391700  0.812520  1.0  -0.0248
  C  C412  1  0.335700  0.373900  0.850870  1.0  -0.2269
  C  C413  1  0.367800  0.469800  0.871110  1.0  0.3178
  C  C414  1  0.390400  0.580200  0.852540  1.0  -0.1921
  C  C415  1  0.380200  0.595800  0.814080  1.0  -0.0381
  C  C416  1  0.708000  0.022400  0.141690  1.0  0.6804
  C  C417  1  0.655500  0.064000  0.117450  1.0  -0.1347
  C  C418  1  0.601600  0.037800  0.129840  1.0  -0.1258
  C  C419  1  0.555400  0.082400  0.108320  1.0  -0.1438
  C  C420  1  0.560140  0.150400  0.074850  1.0  0.2956
  C  C421  1  0.612800  0.172700  0.061800  1.0  -0.254
  C  C422  1  0.659400  0.128600  0.083800  1.0  0.0175
  C  C423  1  0.879400  0.989600  0.530390  1.0  -0.0784
  C  C424  1  0.854300  0.019800  0.494240  1.0  0.0478
  C  C425  1  0.879200  0.116900  0.471050  1.0  -0.0658
  C  C426  1  0.930300  0.181700  0.483540  1.0  0.0356
  C  C427  1  0.957150  0.144100  0.517730  1.0  -0.082
  C  C428  1  0.931800  0.050100  0.541630  1.0  0.0755
  C  C429  1  0.851400  0.889100  0.556280  1.0  0.073
  C  C430  1  0.799500  0.943000  0.481150  1.0  -0.322
  C  C431  1  0.856000  0.142000  0.431350  1.0  0.0514
  C  C432  1  0.956000  0.296300  0.458890  1.0  -0.3127
  C  C433  1  0.015750  0.200300  0.528560  1.0  0.0432
  C  C434  1  0.959200  0.011700  0.580050  1.0  -0.3397
  C  C435  1  0.833300  0.289600  0.638490  1.0  0.7123
  C  C436  1  0.841500  0.412600  0.614170  1.0  -0.1413
  C  C437  1  0.881600  0.409400  0.587070  1.0  -0.0387
  C  C438  1  0.891000  0.525200  0.565720  1.0  -0.1804
  C  C439  1  0.860800  0.644500  0.570470  1.0  0.2739
  C  C440  1  0.820300  0.646800  0.596690  1.0  -0.2616
  C  C441  1  0.810700  0.531000  0.617970  1.0  -0.0108
  C  C442  1  0.834600  0.977700  0.251140  1.0  0.6827
  C  C443  1  0.847500  0.998800  0.293370  1.0  -0.1247
  C  C444  1  0.825200  0.108300  0.312520  1.0  -0.0242
  C  C445  1  0.835700  0.126100  0.350870  1.0  -0.2279
  C  C446  1  0.867800  0.030200  0.371110  1.0  0.3178
  C  C447  1  0.890400  0.919800  0.352540  1.0  -0.1922
  C  C448  1  0.880200  0.904200  0.314080  1.0  -0.0369
  C  C449  1  0.208000  0.477600  0.641690  1.0  0.6808
  C  C450  1  0.155500  0.436000  0.617450  1.0  -0.1354
  C  C451  1  0.101600  0.462200  0.629840  1.0  -0.1271
  C  C452  1  0.055400  0.417600  0.608320  1.0  -0.145
  C  C453  1  0.060140  0.349600  0.574850  1.0  0.2962
  C  C454  1  0.112800  0.327300  0.561800  1.0  -0.2543
  C  C455  1  0.159400  0.371400  0.583800  1.0  0.0174
  C  C456  1  0.379400  0.489600  0.530390  1.0  -0.0784
  C  C457  1  0.354300  0.519800  0.494240  1.0  0.0478
  C  C458  1  0.379200  0.616900  0.471050  1.0  -0.0658
  C  C459  1  0.430300  0.681700  0.483540  1.0  0.0356
  C  C460  1  0.457150  0.644100  0.517730  1.0  -0.082
  C  C461  1  0.431800  0.550100  0.541630  1.0  0.0755
  C  C462  1  0.351400  0.389100  0.556280  1.0  0.073
  C  C463  1  0.299500  0.443000  0.481150  1.0  -0.322
  C  C464  1  0.356000  0.642000  0.431350  1.0  0.0514
  C  C465  1  0.456000  0.796300  0.458890  1.0  -0.3127
  C  C466  1  0.515750  0.700300  0.528560  1.0  0.0432
  C  C467  1  0.459200  0.511700  0.580050  1.0  -0.3397
  C  C468  1  0.333333  0.789600  0.638490  1.0  0.7132
  C  C469  1  0.341500  0.912600  0.614170  1.0  -0.1412
  C  C470  1  0.381600  0.909400  0.587070  1.0  -0.0387
  C  C471  1  0.391000  0.025200  0.565720  1.0  -0.1804
  C  C472  1  0.360800  0.144500  0.570470  1.0  0.2739
  C  C473  1  0.320300  0.146800  0.596690  1.0  -0.2616
  C  C474  1  0.310700  0.031000  0.617970  1.0  -0.0111
  C  C475  1  0.334600  0.477700  0.251140  1.0  0.6827
  C  C476  1  0.347500  0.498800  0.293370  1.0  -0.1247
  C  C477  1  0.325200  0.608300  0.312520  1.0  -0.0242
  C  C478  1  0.335700  0.626100  0.350870  1.0  -0.2279
  C  C479  1  0.367800  0.530200  0.371110  1.0  0.3178
  C  C480  1  0.390400  0.419800  0.352540  1.0  -0.1922
  C  C481  1  0.380200  0.404200  0.314080  1.0  -0.0369
  C  C482  1  0.708000  0.977600  0.641690  1.0  0.6808
  C  C483  1  0.655500  0.936000  0.617450  1.0  -0.1354
  C  C484  1  0.601600  0.962200  0.629840  1.0  -0.1271
  C  C485  1  0.555400  0.917600  0.608320  1.0  -0.145
  C  C486  1  0.560140  0.849600  0.574850  1.0  0.2962
  C  C487  1  0.612800  0.827300  0.561800  1.0  -0.2543
  C  C488  1  0.659400  0.871400  0.583800  1.0  0.0174
  O  O489  1  0.142780  0.821900  0.368260  1.0  -0.6136
  O  O490  1  0.198340  0.701400  0.333250  1.0  -0.6125
  O  O491  1  0.124490  0.245600  0.452120  1.0  -0.265
  O  O492  1  0.136200  0.104800  0.766230  1.0  -0.6196
  O  O493  1  0.204380  0.954000  0.764510  1.0  -0.604
  O  O494  1  0.118100  0.963000  0.591120  1.0  -0.2767
  O  O495  1  0.744620  0.561000  0.369880  1.0  -0.5656
  O  O496  1  0.796060  0.453600  0.329430  1.0  -0.571
  O  O497  1  0.989210  0.693400  0.443360  1.0  -0.2651
  O  O498  1  0.642780  0.321900  0.368260  1.0  -0.6135
  O  O499  1  0.698340  0.201400  0.333250  1.0  -0.6129
  O  O500  1  0.624490  0.745600  0.452120  1.0  -0.265
  O  O501  1  0.636200  0.604800  0.766230  1.0  -0.6196
  O  O502  1  0.704380  0.454000  0.764510  1.0  -0.604
  O  O503  1  0.618100  0.463000  0.591120  1.0  -0.2767
  O  O504  1  0.244620  0.061000  0.369880  1.0  -0.5656
  O  O505  1  0.296060  0.953600  0.329430  1.0  -0.571
  O  O506  1  0.489210  0.193400  0.443360  1.0  -0.2651
  O  O507  1  0.142780  0.178100  0.868260  1.0  -0.6126
  O  O508  1  0.198340  0.298600  0.833250  1.0  -0.6124
  O  O509  1  0.124490  0.754400  0.952120  1.0  -0.2665
  O  O510  1  0.136200  0.895200  0.266230  1.0  -0.6195
  O  O511  1  0.204380  0.046000  0.264510  1.0  -0.6046
  O  O512  1  0.118100  0.037000  0.091120  1.0  -0.2771
  O  O513  1  0.744620  0.439000  0.869880  1.0  -0.5654
  O  O514  1  0.796060  0.546400  0.829430  1.0  -0.5706
  O  O515  1  0.989210  0.306600  0.943360  1.0  -0.2654
  O  O516  1  0.642780  0.678100  0.868260  1.0  -0.6125
  O  O517  1  0.698340  0.798600  0.833250  1.0  -0.6128
  O  O518  1  0.624490  0.254400  0.952120  1.0  -0.2665
  O  O519  1  0.636200  0.395200  0.266230  1.0  -0.6195
  O  O520  1  0.704380  0.546000  0.264510  1.0  -0.6046
  O  O521  1  0.618100  0.537000  0.091120  1.0  -0.2771
  O  O522  1  0.244620  0.939000  0.869880  1.0  -0.5653
  O  O523  1  0.296060  0.046400  0.829430  1.0  -0.5707
  O  O524  1  0.489210  0.806600  0.943360  1.0  -0.2654
  O  O525  1  0.857220  0.821900  0.131740  1.0  -0.6134
  O  O526  1  0.801660  0.701400  0.166750  1.0  -0.6135
  O  O527  1  0.875510  0.245600  0.047880  1.0  -0.2649
  O  O528  1  0.863800  0.104800  0.733770  1.0  -0.6221
  O  O529  1  0.795620  0.954000  0.735490  1.0  -0.6033
  O  O530  1  0.881900  0.963000  0.908880  1.0  -0.2754
  O  O531  1  0.255380  0.561000  0.130120  1.0  -0.5665
  O  O532  1  0.203940  0.453600  0.170570  1.0  -0.5711
  O  O533  1  0.010790  0.693400  0.056640  1.0  -0.2639
  O  O534  1  0.357220  0.321900  0.131740  1.0  -0.6133
  O  O535  1  0.301660  0.201400  0.166750  1.0  -0.6141
  O  O536  1  0.375510  0.745600  0.047880  1.0  -0.2649
  O  O537  1  0.363800  0.604800  0.733770  1.0  -0.6221
  O  O538  1  0.295620  0.454000  0.735490  1.0  -0.6033
  O  O539  1  0.381900  0.463000  0.908880  1.0  -0.2754
  O  O540  1  0.755380  0.061000  0.130120  1.0  -0.5666
  O  O541  1  0.703940  0.953600  0.170570  1.0  -0.5711
  O  O542  1  0.510790  0.193400  0.056640  1.0  -0.2639
  O  O543  1  0.857220  0.178100  0.631740  1.0  -0.6135
  O  O544  1  0.801660  0.298600  0.666750  1.0  -0.6136
  O  O545  1  0.875510  0.754400  0.547880  1.0  -0.2654
  O  O546  1  0.863800  0.895200  0.233770  1.0  -0.6218
  O  O547  1  0.795620  0.046000  0.235490  1.0  -0.6045
  O  O548  1  0.881900  0.037000  0.408880  1.0  -0.2763
  O  O549  1  0.255380  0.439000  0.630120  1.0  -0.5664
  O  O550  1  0.203940  0.546400  0.670570  1.0  -0.5715
  O  O551  1  0.010790  0.306600  0.556640  1.0  -0.265
  O  O552  1  0.357220  0.678100  0.631740  1.0  -0.6134
  O  O553  1  0.301660  0.798600  0.666750  1.0  -0.6142
  O  O554  1  0.375510  0.254400  0.547880  1.0  -0.2654
  O  O555  1  0.363800  0.395200  0.233770  1.0  -0.6218
  O  O556  1  0.295620  0.546000  0.235490  1.0  -0.6045
  O  O557  1  0.381900  0.537000  0.408880  1.0  -0.2763
  O  O558  1  0.755380  0.939000  0.630120  1.0  -0.5665
  O  O559  1  0.703940  0.046400  0.670570  1.0  -0.5715
  O  O560  1  0.510790  0.806600  0.556640  1.0  -0.265
