# generated using pymatgen
data_CdH48C54N18(ClO4)2
_symmetry_space_group_name_H-M   'P 1'
_cell_length_a   10.69080000
_cell_length_b   10.69080000
_cell_length_c   31.49410000
_cell_angle_alpha   80.22800000
_cell_angle_beta   80.22800000
_cell_angle_gamma   60.00000000
_symmetry_Int_Tables_number   1
_chemical_formula_structural   CdH48C54N18(ClO4)2
_chemical_formula_sum   'Cd2 H96 C108 N36 Cl4 O16'
_cell_volume   3056.85749381
_cell_formula_units_Z   2
loop_
 _symmetry_equiv_pos_site_id
 _symmetry_equiv_pos_as_xyz
  1  'x, y, z'
loop_
 _atom_site_type_symbol
 _atom_site_label
 _atom_site_symmetry_multiplicity
 _atom_site_fract_x
 _atom_site_fract_y
 _atom_site_fract_z
 _atom_site_occupancy
 _atom_site_charge
  Cd  Cd1  1  0.500000  0.500000  0.500000  1.0  0.8337
  Cd  Cd2  1  0.000000  0.000000  0.000000  1.0  0.8337
  H  H3  1  0.575000  0.202100  0.574300  1.0  0.0823
  H  H4  1  0.167900  0.308300  0.593500  1.0  0.0811
  H  H5  1  0.581800  0.933200  0.596500  1.0  0.1136
  H  H6  1  0.636600  0.752600  0.650800  1.0  0.0771
  H  H7  1  0.331300  0.026700  0.732100  1.0  0.0974
  H  H8  1  0.277900  0.218600  0.676600  1.0  0.1201
  H  H9  1  0.649600  0.681700  0.726700  1.0  0.0765
  H  H10  1  0.506700  0.675200  0.727300  1.0  0.0722
  H  H11  1  0.202100  0.648600  0.574300  1.0  0.0819
  H  H12  1  0.308300  0.930300  0.593500  1.0  0.0803
  H  H13  1  0.933200  0.888500  0.596500  1.0  0.1122
  H  H14  1  0.752600  0.960000  0.650800  1.0  0.0781
  H  H15  1  0.026700  0.909900  0.732100  1.0  0.1
  H  H16  1  0.218600  0.826900  0.676600  1.0  0.1201
  H  H17  1  0.681700  0.942000  0.726700  1.0  0.0806
  H  H18  1  0.675200  0.090800  0.727300  1.0  0.0736
  H  H19  1  0.648600  0.575000  0.574300  1.0  0.0832
  H  H20  1  0.930300  0.167900  0.593500  1.0  0.0795
  H  H21  1  0.888500  0.581800  0.596500  1.0  0.1141
  H  H22  1  0.960000  0.636600  0.650800  1.0  0.0748
  H  H23  1  0.909900  0.331300  0.732100  1.0  0.0977
  H  H24  1  0.826900  0.277900  0.676600  1.0  0.1195
  H  H25  1  0.942000  0.649600  0.726700  1.0  0.0829
  H  H26  1  0.090800  0.506700  0.727300  1.0  0.0789
  H  H27  1  0.925000  0.851400  0.925700  1.0  0.0827
  H  H28  1  0.332100  0.569700  0.906500  1.0  0.0795
  H  H29  1  0.918200  0.611500  0.903500  1.0  0.1132
  H  H30  1  0.863400  0.540000  0.849200  1.0  0.0746
  H  H31  1  0.168700  0.590100  0.767900  1.0  0.0966
  H  H32  1  0.222100  0.673100  0.823400  1.0  0.1199
  H  H33  1  0.850400  0.558000  0.773300  1.0  0.0787
  H  H34  1  0.993300  0.409200  0.772700  1.0  0.0725
  H  H35  1  0.297900  0.925000  0.925700  1.0  0.0836
  H  H36  1  0.191700  0.332100  0.906500  1.0  0.0805
  H  H37  1  0.566800  0.918200  0.903500  1.0  0.1118
  H  H38  1  0.747400  0.863400  0.849200  1.0  0.0773
  H  H39  1  0.473300  0.168700  0.767900  1.0  0.0987
  H  H40  1  0.281400  0.222100  0.823400  1.0  0.1211
  H  H41  1  0.818300  0.850400  0.773300  1.0  0.075
  H  H42  1  0.824800  0.993300  0.772700  1.0  0.0745
  H  H43  1  0.851400  0.297900  0.925700  1.0  0.082
  H  H44  1  0.569700  0.191700  0.906500  1.0  0.0796
  H  H45  1  0.611500  0.566800  0.903500  1.0  0.1119
  H  H46  1  0.540000  0.747400  0.849200  1.0  0.0784
  H  H47  1  0.590100  0.473300  0.767900  1.0  0.1003
  H  H48  1  0.673100  0.281400  0.823400  1.0  0.1203
  H  H49  1  0.558000  0.818300  0.773300  1.0  0.0779
  H  H50  1  0.409200  0.824800  0.772700  1.0  0.0746
  H  H51  1  0.425000  0.797900  0.425700  1.0  0.0821
  H  H52  1  0.832100  0.691700  0.406500  1.0  0.0806
  H  H53  1  0.418200  0.066800  0.403500  1.0  0.1128
  H  H54  1  0.363400  0.247400  0.349200  1.0  0.0776
  H  H55  1  0.668700  0.973300  0.267900  1.0  0.0971
  H  H56  1  0.722100  0.781400  0.323400  1.0  0.1214
  H  H57  1  0.350400  0.318300  0.273300  1.0  0.0721
  H  H58  1  0.493300  0.324800  0.272700  1.0  0.0735
  H  H59  1  0.797900  0.351400  0.425700  1.0  0.0818
  H  H60  1  0.691700  0.069700  0.406500  1.0  0.0799
  H  H61  1  0.066800  0.111500  0.403500  1.0  0.1117
  H  H62  1  0.247400  0.040000  0.349200  1.0  0.079
  H  H63  1  0.973300  0.090100  0.267900  1.0  0.1009
  H  H64  1  0.781400  0.173100  0.323400  1.0  0.1203
  H  H65  1  0.318300  0.058000  0.273300  1.0  0.082
  H  H66  1  0.324800  0.909200  0.272700  1.0  0.0719
  H  H67  1  0.351400  0.425000  0.425700  1.0  0.0831
  H  H68  1  0.069700  0.832100  0.406500  1.0  0.0799
  H  H69  1  0.111500  0.418200  0.403500  1.0  0.1136
  H  H70  1  0.040000  0.363400  0.349200  1.0  0.0735
  H  H71  1  0.090100  0.668700  0.267900  1.0  0.0976
  H  H72  1  0.173100  0.722100  0.323400  1.0  0.1196
  H  H73  1  0.058000  0.350400  0.273300  1.0  0.0798
  H  H74  1  0.909200  0.493300  0.272700  1.0  0.0756
  H  H75  1  0.075000  0.148600  0.074300  1.0  0.0828
  H  H76  1  0.667900  0.430300  0.093500  1.0  0.0795
  H  H77  1  0.081800  0.388500  0.096500  1.0  0.1138
  H  H78  1  0.136600  0.460000  0.150800  1.0  0.0763
  H  H79  1  0.831300  0.409900  0.232100  1.0  0.0969
  H  H80  1  0.777900  0.326900  0.176600  1.0  0.1207
  H  H81  1  0.149600  0.442000  0.226700  1.0  0.0868
  H  H82  1  0.006700  0.590800  0.227300  1.0  0.0738
  H  H83  1  0.702100  0.075000  0.074300  1.0  0.0833
  H  H84  1  0.808300  0.667900  0.093500  1.0  0.0799
  H  H85  1  0.433200  0.081800  0.096500  1.0  0.1128
  H  H86  1  0.252600  0.136600  0.150800  1.0  0.0771
  H  H87  1  0.526700  0.831300  0.232100  1.0  0.099
  H  H88  1  0.718600  0.777900  0.176600  1.0  0.1214
  H  H89  1  0.181700  0.149600  0.226700  1.0  0.0757
  H  H90  1  0.175200  0.006700  0.227300  1.0  0.0721
  H  H91  1  0.148600  0.702100  0.074300  1.0  0.0821
  H  H92  1  0.430300  0.808300  0.093500  1.0  0.0796
  H  H93  1  0.388500  0.433200  0.096500  1.0  0.1123
  H  H94  1  0.460000  0.252600  0.150800  1.0  0.0784
  H  H95  1  0.409900  0.526700  0.232100  1.0  0.0995
  H  H96  1  0.326900  0.718600  0.176600  1.0  0.1198
  H  H97  1  0.442000  0.181700  0.226700  1.0  0.0787
  H  H98  1  0.590800  0.175200  0.227300  1.0  0.078
  C  C99  1  0.475980  0.247880  0.571660  1.0  0.1645
  C  C100  1  0.255320  0.305420  0.582040  1.0  0.2173
  C  C101  1  0.424300  0.088100  0.630100  1.0  0.1819
  C  C102  1  0.530300  0.952800  0.623800  1.0  -0.1538
  C  C103  1  0.562610  0.845210  0.656470  1.0  -0.137
  C  C104  1  0.493140  0.865040  0.696880  1.0  0.0852
  C  C105  1  0.381550  0.008850  0.704950  1.0  -0.1248
  C  C106  1  0.347540  0.123740  0.671680  1.0  -0.1824
  C  C107  1  0.544630  0.737230  0.731710  1.0  -0.1446
  C  C108  1  0.247880  0.704480  0.571660  1.0  0.1596
  C  C109  1  0.305420  0.857220  0.582040  1.0  0.2149
  C  C110  1  0.088100  0.857500  0.630100  1.0  0.1806
  C  C111  1  0.952800  0.893100  0.623800  1.0  -0.1593
  C  C112  1  0.845210  0.935710  0.656470  1.0  -0.1434
  C  C113  1  0.865040  0.944940  0.696880  1.0  0.0843
  C  C114  1  0.008850  0.904650  0.704950  1.0  -0.1236
  C  C115  1  0.123740  0.857040  0.671680  1.0  -0.1814
  C  C116  1  0.737230  0.986430  0.731710  1.0  -0.1456
  C  C117  1  0.704480  0.475980  0.571660  1.0  0.1618
  C  C118  1  0.857220  0.255320  0.582040  1.0  0.2142
  C  C119  1  0.857500  0.424300  0.630100  1.0  0.1816
  C  C120  1  0.893100  0.530300  0.623800  1.0  -0.1569
  C  C121  1  0.935710  0.562610  0.656470  1.0  -0.1455
  C  C122  1  0.944940  0.493140  0.696880  1.0  0.0859
  C  C123  1  0.904650  0.381550  0.704950  1.0  -0.1191
  C  C124  1  0.857040  0.347540  0.671680  1.0  -0.1811
  C  C125  1  0.986430  0.544630  0.731710  1.0  -0.1445
  C  C126  1  0.024020  0.795520  0.928340  1.0  0.1634
  C  C127  1  0.244680  0.642780  0.917960  1.0  0.2164
  C  C128  1  0.075700  0.642500  0.869900  1.0  0.1803
  C  C129  1  0.969700  0.606900  0.876200  1.0  -0.1585
  C  C130  1  0.937390  0.564290  0.843530  1.0  -0.1436
  C  C131  1  0.006860  0.555060  0.803120  1.0  0.0843
  C  C132  1  0.118450  0.595350  0.795050  1.0  -0.1235
  C  C133  1  0.152460  0.642960  0.828320  1.0  -0.1815
  C  C134  1  0.955370  0.513570  0.768290  1.0  -0.1459
  C  C135  1  0.252120  0.024020  0.928340  1.0  0.1622
  C  C136  1  0.194580  0.244680  0.917960  1.0  0.2163
  C  C137  1  0.411900  0.075700  0.869900  1.0  0.1812
  C  C138  1  0.547200  0.969700  0.876200  1.0  -0.1556
  C  C139  1  0.654790  0.937390  0.843530  1.0  -0.1411
  C  C140  1  0.634960  0.006860  0.803120  1.0  0.0836
  C  C141  1  0.491150  0.118450  0.795050  1.0  -0.1203
  C  C142  1  0.376260  0.152460  0.828320  1.0  -0.1823
  C  C143  1  0.762770  0.955370  0.768290  1.0  -0.1391
  C  C144  1  0.795520  0.252120  0.928340  1.0  0.1622
  C  C145  1  0.642780  0.194580  0.917960  1.0  0.2156
  C  C146  1  0.642500  0.411900  0.869900  1.0  0.1818
  C  C147  1  0.606900  0.547200  0.876200  1.0  -0.1546
  C  C148  1  0.564290  0.654790  0.843530  1.0  -0.1386
  C  C149  1  0.555060  0.634960  0.803120  1.0  0.0811
  C  C150  1  0.595350  0.491150  0.795050  1.0  -0.1224
  C  C151  1  0.642960  0.376260  0.828320  1.0  -0.1806
  C  C152  1  0.513570  0.762770  0.768290  1.0  -0.1444
  C  C153  1  0.524020  0.752120  0.428340  1.0  0.163
  C  C154  1  0.744680  0.694580  0.417960  1.0  0.2187
  C  C155  1  0.575700  0.911900  0.369900  1.0  0.1827
  C  C156  1  0.469700  0.047200  0.376200  1.0  -0.1596
  C  C157  1  0.437390  0.154790  0.343530  1.0  -0.1429
  C  C158  1  0.506860  0.134960  0.303120  1.0  0.0846
  C  C159  1  0.618450  0.991150  0.295050  1.0  -0.1219
  C  C160  1  0.652460  0.876260  0.328320  1.0  -0.1787
  C  C161  1  0.455370  0.262770  0.268290  1.0  -0.1427
  C  C162  1  0.752120  0.295520  0.428340  1.0  0.1617
  C  C163  1  0.694580  0.142780  0.417960  1.0  0.2174
  C  C164  1  0.911900  0.142500  0.369900  1.0  0.1807
  C  C165  1  0.047200  0.106900  0.376200  1.0  -0.1552
  C  C166  1  0.154790  0.064290  0.343530  1.0  -0.1433
  C  C167  1  0.134960  0.055060  0.303120  1.0  0.0833
  C  C168  1  0.991150  0.095350  0.295050  1.0  -0.1209
  C  C169  1  0.876260  0.142960  0.328320  1.0  -0.1802
  C  C170  1  0.262770  0.013570  0.268290  1.0  -0.1435
  C  C171  1  0.295520  0.524020  0.428340  1.0  0.1622
  C  C172  1  0.142780  0.744680  0.417960  1.0  0.2159
  C  C173  1  0.142500  0.575700  0.369900  1.0  0.1805
  C  C174  1  0.106900  0.469700  0.376200  1.0  -0.1582
  C  C175  1  0.064290  0.437390  0.343530  1.0  -0.1407
  C  C176  1  0.055060  0.506860  0.303120  1.0  0.0836
  C  C177  1  0.095350  0.618450  0.295050  1.0  -0.1248
  C  C178  1  0.142960  0.652460  0.328320  1.0  -0.182
  C  C179  1  0.013570  0.455370  0.268290  1.0  -0.144
  C  C180  1  0.975980  0.204480  0.071660  1.0  0.1637
  C  C181  1  0.755320  0.357220  0.082040  1.0  0.2159
  C  C182  1  0.924300  0.357500  0.130100  1.0  0.1806
  C  C183  1  0.030300  0.393100  0.123800  1.0  -0.155
  C  C184  1  0.062610  0.435710  0.156470  1.0  -0.1466
  C  C185  1  0.993140  0.444940  0.196880  1.0  0.0854
  C  C186  1  0.881550  0.404650  0.204950  1.0  -0.1219
  C  C187  1  0.847540  0.357040  0.171680  1.0  -0.1839
  C  C188  1  0.044630  0.486430  0.231710  1.0  -0.144
  C  C189  1  0.747880  0.975980  0.071660  1.0  0.1614
  C  C190  1  0.805420  0.755320  0.082040  1.0  0.2174
  C  C191  1  0.588100  0.924300  0.130100  1.0  0.1825
  C  C192  1  0.452800  0.030300  0.123800  1.0  -0.1524
  C  C193  1  0.345210  0.062610  0.156470  1.0  -0.1428
  C  C194  1  0.365040  0.993140  0.196880  1.0  0.0857
  C  C195  1  0.508850  0.881550  0.204950  1.0  -0.1189
  C  C196  1  0.623740  0.847540  0.171680  1.0  -0.1803
  C  C197  1  0.237230  0.044630  0.231710  1.0  -0.14
  C  C198  1  0.204480  0.747880  0.071660  1.0  0.1632
  C  C199  1  0.357220  0.805420  0.082040  1.0  0.2149
  C  C200  1  0.357500  0.588100  0.130100  1.0  0.1813
  C  C201  1  0.393100  0.452800  0.123800  1.0  -0.1603
  C  C202  1  0.435710  0.345210  0.156470  1.0  -0.1425
  C  C203  1  0.444940  0.365040  0.196880  1.0  0.0844
  C  C204  1  0.404650  0.508850  0.204950  1.0  -0.1251
  C  C205  1  0.357040  0.623740  0.171680  1.0  -0.1818
  C  C206  1  0.486430  0.237230  0.231710  1.0  -0.1471
  N  N207  1  0.409620  0.358420  0.544240  1.0  -0.223
  N  N208  1  0.266270  0.396270  0.550690  1.0  -0.2885
  N  N209  1  0.383100  0.207600  0.595900  1.0  -0.0126
  N  N210  1  0.358420  0.687720  0.544240  1.0  -0.213
  N  N211  1  0.396270  0.786770  0.550690  1.0  -0.2867
  N  N212  1  0.207600  0.813400  0.595900  1.0  -0.0103
  N  N213  1  0.687720  0.409620  0.544240  1.0  -0.2081
  N  N214  1  0.786770  0.266270  0.550690  1.0  -0.2872
  N  N215  1  0.813400  0.383100  0.595900  1.0  -0.0133
  N  N216  1  0.090380  0.812280  0.955760  1.0  -0.2092
  N  N217  1  0.233730  0.713230  0.949310  1.0  -0.2899
  N  N218  1  0.116900  0.686600  0.904100  1.0  -0.0115
  N  N219  1  0.141580  0.090380  0.955760  1.0  -0.2179
  N  N220  1  0.103730  0.233730  0.949310  1.0  -0.2873
  N  N221  1  0.292400  0.116900  0.904100  1.0  -0.011
  N  N222  1  0.812280  0.141580  0.955760  1.0  -0.2135
  N  N223  1  0.713230  0.103730  0.949310  1.0  -0.288
  N  N224  1  0.686600  0.292400  0.904100  1.0  -0.0108
  N  N225  1  0.590380  0.641580  0.455760  1.0  -0.2169
  N  N226  1  0.733730  0.603730  0.449310  1.0  -0.2901
  N  N227  1  0.616900  0.792400  0.404100  1.0  -0.0115
  N  N228  1  0.641580  0.312280  0.455760  1.0  -0.2137
  N  N229  1  0.603730  0.213230  0.449310  1.0  -0.2885
  N  N230  1  0.792400  0.186600  0.404100  1.0  -0.0104
  N  N231  1  0.312280  0.590380  0.455760  1.0  -0.2091
  N  N232  1  0.213230  0.733730  0.449310  1.0  -0.2877
  N  N233  1  0.186600  0.616900  0.404100  1.0  -0.0115
  N  N234  1  0.909620  0.187720  0.044240  1.0  -0.2072
  N  N235  1  0.766270  0.286770  0.050690  1.0  -0.2868
  N  N236  1  0.883100  0.313400  0.095900  1.0  -0.0128
  N  N237  1  0.858420  0.909620  0.044240  1.0  -0.219
  N  N238  1  0.896270  0.766270  0.050690  1.0  -0.2888
  N  N239  1  0.707600  0.883100  0.095900  1.0  -0.0115
  N  N240  1  0.187720  0.858420  0.044240  1.0  -0.2124
  N  N241  1  0.286770  0.896270  0.050690  1.0  -0.2874
  N  N242  1  0.313400  0.707600  0.095900  1.0  -0.0116
  Cl  Cl243  1  0.943980  0.943980  0.168060  1.0  1.5365
  Cl  Cl244  1  0.556020  0.556020  0.331940  1.0  1.5353
  Cl  Cl245  1  0.056020  0.056020  0.831940  1.0  1.5353
  Cl  Cl246  1  0.443980  0.443980  0.668060  1.0  1.5365
  O  O247  1  0.814800  0.062500  0.152100  1.0  -0.5723
  O  O248  1  0.062500  0.970600  0.152100  1.0  -0.566
  O  O249  1  0.970600  0.814800  0.152100  1.0  -0.5425
  O  O250  1  0.928810  0.928810  0.213570  1.0  -0.5982
  O  O251  1  0.685200  0.529400  0.347900  1.0  -0.5449
  O  O252  1  0.437500  0.685200  0.347900  1.0  -0.5727
  O  O253  1  0.529400  0.437500  0.347900  1.0  -0.5653
  O  O254  1  0.571190  0.571190  0.286430  1.0  -0.5979
  O  O255  1  0.185200  0.937500  0.847900  1.0  -0.5734
  O  O256  1  0.937500  0.029400  0.847900  1.0  -0.5647
  O  O257  1  0.029400  0.185200  0.847900  1.0  -0.5434
  O  O258  1  0.071190  0.071190  0.786430  1.0  -0.5979
  O  O259  1  0.314800  0.470600  0.652100  1.0  -0.5421
  O  O260  1  0.562500  0.314800  0.652100  1.0  -0.5721
  O  O261  1  0.470600  0.562500  0.652100  1.0  -0.5662
  O  O262  1  0.428810  0.428810  0.713570  1.0  -0.5982
