# generated using pymatgen
data_Li2H3C3SO5
_symmetry_space_group_name_H-M   'P 1'
_cell_length_a   7.52030000
_cell_length_b   13.55200000
_cell_length_c   15.62300000
_cell_angle_alpha   90.00000000
_cell_angle_beta   90.00000000
_cell_angle_gamma   90.00000000
_symmetry_Int_Tables_number   1
_chemical_formula_structural   Li2H3C3SO5
_chemical_formula_sum   'Li16 H24 C24 S8 O40'
_cell_volume   1592.21969479
_cell_formula_units_Z   8
loop_
 _symmetry_equiv_pos_site_id
 _symmetry_equiv_pos_as_xyz
  1  'x, y, z'
loop_
 _atom_site_type_symbol
 _atom_site_label
 _atom_site_symmetry_multiplicity
 _atom_site_fract_x
 _atom_site_fract_y
 _atom_site_fract_z
 _atom_site_occupancy
 _atom_site_charge
  Li  Li1  1  0.477900  0.675500  0.088930  1.0  0.9355
  Li  Li2  1  0.337200  0.518200  0.982900  1.0  0.9293
  Li  Li3  1  0.977900  0.824500  0.911070  1.0  0.9357
  Li  Li4  1  0.837200  0.981800  0.017100  1.0  0.929
  Li  Li5  1  0.522100  0.324500  0.588930  1.0  0.9365
  Li  Li6  1  0.662800  0.481800  0.482900  1.0  0.929
  Li  Li7  1  0.022100  0.175500  0.411070  1.0  0.937
  Li  Li8  1  0.162800  0.018200  0.517100  1.0  0.929
  Li  Li9  1  0.522100  0.324500  0.911070  1.0  0.9366
  Li  Li10  1  0.662800  0.481800  0.017100  1.0  0.9287
  Li  Li11  1  0.022100  0.175500  0.088930  1.0  0.9364
  Li  Li12  1  0.162800  0.018200  0.982900  1.0  0.9293
  Li  Li13  1  0.477900  0.675500  0.411070  1.0  0.9359
  Li  Li14  1  0.337200  0.518200  0.517100  1.0  0.9294
  Li  Li15  1  0.977900  0.824500  0.588930  1.0  0.9357
  Li  Li16  1  0.837200  0.981800  0.482900  1.0  0.9287
  H  H17  1  0.031800  0.586400  0.935400  1.0  0.4489
  H  H18  1  0.162200  0.521900  0.948300  1.0  0.3128
  H  H19  1  0.531800  0.913600  0.064600  1.0  0.4485
  H  H20  1  0.662200  0.978100  0.051700  1.0  0.3106
  H  H21  1  0.968200  0.413600  0.435400  1.0  0.4492
  H  H22  1  0.837800  0.478100  0.448300  1.0  0.3121
  H  H23  1  0.468200  0.086400  0.564600  1.0  0.4488
  H  H24  1  0.337800  0.021900  0.551700  1.0  0.3114
  H  H25  1  0.968200  0.413600  0.064600  1.0  0.4491
  H  H26  1  0.837800  0.478100  0.051700  1.0  0.3114
  H  H27  1  0.468200  0.086400  0.935400  1.0  0.4488
  H  H28  1  0.337800  0.021900  0.948300  1.0  0.3131
  H  H29  1  0.031800  0.586400  0.564600  1.0  0.4485
  H  H30  1  0.162200  0.521900  0.551700  1.0  0.3113
  H  H31  1  0.531800  0.913600  0.435400  1.0  0.4489
  H  H32  1  0.662200  0.978100  0.448300  1.0  0.3118
  H  H33  1  0.712000  0.718500  0.750000  1.0  0.0908
  H  H34  1  0.486200  0.400300  0.750000  1.0  0.1237
  H  H35  1  0.212000  0.781500  0.250000  1.0  0.0916
  H  H36  1  0.986200  0.099700  0.250000  1.0  0.1229
  H  H37  1  0.288000  0.281500  0.250000  1.0  0.0912
  H  H38  1  0.513800  0.599700  0.250000  1.0  0.1226
  H  H39  1  0.788000  0.218500  0.750000  1.0  0.0907
  H  H40  1  0.013800  0.900300  0.750000  1.0  0.1235
  C  C41  1  0.631300  0.607990  0.826880  1.0  -0.4901
  C  C42  1  0.561900  0.510310  0.829240  1.0  0.5943
  C  C43  1  0.131300  0.892010  0.173120  1.0  -0.4918
  C  C44  1  0.061900  0.989690  0.170760  1.0  0.5969
  C  C45  1  0.368700  0.392010  0.326880  1.0  -0.4905
  C  C46  1  0.438100  0.489690  0.329240  1.0  0.5923
  C  C47  1  0.868700  0.107990  0.673120  1.0  -0.4913
  C  C48  1  0.938100  0.010310  0.670760  1.0  0.5973
  C  C49  1  0.368700  0.392010  0.173120  1.0  -0.4919
  C  C50  1  0.438100  0.489690  0.170760  1.0  0.5962
  C  C51  1  0.868700  0.107990  0.826880  1.0  -0.49
  C  C52  1  0.938100  0.010310  0.829240  1.0  0.5936
  C  C53  1  0.631300  0.607990  0.673120  1.0  -0.4914
  C  C54  1  0.561900  0.510310  0.670760  1.0  0.5981
  C  C55  1  0.131300  0.892010  0.326880  1.0  -0.4904
  C  C56  1  0.061900  0.989690  0.329240  1.0  0.5929
  C  C57  1  0.665700  0.654890  0.750000  1.0  0.1108
  C  C58  1  0.530300  0.464400  0.750000  1.0  -0.3999
  C  C59  1  0.165700  0.845110  0.250000  1.0  0.1093
  C  C60  1  0.030300  0.035600  0.250000  1.0  -0.4055
  C  C61  1  0.334300  0.345110  0.250000  1.0  0.1077
  C  C62  1  0.469700  0.535600  0.250000  1.0  -0.386
  C  C63  1  0.834300  0.154890  0.750000  1.0  0.1095
  C  C64  1  0.969700  0.964400  0.750000  1.0  -0.3815
  S  S65  1  0.668000  0.670300  0.922370  1.0  1.5159
  S  S66  1  0.168000  0.829700  0.077630  1.0  1.5165
  S  S67  1  0.332000  0.329700  0.422370  1.0  1.5162
  S  S68  1  0.832000  0.170300  0.577630  1.0  1.5162
  S  S69  1  0.332000  0.329700  0.077630  1.0  1.5163
  S  S70  1  0.832000  0.170300  0.922370  1.0  1.5158
  S  S71  1  0.668000  0.670300  0.577630  1.0  1.5163
  S  S72  1  0.168000  0.829700  0.422370  1.0  1.5164
  O  O73  1  0.495720  0.681700  0.964360  1.0  -0.8115
  O  O74  1  0.745360  0.765540  0.899300  1.0  -0.7693
  O  O75  1  0.133700  0.571690  0.921820  1.0  -0.809
  O  O76  1  0.787090  0.610520  0.975600  1.0  -0.7898
  O  O77  1  0.528350  0.466240  0.903330  1.0  -1.0354
  O  O78  1  0.995720  0.818300  0.035640  1.0  -0.8114
  O  O79  1  0.245360  0.734460  0.100700  1.0  -0.7686
  O  O80  1  0.633700  0.928310  0.078180  1.0  -0.8075
  O  O81  1  0.287090  0.889480  0.024400  1.0  -0.7891
  O  O82  1  0.028350  0.033760  0.096670  1.0  -1.0359
  O  O83  1  0.504280  0.318300  0.464360  1.0  -0.8106
  O  O84  1  0.254640  0.234460  0.399300  1.0  -0.7686
  O  O85  1  0.866300  0.428310  0.421820  1.0  -0.8081
  O  O86  1  0.212910  0.389480  0.475600  1.0  -0.7884
  O  O87  1  0.471650  0.533760  0.403330  1.0  -1.0336
  O  O88  1  0.004280  0.181700  0.535640  1.0  -0.8108
  O  O89  1  0.754640  0.265540  0.600700  1.0  -0.7686
  O  O90  1  0.366300  0.071690  0.578180  1.0  -0.8075
  O  O91  1  0.712910  0.110520  0.524400  1.0  -0.7886
  O  O92  1  0.971650  0.966240  0.596670  1.0  -1.0342
  O  O93  1  0.504280  0.318300  0.035640  1.0  -0.8103
  O  O94  1  0.254640  0.234460  0.100700  1.0  -0.7689
  O  O95  1  0.866300  0.428310  0.078180  1.0  -0.8074
  O  O96  1  0.212910  0.389480  0.024400  1.0  -0.7885
  O  O97  1  0.471650  0.533760  0.096670  1.0  -1.0341
  O  O98  1  0.004280  0.181700  0.964360  1.0  -0.8107
  O  O99  1  0.754640  0.265540  0.899300  1.0  -0.7686
  O  O100  1  0.366300  0.071690  0.921820  1.0  -0.8078
  O  O101  1  0.712910  0.110520  0.975600  1.0  -0.789
  O  O102  1  0.971650  0.966240  0.903330  1.0  -1.0341
  O  O103  1  0.495720  0.681700  0.535640  1.0  -0.8114
  O  O104  1  0.745360  0.765540  0.600700  1.0  -0.7695
  O  O105  1  0.133700  0.571690  0.578180  1.0  -0.8079
  O  O106  1  0.787090  0.610520  0.524400  1.0  -0.7896
  O  O107  1  0.528350  0.466240  0.596670  1.0  -1.0357
  O  O108  1  0.995720  0.818300  0.464360  1.0  -0.8116
  O  O109  1  0.245360  0.734460  0.399300  1.0  -0.7683
  O  O110  1  0.633700  0.928310  0.421820  1.0  -0.8084
  O  O111  1  0.287090  0.889480  0.475600  1.0  -0.7887
  O  O112  1  0.028350  0.033760  0.403330  1.0  -1.035
