# generated using pymatgen
data_Co2H7C15NO10
_symmetry_space_group_name_H-M   'P 1'
_cell_length_a   7.83000000
_cell_length_b   10.91200000
_cell_length_c   12.49800000
_cell_angle_alpha   106.54400000
_cell_angle_beta   96.59600000
_cell_angle_gamma   99.56200000
_symmetry_Int_Tables_number   1
_chemical_formula_structural   Co2H7C15NO10
_chemical_formula_sum   'Co4 H14 C30 N2 O20'
_cell_volume   994.44677501
_cell_formula_units_Z   2
loop_
 _symmetry_equiv_pos_site_id
 _symmetry_equiv_pos_as_xyz
  1  'x, y, z'
loop_
 _atom_site_type_symbol
 _atom_site_label
 _atom_site_symmetry_multiplicity
 _atom_site_fract_x
 _atom_site_fract_y
 _atom_site_fract_z
 _atom_site_occupancy
 _atom_site_charge
  Co  Co1  1  0.862150  0.518500  0.401730  1.0  1.0482
  Co  Co2  1  0.515960  0.365570  0.520340  1.0  1.0567
  Co  Co3  1  0.137850  0.481500  0.598270  1.0  1.049
  Co  Co4  1  0.484040  0.634430  0.479660  1.0  1.0575
  H  H5  1  0.741000  0.574200  0.575800  1.0  0.4123
  H  H6  1  0.713700  0.016000  0.461900  1.0  0.1221
  H  H7  1  0.016600  0.817200  0.268700  1.0  0.1479
  H  H8  1  0.068400  0.203500  0.322000  1.0  0.1376
  H  H9  1  0.407900  0.772800  0.941200  1.0  0.1155
  H  H10  1  0.885900  0.729700  0.898300  1.0  0.1214
  H  H11  1  0.907100  0.882400  0.073000  1.0  0.1149
  H  H12  1  0.259000  0.425800  0.424200  1.0  0.4134
  H  H13  1  0.286300  0.984000  0.538100  1.0  0.1218
  H  H14  1  0.983400  0.182800  0.731300  1.0  0.149
  H  H15  1  0.931600  0.796500  0.678000  1.0  0.1375
  H  H16  1  0.592100  0.227200  0.058800  1.0  0.1142
  H  H17  1  0.114100  0.270300  0.101700  1.0  0.1207
  H  H18  1  0.092900  0.117600  0.927000  1.0  0.1149
  C  C19  1  0.886000  0.130600  0.403200  1.0  -0.1301
  C  C20  1  0.802300  0.014700  0.418300  1.0  0.0271
  C  C21  1  0.850900  0.897900  0.368700  1.0  -0.1209
  C  C22  1  0.981100  0.894800  0.300800  1.0  -0.106
  C  C23  1  0.055700  0.008800  0.282100  1.0  0.2448
  C  C24  1  0.013000  0.127300  0.333700  1.0  -0.1058
  C  C25  1  0.836900  0.257100  0.460100  1.0  0.6831
  C  C26  1  0.772000  0.773000  0.391100  1.0  0.7035
  C  C27  1  0.171400  0.920900  0.114500  1.0  0.2579
  C  C28  1  0.321900  0.887500  0.071900  1.0  -0.0347
  C  C29  1  0.307000  0.794500  0.967400  1.0  -0.034
  C  C30  1  0.145100  0.734000  0.901800  1.0  -0.1379
  C  C31  1  0.996100  0.768800  0.942400  1.0  -0.0183
  C  C32  1  0.008500  0.860900  0.047500  1.0  -0.194
  C  C33  1  0.135200  0.634300  0.789400  1.0  0.6702
  C  C34  1  0.114000  0.869400  0.596800  1.0  -0.1308
  C  C35  1  0.197700  0.985300  0.581700  1.0  0.0263
  C  C36  1  0.149100  0.102100  0.631300  1.0  -0.1183
  C  C37  1  0.018900  0.105200  0.699200  1.0  -0.1042
  C  C38  1  0.944300  0.991200  0.717900  1.0  0.2445
  C  C39  1  0.987000  0.872700  0.666300  1.0  -0.1062
  C  C40  1  0.163100  0.742900  0.539900  1.0  0.6835
  C  C41  1  0.228000  0.227000  0.608900  1.0  0.7049
  C  C42  1  0.828600  0.079100  0.885500  1.0  0.2572
  C  C43  1  0.678100  0.112500  0.928100  1.0  -0.0351
  C  C44  1  0.693000  0.205500  0.032600  1.0  -0.0341
  C  C45  1  0.854900  0.266000  0.098200  1.0  -0.1374
  C  C46  1  0.003900  0.231200  0.057600  1.0  -0.0196
  C  C47  1  0.991500  0.139100  0.952500  1.0  -0.1965
  C  C48  1  0.864800  0.365700  0.210600  1.0  0.6686
  N  N49  1  0.500100  0.946100  0.134800  1.0  0.6129
  N  N50  1  0.499900  0.053900  0.865200  1.0  0.6127
  O  O51  1  0.938700  0.363600  0.460700  1.0  -0.6501
  O  O52  1  0.702100  0.252900  0.502800  1.0  -0.6079
  O  O53  1  0.653100  0.779000  0.450100  1.0  -0.5961
  O  O54  1  0.834400  0.674300  0.349000  1.0  -0.5949
  O  O55  1  0.531600  0.053600  0.202800  1.0  -0.3818
  O  O56  1  0.615000  0.888500  0.111300  1.0  -0.4776
  O  O57  1  0.277400  0.622600  0.750900  1.0  -0.5696
  O  O58  1  0.990500  0.562500  0.734200  1.0  -0.5488
  O  O59  1  0.192600  0.012200  0.218200  1.0  -0.2628
  O  O60  1  0.675300  0.527000  0.499400  1.0  -0.9065
  O  O61  1  0.061300  0.636400  0.539300  1.0  -0.6495
  O  O62  1  0.297900  0.747100  0.497200  1.0  -0.6083
  O  O63  1  0.346900  0.221000  0.549900  1.0  -0.5969
  O  O64  1  0.165600  0.325700  0.651000  1.0  -0.5944
  O  O65  1  0.468400  0.946400  0.797200  1.0  -0.3809
  O  O66  1  0.385000  0.111500  0.888700  1.0  -0.4753
  O  O67  1  0.722600  0.377400  0.249100  1.0  -0.5683
  O  O68  1  0.009500  0.437500  0.265800  1.0  -0.5482
  O  O69  1  0.807400  0.987800  0.781800  1.0  -0.2637
  O  O70  1  0.324700  0.473000  0.500600  1.0  -0.9061
