# generated using pymatgen
data_Ag5H40(C7N6)4
_symmetry_space_group_name_H-M   'P 1'
_cell_length_a   13.11900000
_cell_length_b   22.80900000
_cell_length_c   11.84000000
_cell_angle_alpha   90.00000000
_cell_angle_beta   91.94600000
_cell_angle_gamma   90.00000000
_symmetry_Int_Tables_number   1
_chemical_formula_structural   Ag5H40(C7N6)4
_chemical_formula_sum   'Ag10 H80 C56 N48'
_cell_volume   3540.85497119
_cell_formula_units_Z   2
loop_
 _symmetry_equiv_pos_site_id
 _symmetry_equiv_pos_as_xyz
  1  'x, y, z'
loop_
 _atom_site_type_symbol
 _atom_site_label
 _atom_site_symmetry_multiplicity
 _atom_site_fract_x
 _atom_site_fract_y
 _atom_site_fract_z
 _atom_site_occupancy
 _atom_site_charge
  Ag  Ag1  1  0.240280  0.213300  0.275070  1.0  0.2396
  Ag  Ag2  1  0.883290  0.201690  0.609740  1.0  0.2824
  Ag  Ag3  1  0.759720  0.786700  0.724930  1.0  0.2424
  Ag  Ag4  1  0.116710  0.798310  0.390260  1.0  0.2801
  Ag  Ag5  1  0.500000  0.000000  0.000000  1.0  0.2557
  Ag  Ag6  1  0.759720  0.713300  0.224930  1.0  0.2414
  Ag  Ag7  1  0.116710  0.701690  0.890260  1.0  0.2807
  Ag  Ag8  1  0.240280  0.286700  0.775070  1.0  0.2404
  Ag  Ag9  1  0.883290  0.298310  0.109740  1.0  0.2829
  Ag  Ag10  1  0.500000  0.500000  0.500000  1.0  0.2557
  H  H11  1  0.621200  0.056700  0.782800  1.0  0.0658
  H  H12  1  0.335000  0.014400  0.792300  1.0  0.0704
  H  H13  1  0.398600  0.021600  0.496200  1.0  0.0455
  H  H14  1  0.307300  0.999600  0.568300  1.0  0.0473
  H  H15  1  0.267500  0.099100  0.603100  1.0  0.0492
  H  H16  1  0.349700  0.116700  0.516200  1.0  0.0386
  H  H17  1  0.048800  0.243500  0.428600  1.0  0.037
  H  H18  1  0.715500  0.368100  0.970100  1.0  0.0497
  H  H19  1  0.675100  0.383000  0.847300  1.0  0.0502
  H  H20  1  0.537600  0.315600  0.871300  1.0  0.0488
  H  H21  1  0.533200  0.368900  0.954500  1.0  0.0527
  H  H22  1  0.190800  0.041600  0.439800  1.0  0.0432
  H  H23  1  0.253400  0.085100  0.366300  1.0  0.0656
  H  H24  1  0.715200  0.303700  0.692000  1.0  0.0604
  H  H25  1  0.874300  0.200700  0.885000  1.0  0.0436
  H  H26  1  0.036200  0.085000  0.542900  1.0  0.0617
  H  H27  1  0.600500  0.313700  0.099000  1.0  0.0602
  H  H28  1  0.618600  0.261100  0.017300  1.0  0.0611
  H  H29  1  0.455800  0.281800  0.226900  1.0  0.0547
  H  H30  1  0.287300  0.201800  0.006200  1.0  0.0358
  H  H31  1  0.378800  0.943300  0.217200  1.0  0.0669
  H  H32  1  0.665000  0.985600  0.207700  1.0  0.0686
  H  H33  1  0.601400  0.978400  0.503800  1.0  0.0458
  H  H34  1  0.692700  0.000400  0.431700  1.0  0.0459
  H  H35  1  0.732500  0.900900  0.396900  1.0  0.0509
  H  H36  1  0.650300  0.883300  0.483800  1.0  0.0398
  H  H37  1  0.951200  0.756500  0.571400  1.0  0.0372
  H  H38  1  0.284500  0.631900  0.029900  1.0  0.0505
  H  H39  1  0.324900  0.617000  0.152700  1.0  0.0511
  H  H40  1  0.462400  0.684400  0.128700  1.0  0.0492
  H  H41  1  0.466800  0.631100  0.045500  1.0  0.053
  H  H42  1  0.809200  0.958400  0.560200  1.0  0.0416
  H  H43  1  0.746600  0.914900  0.633700  1.0  0.0662
  H  H44  1  0.284800  0.696300  0.308000  1.0  0.0603
  H  H45  1  0.125700  0.799300  0.115000  1.0  0.0436
  H  H46  1  0.963800  0.915000  0.457100  1.0  0.0614
  H  H47  1  0.399500  0.686300  0.901000  1.0  0.0605
  H  H48  1  0.381400  0.738900  0.982700  1.0  0.0614
  H  H49  1  0.544200  0.718200  0.773100  1.0  0.0547
  H  H50  1  0.712700  0.798200  0.993800  1.0  0.0364
  H  H51  1  0.378800  0.556700  0.717200  1.0  0.0664
  H  H52  1  0.665000  0.514400  0.707700  1.0  0.0682
  H  H53  1  0.601400  0.521600  0.003800  1.0  0.0456
  H  H54  1  0.692700  0.499600  0.931700  1.0  0.0468
  H  H55  1  0.732500  0.599100  0.896900  1.0  0.0511
  H  H56  1  0.650300  0.616700  0.983800  1.0  0.0393
  H  H57  1  0.951200  0.743500  0.071400  1.0  0.0374
  H  H58  1  0.284500  0.868100  0.529900  1.0  0.0503
  H  H59  1  0.324900  0.883000  0.652700  1.0  0.0502
  H  H60  1  0.462400  0.815600  0.628700  1.0  0.0493
  H  H61  1  0.466800  0.868900  0.545500  1.0  0.0491
  H  H62  1  0.809200  0.541600  0.060200  1.0  0.0424
  H  H63  1  0.746600  0.585100  0.133700  1.0  0.0658
  H  H64  1  0.284800  0.803700  0.808000  1.0  0.0593
  H  H65  1  0.125700  0.700700  0.615000  1.0  0.0439
  H  H66  1  0.963800  0.585000  0.957100  1.0  0.0609
  H  H67  1  0.399500  0.813700  0.401000  1.0  0.0602
  H  H68  1  0.381400  0.761100  0.482700  1.0  0.0605
  H  H69  1  0.544200  0.781800  0.273100  1.0  0.0542
  H  H70  1  0.712700  0.701800  0.493800  1.0  0.0363
  H  H71  1  0.621200  0.443300  0.282800  1.0  0.0663
  H  H72  1  0.335000  0.485600  0.292300  1.0  0.0701
  H  H73  1  0.398600  0.478400  0.996200  1.0  0.0454
  H  H74  1  0.307300  0.500400  0.068300  1.0  0.046
  H  H75  1  0.267500  0.400900  0.103100  1.0  0.05
  H  H76  1  0.349700  0.383300  0.016200  1.0  0.0388
  H  H77  1  0.048800  0.256500  0.928600  1.0  0.0365
  H  H78  1  0.715500  0.131900  0.470100  1.0  0.0494
  H  H79  1  0.675100  0.117000  0.347300  1.0  0.0496
  H  H80  1  0.537600  0.184400  0.371300  1.0  0.0487
  H  H81  1  0.533200  0.131100  0.454500  1.0  0.049
  H  H82  1  0.190800  0.458400  0.939800  1.0  0.0443
  H  H83  1  0.253400  0.414900  0.866300  1.0  0.0654
  H  H84  1  0.715200  0.196300  0.192000  1.0  0.0594
  H  H85  1  0.874300  0.299300  0.385000  1.0  0.0437
  H  H86  1  0.036200  0.415000  0.042900  1.0  0.0611
  H  H87  1  0.600500  0.186300  0.599000  1.0  0.0606
  H  H88  1  0.618600  0.238900  0.517300  1.0  0.0611
  H  H89  1  0.455800  0.218200  0.726900  1.0  0.0552
  H  H90  1  0.287300  0.298200  0.506200  1.0  0.0362
  C  C91  1  0.553500  0.049600  0.761200  1.0  0.2491
  C  C92  1  0.397700  0.026600  0.766400  1.0  0.0699
  C  C93  1  0.355100  0.031400  0.558000  1.0  -0.0059
  C  C94  1  0.300900  0.086600  0.535400  1.0  -0.1402
  C  C95  1  0.066500  0.204800  0.444900  1.0  0.1972
  C  C96  1  0.679700  0.352300  0.903900  1.0  -0.034
  C  C97  1  0.571700  0.334200  0.935800  1.0  -0.1161
  C  C98  1  0.220800  0.080400  0.438000  1.0  -0.0579
  C  C99  1  0.745700  0.285700  0.755100  1.0  0.0813
  C  C100  1  0.830500  0.230400  0.860300  1.0  0.2102
  C  C101  1  0.057500  0.119000  0.507100  1.0  0.0598
  C  C102  1  0.572600  0.293200  0.033100  1.0  -0.0417
  C  C103  1  0.430100  0.265800  0.159500  1.0  0.1166
  C  C104  1  0.341200  0.222900  0.039200  1.0  0.2467
  C  C105  1  0.446500  0.950400  0.238800  1.0  0.2488
  C  C106  1  0.602300  0.973400  0.233600  1.0  0.0706
  C  C107  1  0.644900  0.968600  0.442000  1.0  -0.0052
  C  C108  1  0.699100  0.913400  0.464600  1.0  -0.1411
  C  C109  1  0.933500  0.795200  0.555100  1.0  0.1988
  C  C110  1  0.320300  0.647700  0.096100  1.0  -0.0344
  C  C111  1  0.428300  0.665800  0.064200  1.0  -0.1166
  C  C112  1  0.779200  0.919600  0.562000  1.0  -0.0581
  C  C113  1  0.254300  0.714300  0.244900  1.0  0.0826
  C  C114  1  0.169500  0.769600  0.139700  1.0  0.2104
  C  C115  1  0.942500  0.881000  0.492900  1.0  0.0632
  C  C116  1  0.427400  0.706800  0.966900  1.0  -0.0414
  C  C117  1  0.569900  0.734200  0.840500  1.0  0.1171
  C  C118  1  0.658800  0.777100  0.960800  1.0  0.2462
  C  C119  1  0.446500  0.549600  0.738800  1.0  0.2487
  C  C120  1  0.602300  0.526600  0.733600  1.0  0.0718
  C  C121  1  0.644900  0.531400  0.942000  1.0  -0.0053
  C  C122  1  0.699100  0.586600  0.964600  1.0  -0.1403
  C  C123  1  0.933500  0.704800  0.055100  1.0  0.1983
  C  C124  1  0.320300  0.852300  0.596100  1.0  -0.035
  C  C125  1  0.428300  0.834200  0.564200  1.0  -0.1168
  C  C126  1  0.779200  0.580400  0.062000  1.0  -0.058
  C  C127  1  0.254300  0.785700  0.744900  1.0  0.0821
  C  C128  1  0.169500  0.730400  0.639700  1.0  0.2109
  C  C129  1  0.942500  0.619000  0.992900  1.0  0.063
  C  C130  1  0.427400  0.793200  0.466900  1.0  -0.0425
  C  C131  1  0.569900  0.765800  0.340500  1.0  0.117
  C  C132  1  0.658800  0.722900  0.460800  1.0  0.2453
  C  C133  1  0.553500  0.450400  0.261200  1.0  0.2492
  C  C134  1  0.397700  0.473400  0.266400  1.0  0.0689
  C  C135  1  0.355100  0.468600  0.058000  1.0  -0.0052
  C  C136  1  0.300900  0.413400  0.035400  1.0  -0.1415
  C  C137  1  0.066500  0.295200  0.944900  1.0  0.1981
  C  C138  1  0.679700  0.147700  0.403900  1.0  -0.0339
  C  C139  1  0.571700  0.165800  0.435800  1.0  -0.116
  C  C140  1  0.220800  0.419600  0.938000  1.0  -0.0581
  C  C141  1  0.745700  0.214300  0.255100  1.0  0.0822
  C  C142  1  0.830500  0.269600  0.360300  1.0  0.2102
  C  C143  1  0.057500  0.381000  0.007100  1.0  0.0595
  C  C144  1  0.572600  0.206800  0.533100  1.0  -0.0409
  C  C145  1  0.430100  0.234200  0.659500  1.0  0.1164
  C  C146  1  0.341200  0.277100  0.539200  1.0  0.2468
  N  N147  1  0.149500  0.180400  0.408800  1.0  -0.3734
  N  N148  1  0.790400  0.268000  0.929800  1.0  -0.3938
  N  N149  1  0.803900  0.237900  0.752400  1.0  -0.4221
  N  N150  1  0.737500  0.304100  0.860600  1.0  0.1357
  N  N151  1  0.141600  0.124100  0.447900  1.0  0.1574
  N  N152  1  0.009400  0.169800  0.506800  1.0  -0.3968
  N  N153  1  0.512900  0.056300  0.659800  1.0  -0.2646
  N  N154  1  0.416600  0.042000  0.663000  1.0  0.108
  N  N155  1  0.482300  0.031300  0.827200  1.0  -0.3338
  N  N156  1  0.475900  0.268900  0.061100  1.0  0.1239
  N  N157  1  0.419300  0.240500  0.980700  1.0  -0.4298
  N  N158  1  0.344100  0.237200  0.148600  1.0  -0.4399
  N  N159  1  0.850500  0.819600  0.591200  1.0  -0.3704
  N  N160  1  0.209600  0.732000  0.070200  1.0  -0.3906
  N  N161  1  0.196100  0.762100  0.247600  1.0  -0.424
  N  N162  1  0.262500  0.695900  0.139400  1.0  0.1362
  N  N163  1  0.858400  0.875900  0.552100  1.0  0.1572
  N  N164  1  0.990600  0.830200  0.493200  1.0  -0.3991
  N  N165  1  0.487100  0.943700  0.340200  1.0  -0.2666
  N  N166  1  0.583400  0.958000  0.337000  1.0  0.1095
  N  N167  1  0.517700  0.968700  0.172800  1.0  -0.3304
  N  N168  1  0.524100  0.731100  0.938900  1.0  0.1244
  N  N169  1  0.580700  0.759500  0.019300  1.0  -0.4316
  N  N170  1  0.655900  0.762800  0.851400  1.0  -0.4412
  N  N171  1  0.850500  0.680400  0.091200  1.0  -0.3704
  N  N172  1  0.209600  0.768000  0.570200  1.0  -0.391
  N  N173  1  0.196100  0.737900  0.747600  1.0  -0.424
  N  N174  1  0.262500  0.804100  0.639400  1.0  0.1361
  N  N175  1  0.858400  0.624100  0.052100  1.0  0.1572
  N  N176  1  0.990600  0.669800  0.993200  1.0  -0.3985
  N  N177  1  0.487100  0.556300  0.840200  1.0  -0.2663
  N  N178  1  0.583400  0.542000  0.837000  1.0  0.1106
  N  N179  1  0.517700  0.531300  0.672800  1.0  -0.3316
  N  N180  1  0.524100  0.768900  0.438900  1.0  0.124
  N  N181  1  0.580700  0.740500  0.519300  1.0  -0.4323
  N  N182  1  0.655900  0.737200  0.351400  1.0  -0.4407
  N  N183  1  0.149500  0.319600  0.908800  1.0  -0.3737
  N  N184  1  0.790400  0.232000  0.429800  1.0  -0.3931
  N  N185  1  0.803900  0.262100  0.252400  1.0  -0.4223
  N  N186  1  0.737500  0.195900  0.360600  1.0  0.1357
  N  N187  1  0.141600  0.375900  0.947900  1.0  0.1568
  N  N188  1  0.009400  0.330200  0.006800  1.0  -0.3971
  N  N189  1  0.512900  0.443700  0.159800  1.0  -0.2644
  N  N190  1  0.416600  0.458000  0.163000  1.0  0.1085
  N  N191  1  0.482300  0.468700  0.327200  1.0  -0.3339
  N  N192  1  0.475900  0.231100  0.561100  1.0  0.124
  N  N193  1  0.419300  0.259500  0.480700  1.0  -0.4325
  N  N194  1  0.344100  0.262800  0.648600  1.0  -0.4375
