# generated using pymatgen
data_Ag5H40(C7N6)4
_symmetry_space_group_name_H-M   'P 1'
_cell_length_a   13.05600000
_cell_length_b   22.96400000
_cell_length_c   11.80800000
_cell_angle_alpha   90.00000000
_cell_angle_beta   91.94100000
_cell_angle_gamma   90.00000000
_symmetry_Int_Tables_number   1
_chemical_formula_structural   Ag5H40(C7N6)4
_chemical_formula_sum   'Ag10 H80 C56 N48'
_cell_volume   3538.21948205
_cell_formula_units_Z   2
loop_
 _symmetry_equiv_pos_site_id
 _symmetry_equiv_pos_as_xyz
  1  'x, y, z'
loop_
 _atom_site_type_symbol
 _atom_site_label
 _atom_site_symmetry_multiplicity
 _atom_site_fract_x
 _atom_site_fract_y
 _atom_site_fract_z
 _atom_site_occupancy
 _atom_site_charge
  Ag  Ag1  1  0.883220  0.298920  0.609870  1.0  0.2847
  Ag  Ag2  1  0.240340  0.288600  0.273070  1.0  0.2472
  Ag  Ag3  1  0.116780  0.701080  0.390130  1.0  0.2843
  Ag  Ag4  1  0.759660  0.711400  0.726930  1.0  0.2483
  Ag  Ag5  1  0.500000  0.500000  0.000000  1.0  0.3311
  Ag  Ag6  1  0.116780  0.798920  0.890130  1.0  0.2856
  Ag  Ag7  1  0.759660  0.788600  0.226930  1.0  0.249
  Ag  Ag8  1  0.883220  0.201080  0.109870  1.0  0.2855
  Ag  Ag9  1  0.240340  0.211400  0.773070  1.0  0.2466
  Ag  Ag10  1  0.500000  0.000000  0.500000  1.0  0.3311
  H  H11  1  0.191800  0.458800  0.437100  1.0  0.0461
  H  H12  1  0.256500  0.415200  0.365800  1.0  0.0606
  H  H13  1  0.263700  0.402600  0.603600  1.0  0.0441
  H  H14  1  0.348100  0.383400  0.519800  1.0  0.0232
  H  H15  1  0.387200  0.559700  0.221400  1.0  0.0495
  H  H16  1  0.692400  0.500900  0.430800  1.0  0.0414
  H  H17  1  0.600700  0.523800  0.501900  1.0  0.0424
  H  H18  1  0.036500  0.413700  0.544200  1.0  0.0615
  H  H19  1  0.664300  0.513900  0.208500  1.0  0.0522
  H  H20  1  0.054300  0.256700  0.427000  1.0  0.0433
  H  H21  1  0.868400  0.299000  0.888000  1.0  0.0407
  H  H22  1  0.716800  0.195000  0.691200  1.0  0.0487
  H  H23  1  0.671200  0.116000  0.840200  1.0  0.0619
  H  H24  1  0.714400  0.128100  0.963500  1.0  0.0555
  H  H25  1  0.533200  0.129100  0.958100  1.0  0.0536
  H  H26  1  0.533400  0.180400  0.870400  1.0  0.0517
  H  H27  1  0.605500  0.186900  0.094600  1.0  0.0557
  H  H28  1  0.618800  0.237600  0.007700  1.0  0.0617
  H  H29  1  0.280500  0.299800  0.004000  1.0  0.0715
  H  H30  1  0.455400  0.215800  0.225500  1.0  0.0776
  H  H31  1  0.808200  0.541200  0.562900  1.0  0.0445
  H  H32  1  0.743500  0.584800  0.634200  1.0  0.0605
  H  H33  1  0.736300  0.597400  0.396400  1.0  0.0453
  H  H34  1  0.651900  0.616600  0.480200  1.0  0.023
  H  H35  1  0.612800  0.440300  0.778600  1.0  0.0506
  H  H36  1  0.307600  0.499100  0.569200  1.0  0.0404
  H  H37  1  0.399300  0.476200  0.498100  1.0  0.0411
  H  H38  1  0.963500  0.586300  0.455800  1.0  0.0606
  H  H39  1  0.335700  0.486100  0.791500  1.0  0.0532
  H  H40  1  0.945700  0.743300  0.573000  1.0  0.0433
  H  H41  1  0.131600  0.701000  0.112000  1.0  0.0404
  H  H42  1  0.283200  0.805000  0.308800  1.0  0.0486
  H  H43  1  0.328800  0.884000  0.159800  1.0  0.0618
  H  H44  1  0.285600  0.871900  0.036500  1.0  0.0567
  H  H45  1  0.466800  0.870900  0.041900  1.0  0.053
  H  H46  1  0.466600  0.819600  0.129600  1.0  0.0527
  H  H47  1  0.394500  0.813100  0.905400  1.0  0.0554
  H  H48  1  0.381200  0.762400  0.992300  1.0  0.0639
  H  H49  1  0.719500  0.700200  0.996000  1.0  0.0714
  H  H50  1  0.544600  0.784200  0.774500  1.0  0.0766
  H  H51  1  0.808200  0.958800  0.062900  1.0  0.0436
  H  H52  1  0.743500  0.915200  0.134200  1.0  0.0608
  H  H53  1  0.736300  0.902600  0.896400  1.0  0.0448
  H  H54  1  0.651900  0.883400  0.980200  1.0  0.0235
  H  H55  1  0.612800  0.059700  0.278600  1.0  0.0506
  H  H56  1  0.307600  0.000900  0.069200  1.0  0.0419
  H  H57  1  0.399300  0.023800  0.998100  1.0  0.0414
  H  H58  1  0.963500  0.913700  0.955800  1.0  0.0613
  H  H59  1  0.335700  0.013900  0.291500  1.0  0.0534
  H  H60  1  0.945700  0.756700  0.073000  1.0  0.0431
  H  H61  1  0.131600  0.799000  0.612000  1.0  0.0415
  H  H62  1  0.283200  0.695000  0.808800  1.0  0.0487
  H  H63  1  0.328800  0.616000  0.659800  1.0  0.0626
  H  H64  1  0.285600  0.628100  0.536500  1.0  0.0572
  H  H65  1  0.466800  0.629100  0.541900  1.0  0.054
  H  H66  1  0.466600  0.680400  0.629600  1.0  0.0523
  H  H67  1  0.394500  0.686900  0.405400  1.0  0.0558
  H  H68  1  0.381200  0.737600  0.492300  1.0  0.0622
  H  H69  1  0.719500  0.799800  0.496000  1.0  0.0712
  H  H70  1  0.544600  0.715800  0.274500  1.0  0.0769
  H  H71  1  0.191800  0.041200  0.937100  1.0  0.045
  H  H72  1  0.256500  0.084800  0.865800  1.0  0.0607
  H  H73  1  0.263700  0.097400  0.103600  1.0  0.0439
  H  H74  1  0.348100  0.116600  0.019800  1.0  0.0228
  H  H75  1  0.387200  0.940300  0.721400  1.0  0.0496
  H  H76  1  0.692400  0.999100  0.930800  1.0  0.0406
  H  H77  1  0.600700  0.976200  0.001900  1.0  0.0424
  H  H78  1  0.036500  0.086300  0.044200  1.0  0.062
  H  H79  1  0.664300  0.986100  0.708500  1.0  0.0523
  H  H80  1  0.054300  0.243300  0.927000  1.0  0.0428
  H  H81  1  0.868400  0.201000  0.388000  1.0  0.0407
  H  H82  1  0.716800  0.305000  0.191200  1.0  0.0483
  H  H83  1  0.671200  0.384000  0.340200  1.0  0.0623
  H  H84  1  0.714400  0.371900  0.463500  1.0  0.0559
  H  H85  1  0.533200  0.370900  0.458100  1.0  0.0534
  H  H86  1  0.533400  0.319600  0.370400  1.0  0.0517
  H  H87  1  0.605500  0.313100  0.594600  1.0  0.0557
  H  H88  1  0.618800  0.262400  0.507700  1.0  0.0622
  H  H89  1  0.280500  0.200200  0.504000  1.0  0.0703
  H  H90  1  0.455400  0.284200  0.725500  1.0  0.0772
  C  C91  1  0.222300  0.420300  0.436700  1.0  -0.0583
  C  C92  1  0.299700  0.414000  0.536600  1.0  -0.1284
  C  C93  1  0.545700  0.449600  0.756000  1.0  0.2103
  C  C94  1  0.354800  0.467000  0.559900  1.0  0.0044
  C  C95  1  0.057600  0.380100  0.507400  1.0  0.0634
  C  C96  1  0.600800  0.526300  0.232400  1.0  0.1017
  C  C97  1  0.069100  0.295600  0.442800  1.0  0.195
  C  C98  1  0.827600  0.268100  0.862400  1.0  0.2253
  C  C99  1  0.746800  0.212800  0.754900  1.0  0.0932
  C  C100  1  0.430100  0.232100  0.158100  1.0  0.0921
  C  C101  1  0.322400  0.854700  0.100800  1.0  -0.0671
  C  C102  1  0.429500  0.836600  0.065100  1.0  -0.1143
  C  C103  1  0.425500  0.794400  0.971800  1.0  -0.0471
  C  C104  1  0.665900  0.721800  0.963400  1.0  0.2433
  C  C105  1  0.777700  0.579700  0.563300  1.0  -0.0582
  C  C106  1  0.700300  0.586000  0.463400  1.0  -0.1285
  C  C107  1  0.454300  0.550400  0.244000  1.0  0.2109
  C  C108  1  0.645200  0.533000  0.440100  1.0  0.0067
  C  C109  1  0.942400  0.619900  0.492600  1.0  0.0658
  C  C110  1  0.399200  0.473700  0.767600  1.0  0.0999
  C  C111  1  0.930900  0.704400  0.557200  1.0  0.1969
  C  C112  1  0.172400  0.731900  0.137600  1.0  0.2263
  C  C113  1  0.253200  0.787200  0.245100  1.0  0.0907
  C  C114  1  0.569900  0.767900  0.841900  1.0  0.0917
  C  C115  1  0.677600  0.145300  0.899200  1.0  -0.0643
  C  C116  1  0.570500  0.163400  0.934900  1.0  -0.1151
  C  C117  1  0.574500  0.205600  0.028200  1.0  -0.0458
  C  C118  1  0.334100  0.278200  0.036600  1.0  0.2452
  C  C119  1  0.677600  0.354700  0.399200  1.0  -0.0648
  C  C120  1  0.570500  0.336600  0.434900  1.0  -0.1153
  C  C121  1  0.574500  0.294400  0.528200  1.0  -0.0455
  C  C122  1  0.334100  0.221800  0.536600  1.0  0.2455
  C  C123  1  0.777700  0.920300  0.063300  1.0  -0.0579
  C  C124  1  0.700300  0.914000  0.963400  1.0  -0.1289
  C  C125  1  0.454300  0.949600  0.744000  1.0  0.2111
  C  C126  1  0.645200  0.967000  0.940100  1.0  0.0047
  C  C127  1  0.942400  0.880100  0.992600  1.0  0.0659
  C  C128  1  0.399200  0.026300  0.267600  1.0  0.1006
  C  C129  1  0.930900  0.795600  0.057200  1.0  0.1962
  C  C130  1  0.172400  0.768100  0.637600  1.0  0.2272
  C  C131  1  0.253200  0.712800  0.745100  1.0  0.0917
  C  C132  1  0.569900  0.732100  0.341900  1.0  0.092
  C  C133  1  0.322400  0.645300  0.600800  1.0  -0.0661
  C  C134  1  0.429500  0.663400  0.565100  1.0  -0.1142
  C  C135  1  0.425500  0.705600  0.471800  1.0  -0.047
  C  C136  1  0.665900  0.778200  0.463400  1.0  0.2436
  C  C137  1  0.222300  0.079700  0.936700  1.0  -0.0585
  C  C138  1  0.299700  0.086000  0.036600  1.0  -0.1276
  C  C139  1  0.545700  0.050400  0.256000  1.0  0.2108
  C  C140  1  0.354800  0.033000  0.059900  1.0  0.0052
  C  C141  1  0.057600  0.119900  0.007400  1.0  0.0635
  C  C142  1  0.600800  0.973700  0.732400  1.0  0.1007
  C  C143  1  0.069100  0.204400  0.942800  1.0  0.1963
  C  C144  1  0.827600  0.231900  0.362400  1.0  0.2245
  C  C145  1  0.746800  0.287200  0.254900  1.0  0.0922
  C  C146  1  0.430100  0.267900  0.658100  1.0  0.092
  N  N147  1  0.478700  0.471000  0.830800  1.0  -0.4449
  N  N148  1  0.416300  0.457100  0.666200  1.0  0.0936
  N  N149  1  0.512900  0.442800  0.655000  1.0  -0.3721
  N  N150  1  0.141800  0.375500  0.447800  1.0  0.1519
  N  N151  1  0.007300  0.328800  0.506300  1.0  -0.4638
  N  N152  1  0.149800  0.320800  0.405200  1.0  -0.3708
  N  N153  1  0.805300  0.259500  0.752000  1.0  -0.4333
  N  N154  1  0.210800  0.768700  0.069500  1.0  -0.4016
  N  N155  1  0.263700  0.805300  0.142600  1.0  0.1096
  N  N156  1  0.525800  0.770500  0.941700  1.0  0.1293
  N  N157  1  0.585100  0.742000  0.016800  1.0  -0.2549
  N  N158  1  0.656500  0.737800  0.855300  1.0  -0.3054
  N  N159  1  0.521300  0.529000  0.169200  1.0  -0.4438
  N  N160  1  0.583700  0.542900  0.333800  1.0  0.0936
  N  N161  1  0.487100  0.557200  0.345000  1.0  -0.3715
  N  N162  1  0.858200  0.624500  0.552200  1.0  0.1522
  N  N163  1  0.992700  0.671200  0.493700  1.0  -0.4635
  N  N164  1  0.850200  0.679200  0.594800  1.0  -0.3688
  N  N165  1  0.194700  0.740500  0.248000  1.0  -0.4353
  N  N166  1  0.789200  0.231300  0.930500  1.0  -0.4052
  N  N167  1  0.736300  0.194700  0.857400  1.0  0.1096
  N  N168  1  0.474200  0.229500  0.058300  1.0  0.1284
  N  N169  1  0.414900  0.258000  0.983200  1.0  -0.2524
  N  N170  1  0.343500  0.262200  0.144700  1.0  -0.3016
  N  N171  1  0.789200  0.268700  0.430500  1.0  -0.4042
  N  N172  1  0.736300  0.305300  0.357400  1.0  0.1099
  N  N173  1  0.474200  0.270500  0.558300  1.0  0.1294
  N  N174  1  0.414900  0.242000  0.483200  1.0  -0.2503
  N  N175  1  0.343500  0.237800  0.644700  1.0  -0.3026
  N  N176  1  0.521300  0.971000  0.669200  1.0  -0.4429
  N  N177  1  0.583700  0.957100  0.833800  1.0  0.0916
  N  N178  1  0.487100  0.942800  0.845000  1.0  -0.3711
  N  N179  1  0.858200  0.875500  0.052200  1.0  0.1515
  N  N180  1  0.992700  0.828800  0.993700  1.0  -0.4641
  N  N181  1  0.850200  0.820800  0.094800  1.0  -0.3687
  N  N182  1  0.194700  0.759500  0.748000  1.0  -0.4349
  N  N183  1  0.210800  0.731300  0.569500  1.0  -0.4014
  N  N184  1  0.263700  0.694700  0.642600  1.0  0.1095
  N  N185  1  0.525800  0.729500  0.441700  1.0  0.1289
  N  N186  1  0.585100  0.758000  0.516800  1.0  -0.2564
  N  N187  1  0.656500  0.762200  0.355300  1.0  -0.3061
  N  N188  1  0.478700  0.029000  0.330800  1.0  -0.4438
  N  N189  1  0.416300  0.042900  0.166200  1.0  0.0945
  N  N190  1  0.512900  0.057200  0.155000  1.0  -0.3722
  N  N191  1  0.141800  0.124500  0.947800  1.0  0.1525
  N  N192  1  0.007300  0.171200  0.006300  1.0  -0.4635
  N  N193  1  0.149800  0.179200  0.905200  1.0  -0.3709
  N  N194  1  0.805300  0.240500  0.252000  1.0  -0.4333
