# generated using pymatgen
data_PrH2(CO)7
_symmetry_space_group_name_H-M   'P 1'
_cell_length_a   7.47860000
_cell_length_b   9.83200000
_cell_length_c   14.93330000
_cell_angle_alpha   90.00000000
_cell_angle_beta   100.07800000
_cell_angle_gamma   90.00000000
_symmetry_Int_Tables_number   1
_chemical_formula_structural   PrH2(CO)7
_chemical_formula_sum   'Pr4 H8 C28 O28'
_cell_volume   1081.09724131
_cell_formula_units_Z   4
loop_
 _symmetry_equiv_pos_site_id
 _symmetry_equiv_pos_as_xyz
  1  'x, y, z'
loop_
 _atom_site_type_symbol
 _atom_site_label
 _atom_site_symmetry_multiplicity
 _atom_site_fract_x
 _atom_site_fract_y
 _atom_site_fract_z
 _atom_site_occupancy
 _atom_site_charge
  Pr  Pr1  1  0.631390  0.444530  0.356340  1.0  2.1953
  Pr  Pr2  1  0.868610  0.944530  0.143660  1.0  2.1961
  Pr  Pr3  1  0.368610  0.555470  0.643660  1.0  2.1958
  Pr  Pr4  1  0.131390  0.055470  0.856340  1.0  2.195
  H  H5  1  0.721400  0.953200  0.622600  1.0  0.1399
  H  H6  1  0.821600  0.163000  0.545300  1.0  0.1461
  H  H7  1  0.778600  0.453200  0.877400  1.0  0.1404
  H  H8  1  0.678400  0.663000  0.954700  1.0  0.1466
  H  H9  1  0.278600  0.046800  0.377400  1.0  0.1406
  H  H10  1  0.178400  0.837000  0.454700  1.0  0.1466
  H  H11  1  0.221400  0.546800  0.122600  1.0  0.1396
  H  H12  1  0.321600  0.337000  0.045300  1.0  0.1461
  C  C13  1  0.606200  0.729800  0.495400  1.0  0.774
  C  C14  1  0.685900  0.867800  0.495800  1.0  0.0307
  C  C15  1  0.728100  0.962700  0.561300  1.0  -0.1334
  C  C16  1  0.785100  0.080200  0.518000  1.0  -0.1325
  C  C17  1  0.775400  0.047000  0.428900  1.0  0.0021
  C  C18  1  0.816000  0.123400  0.349700  1.0  0.7453
  C  C19  1  0.958300  0.465200  0.538400  1.0  0.5594
  C  C20  1  0.893800  0.229800  0.004600  1.0  0.7737
  C  C21  1  0.814100  0.367800  0.004200  1.0  0.0297
  C  C22  1  0.771900  0.462700  0.938700  1.0  -0.1358
  C  C23  1  0.714900  0.580200  0.982000  1.0  -0.133
  C  C24  1  0.724600  0.547000  0.071100  1.0  0.003
  C  C25  1  0.684000  0.623400  0.150300  1.0  0.7489
  C  C26  1  0.541700  0.965200  0.961600  1.0  0.5593
  C  C27  1  0.393800  0.270200  0.504600  1.0  0.7758
  C  C28  1  0.314100  0.132200  0.504200  1.0  0.0304
  C  C29  1  0.271900  0.037300  0.438700  1.0  -0.136
  C  C30  1  0.214900  0.919800  0.482000  1.0  -0.1326
  C  C31  1  0.224600  0.953000  0.571100  1.0  0.0031
  C  C32  1  0.184000  0.876600  0.650300  1.0  0.7498
  C  C33  1  0.041700  0.534800  0.461600  1.0  0.5588
  C  C34  1  0.106200  0.770200  0.995400  1.0  0.7757
  C  C35  1  0.185900  0.632200  0.995800  1.0  0.0304
  C  C36  1  0.228100  0.537300  0.061300  1.0  -0.1334
  C  C37  1  0.285100  0.419800  0.018000  1.0  -0.1323
  C  C38  1  0.275400  0.453000  0.928900  1.0  0.0012
  C  C39  1  0.316000  0.376600  0.849700  1.0  0.7494
  C  C40  1  0.458300  0.034800  0.038400  1.0  0.5588
  O  O41  1  0.795500  0.428300  0.518700  1.0  -0.6295
  O  O42  1  0.580900  0.665000  0.421600  1.0  -0.7301
  O  O43  1  0.565800  0.690600  0.569100  1.0  -0.7669
  O  O44  1  0.716500  0.916000  0.414100  1.0  -0.0905
  O  O45  1  0.838800  0.251000  0.359000  1.0  -0.7196
  O  O46  1  0.826700  0.059000  0.278900  1.0  -0.7713
  O  O47  1  0.060000  0.451000  0.614100  1.0  -0.6256
  O  O48  1  0.704500  0.928300  0.981300  1.0  -0.6289
  O  O49  1  0.919100  0.165000  0.078400  1.0  -0.7287
  O  O50  1  0.934200  0.190600  0.930900  1.0  -0.7667
  O  O51  1  0.783500  0.416000  0.085900  1.0  -0.0921
  O  O52  1  0.661200  0.751000  0.141000  1.0  -0.7197
  O  O53  1  0.673300  0.559000  0.221100  1.0  -0.7701
  O  O54  1  0.440000  0.951000  0.885900  1.0  -0.617
  O  O55  1  0.204500  0.571700  0.481300  1.0  -0.6293
  O  O56  1  0.419100  0.335000  0.578400  1.0  -0.7315
  O  O57  1  0.434200  0.309400  0.430900  1.0  -0.7667
  O  O58  1  0.283500  0.084000  0.585900  1.0  -0.0908
  O  O59  1  0.161200  0.749000  0.641000  1.0  -0.7197
  O  O60  1  0.173300  0.941000  0.721100  1.0  -0.7709
  O  O61  1  0.940000  0.549000  0.385900  1.0  -0.6164
  O  O62  1  0.295500  0.071700  0.018700  1.0  -0.63
  O  O63  1  0.080900  0.835000  0.921600  1.0  -0.7324
  O  O64  1  0.065800  0.809400  0.069100  1.0  -0.7679
  O  O65  1  0.216500  0.584000  0.914100  1.0  -0.0905
  O  O66  1  0.338800  0.249000  0.859000  1.0  -0.72
  O  O67  1  0.326700  0.441000  0.778900  1.0  -0.7707
  O  O68  1  0.560000  0.049000  0.114100  1.0  -0.6252
