# generated using pymatgen
data_SmH2(CO)7
_symmetry_space_group_name_H-M   'P 1'
_cell_length_a   9.95130000
_cell_length_b   9.95130000
_cell_length_c   13.48490000
_cell_angle_alpha   85.78940000
_cell_angle_beta   69.76560000
_cell_angle_gamma   115.58400000
_symmetry_Int_Tables_number   1
_chemical_formula_structural   SmH2(CO)7
_chemical_formula_sum   'Sm4 H8 C28 O28'
_cell_volume   1090.26557186
_cell_formula_units_Z   4
loop_
 _symmetry_equiv_pos_site_id
 _symmetry_equiv_pos_as_xyz
  1  'x, y, z'
loop_
 _atom_site_type_symbol
 _atom_site_label
 _atom_site_symmetry_multiplicity
 _atom_site_fract_x
 _atom_site_fract_y
 _atom_site_fract_z
 _atom_site_occupancy
 _atom_site_charge
  Sm  Sm1  1  0.265510  0.538610  0.001960  1.0  2.2851
  Sm  Sm2  1  0.040570  0.267470  0.498040  1.0  2.281
  Sm  Sm3  1  0.734490  0.461390  0.998040  1.0  2.2861
  Sm  Sm4  1  0.959430  0.732530  0.501960  1.0  2.2793
  H  H5  1  0.986200  0.053200  0.146000  1.0  0.1118
  H  H6  1  0.818700  0.765600  0.179100  1.0  0.1088
  H  H7  1  0.699200  0.132200  0.354000  1.0  0.1133
  H  H8  1  0.444700  0.997800  0.320900  1.0  0.1077
  H  H9  1  0.013800  0.946800  0.854000  1.0  0.1128
  H  H10  1  0.181300  0.234400  0.820900  1.0  0.1096
  H  H11  1  0.300800  0.867800  0.646000  1.0  0.1125
  H  H12  1  0.555300  0.002200  0.679100  1.0  0.1069
  C  C13  1  0.879700  0.228200  0.038100  1.0  0.6999
  C  C14  1  0.685900  0.817300  0.111200  1.0  0.0301
  C  C15  1  0.897100  0.002000  0.129100  1.0  -0.1612
  C  C16  1  0.557400  0.678400  0.100400  1.0  0.7292
  C  C17  1  0.803200  0.841100  0.147700  1.0  -0.1645
  C  C18  1  0.062200  0.405800  0.265600  1.0  0.5958
  C  C19  1  0.832700  0.067100  0.081800  1.0  0.0159
  C  C20  1  0.766300  0.917800  0.461900  1.0  0.6985
  C  C21  1  0.428500  0.797100  0.388800  1.0  0.0313
  C  C22  1  0.631100  0.026200  0.370900  1.0  -0.1605
  C  C23  1  0.278800  0.657800  0.399600  1.0  0.7308
  C  C24  1  0.488800  0.950900  0.352300  1.0  -0.162
  C  C25  1  0.171400  0.327800  0.234400  1.0  0.5943
  C  C26  1  0.648900  0.914500  0.418200  1.0  0.0166
  C  C27  1  0.120300  0.771800  0.961900  1.0  0.7022
  C  C28  1  0.314100  0.182700  0.888800  1.0  0.0301
  C  C29  1  0.102900  0.998000  0.870900  1.0  -0.1608
  C  C30  1  0.442600  0.321600  0.899600  1.0  0.728
  C  C31  1  0.196800  0.158900  0.852300  1.0  -0.1666
  C  C32  1  0.937800  0.594200  0.734400  1.0  0.5949
  C  C33  1  0.167300  0.932900  0.918200  1.0  0.0181
  C  C34  1  0.233700  0.082200  0.538100  1.0  0.7017
  C  C35  1  0.571500  0.202900  0.611200  1.0  0.0309
  C  C36  1  0.368900  0.973800  0.629100  1.0  -0.1623
  C  C37  1  0.721200  0.342200  0.600400  1.0  0.7313
  C  C38  1  0.511200  0.049100  0.647700  1.0  -0.1601
  C  C39  1  0.828600  0.672200  0.765600  1.0  0.5954
  C  C40  1  0.351100  0.085500  0.581800  1.0  0.0167
  O  O41  1  0.007400  0.331400  0.037000  1.0  -0.7348
  O  O42  1  0.786600  0.249900  0.002700  1.0  -0.6943
  O  O43  1  0.072100  0.493500  0.189600  1.0  -0.6299
  O  O44  1  0.577700  0.562300  0.102400  1.0  -0.7296
  O  O45  1  0.700400  0.955900  0.071900  1.0  -0.1317
  O  O46  1  0.440500  0.684700  0.090000  1.0  -0.6843
  O  O47  1  0.970300  0.372300  0.364600  1.0  -0.6489
  O  O48  1  0.868400  0.044400  0.463000  1.0  -0.7372
  O  O49  1  0.752600  0.789300  0.497300  1.0  -0.6883
  O  O50  1  0.183100  0.261700  0.310400  1.0  -0.6316
  O  O51  1  0.164700  0.680100  0.397600  1.0  -0.7306
  O  O52  1  0.527800  0.772300  0.428100  1.0  -0.1288
  O  O53  1  0.274700  0.530500  0.410000  1.0  -0.6813
  O  O54  1  0.236900  0.334900  0.135400  1.0  -0.6551
  O  O55  1  0.992600  0.668600  0.963000  1.0  -0.7357
  O  O56  1  0.213400  0.750100  0.997300  1.0  -0.6917
  O  O57  1  0.927900  0.506500  0.810400  1.0  -0.6304
  O  O58  1  0.422300  0.437700  0.897600  1.0  -0.73
  O  O59  1  0.299600  0.044100  0.928100  1.0  -0.1339
  O  O60  1  0.559500  0.315300  0.910000  1.0  -0.6817
  O  O61  1  0.029700  0.627700  0.635400  1.0  -0.6506
  O  O62  1  0.131600  0.955600  0.537000  1.0  -0.738
  O  O63  1  0.247400  0.210700  0.502700  1.0  -0.6871
  O  O64  1  0.816900  0.738300  0.689600  1.0  -0.63
  O  O65  1  0.835300  0.319900  0.602400  1.0  -0.7326
  O  O66  1  0.472200  0.227700  0.571900  1.0  -0.1273
  O  O67  1  0.725300  0.469500  0.590000  1.0  -0.6803
  O  O68  1  0.763100  0.665100  0.864600  1.0  -0.653
