# generated using pymatgen
data_EuH2(CO)7
_symmetry_space_group_name_H-M   'P 1'
_cell_length_a   7.31650000
_cell_length_b   9.72470000
_cell_length_c   14.74580000
_cell_angle_alpha   90.00000000
_cell_angle_beta   100.06200000
_cell_angle_gamma   90.00000000
_symmetry_Int_Tables_number   1
_chemical_formula_structural   EuH2(CO)7
_chemical_formula_sum   'Eu4 H8 C28 O28'
_cell_volume   1033.03791203
_cell_formula_units_Z   4
loop_
 _symmetry_equiv_pos_site_id
 _symmetry_equiv_pos_as_xyz
  1  'x, y, z'
loop_
 _atom_site_type_symbol
 _atom_site_label
 _atom_site_symmetry_multiplicity
 _atom_site_fract_x
 _atom_site_fract_y
 _atom_site_fract_z
 _atom_site_occupancy
 _atom_site_charge
  Eu  Eu1  1  0.632190  0.554250  0.356410  1.0  2.1767
  Eu  Eu2  1  0.367810  0.445750  0.643590  1.0  2.1771
  Eu  Eu3  1  0.867810  0.054250  0.143590  1.0  2.1768
  Eu  Eu4  1  0.132190  0.945750  0.856410  1.0  2.1769
  H  H5  1  0.323700  0.669000  0.047200  1.0  0.1366
  H  H6  1  0.724000  0.046000  0.627000  1.0  0.1439
  H  H7  1  0.776000  0.546000  0.873000  1.0  0.1454
  H  H8  1  0.224000  0.454000  0.127000  1.0  0.1413
  H  H9  1  0.176300  0.169000  0.452800  1.0  0.1368
  H  H10  1  0.276000  0.954000  0.373000  1.0  0.1455
  H  H11  1  0.823700  0.831000  0.547200  1.0  0.1367
  H  H12  1  0.676300  0.331000  0.952800  1.0  0.1363
  C  C13  1  0.456900  0.964990  0.038650  1.0  0.5596
  C  C14  1  0.688200  0.132900  0.496670  1.0  0.0417
  C  C15  1  0.811800  0.632900  0.003330  1.0  0.0416
  C  C16  1  0.775700  0.950870  0.429150  1.0  0.0356
  C  C17  1  0.286400  0.583100  0.019290  1.0  -0.1434
  C  C18  1  0.606300  0.272300  0.496140  1.0  0.7482
  C  C19  1  0.224300  0.049130  0.570850  1.0  0.0364
  C  C20  1  0.816200  0.874200  0.348730  1.0  0.745
  C  C21  1  0.724300  0.450870  0.070850  1.0  0.0366
  C  C22  1  0.043100  0.464990  0.461350  1.0  0.5595
  C  C23  1  0.786400  0.916900  0.519290  1.0  -0.143
  C  C24  1  0.769600  0.536200  0.936470  1.0  -0.1335
  C  C25  1  0.106300  0.227700  0.996140  1.0  0.7471
  C  C26  1  0.188200  0.367100  0.996670  1.0  0.0424
  C  C27  1  0.316200  0.625800  0.848730  1.0  0.7452
  C  C28  1  0.956900  0.535010  0.538650  1.0  0.5604
  C  C29  1  0.269600  0.963800  0.436470  1.0  -0.1336
  C  C30  1  0.275700  0.549130  0.929150  1.0  0.0363
  C  C31  1  0.713600  0.416900  0.980710  1.0  -0.1448
  C  C32  1  0.393700  0.727700  0.503860  1.0  0.7471
  C  C33  1  0.213600  0.083100  0.480710  1.0  -0.1445
  C  C34  1  0.311800  0.867100  0.503330  1.0  0.0422
  C  C35  1  0.183800  0.125800  0.651270  1.0  0.7448
  C  C36  1  0.230400  0.463800  0.063530  1.0  -0.1327
  C  C37  1  0.543100  0.035010  0.961350  1.0  0.5601
  C  C38  1  0.730400  0.036200  0.563530  1.0  -0.133
  C  C39  1  0.893700  0.772300  0.003860  1.0  0.7486
  C  C40  1  0.683800  0.374200  0.151270  1.0  0.7452
  O  O41  1  0.918200  0.837640  0.078810  1.0  -0.7369
  O  O42  1  0.339100  0.755280  0.858320  1.0  -0.7121
  O  O43  1  0.673900  0.438580  0.223400  1.0  -0.7512
  O  O44  1  0.217800  0.416430  0.913810  1.0  -0.0817
  O  O45  1  0.282200  0.916430  0.586190  1.0  -0.0838
  O  O46  1  0.559500  0.950860  0.115530  1.0  -0.6251
  O  O47  1  0.160900  0.255280  0.641680  1.0  -0.7114
  O  O48  1  0.660900  0.244720  0.141680  1.0  -0.7117
  O  O49  1  0.418200  0.662360  0.578810  1.0  -0.737
  O  O50  1  0.940500  0.450860  0.384470  1.0  -0.6237
  O  O51  1  0.209400  0.427420  0.482260  1.0  -0.6486
  O  O52  1  0.935200  0.812770  0.929380  1.0  -0.7549
  O  O53  1  0.173900  0.061420  0.723400  1.0  -0.7489
  O  O54  1  0.290600  0.927420  0.017740  1.0  -0.6488
  O  O55  1  0.564800  0.312770  0.570620  1.0  -0.7554
  O  O56  1  0.839100  0.744720  0.358320  1.0  -0.713
  O  O57  1  0.782200  0.583570  0.086190  1.0  -0.0824
  O  O58  1  0.081800  0.162360  0.921190  1.0  -0.7411
  O  O59  1  0.826100  0.938580  0.276600  1.0  -0.7535
  O  O60  1  0.440500  0.049140  0.884470  1.0  -0.623
  O  O61  1  0.709400  0.072580  0.982260  1.0  -0.649
  O  O62  1  0.326100  0.561420  0.776600  1.0  -0.7518
  O  O63  1  0.717800  0.083570  0.413810  1.0  -0.081
  O  O64  1  0.790600  0.572580  0.517740  1.0  -0.6492
  O  O65  1  0.581800  0.337640  0.421190  1.0  -0.7374
  O  O66  1  0.064800  0.187230  0.070620  1.0  -0.7543
  O  O67  1  0.059500  0.549140  0.615530  1.0  -0.6249
  O  O68  1  0.435200  0.687230  0.429380  1.0  -0.7532
