# generated using pymatgen
data_TbH2(CO)7
_symmetry_space_group_name_H-M   'P 1'
_cell_length_a   7.31080000
_cell_length_b   9.72200000
_cell_length_c   14.68250000
_cell_angle_alpha   90.00000000
_cell_angle_beta   99.38170000
_cell_angle_gamma   90.00000000
_symmetry_Int_Tables_number   1
_chemical_formula_structural   TbH2(CO)7
_chemical_formula_sum   'Tb4 H8 C28 O28'
_cell_volume   1029.60899228
_cell_formula_units_Z   4
loop_
 _symmetry_equiv_pos_site_id
 _symmetry_equiv_pos_as_xyz
  1  'x, y, z'
loop_
 _atom_site_type_symbol
 _atom_site_label
 _atom_site_symmetry_multiplicity
 _atom_site_fract_x
 _atom_site_fract_y
 _atom_site_fract_z
 _atom_site_occupancy
 _atom_site_charge
  Tb  Tb1  1  0.637280  0.445110  0.357670  1.0  2.2814
  Tb  Tb2  1  0.862720  0.945110  0.142330  1.0  2.283
  Tb  Tb3  1  0.362720  0.554890  0.642330  1.0  2.2829
  Tb  Tb4  1  0.137280  0.054890  0.857670  1.0  2.2811
  H  H5  1  0.722900  0.953300  0.624900  1.0  0.1288
  H  H6  1  0.823000  0.164800  0.545400  1.0  0.1288
  H  H7  1  0.777100  0.453300  0.875100  1.0  0.1255
  H  H8  1  0.677000  0.664800  0.954600  1.0  0.1289
  H  H9  1  0.277100  0.046700  0.375100  1.0  0.1285
  H  H10  1  0.177000  0.835200  0.454600  1.0  0.1287
  H  H11  1  0.222900  0.546700  0.124900  1.0  0.1286
  H  H12  1  0.323000  0.335200  0.045400  1.0  0.1287
  C  C13  1  0.606700  0.725900  0.496800  1.0  0.7736
  C  C14  1  0.687200  0.864400  0.496300  1.0  0.0232
  C  C15  1  0.729600  0.962400  0.562500  1.0  -0.1557
  C  C16  1  0.785800  0.081000  0.518000  1.0  -0.1516
  C  C17  1  0.774300  0.047800  0.427700  1.0  0.0041
  C  C18  1  0.812600  0.124700  0.346900  1.0  0.7501
  C  C19  1  0.956700  0.464900  0.538400  1.0  0.5588
  C  C20  1  0.893300  0.225900  0.003200  1.0  0.7735
  C  C21  1  0.812800  0.364400  0.003700  1.0  0.0227
  C  C22  1  0.770400  0.462400  0.937500  1.0  -0.1571
  C  C23  1  0.714200  0.581000  0.982000  1.0  -0.1521
  C  C24  1  0.725700  0.547800  0.072300  1.0  0.0035
  C  C25  1  0.687400  0.624700  0.153100  1.0  0.7537
  C  C26  1  0.543300  0.964900  0.961600  1.0  0.5586
  C  C27  1  0.393300  0.274100  0.503200  1.0  0.7743
  C  C28  1  0.312800  0.135600  0.503700  1.0  0.0223
  C  C29  1  0.270400  0.037600  0.437500  1.0  -0.1569
  C  C30  1  0.214200  0.919000  0.482000  1.0  -0.1518
  C  C31  1  0.225700  0.952200  0.572300  1.0  0.0039
  C  C32  1  0.187400  0.875300  0.653100  1.0  0.7543
  C  C33  1  0.043300  0.535100  0.461600  1.0  0.5582
  C  C34  1  0.106700  0.774100  0.996800  1.0  0.7741
  C  C35  1  0.187200  0.635600  0.996300  1.0  0.0222
  C  C36  1  0.229600  0.537600  0.062500  1.0  -0.1555
  C  C37  1  0.285800  0.419000  0.018000  1.0  -0.1512
  C  C38  1  0.274300  0.452200  0.927700  1.0  0.0033
  C  C39  1  0.312600  0.375300  0.846900  1.0  0.7506
  C  C40  1  0.456700  0.035100  0.038400  1.0  0.5584
  O  O41  1  0.792500  0.424500  0.517800  1.0  -0.6215
  O  O42  1  0.588660  0.658200  0.423260  1.0  -0.7413
  O  O43  1  0.559430  0.687900  0.570730  1.0  -0.7629
  O  O44  1  0.716520  0.913800  0.413120  1.0  -0.1092
  O  O45  1  0.835350  0.253800  0.356450  1.0  -0.7209
  O  O46  1  0.820200  0.061000  0.274000  1.0  -0.7675
  O  O47  1  0.056600  0.454000  0.616000  1.0  -0.6231
  O  O48  1  0.707500  0.924500  0.982200  1.0  -0.6207
  O  O49  1  0.911340  0.158200  0.076740  1.0  -0.7412
  O  O50  1  0.940570  0.187900  0.929270  1.0  -0.7647
  O  O51  1  0.783480  0.413800  0.086880  1.0  -0.1083
  O  O52  1  0.664650  0.753800  0.143550  1.0  -0.7194
  O  O53  1  0.679800  0.561000  0.226000  1.0  -0.7666
  O  O54  1  0.443400  0.954000  0.884000  1.0  -0.6148
  O  O55  1  0.207500  0.575500  0.482200  1.0  -0.6212
  O  O56  1  0.411340  0.341800  0.576740  1.0  -0.7421
  O  O57  1  0.440570  0.312100  0.429270  1.0  -0.7648
  O  O58  1  0.283480  0.086200  0.586880  1.0  -0.1073
  O  O59  1  0.164650  0.746200  0.643550  1.0  -0.7201
  O  O60  1  0.179800  0.939000  0.726000  1.0  -0.7659
  O  O61  1  0.943400  0.546000  0.384000  1.0  -0.6145
  O  O62  1  0.292500  0.075500  0.017800  1.0  -0.6219
  O  O63  1  0.088660  0.841800  0.923260  1.0  -0.7416
  O  O64  1  0.059430  0.812100  0.070730  1.0  -0.7643
  O  O65  1  0.216520  0.586200  0.913120  1.0  -0.1099
  O  O66  1  0.335350  0.246200  0.856450  1.0  -0.7212
  O  O67  1  0.320200  0.439000  0.774000  1.0  -0.7665
  O  O68  1  0.556600  0.046000  0.116000  1.0  -0.623
