# generated using pymatgen
data_EuH2(CO)7
_symmetry_space_group_name_H-M   'P 1'
_cell_length_a   9.90630000
_cell_length_b   9.90630000
_cell_length_c   13.36610000
_cell_angle_alpha   86.07090000
_cell_angle_beta   69.30230000
_cell_angle_gamma   115.51000000
_symmetry_Int_Tables_number   1
_chemical_formula_structural   EuH2(CO)7
_chemical_formula_sum   'Eu4 H8 C28 O28'
_cell_volume   1068.87881883
_cell_formula_units_Z   4
loop_
 _symmetry_equiv_pos_site_id
 _symmetry_equiv_pos_as_xyz
  1  'x, y, z'
loop_
 _atom_site_type_symbol
 _atom_site_label
 _atom_site_symmetry_multiplicity
 _atom_site_fract_x
 _atom_site_fract_y
 _atom_site_fract_z
 _atom_site_occupancy
 _atom_site_charge
  Eu  Eu1  1  0.234340  0.459900  0.498360  1.0  2.1676
  Eu  Eu2  1  0.458260  0.732690  0.001640  1.0  2.1602
  Eu  Eu3  1  0.541740  0.267300  0.998360  1.0  2.1624
  Eu  Eu4  1  0.765670  0.540100  0.501640  1.0  2.1668
  H  H5  1  0.490100  0.053200  0.647100  1.0  0.1224
  H  H6  1  0.200300  0.137200  0.852900  1.0  0.1237
  H  H7  1  0.681500  0.239200  0.318100  1.0  0.1327
  H  H8  1  0.057300  0.999600  0.181900  1.0  0.1299
  H  H9  1  0.509900  0.946800  0.352900  1.0  0.1236
  H  H10  1  0.942700  0.000400  0.818100  1.0  0.1278
  H  H11  1  0.318500  0.760800  0.681900  1.0  0.1323
  H  H12  1  0.799700  0.862800  0.147100  1.0  0.1235
  C  C13  1  0.011980  0.047270  0.149530  1.0  -0.1546
  C  C14  1  0.944090  0.323800  0.397270  1.0  0.7408
  C  C15  1  0.561000  0.405120  0.766560  1.0  0.5919
  C  C16  1  0.814660  0.184140  0.387220  1.0  0.0341
  C  C17  1  0.778930  0.658640  0.897270  1.0  0.7436
  C  C18  1  0.928640  0.798120  0.887220  1.0  0.0336
  C  C19  1  0.439000  0.594880  0.233440  1.0  0.5913
  C  C20  1  0.398430  0.000530  0.630040  1.0  -0.1607
  C  C21  1  0.666820  0.933830  0.417830  1.0  0.0154
  C  C22  1  0.735600  0.082420  0.036560  1.0  0.7136
  C  C23  1  0.148340  0.915350  0.917830  1.0  0.0209
  C  C24  1  0.696800  0.161510  0.350470  1.0  -0.1611
  C  C25  1  0.851660  0.084650  0.082170  1.0  0.0127
  C  C26  1  0.333180  0.066170  0.582170  1.0  0.0136
  C  C27  1  0.618980  0.772160  0.463440  1.0  0.7131
  C  C28  1  0.869430  0.971530  0.130040  1.0  -0.1596
  C  C29  1  0.264400  0.917580  0.963440  1.0  0.7109
  C  C30  1  0.988020  0.952730  0.850470  1.0  -0.1567
  C  C31  1  0.303200  0.838490  0.649530  1.0  -0.1606
  C  C32  1  0.671680  0.327560  0.733440  1.0  0.5902
  C  C33  1  0.601570  0.999470  0.369960  1.0  -0.1607
  C  C34  1  0.328320  0.672440  0.266560  1.0  0.5916
  C  C35  1  0.185340  0.815860  0.612780  1.0  0.0332
  C  C36  1  0.221070  0.341360  0.102730  1.0  0.744
  C  C37  1  0.130570  0.028470  0.869960  1.0  -0.16
  C  C38  1  0.055910  0.676200  0.602730  1.0  0.7419
  C  C39  1  0.071360  0.201880  0.112780  1.0  0.0332
  C  C40  1  0.381020  0.227840  0.536560  1.0  0.7108
  O  O41  1  0.750010  0.211640  0.000710  1.0  -0.6718
  O  O42  1  0.026650  0.772560  0.927890  1.0  -0.1195
  O  O43  1  0.570030  0.493860  0.689810  1.0  -0.6269
  O  O44  1  0.683670  0.259840  0.810190  1.0  -0.6266
  O  O45  1  0.490630  0.667780  0.463750  1.0  -0.7385
  O  O46  1  0.249990  0.788360  0.999290  1.0  -0.672
  O  O47  1  0.938140  0.683880  0.592400  1.0  -0.671
  O  O48  1  0.776280  0.530540  0.907600  1.0  -0.6698
  O  O49  1  0.061860  0.316120  0.407600  1.0  -0.6726
  O  O50  1  0.223720  0.469460  0.092400  1.0  -0.6703
  O  O51  1  0.075500  0.558820  0.604660  1.0  -0.7317
  O  O52  1  0.509370  0.332220  0.536250  1.0  -0.7384
  O  O53  1  0.429970  0.506140  0.310190  1.0  -0.6273
  O  O54  1  0.261910  0.664400  0.367110  1.0  -0.6257
  O  O55  1  0.531510  0.629020  0.132890  1.0  -0.6236
  O  O56  1  0.336520  0.319840  0.104660  1.0  -0.7358
  O  O57  1  0.973350  0.227440  0.072110  1.0  -0.1205
  O  O58  1  0.468490  0.370980  0.867110  1.0  -0.6227
  O  O59  1  0.631530  0.954380  0.036250  1.0  -0.7405
  O  O60  1  0.712350  0.750720  0.499290  1.0  -0.6764
  O  O61  1  0.368470  0.045620  0.963750  1.0  -0.7411
  O  O62  1  0.738090  0.335600  0.632890  1.0  -0.6286
  O  O63  1  0.200450  0.954540  0.572110  1.0  -0.1289
  O  O64  1  0.316330  0.740160  0.189810  1.0  -0.6261
  O  O65  1  0.287650  0.249280  0.500710  1.0  -0.6796
  O  O66  1  0.924500  0.441180  0.395340  1.0  -0.7321
  O  O67  1  0.663480  0.680160  0.895340  1.0  -0.7346
  O  O68  1  0.799550  0.045460  0.427890  1.0  -0.127
