# generated using pymatgen
data_EuH2(CO)7
_symmetry_space_group_name_H-M   'P 1'
_cell_length_a   7.35190000
_cell_length_b   9.72950000
_cell_length_c   14.76610000
_cell_angle_alpha   90.00000000
_cell_angle_beta   99.62760000
_cell_angle_gamma   90.00000000
_symmetry_Int_Tables_number   1
_chemical_formula_structural   EuH2(CO)7
_chemical_formula_sum   'Eu4 H8 C28 O28'
_cell_volume   1041.34743625
_cell_formula_units_Z   4
loop_
 _symmetry_equiv_pos_site_id
 _symmetry_equiv_pos_as_xyz
  1  'x, y, z'
loop_
 _atom_site_type_symbol
 _atom_site_label
 _atom_site_symmetry_multiplicity
 _atom_site_fract_x
 _atom_site_fract_y
 _atom_site_fract_z
 _atom_site_occupancy
 _atom_site_charge
  Eu  Eu1  1  0.635390  0.444910  0.357260  1.0  2.1715
  Eu  Eu2  1  0.864610  0.944910  0.142740  1.0  2.1725
  Eu  Eu3  1  0.364610  0.555090  0.642740  1.0  2.1724
  Eu  Eu4  1  0.135390  0.055090  0.857260  1.0  2.1713
  H  H5  1  0.724400  0.953100  0.624300  1.0  0.1451
  H  H6  1  0.822000  0.164600  0.545200  1.0  0.1419
  H  H7  1  0.775600  0.453100  0.875700  1.0  0.1446
  H  H8  1  0.678000  0.664600  0.954800  1.0  0.1421
  H  H9  1  0.275600  0.046900  0.375700  1.0  0.1446
  H  H10  1  0.178000  0.835400  0.454800  1.0  0.1421
  H  H11  1  0.224400  0.546900  0.124300  1.0  0.1448
  H  H12  1  0.322000  0.335400  0.045200  1.0  0.1418
  C  C13  1  0.607100  0.727000  0.496400  1.0  0.7617
  C  C14  1  0.687000  0.864900  0.496000  1.0  0.0303
  C  C15  1  0.730000  0.962400  0.562100  1.0  -0.1388
  C  C16  1  0.785400  0.080700  0.517900  1.0  -0.1346
  C  C17  1  0.774400  0.047900  0.428000  1.0  0.0078
  C  C18  1  0.813600  0.124300  0.347700  1.0  0.7674
  C  C19  1  0.957400  0.465100  0.538100  1.0  0.5793
  C  C20  1  0.892900  0.227000  0.003600  1.0  0.7606
  C  C21  1  0.813000  0.364900  0.004000  1.0  0.0301
  C  C22  1  0.770000  0.462400  0.937900  1.0  -0.1398
  C  C23  1  0.714600  0.580700  0.982100  1.0  -0.1368
  C  C24  1  0.725600  0.547900  0.072000  1.0  0.0077
  C  C25  1  0.686400  0.624300  0.152300  1.0  0.7681
  C  C26  1  0.542600  0.965100  0.961900  1.0  0.5789
  C  C27  1  0.392900  0.273000  0.503600  1.0  0.7609
  C  C28  1  0.313000  0.135100  0.504000  1.0  0.0298
  C  C29  1  0.270000  0.037600  0.437900  1.0  -0.1397
  C  C30  1  0.214600  0.919300  0.482100  1.0  -0.1359
  C  C31  1  0.225600  0.952100  0.572000  1.0  0.008
  C  C32  1  0.186400  0.875700  0.652300  1.0  0.7682
  C  C33  1  0.042600  0.534900  0.461900  1.0  0.5795
  C  C34  1  0.107100  0.773000  0.996400  1.0  0.7614
  C  C35  1  0.187000  0.635100  0.996000  1.0  0.0298
  C  C36  1  0.230000  0.537600  0.062100  1.0  -0.1387
  C  C37  1  0.285400  0.419300  0.017900  1.0  -0.1341
  C  C38  1  0.274400  0.452100  0.928000  1.0  0.0068
  C  C39  1  0.313600  0.375700  0.847700  1.0  0.7677
  C  C40  1  0.457400  0.034900  0.038100  1.0  0.5797
  O  O41  1  0.792900  0.425000  0.518200  1.0  -0.6146
  O  O42  1  0.586600  0.659800  0.422900  1.0  -0.7383
  O  O43  1  0.562400  0.688200  0.570800  1.0  -0.7686
  O  O44  1  0.716800  0.914200  0.413200  1.0  -0.0859
  O  O45  1  0.835500  0.252700  0.357200  1.0  -0.7142
  O  O46  1  0.822700  0.060500  0.275600  1.0  -0.7867
  O  O47  1  0.058200  0.453100  0.615200  1.0  -0.6235
  O  O48  1  0.707100  0.925000  0.981800  1.0  -0.6133
  O  O49  1  0.913400  0.159800  0.077100  1.0  -0.7366
  O  O50  1  0.937600  0.188200  0.929200  1.0  -0.7687
  O  O51  1  0.783200  0.414200  0.086800  1.0  -0.0852
  O  O52  1  0.664500  0.752700  0.142800  1.0  -0.7152
  O  O53  1  0.677300  0.560500  0.224400  1.0  -0.786
  O  O54  1  0.441800  0.953100  0.884800  1.0  -0.6227
  O  O55  1  0.207100  0.575000  0.481800  1.0  -0.6136
  O  O56  1  0.413400  0.340200  0.577100  1.0  -0.7368
  O  O57  1  0.437600  0.311800  0.429200  1.0  -0.7685
  O  O58  1  0.283200  0.085800  0.586800  1.0  -0.0842
  O  O59  1  0.164500  0.747300  0.642800  1.0  -0.7144
  O  O60  1  0.177300  0.939500  0.724400  1.0  -0.7871
  O  O61  1  0.941800  0.546900  0.384800  1.0  -0.6233
  O  O62  1  0.292900  0.075000  0.018200  1.0  -0.6146
  O  O63  1  0.086600  0.840200  0.922900  1.0  -0.7378
  O  O64  1  0.062400  0.811800  0.070800  1.0  -0.7695
  O  O65  1  0.216800  0.585800  0.913200  1.0  -0.0854
  O  O66  1  0.335500  0.247300  0.857200  1.0  -0.7144
  O  O67  1  0.322700  0.439500  0.775600  1.0  -0.7875
  O  O68  1  0.558200  0.046900  0.115200  1.0  -0.623
