# generated using pymatgen
data_NdH2(CO)7
_symmetry_space_group_name_H-M   'P 1'
_cell_length_a   7.41280000
_cell_length_b   9.77100000
_cell_length_c   14.83830000
_cell_angle_alpha   90.00000000
_cell_angle_beta   99.97880000
_cell_angle_gamma   90.00000000
_symmetry_Int_Tables_number   1
_chemical_formula_structural   NdH2(CO)7
_chemical_formula_sum   'Nd4 H8 C28 O28'
_cell_volume   1058.48621488
_cell_formula_units_Z   4
loop_
 _symmetry_equiv_pos_site_id
 _symmetry_equiv_pos_as_xyz
  1  'x, y, z'
loop_
 _atom_site_type_symbol
 _atom_site_label
 _atom_site_symmetry_multiplicity
 _atom_site_fract_x
 _atom_site_fract_y
 _atom_site_fract_z
 _atom_site_occupancy
 _atom_site_charge
  Nd  Nd1  1  0.632460  0.444700  0.356600  1.0  2.2958
  Nd  Nd2  1  0.867540  0.944700  0.143400  1.0  2.2972
  Nd  Nd3  1  0.367540  0.555300  0.643400  1.0  2.2969
  Nd  Nd4  1  0.132460  0.055300  0.856600  1.0  2.2955
  H  H5  1  0.722700  0.953500  0.623100  1.0  0.1327
  H  H6  1  0.818000  0.165200  0.545200  1.0  0.1405
  H  H7  1  0.777300  0.453500  0.876900  1.0  0.1327
  H  H8  1  0.682000  0.665200  0.954800  1.0  0.1408
  H  H9  1  0.277300  0.046500  0.376900  1.0  0.1327
  H  H10  1  0.182000  0.834800  0.454800  1.0  0.1407
  H  H11  1  0.222700  0.546500  0.123100  1.0  0.1325
  H  H12  1  0.318000  0.334800  0.045200  1.0  0.1405
  C  C13  1  0.607500  0.728800  0.496100  1.0  0.7893
  C  C14  1  0.686400  0.867200  0.496200  1.0  0.0229
  C  C15  1  0.728500  0.963000  0.561300  1.0  -0.1354
  C  C16  1  0.783500  0.081300  0.518000  1.0  -0.1337
  C  C17  1  0.775600  0.047300  0.428800  1.0  -0.0062
  C  C18  1  0.815800  0.123900  0.349300  1.0  0.7709
  C  C19  1  0.957300  0.465900  0.538200  1.0  0.5806
  C  C20  1  0.892500  0.228800  0.003900  1.0  0.7892
  C  C21  1  0.813600  0.367200  0.003800  1.0  0.0226
  C  C22  1  0.771500  0.463000  0.938700  1.0  -0.1364
  C  C23  1  0.716500  0.581300  0.982000  1.0  -0.1353
  C  C24  1  0.724400  0.547300  0.071200  1.0  -0.0064
  C  C25  1  0.684200  0.623900  0.150700  1.0  0.7702
  C  C26  1  0.542700  0.965900  0.961800  1.0  0.5804
  C  C27  1  0.392500  0.271200  0.503900  1.0  0.7896
  C  C28  1  0.313600  0.132800  0.503800  1.0  0.0222
  C  C29  1  0.271500  0.037000  0.438700  1.0  -0.1364
  C  C30  1  0.216500  0.918700  0.482000  1.0  -0.1355
  C  C31  1  0.224400  0.952700  0.571200  1.0  -0.006
  C  C32  1  0.184200  0.876100  0.650700  1.0  0.7703
  C  C33  1  0.042700  0.534100  0.461800  1.0  0.568
  C  C34  1  0.107500  0.771200  0.996100  1.0  0.7894
  C  C35  1  0.186400  0.632800  0.996200  1.0  0.0224
  C  C36  1  0.228500  0.537000  0.061300  1.0  -0.1353
  C  C37  1  0.283500  0.418700  0.018000  1.0  -0.134
  C  C38  1  0.275600  0.452700  0.928800  1.0  -0.007
  C  C39  1  0.315800  0.376100  0.849300  1.0  0.7706
  C  C40  1  0.457300  0.034100  0.038200  1.0  0.5682
  O  O41  1  0.794600  0.427500  0.518500  1.0  -0.6436
  O  O42  1  0.582700  0.663700  0.422100  1.0  -0.7491
  O  O43  1  0.564600  0.689700  0.569500  1.0  -0.79
  O  O44  1  0.716400  0.915400  0.413800  1.0  -0.0957
  O  O45  1  0.837800  0.251200  0.358500  1.0  -0.7426
  O  O46  1  0.826400  0.059400  0.278400  1.0  -0.7931
  O  O47  1  0.059000  0.451200  0.614100  1.0  -0.6347
  O  O48  1  0.705400  0.927500  0.981500  1.0  -0.6433
  O  O49  1  0.917300  0.163700  0.077900  1.0  -0.7489
  O  O50  1  0.935400  0.189700  0.930500  1.0  -0.7901
  O  O51  1  0.783600  0.415400  0.086200  1.0  -0.0968
  O  O52  1  0.662200  0.751200  0.141500  1.0  -0.7426
  O  O53  1  0.673600  0.559400  0.221600  1.0  -0.7924
  O  O54  1  0.441000  0.951200  0.885900  1.0  -0.6343
  O  O55  1  0.205400  0.572500  0.481500  1.0  -0.6435
  O  O56  1  0.417300  0.336300  0.577900  1.0  -0.7493
  O  O57  1  0.435400  0.310300  0.430500  1.0  -0.7908
  O  O58  1  0.283600  0.084600  0.586200  1.0  -0.0956
  O  O59  1  0.162200  0.748800  0.641500  1.0  -0.7418
  O  O60  1  0.173600  0.940600  0.721600  1.0  -0.7944
  O  O61  1  0.941000  0.548800  0.385900  1.0  -0.634
  O  O62  1  0.294600  0.072500  0.018500  1.0  -0.644
  O  O63  1  0.082700  0.836300  0.922100  1.0  -0.7488
  O  O64  1  0.064600  0.810300  0.069500  1.0  -0.7921
  O  O65  1  0.216400  0.584600  0.913800  1.0  -0.0944
  O  O66  1  0.337800  0.248800  0.858500  1.0  -0.7425
  O  O67  1  0.326400  0.440600  0.778400  1.0  -0.7948
  O  O68  1  0.559000  0.048800  0.114100  1.0  -0.6344
