# generated using pymatgen
data_GdH2(CO)7
_symmetry_space_group_name_H-M   'P 1'
_cell_length_a   7.31730000
_cell_length_b   9.70220000
_cell_length_c   14.70830000
_cell_angle_alpha   90.00000000
_cell_angle_beta   99.52060000
_cell_angle_gamma   90.00000000
_symmetry_Int_Tables_number   1
_chemical_formula_structural   GdH2(CO)7
_chemical_formula_sum   'Gd4 H8 C28 O28'
_cell_volume   1029.81709692
_cell_formula_units_Z   4
loop_
 _symmetry_equiv_pos_site_id
 _symmetry_equiv_pos_as_xyz
  1  'x, y, z'
loop_
 _atom_site_type_symbol
 _atom_site_label
 _atom_site_symmetry_multiplicity
 _atom_site_fract_x
 _atom_site_fract_y
 _atom_site_fract_z
 _atom_site_occupancy
 _atom_site_charge
  Gd  Gd1  1  0.636200  0.444950  0.357440  1.0  2.213
  Gd  Gd2  1  0.863800  0.944950  0.142560  1.0  2.2135
  Gd  Gd3  1  0.363800  0.555050  0.642560  1.0  2.2134
  Gd  Gd4  1  0.136200  0.055050  0.857440  1.0  2.2127
  H  H5  1  0.722500  0.953000  0.624200  1.0  0.1396
  H  H6  1  0.819000  0.165100  0.545200  1.0  0.1413
  H  H7  1  0.777500  0.453000  0.875800  1.0  0.1388
  H  H8  1  0.681000  0.665100  0.954800  1.0  0.1415
  H  H9  1  0.277500  0.047000  0.375800  1.0  0.1388
  H  H10  1  0.181000  0.834900  0.454800  1.0  0.1417
  H  H11  1  0.222500  0.547000  0.124200  1.0  0.1394
  H  H12  1  0.319000  0.334900  0.045200  1.0  0.1413
  C  C13  1  0.605700  0.726600  0.496600  1.0  0.7924
  C  C14  1  0.688400  0.865000  0.496600  1.0  0.0224
  C  C15  1  0.729200  0.962100  0.561900  1.0  -0.1345
  C  C16  1  0.784000  0.080600  0.517800  1.0  -0.1327
  C  C17  1  0.775700  0.047300  0.428100  1.0  -0.0047
  C  C18  1  0.812100  0.124300  0.347200  1.0  0.7701
  C  C19  1  0.957200  0.464900  0.538500  1.0  0.5628
  C  C20  1  0.894300  0.226600  0.003400  1.0  0.7905
  C  C21  1  0.811600  0.365000  0.003400  1.0  0.0222
  C  C22  1  0.770800  0.462100  0.938100  1.0  -0.1357
  C  C23  1  0.716000  0.580600  0.982200  1.0  -0.1345
  C  C24  1  0.724300  0.547300  0.071900  1.0  -0.005
  C  C25  1  0.687900  0.624300  0.152800  1.0  0.7708
  C  C26  1  0.542800  0.964900  0.961500  1.0  0.5626
  C  C27  1  0.394300  0.273400  0.503400  1.0  0.791
  C  C28  1  0.311600  0.135000  0.503400  1.0  0.022
  C  C29  1  0.270800  0.037900  0.438100  1.0  -0.1353
  C  C30  1  0.216000  0.919400  0.482200  1.0  -0.1339
  C  C31  1  0.224300  0.952700  0.571900  1.0  -0.0048
  C  C32  1  0.187900  0.875700  0.652800  1.0  0.7708
  C  C33  1  0.042800  0.535100  0.461500  1.0  0.5633
  C  C34  1  0.105700  0.773400  0.996600  1.0  0.7922
  C  C35  1  0.188400  0.635000  0.996600  1.0  0.0222
  C  C36  1  0.229200  0.537900  0.061900  1.0  -0.1343
  C  C37  1  0.284000  0.419400  0.017800  1.0  -0.1327
  C  C38  1  0.275700  0.452700  0.928100  1.0  -0.0059
  C  C39  1  0.312100  0.375700  0.847200  1.0  0.7704
  C  C40  1  0.457200  0.035100  0.038500  1.0  0.5634
  O  O41  1  0.792800  0.424300  0.517800  1.0  -0.6495
  O  O42  1  0.587700  0.659500  0.423200  1.0  -0.7369
  O  O43  1  0.561500  0.688200  0.571200  1.0  -0.7735
  O  O44  1  0.716800  0.914300  0.413100  1.0  -0.0903
  O  O45  1  0.835800  0.252900  0.356700  1.0  -0.7308
  O  O46  1  0.821600  0.060000  0.274900  1.0  -0.7678
  O  O47  1  0.057500  0.453700  0.615900  1.0  -0.6194
  O  O48  1  0.707200  0.924300  0.982200  1.0  -0.6499
  O  O49  1  0.912300  0.159500  0.076800  1.0  -0.7355
  O  O50  1  0.938500  0.188200  0.928800  1.0  -0.7748
  O  O51  1  0.783200  0.414300  0.086900  1.0  -0.0903
  O  O52  1  0.664200  0.752900  0.143300  1.0  -0.7307
  O  O53  1  0.678400  0.560000  0.225100  1.0  -0.7668
  O  O54  1  0.442500  0.953700  0.884100  1.0  -0.618
  O  O55  1  0.207200  0.575700  0.482200  1.0  -0.6502
  O  O56  1  0.412300  0.340500  0.576800  1.0  -0.7359
  O  O57  1  0.438500  0.311800  0.428800  1.0  -0.774
  O  O58  1  0.283200  0.085700  0.586900  1.0  -0.0893
  O  O59  1  0.164200  0.747100  0.643300  1.0  -0.7303
  O  O60  1  0.178400  0.940000  0.725100  1.0  -0.7682
  O  O61  1  0.942500  0.546300  0.384100  1.0  -0.6181
  O  O62  1  0.292800  0.075700  0.017800  1.0  -0.65
  O  O63  1  0.087700  0.840500  0.923200  1.0  -0.7365
  O  O64  1  0.061500  0.811800  0.071200  1.0  -0.7743
  O  O65  1  0.216800  0.585700  0.913100  1.0  -0.0898
  O  O66  1  0.335800  0.247100  0.856700  1.0  -0.7311
  O  O67  1  0.321600  0.440000  0.774900  1.0  -0.7689
  O  O68  1  0.557500  0.046300  0.115900  1.0  -0.6194
