# generated using pymatgen
data_DyH2(CO)7
_symmetry_space_group_name_H-M   'P 1'
_cell_length_a   9.88460000
_cell_length_b   9.88460000
_cell_length_c   13.35260000
_cell_angle_alpha   85.32460000
_cell_angle_beta   70.17810000
_cell_angle_gamma   115.58300000
_symmetry_Int_Tables_number   1
_chemical_formula_structural   DyH2(CO)7
_chemical_formula_sum   'Dy4 H8 C28 O28'
_cell_volume   1066.30723772
_cell_formula_units_Z   4
loop_
 _symmetry_equiv_pos_site_id
 _symmetry_equiv_pos_as_xyz
  1  'x, y, z'
loop_
 _atom_site_type_symbol
 _atom_site_label
 _atom_site_symmetry_multiplicity
 _atom_site_fract_x
 _atom_site_fract_y
 _atom_site_fract_z
 _atom_site_occupancy
 _atom_site_charge
  Dy  Dy1  1  0.265340  0.538840  0.002620  1.0  2.2978
  Dy  Dy2  1  0.041460  0.267960  0.497380  1.0  2.2923
  Dy  Dy3  1  0.734660  0.461160  0.997380  1.0  2.2997
  Dy  Dy4  1  0.958540  0.732040  0.502620  1.0  2.2894
  H  H5  1  0.990300  0.052800  0.147300  1.0  0.109
  H  H6  1  0.820300  0.762000  0.180300  1.0  0.1183
  H  H7  1  0.700100  0.137600  0.352700  1.0  0.1108
  H  H8  1  0.442300  0.000600  0.319700  1.0  0.1171
  H  H9  1  0.009700  0.947200  0.852700  1.0  0.1099
  H  H10  1  0.179700  0.238000  0.819700  1.0  0.1186
  H  H11  1  0.299900  0.862400  0.647300  1.0  0.1101
  H  H12  1  0.557700  0.999400  0.680300  1.0  0.1164
  C  C13  1  0.881200  0.231000  0.038800  1.0  0.7296
  C  C14  1  0.688000  0.817300  0.110100  1.0  0.0191
  C  C15  1  0.900400  0.001700  0.130300  1.0  -0.1598
  C  C16  1  0.560400  0.677400  0.098200  1.0  0.7252
  C  C17  1  0.805500  0.839000  0.148500  1.0  -0.1711
  C  C18  1  0.065900  0.410200  0.264700  1.0  0.6011
  C  C19  1  0.834100  0.068100  0.083000  1.0  0.0139
  C  C20  1  0.769800  0.920000  0.461200  1.0  0.7254
  C  C21  1  0.427400  0.798100  0.389900  1.0  0.0205
  C  C22  1  0.632000  0.030700  0.369700  1.0  -0.1603
  C  C23  1  0.275600  0.658600  0.401800  1.0  0.7267
  C  C24  1  0.487500  0.954000  0.351500  1.0  -0.1692
  C  C25  1  0.174900  0.330600  0.235300  1.0  0.6
  C  C26  1  0.651100  0.917100  0.417000  1.0  0.0141
  C  C27  1  0.118800  0.769000  0.961200  1.0  0.7294
  C  C28  1  0.312000  0.182700  0.889900  1.0  0.0195
  C  C29  1  0.099600  0.998300  0.869700  1.0  -0.1612
  C  C30  1  0.439600  0.322600  0.901800  1.0  0.7246
  C  C31  1  0.194500  0.161000  0.851500  1.0  -0.1734
  C  C32  1  0.934100  0.589800  0.735300  1.0  0.6008
  C  C33  1  0.165900  0.931900  0.917000  1.0  0.0161
  C  C34  1  0.230200  0.080000  0.538800  1.0  0.7282
  C  C35  1  0.572600  0.201900  0.610100  1.0  0.0199
  C  C36  1  0.368000  0.969300  0.630300  1.0  -0.1609
  C  C37  1  0.724400  0.341400  0.598200  1.0  0.7266
  C  C38  1  0.512500  0.046000  0.648500  1.0  -0.1666
  C  C39  1  0.825100  0.669400  0.764700  1.0  0.6011
  C  C40  1  0.348900  0.082900  0.583000  1.0  0.0153
  O  O41  1  0.011700  0.334700  0.038600  1.0  -0.7567
  O  O42  1  0.787200  0.254500  0.004300  1.0  -0.6798
  O  O43  1  0.076600  0.499100  0.187300  1.0  -0.6341
  O  O44  1  0.582000  0.560700  0.098500  1.0  -0.729
  O  O45  1  0.701100  0.956000  0.071900  1.0  -0.1494
  O  O46  1  0.441500  0.683400  0.087900  1.0  -0.7055
  O  O47  1  0.973300  0.375700  0.364200  1.0  -0.6309
  O  O48  1  0.873300  0.050300  0.461400  1.0  -0.7582
  O  O49  1  0.758800  0.791500  0.495700  1.0  -0.6752
  O  O50  1  0.186400  0.263900  0.312700  1.0  -0.6333
  O  O51  1  0.159200  0.680500  0.401500  1.0  -0.73
  O  O52  1  0.527900  0.773000  0.428100  1.0  -0.1464
  O  O53  1  0.271300  0.529400  0.412100  1.0  -0.7021
  O  O54  1  0.239900  0.337500  0.135800  1.0  -0.6354
  O  O55  1  0.988300  0.665300  0.961400  1.0  -0.7567
  O  O56  1  0.212800  0.745500  0.995700  1.0  -0.6768
  O  O57  1  0.923400  0.500900  0.812700  1.0  -0.6342
  O  O58  1  0.418000  0.439300  0.901500  1.0  -0.7282
  O  O59  1  0.298900  0.044000  0.928100  1.0  -0.1516
  O  O60  1  0.558500  0.316600  0.912100  1.0  -0.7032
  O  O61  1  0.026700  0.624300  0.635800  1.0  -0.6302
  O  O62  1  0.126700  0.949700  0.538600  1.0  -0.7581
  O  O63  1  0.241200  0.208500  0.504300  1.0  -0.6724
  O  O64  1  0.813600  0.736100  0.687300  1.0  -0.6343
  O  O65  1  0.840800  0.319500  0.598500  1.0  -0.7311
  O  O66  1  0.472100  0.227000  0.571900  1.0  -0.1463
  O  O67  1  0.728700  0.470600  0.587900  1.0  -0.7011
  O  O68  1  0.760100  0.662500  0.864200  1.0  -0.6337
