# generated using pymatgen
data_YbH2(CO)7
_symmetry_space_group_name_H-M   'P 1'
_cell_length_a   9.81840000
_cell_length_b   9.81840000
_cell_length_c   13.26160000
_cell_angle_alpha   84.78870000
_cell_angle_beta   70.77290000
_cell_angle_gamma   115.62700000
_symmetry_Int_Tables_number   1
_chemical_formula_structural   YbH2(CO)7
_chemical_formula_sum   'Yb4 H8 C28 O28'
_cell_volume   1046.72491542
_cell_formula_units_Z   4
loop_
 _symmetry_equiv_pos_site_id
 _symmetry_equiv_pos_as_xyz
  1  'x, y, z'
loop_
 _atom_site_type_symbol
 _atom_site_label
 _atom_site_symmetry_multiplicity
 _atom_site_fract_x
 _atom_site_fract_y
 _atom_site_fract_z
 _atom_site_occupancy
 _atom_site_charge
  Yb  Yb1  1  0.264970  0.538800  0.003490  1.0  1.572
  Yb  Yb2  1  0.042290  0.268460  0.496510  1.0  1.571
  Yb  Yb3  1  0.735030  0.461200  0.996510  1.0  1.5722
  Yb  Yb4  1  0.957710  0.731540  0.503490  1.0  1.5711
  H  H5  1  0.992100  0.052400  0.149300  1.0  0.1543
  H  H6  1  0.822800  0.759100  0.179300  1.0  0.164
  H  H7  1  0.701700  0.141400  0.350700  1.0  0.1557
  H  H8  1  0.438400  0.002100  0.320700  1.0  0.1629
  H  H9  1  0.007900  0.947600  0.850700  1.0  0.1556
  H  H10  1  0.177200  0.240900  0.820700  1.0  0.1644
  H  H11  1  0.298300  0.858600  0.649300  1.0  0.1553
  H  H12  1  0.561600  0.997900  0.679300  1.0  0.1621
  C  C13  1  0.884100  0.233900  0.039800  1.0  0.7541
  C  C14  1  0.689300  0.816000  0.109500  1.0  0.063
  C  C15  1  0.902300  0.001500  0.131200  1.0  -0.1236
  C  C16  1  0.562400  0.676700  0.096100  1.0  0.7699
  C  C17  1  0.807300  0.837000  0.148100  1.0  -0.1232
  C  C18  1  0.068300  0.413100  0.265000  1.0  0.6645
  C  C19  1  0.835900  0.069100  0.083800  1.0  0.069
  C  C20  1  0.773700  0.923900  0.460200  1.0  0.7504
  C  C21  1  0.425500  0.798800  0.390500  1.0  0.0637
  C  C22  1  0.632700  0.033500  0.368800  1.0  -0.1249
  C  C23  1  0.272800  0.658500  0.403900  1.0  0.7712
  C  C24  1  0.485100  0.955400  0.351900  1.0  -0.1214
  C  C25  1  0.178100  0.333333  0.235000  1.0  0.6642
  C  C26  1  0.652900  0.919700  0.416200  1.0  0.0678
  C  C27  1  0.115900  0.766100  0.960200  1.0  0.7541
  C  C28  1  0.310700  0.184000  0.890500  1.0  0.0633
  C  C29  1  0.097700  0.998500  0.868800  1.0  -0.1252
  C  C30  1  0.437600  0.323300  0.903900  1.0  0.7691
  C  C31  1  0.192700  0.163000  0.851900  1.0  -0.1257
  C  C32  1  0.931700  0.586900  0.735000  1.0  0.6644
  C  C33  1  0.164100  0.930900  0.916200  1.0  0.0701
  C  C34  1  0.226300  0.076100  0.539800  1.0  0.7527
  C  C35  1  0.574500  0.201200  0.609500  1.0  0.0628
  C  C36  1  0.367300  0.966500  0.631200  1.0  -0.1255
  C  C37  1  0.727200  0.341500  0.596100  1.0  0.7716
  C  C38  1  0.514900  0.044600  0.648100  1.0  -0.1186
  C  C39  1  0.821900  0.666667  0.765000  1.0  0.6646
  C  C40  1  0.347100  0.080300  0.583800  1.0  0.0696
  O  O41  1  0.014300  0.338200  0.040300  1.0  -0.6939
  O  O42  1  0.788100  0.258500  0.006000  1.0  -0.6557
  O  O43  1  0.080400  0.503400  0.185200  1.0  -0.5801
  O  O44  1  0.585700  0.560600  0.094500  1.0  -0.6945
  O  O45  1  0.702400  0.957300  0.071100  1.0  -0.1078
  O  O46  1  0.441700  0.682100  0.086000  1.0  -0.6621
  O  O47  1  0.975800  0.378100  0.364100  1.0  -0.5702
  O  O48  1  0.878500  0.054600  0.459700  1.0  -0.6956
  O  O49  1  0.764500  0.794100  0.494000  1.0  -0.6529
  O  O50  1  0.188600  0.265600  0.314800  1.0  -0.5802
  O  O51  1  0.155100  0.680200  0.405500  1.0  -0.6976
  O  O52  1  0.528400  0.773500  0.428900  1.0  -0.1039
  O  O53  1  0.268100  0.527700  0.414000  1.0  -0.6599
  O  O54  1  0.242200  0.339900  0.135900  1.0  -0.5732
  O  O55  1  0.985700  0.661800  0.959700  1.0  -0.6941
  O  O56  1  0.211900  0.741500  0.994000  1.0  -0.6547
  O  O57  1  0.919600  0.496600  0.814800  1.0  -0.581
  O  O58  1  0.414300  0.439400  0.905500  1.0  -0.6956
  O  O59  1  0.297600  0.042700  0.928900  1.0  -0.1098
  O  O60  1  0.558300  0.317900  0.914000  1.0  -0.6604
  O  O61  1  0.024200  0.621900  0.635900  1.0  -0.5689
  O  O62  1  0.121500  0.945400  0.540300  1.0  -0.6952
  O  O63  1  0.235500  0.205900  0.506000  1.0  -0.65
  O  O64  1  0.811400  0.734400  0.685200  1.0  -0.5793
  O  O65  1  0.844900  0.319800  0.594500  1.0  -0.6978
  O  O66  1  0.471600  0.226500  0.571100  1.0  -0.1048
  O  O67  1  0.731900  0.472300  0.586000  1.0  -0.6598
  O  O68  1  0.757800  0.660100  0.864100  1.0  -0.5733
