# generated using pymatgen
data_HoH2(CO)7
_symmetry_space_group_name_H-M   'P 1'
_cell_length_a   9.85460000
_cell_length_b   9.85460000
_cell_length_c   13.30950000
_cell_angle_alpha   85.16130000
_cell_angle_beta   70.35120000
_cell_angle_gamma   115.59100000
_symmetry_Int_Tables_number   1
_chemical_formula_structural   HoH2(CO)7
_chemical_formula_sum   'Ho4 H8 C28 O28'
_cell_volume   1056.98385156
_cell_formula_units_Z   4
loop_
 _symmetry_equiv_pos_site_id
 _symmetry_equiv_pos_as_xyz
  1  'x, y, z'
loop_
 _atom_site_type_symbol
 _atom_site_label
 _atom_site_symmetry_multiplicity
 _atom_site_fract_x
 _atom_site_fract_y
 _atom_site_fract_z
 _atom_site_occupancy
 _atom_site_charge
  Ho  Ho1  1  0.265260  0.538790  0.002870  1.0  2.2117
  Ho  Ho2  1  0.041660  0.268130  0.497130  1.0  2.2124
  Ho  Ho3  1  0.734740  0.461210  0.997130  1.0  2.2148
  Ho  Ho4  1  0.958340  0.731870  0.502870  1.0  2.2104
  H  H5  1  0.989700  0.053800  0.147700  1.0  0.1106
  H  H6  1  0.821700  0.761300  0.179400  1.0  0.1261
  H  H7  1  0.701500  0.137400  0.352300  1.0  0.1121
  H  H8  1  0.440700  0.001100  0.320600  1.0  0.1252
  H  H9  1  0.010300  0.946200  0.852300  1.0  0.1114
  H  H10  1  0.178300  0.238700  0.820600  1.0  0.1268
  H  H11  1  0.298500  0.862600  0.647700  1.0  0.1115
  H  H12  1  0.559300  0.998900  0.679400  1.0  0.1246
  C  C13  1  0.881800  0.231800  0.039000  1.0  0.73
  C  C14  1  0.688400  0.816600  0.110200  1.0  0.0172
  C  C15  1  0.900100  0.002200  0.130100  1.0  -0.1606
  C  C16  1  0.559700  0.676800  0.098500  1.0  0.7221
  C  C17  1  0.805900  0.838100  0.148000  1.0  -0.1678
  C  C18  1  0.066200  0.410400  0.265200  1.0  0.6227
  C  C19  1  0.835200  0.068200  0.083000  1.0  0.0355
  C  C20  1  0.770800  0.920800  0.461000  1.0  0.726
  C  C21  1  0.426800  0.798600  0.389800  1.0  0.0185
  C  C22  1  0.632300  0.030200  0.369900  1.0  -0.168
  C  C23  1  0.275300  0.658200  0.401500  1.0  0.7238
  C  C24  1  0.486100  0.953900  0.352000  1.0  -0.1664
  C  C25  1  0.175600  0.331400  0.234800  1.0  0.6214
  C  C26  1  0.651200  0.918200  0.417000  1.0  0.0408
  C  C27  1  0.118200  0.768200  0.961000  1.0  0.7302
  C  C28  1  0.311600  0.183400  0.889800  1.0  0.0171
  C  C29  1  0.099900  0.997800  0.869900  1.0  -0.1637
  C  C30  1  0.440300  0.323200  0.901500  1.0  0.7208
  C  C31  1  0.194100  0.161900  0.852000  1.0  -0.1702
  C  C32  1  0.933800  0.589600  0.734800  1.0  0.6223
  C  C33  1  0.164800  0.931800  0.917000  1.0  0.0351
  C  C34  1  0.229200  0.079200  0.539000  1.0  0.7311
  C  C35  1  0.573200  0.201400  0.610200  1.0  0.0176
  C  C36  1  0.367700  0.969800  0.630100  1.0  -0.1654
  C  C37  1  0.724700  0.341800  0.598500  1.0  0.7252
  C  C38  1  0.513900  0.046100  0.648000  1.0  -0.1626
  C  C39  1  0.824400  0.668600  0.765200  1.0  0.6231
  C  C40  1  0.348800  0.081800  0.583000  1.0  0.0382
  O  O41  1  0.011600  0.335600  0.039200  1.0  -0.7442
  O  O42  1  0.788100  0.255700  0.004400  1.0  -0.6746
  O  O43  1  0.077600  0.500200  0.186800  1.0  -0.6221
  O  O44  1  0.582700  0.560900  0.097800  1.0  -0.739
  O  O45  1  0.701700  0.956700  0.071600  1.0  -0.147
  O  O46  1  0.441500  0.682900  0.086800  1.0  -0.6978
  O  O47  1  0.973600  0.375600  0.364600  1.0  -0.6265
  O  O48  1  0.874800  0.050800  0.460800  1.0  -0.7461
  O  O49  1  0.760100  0.792500  0.495600  1.0  -0.669
  O  O50  1  0.187000  0.264400  0.313200  1.0  -0.6212
  O  O51  1  0.158700  0.680500  0.402200  1.0  -0.7409
  O  O52  1  0.528300  0.773300  0.428400  1.0  -0.1422
  O  O53  1  0.269700  0.528300  0.413200  1.0  -0.6948
  O  O54  1  0.240200  0.338200  0.135400  1.0  -0.6311
  O  O55  1  0.988400  0.664400  0.960800  1.0  -0.7443
  O  O56  1  0.211900  0.744300  0.995600  1.0  -0.6748
  O  O57  1  0.922400  0.499800  0.813200  1.0  -0.6221
  O  O58  1  0.417300  0.439100  0.902200  1.0  -0.7388
  O  O59  1  0.298300  0.043300  0.928400  1.0  -0.1488
  O  O60  1  0.558500  0.317100  0.913200  1.0  -0.6951
  O  O61  1  0.026400  0.624400  0.635400  1.0  -0.6261
  O  O62  1  0.125200  0.949200  0.539200  1.0  -0.7455
  O  O63  1  0.239900  0.207500  0.504400  1.0  -0.669
  O  O64  1  0.813000  0.735600  0.686800  1.0  -0.6216
  O  O65  1  0.841300  0.319500  0.597800  1.0  -0.7416
  O  O66  1  0.471700  0.226700  0.571600  1.0  -0.1432
  O  O67  1  0.730300  0.471700  0.586800  1.0  -0.6948
  O  O68  1  0.759800  0.661800  0.864600  1.0  -0.6293
