# generated using pymatgen
data_TbH2(CO)7
_symmetry_space_group_name_H-M   'P 1'
_cell_length_a   9.91340000
_cell_length_b   9.91340000
_cell_length_c   13.40460000
_cell_angle_alpha   85.39160000
_cell_angle_beta   70.12580000
_cell_angle_gamma   115.57500000
_symmetry_Int_Tables_number   1
_chemical_formula_structural   TbH2(CO)7
_chemical_formula_sum   'Tb4 H8 C28 O28'
_cell_volume   1076.70918587
_cell_formula_units_Z   4
loop_
 _symmetry_equiv_pos_site_id
 _symmetry_equiv_pos_as_xyz
  1  'x, y, z'
loop_
 _atom_site_type_symbol
 _atom_site_label
 _atom_site_symmetry_multiplicity
 _atom_site_fract_x
 _atom_site_fract_y
 _atom_site_fract_z
 _atom_site_occupancy
 _atom_site_charge
  Tb  Tb1  1  0.265360  0.538660  0.002520  1.0  2.2787
  Tb  Tb2  1  0.041180  0.267880  0.497480  1.0  2.2745
  Tb  Tb3  1  0.734640  0.461340  0.997480  1.0  2.2807
  Tb  Tb4  1  0.958820  0.732120  0.502520  1.0  2.2726
  H  H5  1  0.988300  0.053100  0.146800  1.0  0.1112
  H  H6  1  0.820000  0.762400  0.179000  1.0  0.1223
  H  H7  1  0.699900  0.135100  0.353200  1.0  0.1129
  H  H8  1  0.441400  0.999000  0.321000  1.0  0.1211
  H  H9  1  0.011700  0.946900  0.853200  1.0  0.1126
  H  H10  1  0.180000  0.237600  0.821000  1.0  0.1226
  H  H11  1  0.300100  0.864900  0.646800  1.0  0.1121
  H  H12  1  0.558600  0.001000  0.679000  1.0  0.1206
  C  C13  1  0.881000  0.230700  0.038500  1.0  0.7126
  C  C14  1  0.688100  0.817700  0.110200  1.0  0.0256
  C  C15  1  0.899100  0.002000  0.129500  1.0  -0.1619
  C  C16  1  0.558800  0.676800  0.098800  1.0  0.7322
  C  C17  1  0.804700  0.839000  0.147700  1.0  -0.1705
  C  C18  1  0.065400  0.409400  0.265600  1.0  0.5981
  C  C19  1  0.834600  0.067700  0.082900  1.0  0.0223
  C  C20  1  0.769200  0.919500  0.461500  1.0  0.7095
  C  C21  1  0.427900  0.798300  0.389800  1.0  0.0264
  C  C22  1  0.631500  0.028600  0.370500  1.0  -0.1648
  C  C23  1  0.275600  0.657600  0.401200  1.0  0.7334
  C  C24  1  0.486700  0.952400  0.352300  1.0  -0.1674
  C  C25  1  0.175000  0.331000  0.234400  1.0  0.597
  C  C26  1  0.650600  0.917500  0.417100  1.0  0.0212
  C  C27  1  0.119000  0.769300  0.961500  1.0  0.7138
  C  C28  1  0.311900  0.182300  0.889800  1.0  0.0252
  C  C29  1  0.100900  0.998000  0.870500  1.0  -0.1633
  C  C30  1  0.441200  0.323200  0.901200  1.0  0.7313
  C  C31  1  0.195300  0.161000  0.852300  1.0  -0.1722
  C  C32  1  0.934600  0.590600  0.734400  1.0  0.5978
  C  C33  1  0.165400  0.932300  0.917100  1.0  0.0241
  C  C34  1  0.230800  0.080500  0.538500  1.0  0.7124
  C  C35  1  0.572100  0.201700  0.610200  1.0  0.0259
  C  C36  1  0.368500  0.971400  0.629500  1.0  -0.1661
  C  C37  1  0.724400  0.342400  0.598800  1.0  0.7343
  C  C38  1  0.513300  0.047600  0.647700  1.0  -0.166
  C  C39  1  0.825000  0.669000  0.765600  1.0  0.5984
  C  C40  1  0.349400  0.082500  0.582900  1.0  0.0225
  O  O41  1  0.010300  0.334200  0.038100  1.0  -0.7381
  O  O42  1  0.787000  0.253600  0.004000  1.0  -0.714
  O  O43  1  0.075400  0.497700  0.188100  1.0  -0.6237
  O  O44  1  0.580900  0.562200  0.099500  1.0  -0.7318
  O  O45  1  0.701200  0.956300  0.071500  1.0  -0.143
  O  O46  1  0.441200  0.683600  0.088800  1.0  -0.6905
  O  O47  1  0.972600  0.374600  0.364600  1.0  -0.6281
  O  O48  1  0.872300  0.048400  0.461900  1.0  -0.7409
  O  O49  1  0.757600  0.791000  0.496000  1.0  -0.7098
  O  O50  1  0.185800  0.263500  0.311900  1.0  -0.6242
  O  O51  1  0.161700  0.680400  0.400500  1.0  -0.7345
  O  O52  1  0.527800  0.772700  0.428500  1.0  -0.1394
  O  O53  1  0.272400  0.530000  0.411200  1.0  -0.6878
  O  O54  1  0.239200  0.337200  0.135400  1.0  -0.6328
  O  O55  1  0.989700  0.665800  0.961900  1.0  -0.739
  O  O56  1  0.213000  0.746400  0.996000  1.0  -0.7121
  O  O57  1  0.924600  0.502300  0.811900  1.0  -0.6245
  O  O58  1  0.419100  0.437800  0.900500  1.0  -0.7316
  O  O59  1  0.298800  0.043700  0.928500  1.0  -0.145
  O  O60  1  0.558800  0.316400  0.911200  1.0  -0.6886
  O  O61  1  0.027400  0.625400  0.635400  1.0  -0.628
  O  O62  1  0.127700  0.951600  0.538100  1.0  -0.7408
  O  O63  1  0.242400  0.209000  0.504000  1.0  -0.7079
  O  O64  1  0.814200  0.736500  0.688100  1.0  -0.6247
  O  O65  1  0.838300  0.319600  0.599500  1.0  -0.7356
  O  O66  1  0.472200  0.227300  0.571500  1.0  -0.1394
  O  O67  1  0.727600  0.470000  0.588800  1.0  -0.6867
  O  O68  1  0.760800  0.662800  0.864600  1.0  -0.6315
