# generated using pymatgen
data_FeH14C22(NO2)2
_symmetry_space_group_name_H-M   'P 1'
_cell_length_a   11.47900000
_cell_length_b   24.45100000
_cell_length_c   16.29900000
_cell_angle_alpha   90.00000000
_cell_angle_beta   90.00000000
_cell_angle_gamma   90.00000000
_symmetry_Int_Tables_number   1
_chemical_formula_structural   FeH14C22(NO2)2
_chemical_formula_sum   'Fe8 H112 C176 N16 O32'
_cell_volume   4574.68969967
_cell_formula_units_Z   8
loop_
 _symmetry_equiv_pos_site_id
 _symmetry_equiv_pos_as_xyz
  1  'x, y, z'
loop_
 _atom_site_type_symbol
 _atom_site_label
 _atom_site_symmetry_multiplicity
 _atom_site_fract_x
 _atom_site_fract_y
 _atom_site_fract_z
 _atom_site_occupancy
 _atom_site_charge
  Fe  Fe1  1  0.644560  0.454280  0.346450  1.0  0.9454
  Fe  Fe2  1  0.644560  0.545720  0.153550  1.0  0.945
  Fe  Fe3  1  0.644560  0.954280  0.653550  1.0  0.9452
  Fe  Fe4  1  0.644560  0.045720  0.846450  1.0  0.9452
  Fe  Fe5  1  0.355440  0.045720  0.346450  1.0  0.9453
  Fe  Fe6  1  0.355440  0.954280  0.153550  1.0  0.9453
  Fe  Fe7  1  0.355440  0.545720  0.653550  1.0  0.9453
  Fe  Fe8  1  0.355440  0.454280  0.846450  1.0  0.9453
  H  H9  1  0.437300  0.513600  0.430800  1.0  0.0981
  H  H10  1  0.235000  0.514100  0.431700  1.0  0.1266
  H  H11  1  0.233700  0.399400  0.254800  1.0  0.1155
  H  H12  1  0.434900  0.399200  0.253900  1.0  0.1017
  H  H13  1  0.057200  0.523900  0.411100  1.0  0.1279
  H  H14  1  0.855800  0.524100  0.409600  1.0  0.0967
  H  H15  1  0.855400  0.386100  0.276100  1.0  0.1011
  H  H16  1  0.057200  0.385000  0.279100  1.0  0.1164
  H  H17  1  0.647400  0.613800  0.505400  1.0  0.1119
  H  H18  1  0.638900  0.655100  0.268600  1.0  0.1036
  H  H19  1  0.644200  0.747000  0.301600  1.0  0.1409
  H  H20  1  0.655500  0.684600  0.609100  1.0  0.1045
  H  H21  1  0.658000  0.775900  0.644600  1.0  0.1058
  H  H22  1  0.652700  0.817700  0.406900  1.0  0.1132
  H  H23  1  0.437300  0.486400  0.069200  1.0  0.098
  H  H24  1  0.235000  0.485900  0.068300  1.0  0.1272
  H  H25  1  0.233700  0.600600  0.245200  1.0  0.1157
  H  H26  1  0.434900  0.600800  0.246100  1.0  0.1018
  H  H27  1  0.057200  0.476100  0.088900  1.0  0.1277
  H  H28  1  0.855800  0.475900  0.090400  1.0  0.0961
  H  H29  1  0.855400  0.613900  0.223900  1.0  0.1009
  H  H30  1  0.057200  0.615000  0.220900  1.0  0.1177
  H  H31  1  0.647400  0.386200  0.994600  1.0  0.1125
  H  H32  1  0.638900  0.344900  0.231400  1.0  0.1049
  H  H33  1  0.644200  0.253000  0.198400  1.0  0.1406
  H  H34  1  0.655500  0.315400  0.890900  1.0  0.104
  H  H35  1  0.658000  0.224100  0.855400  1.0  0.1069
  H  H36  1  0.652700  0.182300  0.093100  1.0  0.1132
  H  H37  1  0.437300  0.013600  0.569200  1.0  0.098
  H  H38  1  0.235000  0.014100  0.568300  1.0  0.126
  H  H39  1  0.233700  0.899400  0.745200  1.0  0.1159
  H  H40  1  0.434900  0.899200  0.746100  1.0  0.1021
  H  H41  1  0.057200  0.023900  0.588900  1.0  0.1276
  H  H42  1  0.855800  0.024100  0.590400  1.0  0.0967
  H  H43  1  0.855400  0.886100  0.723900  1.0  0.1008
  H  H44  1  0.057200  0.885000  0.720900  1.0  0.1164
  H  H45  1  0.647400  0.113800  0.494600  1.0  0.1123
  H  H46  1  0.638900  0.155100  0.731400  1.0  0.1039
  H  H47  1  0.644200  0.247000  0.698400  1.0  0.1404
  H  H48  1  0.655500  0.184600  0.390900  1.0  0.1041
  H  H49  1  0.658000  0.275900  0.355400  1.0  0.1056
  H  H50  1  0.652700  0.317700  0.593100  1.0  0.1126
  H  H51  1  0.437300  0.986400  0.930800  1.0  0.0987
  H  H52  1  0.235000  0.985900  0.931700  1.0  0.1282
  H  H53  1  0.233700  0.100600  0.754800  1.0  0.1156
  H  H54  1  0.434900  0.100800  0.753900  1.0  0.1021
  H  H55  1  0.057200  0.976100  0.911100  1.0  0.1282
  H  H56  1  0.855800  0.975900  0.909600  1.0  0.0965
  H  H57  1  0.855400  0.113900  0.776100  1.0  0.1012
  H  H58  1  0.057200  0.115000  0.779100  1.0  0.1183
  H  H59  1  0.647400  0.886200  0.005400  1.0  0.1119
  H  H60  1  0.638900  0.844900  0.768600  1.0  0.1034
  H  H61  1  0.644200  0.753000  0.801600  1.0  0.1409
  H  H62  1  0.655500  0.815400  0.109100  1.0  0.1042
  H  H63  1  0.658000  0.724100  0.144600  1.0  0.1065
  H  H64  1  0.652700  0.682300  0.906900  1.0  0.1131
  H  H65  1  0.562700  0.986400  0.430800  1.0  0.0979
  H  H66  1  0.765000  0.985900  0.431700  1.0  0.1285
  H  H67  1  0.766300  0.100600  0.254800  1.0  0.1158
  H  H68  1  0.565100  0.100800  0.253900  1.0  0.1021
  H  H69  1  0.942800  0.976100  0.411100  1.0  0.1279
  H  H70  1  0.144200  0.975900  0.409600  1.0  0.0973
  H  H71  1  0.144600  0.113900  0.276100  1.0  0.1009
  H  H72  1  0.942800  0.115000  0.279100  1.0  0.1186
  H  H73  1  0.352600  0.886200  0.505400  1.0  0.1121
  H  H74  1  0.361100  0.844900  0.268600  1.0  0.1037
  H  H75  1  0.355800  0.753000  0.301600  1.0  0.141
  H  H76  1  0.344500  0.815400  0.609100  1.0  0.1047
  H  H77  1  0.342000  0.724100  0.644600  1.0  0.1062
  H  H78  1  0.347300  0.682300  0.406900  1.0  0.1128
  H  H79  1  0.562700  0.013600  0.069200  1.0  0.0976
  H  H80  1  0.765000  0.014100  0.068300  1.0  0.1279
  H  H81  1  0.766300  0.899400  0.245200  1.0  0.116
  H  H82  1  0.565100  0.899200  0.246100  1.0  0.1018
  H  H83  1  0.942800  0.023900  0.088900  1.0  0.1274
  H  H84  1  0.144200  0.024100  0.090400  1.0  0.0971
  H  H85  1  0.144600  0.886100  0.223900  1.0  0.101
  H  H86  1  0.942800  0.885000  0.220900  1.0  0.1161
  H  H87  1  0.352600  0.113800  0.994600  1.0  0.1103
  H  H88  1  0.361100  0.155100  0.231400  1.0  0.1043
  H  H89  1  0.355800  0.247000  0.198400  1.0  0.1413
  H  H90  1  0.344500  0.184600  0.890900  1.0  0.1041
  H  H91  1  0.342000  0.275900  0.855400  1.0  0.1053
  H  H92  1  0.347300  0.317700  0.093100  1.0  0.113
  H  H93  1  0.562700  0.486400  0.569200  1.0  0.0973
  H  H94  1  0.765000  0.485900  0.568300  1.0  0.1276
  H  H95  1  0.766300  0.600600  0.745200  1.0  0.1158
  H  H96  1  0.565100  0.600800  0.746100  1.0  0.1016
  H  H97  1  0.942800  0.476100  0.588900  1.0  0.1275
  H  H98  1  0.144200  0.475900  0.590400  1.0  0.0969
  H  H99  1  0.144600  0.613900  0.723900  1.0  0.1009
  H  H100  1  0.942800  0.615000  0.720900  1.0  0.1176
  H  H101  1  0.352600  0.386200  0.494600  1.0  0.1123
  H  H102  1  0.361100  0.344900  0.731400  1.0  0.1052
  H  H103  1  0.355800  0.253000  0.698400  1.0  0.1415
  H  H104  1  0.344500  0.315400  0.390900  1.0  0.1043
  H  H105  1  0.342000  0.224100  0.355400  1.0  0.1066
  H  H106  1  0.347300  0.182300  0.593100  1.0  0.1131
  H  H107  1  0.562700  0.513600  0.930800  1.0  0.0975
  H  H108  1  0.765000  0.514100  0.931700  1.0  0.1282
  H  H109  1  0.766300  0.399400  0.754800  1.0  0.1157
  H  H110  1  0.565100  0.399200  0.753900  1.0  0.1014
  H  H111  1  0.942800  0.523900  0.911100  1.0  0.1277
  H  H112  1  0.144200  0.524100  0.909600  1.0  0.0973
  H  H113  1  0.144600  0.386100  0.776100  1.0  0.101
  H  H114  1  0.942800  0.385000  0.779100  1.0  0.1159
  H  H115  1  0.352600  0.613800  0.005400  1.0  0.1117
  H  H116  1  0.361100  0.655100  0.768600  1.0  0.104
  H  H117  1  0.355800  0.747000  0.801600  1.0  0.1412
  H  H118  1  0.344500  0.684600  0.109100  1.0  0.1048
  H  H119  1  0.342000  0.775900  0.144600  1.0  0.1052
  H  H120  1  0.347300  0.817700  0.906900  1.0  0.1131
  C  C121  1  0.396200  0.490800  0.395400  1.0  0.1701
  C  C122  1  0.274900  0.491200  0.395900  1.0  -0.0852
  C  C123  1  0.213500  0.457100  0.342800  1.0  -0.0329
  C  C124  1  0.274400  0.422400  0.289900  1.0  -0.0755
  C  C125  1  0.394900  0.422200  0.289400  1.0  0.1575
  C  C126  1  0.078200  0.454400  0.344600  1.0  -0.0521
  C  C127  1  0.017000  0.496200  0.384200  1.0  -0.085
  C  C128  1  0.896300  0.496200  0.383400  1.0  0.1688
  C  C129  1  0.895800  0.413500  0.303800  1.0  0.1701
  C  C130  1  0.016900  0.413100  0.305000  1.0  -0.1031
  C  C131  1  0.643800  0.568200  0.352500  1.0  0.6349
  C  C132  1  0.646900  0.640500  0.464800  1.0  -0.1221
  C  C133  1  0.642900  0.625600  0.382800  1.0  -0.1573
  C  C134  1  0.641800  0.665500  0.323400  1.0  -0.1068
  C  C135  1  0.645000  0.720600  0.342600  1.0  -0.1822
  C  C136  1  0.649300  0.735200  0.424500  1.0  0.0657
  C  C137  1  0.650200  0.695400  0.486200  1.0  0.0553
  C  C138  1  0.654200  0.711200  0.568300  1.0  -0.1242
  C  C139  1  0.656300  0.765800  0.589500  1.0  -0.0382
  C  C140  1  0.655900  0.806000  0.528900  1.0  -0.142
  C  C141  1  0.652700  0.790900  0.447300  1.0  -0.0964
  C  C142  1  0.652900  0.868000  0.552200  1.0  0.6429
  C  C143  1  0.396200  0.509200  0.104600  1.0  0.1694
  C  C144  1  0.274900  0.508800  0.104100  1.0  -0.0834
  C  C145  1  0.213500  0.542900  0.157200  1.0  -0.0325
  C  C146  1  0.274400  0.577600  0.210100  1.0  -0.076
  C  C147  1  0.394900  0.577800  0.210600  1.0  0.1573
  C  C148  1  0.078200  0.545600  0.155400  1.0  -0.052
  C  C149  1  0.017000  0.503800  0.115800  1.0  -0.0832
  C  C150  1  0.896300  0.503800  0.116600  1.0  0.1678
  C  C151  1  0.895800  0.586500  0.196200  1.0  0.17
  C  C152  1  0.016900  0.586900  0.195000  1.0  -0.1028
  C  C153  1  0.643800  0.431800  0.147500  1.0  0.6345
  C  C154  1  0.646900  0.359500  0.035200  1.0  -0.1255
  C  C155  1  0.642900  0.374400  0.117200  1.0  -0.1568
  C  C156  1  0.641800  0.334500  0.176600  1.0  -0.1156
  C  C157  1  0.645000  0.279400  0.157400  1.0  -0.1877
  C  C158  1  0.649300  0.264800  0.075500  1.0  0.065
  C  C159  1  0.650200  0.304600  0.013800  1.0  0.0555
  C  C160  1  0.654200  0.288800  0.931700  1.0  -0.1226
  C  C161  1  0.656300  0.234200  0.910500  1.0  -0.0347
  C  C162  1  0.655900  0.194000  0.971100  1.0  -0.1413
  C  C163  1  0.652700  0.209100  0.052700  1.0  -0.0957
  C  C164  1  0.652900  0.132000  0.947800  1.0  0.6436
  C  C165  1  0.396200  0.990800  0.604600  1.0  0.1684
  C  C166  1  0.274900  0.991200  0.604100  1.0  -0.0852
  C  C167  1  0.213500  0.957100  0.657200  1.0  -0.0328
  C  C168  1  0.274400  0.922400  0.710100  1.0  -0.0748
  C  C169  1  0.394900  0.922200  0.710600  1.0  0.1575
  C  C170  1  0.078200  0.954400  0.655400  1.0  -0.0521
  C  C171  1  0.017000  0.996200  0.615800  1.0  -0.0849
  C  C172  1  0.896300  0.996200  0.616600  1.0  0.1659
  C  C173  1  0.895800  0.913500  0.696200  1.0  0.1729
  C  C174  1  0.016900  0.913100  0.695000  1.0  -0.1035
  C  C175  1  0.643800  0.068200  0.647500  1.0  0.6353
  C  C176  1  0.646900  0.140500  0.535200  1.0  -0.1242
  C  C177  1  0.642900  0.125600  0.617200  1.0  -0.1565
  C  C178  1  0.641800  0.165500  0.676600  1.0  -0.1098
  C  C179  1  0.645000  0.220600  0.657400  1.0  -0.1849
  C  C180  1  0.649300  0.235200  0.575500  1.0  0.0662
  C  C181  1  0.650200  0.195400  0.513800  1.0  0.0554
  C  C182  1  0.654200  0.211200  0.431700  1.0  -0.1227
  C  C183  1  0.656300  0.265800  0.410500  1.0  -0.037
  C  C184  1  0.655900  0.306000  0.471100  1.0  -0.1417
  C  C185  1  0.652700  0.290900  0.552700  1.0  -0.0959
  C  C186  1  0.652900  0.368000  0.447800  1.0  0.6433
  C  C187  1  0.396200  0.009200  0.895400  1.0  0.1698
  C  C188  1  0.274900  0.008800  0.895900  1.0  -0.0836
  C  C189  1  0.213500  0.042900  0.842800  1.0  -0.0327
  C  C190  1  0.274400  0.077600  0.789900  1.0  -0.0758
  C  C191  1  0.394900  0.077800  0.789400  1.0  0.1573
  C  C192  1  0.078200  0.045600  0.844600  1.0  -0.0524
  C  C193  1  0.017000  0.003800  0.884200  1.0  -0.0841
  C  C194  1  0.896300  0.003800  0.883400  1.0  0.1677
  C  C195  1  0.895800  0.086500  0.803800  1.0  0.1682
  C  C196  1  0.016900  0.086900  0.805000  1.0  -0.1024
  C  C197  1  0.643800  0.931800  0.852500  1.0  0.6336
  C  C198  1  0.646900  0.859500  0.964800  1.0  -0.1221
  C  C199  1  0.642900  0.874400  0.882800  1.0  -0.1606
  C  C200  1  0.641800  0.834500  0.823400  1.0  -0.1129
  C  C201  1  0.645000  0.779400  0.842600  1.0  -0.1879
  C  C202  1  0.649300  0.764800  0.924500  1.0  0.0652
  C  C203  1  0.650200  0.804600  0.986200  1.0  0.0554
  C  C204  1  0.654200  0.788800  0.068300  1.0  -0.124
  C  C205  1  0.656300  0.734200  0.089500  1.0  -0.0376
  C  C206  1  0.655900  0.694000  0.028900  1.0  -0.1416
  C  C207  1  0.652700  0.709100  0.947300  1.0  -0.0952
  C  C208  1  0.652900  0.632000  0.052200  1.0  0.6429
  C  C209  1  0.603800  0.009200  0.395400  1.0  0.169
  C  C210  1  0.725100  0.008800  0.395900  1.0  -0.0888
  C  C211  1  0.786500  0.042900  0.342800  1.0  -0.034
  C  C212  1  0.725600  0.077600  0.289900  1.0  -0.0753
  C  C213  1  0.605100  0.077800  0.289400  1.0  0.1576
  C  C214  1  0.921800  0.045600  0.344600  1.0  -0.0519
  C  C215  1  0.983000  0.003800  0.384200  1.0  -0.0859
  C  C216  1  0.103700  0.003800  0.383400  1.0  0.1717
  C  C217  1  0.104200  0.086500  0.303800  1.0  0.1688
  C  C218  1  0.983100  0.086900  0.305000  1.0  -0.1051
  C  C219  1  0.356200  0.931800  0.352500  1.0  0.6347
  C  C220  1  0.353100  0.859500  0.464800  1.0  -0.1222
  C  C221  1  0.357100  0.874400  0.382800  1.0  -0.1592
  C  C222  1  0.358200  0.834500  0.323400  1.0  -0.1141
  C  C223  1  0.355000  0.779400  0.342600  1.0  -0.1871
  C  C224  1  0.350700  0.764800  0.424500  1.0  0.058
  C  C225  1  0.349800  0.804600  0.486200  1.0  0.0554
  C  C226  1  0.345800  0.788800  0.568300  1.0  -0.1259
  C  C227  1  0.343700  0.734200  0.589500  1.0  -0.0311
  C  C228  1  0.344100  0.694000  0.528900  1.0  -0.1432
  C  C229  1  0.347300  0.709100  0.447300  1.0  -0.0975
  C  C230  1  0.347100  0.632000  0.552200  1.0  0.6418
  C  C231  1  0.603800  0.990800  0.104600  1.0  0.1687
  C  C232  1  0.725100  0.991200  0.104100  1.0  -0.09
  C  C233  1  0.786500  0.957100  0.157200  1.0  -0.034
  C  C234  1  0.725600  0.922400  0.210100  1.0  -0.0805
  C  C235  1  0.605100  0.922200  0.210600  1.0  0.1572
  C  C236  1  0.921800  0.954400  0.155400  1.0  -0.0518
  C  C237  1  0.983000  0.996200  0.115800  1.0  -0.0863
  C  C238  1  0.103700  0.996200  0.116600  1.0  0.1686
  C  C239  1  0.104200  0.913500  0.196200  1.0  0.1732
  C  C240  1  0.983100  0.913100  0.195000  1.0  -0.1058
  C  C241  1  0.356200  0.068200  0.147500  1.0  0.6347
  C  C242  1  0.353100  0.140500  0.035200  1.0  -0.1235
  C  C243  1  0.357100  0.125600  0.117200  1.0  -0.1563
  C  C244  1  0.358200  0.165500  0.176600  1.0  -0.1161
  C  C245  1  0.355000  0.220600  0.157400  1.0  -0.1836
  C  C246  1  0.350700  0.235200  0.075500  1.0  0.0576
  C  C247  1  0.349800  0.195400  0.013800  1.0  0.0556
  C  C248  1  0.345800  0.211200  0.931700  1.0  -0.1236
  C  C249  1  0.343700  0.265800  0.910500  1.0  -0.0365
  C  C250  1  0.344100  0.306000  0.971100  1.0  -0.1423
  C  C251  1  0.347300  0.290900  0.052700  1.0  -0.0978
  C  C252  1  0.347100  0.368000  0.947800  1.0  0.6429
  C  C253  1  0.603800  0.509200  0.604600  1.0  0.1685
  C  C254  1  0.725100  0.508800  0.604100  1.0  -0.0889
  C  C255  1  0.786500  0.542900  0.657200  1.0  -0.0339
  C  C256  1  0.725600  0.577600  0.710100  1.0  -0.0754
  C  C257  1  0.605100  0.577800  0.710600  1.0  0.1572
  C  C258  1  0.921800  0.545600  0.655400  1.0  -0.0514
  C  C259  1  0.983000  0.503800  0.615800  1.0  -0.0852
  C  C260  1  0.103700  0.503800  0.616600  1.0  0.1705
  C  C261  1  0.104200  0.586500  0.696200  1.0  0.1711
  C  C262  1  0.983100  0.586900  0.695000  1.0  -0.1051
  C  C263  1  0.356200  0.431800  0.647500  1.0  0.6341
  C  C264  1  0.353100  0.359500  0.535200  1.0  -0.1241
  C  C265  1  0.357100  0.374400  0.617200  1.0  -0.1589
  C  C266  1  0.358200  0.334500  0.676600  1.0  -0.1176
  C  C267  1  0.355000  0.279400  0.657400  1.0  -0.1852
  C  C268  1  0.350700  0.264800  0.575500  1.0  0.0593
  C  C269  1  0.349800  0.304600  0.513800  1.0  0.0557
  C  C270  1  0.345800  0.288800  0.431700  1.0  -0.1247
  C  C271  1  0.343700  0.234200  0.410500  1.0  -0.0353
  C  C272  1  0.344100  0.194000  0.471100  1.0  -0.143
  C  C273  1  0.347300  0.209100  0.552700  1.0  -0.0964
  C  C274  1  0.347100  0.132000  0.447800  1.0  0.6416
  C  C275  1  0.603800  0.490800  0.895400  1.0  0.1688
  C  C276  1  0.725100  0.491200  0.895900  1.0  -0.0896
  C  C277  1  0.786500  0.457100  0.842800  1.0  -0.0341
  C  C278  1  0.725600  0.422400  0.789900  1.0  -0.0811
  C  C279  1  0.605100  0.422200  0.789400  1.0  0.1575
  C  C280  1  0.921800  0.454400  0.844600  1.0  -0.052
  C  C281  1  0.983000  0.496200  0.884200  1.0  -0.0865
  C  C282  1  0.103700  0.496200  0.883400  1.0  0.1712
  C  C283  1  0.104200  0.413500  0.803800  1.0  0.1711
  C  C284  1  0.983100  0.413100  0.805000  1.0  -0.1055
  C  C285  1  0.356200  0.568200  0.852500  1.0  0.6352
  C  C286  1  0.353100  0.640500  0.964800  1.0  -0.121
  C  C287  1  0.357100  0.625600  0.882800  1.0  -0.1592
  C  C288  1  0.358200  0.665500  0.823400  1.0  -0.1131
  C  C289  1  0.355000  0.720600  0.842600  1.0  -0.1821
  C  C290  1  0.350700  0.735200  0.924500  1.0  0.0585
  C  C291  1  0.349800  0.695400  0.986200  1.0  0.0553
  C  C292  1  0.345800  0.711200  0.068300  1.0  -0.1241
  C  C293  1  0.343700  0.765800  0.089500  1.0  -0.0372
  C  C294  1  0.344100  0.806000  0.028900  1.0  -0.1425
  C  C295  1  0.347300  0.790900  0.947300  1.0  -0.0993
  C  C296  1  0.347100  0.868000  0.052200  1.0  0.6437
  N  N297  1  0.456100  0.456560  0.342100  1.0  -0.3602
  N  N298  1  0.835200  0.454850  0.343900  1.0  -0.3623
  N  N299  1  0.456100  0.543440  0.157900  1.0  -0.3599
  N  N300  1  0.835200  0.545150  0.156100  1.0  -0.3629
  N  N301  1  0.456100  0.956560  0.657900  1.0  -0.3616
  N  N302  1  0.835200  0.954850  0.656100  1.0  -0.364
  N  N303  1  0.456100  0.043440  0.842100  1.0  -0.36
  N  N304  1  0.835200  0.045150  0.843900  1.0  -0.3631
  N  N305  1  0.543900  0.043440  0.342100  1.0  -0.3612
  N  N306  1  0.164800  0.045150  0.343900  1.0  -0.3655
  N  N307  1  0.543900  0.956560  0.157900  1.0  -0.3608
  N  N308  1  0.164800  0.954850  0.156100  1.0  -0.3658
  N  N309  1  0.543900  0.543440  0.657900  1.0  -0.361
  N  N310  1  0.164800  0.545150  0.656100  1.0  -0.3663
  N  N311  1  0.543900  0.456560  0.842100  1.0  -0.3599
  N  N312  1  0.164800  0.454850  0.843900  1.0  -0.3655
  O  O313  1  0.644100  0.529500  0.401700  1.0  -0.5656
  O  O314  1  0.644200  0.559980  0.275990  1.0  -0.6608
  O  O315  1  0.670900  0.904760  0.507900  1.0  -0.5963
  O  O316  1  0.642000  0.871200  0.630000  1.0  -0.6061
  O  O317  1  0.644100  0.470500  0.098300  1.0  -0.5669
  O  O318  1  0.644200  0.440020  0.224010  1.0  -0.6603
  O  O319  1  0.670900  0.095240  0.992100  1.0  -0.5982
  O  O320  1  0.642000  0.128800  0.870000  1.0  -0.6058
  O  O321  1  0.644100  0.029500  0.598300  1.0  -0.5668
  O  O322  1  0.644200  0.059980  0.724010  1.0  -0.659
  O  O323  1  0.670900  0.404760  0.492100  1.0  -0.597
  O  O324  1  0.642000  0.371200  0.370000  1.0  -0.6058
  O  O325  1  0.644100  0.970500  0.901700  1.0  -0.5658
  O  O326  1  0.644200  0.940020  0.775990  1.0  -0.6594
  O  O327  1  0.670900  0.595240  0.007900  1.0  -0.5975
  O  O328  1  0.642000  0.628800  0.130000  1.0  -0.6059
  O  O329  1  0.355900  0.970500  0.401700  1.0  -0.5671
  O  O330  1  0.355800  0.940020  0.275990  1.0  -0.6614
  O  O331  1  0.329100  0.595240  0.507900  1.0  -0.5985
  O  O332  1  0.358000  0.628800  0.630000  1.0  -0.6061
  O  O333  1  0.355900  0.029500  0.098300  1.0  -0.5673
  O  O334  1  0.355800  0.059980  0.224010  1.0  -0.661
  O  O335  1  0.329100  0.404760  0.992100  1.0  -0.5983
  O  O336  1  0.358000  0.371200  0.870000  1.0  -0.6057
  O  O337  1  0.355900  0.470500  0.598300  1.0  -0.5674
  O  O338  1  0.355800  0.440020  0.724010  1.0  -0.6599
  O  O339  1  0.329100  0.095240  0.492100  1.0  -0.5986
  O  O340  1  0.358000  0.128800  0.370000  1.0  -0.6057
  O  O341  1  0.355900  0.529500  0.901700  1.0  -0.5659
  O  O342  1  0.355800  0.559980  0.775990  1.0  -0.661
  O  O343  1  0.329100  0.904760  0.007900  1.0  -0.5978
  O  O344  1  0.358000  0.871200  0.130000  1.0  -0.6062
