# generated using pymatgen
data_Zn4H12C24O13
_symmetry_space_group_name_H-M   'P 1'
_cell_length_a   18.30140000
_cell_length_b   18.30140000
_cell_length_c   18.30140000
_cell_angle_alpha   60.00000000
_cell_angle_beta   60.00000000
_cell_angle_gamma   60.00000000
_symmetry_Int_Tables_number   1
_chemical_formula_structural   Zn4H12C24O13
_chemical_formula_sum   'Zn8 H24 C48 O26'
_cell_volume   4334.48936476
_cell_formula_units_Z   2
loop_
 _symmetry_equiv_pos_site_id
 _symmetry_equiv_pos_as_xyz
  1  'x, y, z'
loop_
 _atom_site_type_symbol
 _atom_site_label
 _atom_site_symmetry_multiplicity
 _atom_site_fract_x
 _atom_site_fract_y
 _atom_site_fract_z
 _atom_site_occupancy
 _atom_site_charge
  Zn  Zn1  1  0.206400  0.380800  0.206400  1.0  1.154
  Zn  Zn2  1  0.380800  0.206400  0.206400  1.0  1.1542
  Zn  Zn3  1  0.206400  0.206400  0.206400  1.0  1.156
  Zn  Zn4  1  0.206400  0.206400  0.380800  1.0  1.1569
  Zn  Zn5  1  0.619200  0.793600  0.793600  1.0  1.1546
  Zn  Zn6  1  0.793600  0.619200  0.793600  1.0  1.1538
  Zn  Zn7  1  0.793600  0.793600  0.793600  1.0  1.1565
  Zn  Zn8  1  0.793600  0.793600  0.619200  1.0  1.1555
  H  H9  1  0.048500  0.565700  0.048500  1.0  0.1115
  H  H10  1  0.565700  0.048500  0.337300  1.0  0.1109
  H  H11  1  0.048500  0.337300  0.048500  1.0  0.112
  H  H12  1  0.337300  0.048500  0.565700  1.0  0.1111
  H  H13  1  0.048500  0.048500  0.337300  1.0  0.1114
  H  H14  1  0.565700  0.337300  0.048500  1.0  0.1119
  H  H15  1  0.048500  0.048500  0.565700  1.0  0.1107
  H  H16  1  0.337300  0.565700  0.048500  1.0  0.1116
  H  H17  1  0.048500  0.337300  0.565700  1.0  0.1119
  H  H18  1  0.565700  0.048500  0.048500  1.0  0.1112
  H  H19  1  0.048500  0.565700  0.337300  1.0  0.111
  H  H20  1  0.337300  0.048500  0.048500  1.0  0.1114
  H  H21  1  0.434300  0.951500  0.951500  1.0  0.1109
  H  H22  1  0.951500  0.434300  0.662700  1.0  0.1117
  H  H23  1  0.662700  0.951500  0.951500  1.0  0.111
  H  H24  1  0.951500  0.662700  0.434300  1.0  0.1123
  H  H25  1  0.951500  0.951500  0.662700  1.0  0.1108
  H  H26  1  0.662700  0.434300  0.951500  1.0  0.1114
  H  H27  1  0.951500  0.951500  0.434300  1.0  0.1115
  H  H28  1  0.434300  0.662700  0.951500  1.0  0.1121
  H  H29  1  0.662700  0.951500  0.434300  1.0  0.1112
  H  H30  1  0.951500  0.434300  0.951500  1.0  0.1111
  H  H31  1  0.434300  0.951500  0.662700  1.0  0.1118
  H  H32  1  0.951500  0.662700  0.951500  1.0  0.1119
  C  C33  1  0.026400  0.539200  0.026400  1.0  -0.0831
  C  C34  1  0.539200  0.026400  0.408000  1.0  -0.0832
  C  C35  1  0.026400  0.408000  0.026400  1.0  -0.0846
  C  C36  1  0.408000  0.026400  0.539200  1.0  -0.0828
  C  C37  1  0.026400  0.026400  0.408000  1.0  -0.0817
  C  C38  1  0.539200  0.408000  0.026400  1.0  -0.0842
  C  C39  1  0.026400  0.026400  0.539200  1.0  -0.0814
  C  C40  1  0.408000  0.539200  0.026400  1.0  -0.0836
  C  C41  1  0.026400  0.408000  0.539200  1.0  -0.0842
  C  C42  1  0.539200  0.026400  0.026400  1.0  -0.0822
  C  C43  1  0.026400  0.539200  0.408000  1.0  -0.084
  C  C44  1  0.408000  0.026400  0.026400  1.0  -0.0825
  C  C45  1  0.460800  0.973600  0.973600  1.0  -0.0813
  C  C46  1  0.973600  0.460800  0.592000  1.0  -0.0822
  C  C47  1  0.592000  0.973600  0.973600  1.0  -0.0828
  C  C48  1  0.973600  0.592000  0.460800  1.0  -0.0848
  C  C49  1  0.973600  0.973600  0.592000  1.0  -0.0813
  C  C50  1  0.592000  0.460800  0.973600  1.0  -0.0829
  C  C51  1  0.973600  0.973600  0.460800  1.0  -0.0813
  C  C52  1  0.460800  0.592000  0.973600  1.0  -0.0847
  C  C53  1  0.592000  0.973600  0.460800  1.0  -0.083
  C  C54  1  0.973600  0.460800  0.973600  1.0  -0.0827
  C  C55  1  0.460800  0.973600  0.592000  1.0  -0.0812
  C  C56  1  0.973600  0.592000  0.973600  1.0  -0.0844
  C  C57  1  0.110500  0.389500  0.110500  1.0  0.7146
  C  C58  1  0.054300  0.445700  0.054300  1.0  -0.0939
  C  C59  1  0.389500  0.110500  0.389500  1.0  0.7153
  C  C60  1  0.445700  0.054300  0.445700  1.0  -0.0938
  C  C61  1  0.110500  0.110500  0.389500  1.0  0.7135
  C  C62  1  0.054300  0.054300  0.445700  1.0  -0.0929
  C  C63  1  0.389500  0.389500  0.110500  1.0  0.7144
  C  C64  1  0.445700  0.445700  0.054300  1.0  -0.0937
  C  C65  1  0.110500  0.389500  0.389500  1.0  0.7146
  C  C66  1  0.054300  0.445700  0.445700  1.0  -0.094
  C  C67  1  0.389500  0.110500  0.110500  1.0  0.7146
  C  C68  1  0.445700  0.054300  0.054300  1.0  -0.0939
  C  C69  1  0.610500  0.889500  0.889500  1.0  0.7146
  C  C70  1  0.554300  0.945700  0.945700  1.0  -0.094
  C  C71  1  0.889500  0.610500  0.610500  1.0  0.7146
  C  C72  1  0.945700  0.554300  0.554300  1.0  -0.0939
  C  C73  1  0.889500  0.889500  0.610500  1.0  0.7144
  C  C74  1  0.945700  0.945700  0.554300  1.0  -0.0937
  C  C75  1  0.610500  0.610500  0.889500  1.0  0.7135
  C  C76  1  0.554300  0.554300  0.945700  1.0  -0.0929
  C  C77  1  0.610500  0.889500  0.610500  1.0  0.7146
  C  C78  1  0.554300  0.945700  0.554300  1.0  -0.0939
  C  C79  1  0.889500  0.610500  0.889500  1.0  0.7153
  C  C80  1  0.945700  0.554300  0.945700  1.0  -0.0938
  O  O81  1  0.250000  0.250000  0.250000  1.0  -1.2683
  O  O82  1  0.750000  0.750000  0.750000  1.0  -1.2683
  O  O83  1  0.133300  0.428300  0.133300  1.0  -0.6168
  O  O84  1  0.428300  0.133300  0.305100  1.0  -0.6182
  O  O85  1  0.133300  0.305100  0.133300  1.0  -0.6199
  O  O86  1  0.305100  0.133300  0.428300  1.0  -0.6184
  O  O87  1  0.133300  0.133300  0.305100  1.0  -0.619
  O  O88  1  0.428300  0.305100  0.133300  1.0  -0.6183
  O  O89  1  0.133300  0.133300  0.428300  1.0  -0.6183
  O  O90  1  0.305100  0.428300  0.133300  1.0  -0.6171
  O  O91  1  0.133300  0.305100  0.428300  1.0  -0.6194
  O  O92  1  0.428300  0.133300  0.133300  1.0  -0.6179
  O  O93  1  0.133300  0.428300  0.305100  1.0  -0.6169
  O  O94  1  0.305100  0.133300  0.133300  1.0  -0.6185
  O  O95  1  0.571700  0.866700  0.866700  1.0  -0.6179
  O  O96  1  0.866700  0.571700  0.694900  1.0  -0.6173
  O  O97  1  0.694900  0.866700  0.866700  1.0  -0.6182
  O  O98  1  0.866700  0.694900  0.571700  1.0  -0.6196
  O  O99  1  0.866700  0.866700  0.694900  1.0  -0.6181
  O  O100  1  0.694900  0.571700  0.866700  1.0  -0.6174
  O  O101  1  0.866700  0.866700  0.571700  1.0  -0.6183
  O  O102  1  0.571700  0.694900  0.866700  1.0  -0.6199
  O  O103  1  0.694900  0.866700  0.571700  1.0  -0.6184
  O  O104  1  0.866700  0.571700  0.866700  1.0  -0.6175
  O  O105  1  0.571700  0.866700  0.694900  1.0  -0.6182
  O  O106  1  0.866700  0.694900  0.866700  1.0  -0.6193
