# generated using pymatgen
data_Zn4H12C24O13
_symmetry_space_group_name_H-M   'P 1'
_cell_length_a   25.85600000
_cell_length_b   25.85600000
_cell_length_c   25.85600000
_cell_angle_alpha   90.00000000
_cell_angle_beta   90.00000000
_cell_angle_gamma   90.00000000
_symmetry_Int_Tables_number   1
_chemical_formula_structural   Zn4H12C24O13
_chemical_formula_sum   'Zn32 H96 C192 O104'
_cell_volume   17285.58242202
_cell_formula_units_Z   8
loop_
 _symmetry_equiv_pos_site_id
 _symmetry_equiv_pos_as_xyz
  1  'x, y, z'
loop_
 _atom_site_type_symbol
 _atom_site_label
 _atom_site_symmetry_multiplicity
 _atom_site_fract_x
 _atom_site_fract_y
 _atom_site_fract_z
 _atom_site_occupancy
 _atom_site_charge
  Zn  Zn1  1  0.294600  0.294600  0.205400  1.0  1.0907
  Zn  Zn2  1  0.705400  0.705400  0.205400  1.0  1.0915
  Zn  Zn3  1  0.205400  0.205400  0.205400  1.0  1.0915
  Zn  Zn4  1  0.705400  0.294600  0.794600  1.0  1.0918
  Zn  Zn5  1  0.205400  0.294600  0.294600  1.0  1.0918
  Zn  Zn6  1  0.294600  0.705400  0.794600  1.0  1.0923
  Zn  Zn7  1  0.294600  0.205400  0.294600  1.0  1.0923
  Zn  Zn8  1  0.205400  0.794600  0.794600  1.0  1.0918
  Zn  Zn9  1  0.205400  0.705400  0.705400  1.0  1.0915
  Zn  Zn10  1  0.794600  0.705400  0.294600  1.0  1.0923
  Zn  Zn11  1  0.794600  0.205400  0.794600  1.0  1.0923
  Zn  Zn12  1  0.794600  0.294600  0.705400  1.0  1.0907
  Zn  Zn13  1  0.794600  0.794600  0.205400  1.0  1.0907
  Zn  Zn14  1  0.705400  0.205400  0.705400  1.0  1.0915
  Zn  Zn15  1  0.294600  0.794600  0.705400  1.0  1.0907
  Zn  Zn16  1  0.705400  0.794600  0.294600  1.0  1.0918
  Zn  Zn17  1  0.294600  0.294600  0.794600  1.0  1.0915
  Zn  Zn18  1  0.705400  0.705400  0.794600  1.0  1.0923
  Zn  Zn19  1  0.705400  0.205400  0.294600  1.0  1.0923
  Zn  Zn20  1  0.205400  0.705400  0.294600  1.0  1.0923
  Zn  Zn21  1  0.294600  0.705400  0.205400  1.0  1.0913
  Zn  Zn22  1  0.705400  0.294600  0.205400  1.0  1.091
  Zn  Zn23  1  0.205400  0.794600  0.205400  1.0  1.091
  Zn  Zn24  1  0.294600  0.205400  0.705400  1.0  1.0913
  Zn  Zn25  1  0.205400  0.205400  0.794600  1.0  1.0923
  Zn  Zn26  1  0.705400  0.794600  0.705400  1.0  1.091
  Zn  Zn27  1  0.205400  0.294600  0.705400  1.0  1.091
  Zn  Zn28  1  0.294600  0.794600  0.294600  1.0  1.0915
  Zn  Zn29  1  0.794600  0.294600  0.294600  1.0  1.0915
  Zn  Zn30  1  0.794600  0.794600  0.794600  1.0  1.0915
  Zn  Zn31  1  0.794600  0.705400  0.705400  1.0  1.0913
  Zn  Zn32  1  0.794600  0.205400  0.205400  1.0  1.0913
  H  H33  1  0.306900  0.452500  0.193100  1.0  0.1111
  H  H34  1  0.306900  0.952500  0.693100  1.0  0.1111
  H  H35  1  0.693100  0.547500  0.193100  1.0  0.111
  H  H36  1  0.693100  0.047500  0.693100  1.0  0.111
  H  H37  1  0.193100  0.047500  0.193100  1.0  0.111
  H  H38  1  0.693100  0.452500  0.806900  1.0  0.1109
  H  H39  1  0.693100  0.952500  0.306900  1.0  0.1109
  H  H40  1  0.193100  0.452500  0.306900  1.0  0.1109
  H  H41  1  0.306900  0.547500  0.806900  1.0  0.1106
  H  H42  1  0.306900  0.047500  0.306900  1.0  0.1106
  H  H43  1  0.193100  0.306900  0.452500  1.0  0.1118
  H  H44  1  0.193100  0.806900  0.952500  1.0  0.1118
  H  H45  1  0.193100  0.693100  0.547500  1.0  0.1115
  H  H46  1  0.193100  0.193100  0.047500  1.0  0.1115
  H  H47  1  0.806900  0.693100  0.452500  1.0  0.1116
  H  H48  1  0.806900  0.193100  0.952500  1.0  0.1116
  H  H49  1  0.306900  0.193100  0.452500  1.0  0.1116
  H  H50  1  0.806900  0.306900  0.547500  1.0  0.1113
  H  H51  1  0.806900  0.806900  0.047500  1.0  0.1113
  H  H52  1  0.306900  0.306900  0.047500  1.0  0.1113
  H  H53  1  0.452500  0.193100  0.306900  1.0  0.1116
  H  H54  1  0.952500  0.193100  0.806900  1.0  0.1116
  H  H55  1  0.547500  0.193100  0.693100  1.0  0.1118
  H  H56  1  0.047500  0.193100  0.193100  1.0  0.1118
  H  H57  1  0.452500  0.806900  0.693100  1.0  0.1124
  H  H58  1  0.452500  0.306900  0.193100  1.0  0.1124
  H  H59  1  0.952500  0.806900  0.193100  1.0  0.1124
  H  H60  1  0.547500  0.806900  0.306900  1.0  0.1117
  H  H61  1  0.047500  0.806900  0.806900  1.0  0.1117
  H  H62  1  0.047500  0.306900  0.306900  1.0  0.1117
  H  H63  1  0.452500  0.306900  0.806900  1.0  0.1121
  H  H64  1  0.952500  0.306900  0.306900  1.0  0.1121
  H  H65  1  0.547500  0.693100  0.806900  1.0  0.1114
  H  H66  1  0.547500  0.193100  0.306900  1.0  0.1114
  H  H67  1  0.047500  0.693100  0.306900  1.0  0.1114
  H  H68  1  0.452500  0.693100  0.193100  1.0  0.1118
  H  H69  1  0.952500  0.693100  0.693100  1.0  0.1118
  H  H70  1  0.952500  0.193100  0.193100  1.0  0.1118
  H  H71  1  0.547500  0.306900  0.193100  1.0  0.1119
  H  H72  1  0.047500  0.306900  0.693100  1.0  0.1119
  H  H73  1  0.306900  0.193100  0.547500  1.0  0.1111
  H  H74  1  0.306900  0.693100  0.047500  1.0  0.1111
  H  H75  1  0.693100  0.193100  0.452500  1.0  0.1116
  H  H76  1  0.693100  0.693100  0.952500  1.0  0.1116
  H  H77  1  0.193100  0.193100  0.952500  1.0  0.1116
  H  H78  1  0.693100  0.806900  0.547500  1.0  0.1115
  H  H79  1  0.693100  0.306900  0.047500  1.0  0.1115
  H  H80  1  0.193100  0.306900  0.547500  1.0  0.1115
  H  H81  1  0.306900  0.806900  0.452500  1.0  0.1116
  H  H82  1  0.306900  0.306900  0.952500  1.0  0.1116
  H  H83  1  0.193100  0.452500  0.693100  1.0  0.111
  H  H84  1  0.193100  0.952500  0.193100  1.0  0.111
  H  H85  1  0.193100  0.547500  0.306900  1.0  0.1108
  H  H86  1  0.193100  0.047500  0.806900  1.0  0.1108
  H  H87  1  0.806900  0.452500  0.306900  1.0  0.1106
  H  H88  1  0.806900  0.952500  0.806900  1.0  0.1106
  H  H89  1  0.306900  0.952500  0.306900  1.0  0.1106
  H  H90  1  0.806900  0.547500  0.693100  1.0  0.1111
  H  H91  1  0.806900  0.047500  0.193100  1.0  0.1111
  H  H92  1  0.306900  0.547500  0.193100  1.0  0.1111
  H  H93  1  0.693100  0.547500  0.806900  1.0  0.1108
  H  H94  1  0.693100  0.047500  0.306900  1.0  0.1108
  H  H95  1  0.306900  0.452500  0.806900  1.0  0.1106
  H  H96  1  0.306900  0.047500  0.693100  1.0  0.1111
  H  H97  1  0.693100  0.452500  0.193100  1.0  0.111
  H  H98  1  0.693100  0.952500  0.693100  1.0  0.111
  H  H99  1  0.806900  0.693100  0.547500  1.0  0.1111
  H  H100  1  0.806900  0.193100  0.047500  1.0  0.1111
  H  H101  1  0.806900  0.306900  0.452500  1.0  0.1116
  H  H102  1  0.806900  0.806900  0.952500  1.0  0.1116
  H  H103  1  0.193100  0.806900  0.047500  1.0  0.1115
  H  H104  1  0.193100  0.693100  0.452500  1.0  0.1116
  H  H105  1  0.547500  0.806900  0.693100  1.0  0.1119
  H  H106  1  0.047500  0.806900  0.193100  1.0  0.1119
  H  H107  1  0.452500  0.806900  0.306900  1.0  0.1121
  H  H108  1  0.952500  0.806900  0.806900  1.0  0.1121
  H  H109  1  0.047500  0.193100  0.806900  1.0  0.1114
  H  H110  1  0.452500  0.193100  0.693100  1.0  0.1118
  H  H111  1  0.547500  0.693100  0.193100  1.0  0.1118
  H  H112  1  0.047500  0.693100  0.693100  1.0  0.1118
  H  H113  1  0.952500  0.306900  0.693100  1.0  0.1124
  H  H114  1  0.547500  0.306900  0.806900  1.0  0.1117
  H  H115  1  0.452500  0.693100  0.806900  1.0  0.1116
  H  H116  1  0.952500  0.693100  0.306900  1.0  0.1116
  H  H117  1  0.693100  0.806900  0.452500  1.0  0.1118
  H  H118  1  0.693100  0.306900  0.952500  1.0  0.1118
  H  H119  1  0.306900  0.806900  0.547500  1.0  0.1113
  H  H120  1  0.306900  0.693100  0.952500  1.0  0.1116
  H  H121  1  0.693100  0.193100  0.547500  1.0  0.1115
  H  H122  1  0.693100  0.693100  0.047500  1.0  0.1115
  H  H123  1  0.806900  0.547500  0.306900  1.0  0.1106
  H  H124  1  0.806900  0.047500  0.806900  1.0  0.1106
  H  H125  1  0.806900  0.452500  0.693100  1.0  0.1111
  H  H126  1  0.806900  0.952500  0.193100  1.0  0.1111
  H  H127  1  0.193100  0.547500  0.693100  1.0  0.111
  H  H128  1  0.193100  0.952500  0.806900  1.0  0.1109
  C  C129  1  0.282900  0.473300  0.217100  1.0  -0.0926
  C  C130  1  0.282900  0.973300  0.717100  1.0  -0.0926
  C  C131  1  0.717100  0.526700  0.217100  1.0  -0.0922
  C  C132  1  0.717100  0.026700  0.717100  1.0  -0.0922
  C  C133  1  0.217100  0.026700  0.217100  1.0  -0.0922
  C  C134  1  0.717100  0.473300  0.782900  1.0  -0.0925
  C  C135  1  0.717100  0.973300  0.282900  1.0  -0.0925
  C  C136  1  0.217100  0.473300  0.282900  1.0  -0.0925
  C  C137  1  0.282900  0.526700  0.782900  1.0  -0.0936
  C  C138  1  0.282900  0.026700  0.282900  1.0  -0.0936
  C  C139  1  0.217100  0.282900  0.473300  1.0  -0.0944
  C  C140  1  0.217100  0.782900  0.973300  1.0  -0.0944
  C  C141  1  0.217100  0.717100  0.526700  1.0  -0.0931
  C  C142  1  0.217100  0.217100  0.026700  1.0  -0.0931
  C  C143  1  0.782900  0.717100  0.473300  1.0  -0.0932
  C  C144  1  0.782900  0.217100  0.973300  1.0  -0.0932
  C  C145  1  0.282900  0.217100  0.473300  1.0  -0.0932
  C  C146  1  0.782900  0.282900  0.526700  1.0  -0.0957
  C  C147  1  0.782900  0.782900  0.026700  1.0  -0.0957
  C  C148  1  0.282900  0.282900  0.026700  1.0  -0.0957
  C  C149  1  0.473300  0.217100  0.282900  1.0  -0.0946
  C  C150  1  0.973300  0.217100  0.782900  1.0  -0.0946
  C  C151  1  0.526700  0.217100  0.717100  1.0  -0.0938
  C  C152  1  0.026700  0.217100  0.217100  1.0  -0.0938
  C  C153  1  0.473300  0.782900  0.717100  1.0  -0.0959
  C  C154  1  0.473300  0.282900  0.217100  1.0  -0.0959
  C  C155  1  0.973300  0.782900  0.217100  1.0  -0.0959
  C  C156  1  0.526700  0.782900  0.282900  1.0  -0.0954
  C  C157  1  0.026700  0.782900  0.782900  1.0  -0.0954
  C  C158  1  0.026700  0.282900  0.282900  1.0  -0.0954
  C  C159  1  0.473300  0.282900  0.782900  1.0  -0.0969
  C  C160  1  0.973300  0.282900  0.282900  1.0  -0.0969
  C  C161  1  0.526700  0.717100  0.782900  1.0  -0.0936
  C  C162  1  0.526700  0.217100  0.282900  1.0  -0.0936
  C  C163  1  0.026700  0.717100  0.282900  1.0  -0.0936
  C  C164  1  0.473300  0.717100  0.217100  1.0  -0.0939
  C  C165  1  0.973300  0.717100  0.717100  1.0  -0.0939
  C  C166  1  0.973300  0.217100  0.217100  1.0  -0.0939
  C  C167  1  0.526700  0.282900  0.217100  1.0  -0.0954
  C  C168  1  0.026700  0.282900  0.717100  1.0  -0.0954
  C  C169  1  0.282900  0.217100  0.526700  1.0  -0.0937
  C  C170  1  0.282900  0.717100  0.026700  1.0  -0.0937
  C  C171  1  0.717100  0.217100  0.473300  1.0  -0.0925
  C  C172  1  0.717100  0.717100  0.973300  1.0  -0.0925
  C  C173  1  0.217100  0.217100  0.973300  1.0  -0.0925
  C  C174  1  0.717100  0.782900  0.526700  1.0  -0.0956
  C  C175  1  0.717100  0.282900  0.026700  1.0  -0.0956
  C  C176  1  0.217100  0.282900  0.526700  1.0  -0.0956
  C  C177  1  0.282900  0.782900  0.473300  1.0  -0.0946
  C  C178  1  0.282900  0.282900  0.973300  1.0  -0.0946
  C  C179  1  0.217100  0.473300  0.717100  1.0  -0.0916
  C  C180  1  0.217100  0.973300  0.217100  1.0  -0.0916
  C  C181  1  0.217100  0.526700  0.282900  1.0  -0.0934
  C  C182  1  0.217100  0.026700  0.782900  1.0  -0.0934
  C  C183  1  0.782900  0.473300  0.282900  1.0  -0.0924
  C  C184  1  0.782900  0.973300  0.782900  1.0  -0.0924
  C  C185  1  0.282900  0.973300  0.282900  1.0  -0.0924
  C  C186  1  0.782900  0.526700  0.717100  1.0  -0.0937
  C  C187  1  0.782900  0.026700  0.217100  1.0  -0.0937
  C  C188  1  0.282900  0.526700  0.217100  1.0  -0.0937
  C  C189  1  0.717100  0.526700  0.782900  1.0  -0.0934
  C  C190  1  0.717100  0.026700  0.282900  1.0  -0.0934
  C  C191  1  0.282900  0.473300  0.782900  1.0  -0.0924
  C  C192  1  0.282900  0.026700  0.717100  1.0  -0.0937
  C  C193  1  0.717100  0.473300  0.217100  1.0  -0.0916
  C  C194  1  0.717100  0.973300  0.717100  1.0  -0.0916
  C  C195  1  0.782900  0.717100  0.526700  1.0  -0.0937
  C  C196  1  0.782900  0.217100  0.026700  1.0  -0.0937
  C  C197  1  0.782900  0.282900  0.473300  1.0  -0.0946
  C  C198  1  0.782900  0.782900  0.973300  1.0  -0.0946
  C  C199  1  0.217100  0.782900  0.026700  1.0  -0.0956
  C  C200  1  0.217100  0.717100  0.473300  1.0  -0.0925
  C  C201  1  0.526700  0.782900  0.717100  1.0  -0.0954
  C  C202  1  0.026700  0.782900  0.217100  1.0  -0.0954
  C  C203  1  0.473300  0.782900  0.282900  1.0  -0.0969
  C  C204  1  0.973300  0.782900  0.782900  1.0  -0.0969
  C  C205  1  0.026700  0.217100  0.782900  1.0  -0.0936
  C  C206  1  0.473300  0.217100  0.717100  1.0  -0.0939
  C  C207  1  0.526700  0.717100  0.217100  1.0  -0.0938
  C  C208  1  0.026700  0.717100  0.717100  1.0  -0.0938
  C  C209  1  0.973300  0.282900  0.717100  1.0  -0.0959
  C  C210  1  0.526700  0.282900  0.782900  1.0  -0.0954
  C  C211  1  0.473300  0.717100  0.782900  1.0  -0.0946
  C  C212  1  0.973300  0.717100  0.282900  1.0  -0.0946
  C  C213  1  0.717100  0.782900  0.473300  1.0  -0.0944
  C  C214  1  0.717100  0.282900  0.973300  1.0  -0.0944
  C  C215  1  0.282900  0.782900  0.526700  1.0  -0.0957
  C  C216  1  0.282900  0.717100  0.973300  1.0  -0.0932
  C  C217  1  0.717100  0.217100  0.526700  1.0  -0.0931
  C  C218  1  0.717100  0.717100  0.026700  1.0  -0.0931
  C  C219  1  0.782900  0.526700  0.282900  1.0  -0.0936
  C  C220  1  0.782900  0.026700  0.782900  1.0  -0.0936
  C  C221  1  0.782900  0.473300  0.717100  1.0  -0.0926
  C  C222  1  0.782900  0.973300  0.217100  1.0  -0.0926
  C  C223  1  0.217100  0.526700  0.717100  1.0  -0.0922
  C  C224  1  0.217100  0.973300  0.782900  1.0  -0.0925
  C  C225  1  0.250000  0.389400  0.250000  1.0  0.7217
  C  C226  1  0.250000  0.444900  0.250000  1.0  -0.0321
  C  C227  1  0.250000  0.889400  0.750000  1.0  0.7217
  C  C228  1  0.250000  0.944900  0.750000  1.0  -0.0321
  C  C229  1  0.750000  0.610600  0.250000  1.0  0.7222
  C  C230  1  0.750000  0.555100  0.250000  1.0  -0.032
  C  C231  1  0.750000  0.110600  0.750000  1.0  0.7222
  C  C232  1  0.750000  0.055100  0.750000  1.0  -0.032
  C  C233  1  0.250000  0.110600  0.250000  1.0  0.7222
  C  C234  1  0.250000  0.055100  0.250000  1.0  -0.032
  C  C235  1  0.750000  0.389400  0.750000  1.0  0.7217
  C  C236  1  0.750000  0.444900  0.750000  1.0  -0.0321
  C  C237  1  0.750000  0.889400  0.250000  1.0  0.7217
  C  C238  1  0.750000  0.944900  0.250000  1.0  -0.0321
  C  C239  1  0.250000  0.610600  0.750000  1.0  0.7222
  C  C240  1  0.250000  0.555100  0.750000  1.0  -0.032
  C  C241  1  0.250000  0.250000  0.389400  1.0  0.7272
  C  C242  1  0.250000  0.250000  0.444900  1.0  -0.0335
  C  C243  1  0.250000  0.750000  0.889400  1.0  0.7272
  C  C244  1  0.250000  0.750000  0.944900  1.0  -0.0335
  C  C245  1  0.250000  0.750000  0.610600  1.0  0.7266
  C  C246  1  0.250000  0.750000  0.555100  1.0  -0.0339
  C  C247  1  0.250000  0.250000  0.110600  1.0  0.7266
  C  C248  1  0.250000  0.250000  0.055100  1.0  -0.0339
  C  C249  1  0.750000  0.750000  0.389400  1.0  0.7272
  C  C250  1  0.750000  0.750000  0.444900  1.0  -0.0335
  C  C251  1  0.750000  0.250000  0.889400  1.0  0.7272
  C  C252  1  0.750000  0.250000  0.944900  1.0  -0.0335
  C  C253  1  0.750000  0.250000  0.610600  1.0  0.7266
  C  C254  1  0.750000  0.250000  0.555100  1.0  -0.0339
  C  C255  1  0.750000  0.750000  0.110600  1.0  0.7266
  C  C256  1  0.750000  0.750000  0.055100  1.0  -0.0339
  C  C257  1  0.389400  0.250000  0.250000  1.0  0.7223
  C  C258  1  0.444900  0.250000  0.250000  1.0  -0.0331
  C  C259  1  0.889400  0.250000  0.750000  1.0  0.7223
  C  C260  1  0.944900  0.250000  0.750000  1.0  -0.0331
  C  C261  1  0.610600  0.250000  0.750000  1.0  0.7231
  C  C262  1  0.555100  0.250000  0.750000  1.0  -0.0329
  C  C263  1  0.110600  0.250000  0.250000  1.0  0.7231
  C  C264  1  0.055100  0.250000  0.250000  1.0  -0.0329
  C  C265  1  0.389400  0.750000  0.750000  1.0  0.7223
  C  C266  1  0.444900  0.750000  0.750000  1.0  -0.0331
  C  C267  1  0.889400  0.750000  0.250000  1.0  0.7223
  C  C268  1  0.944900  0.750000  0.250000  1.0  -0.0331
  C  C269  1  0.610600  0.750000  0.250000  1.0  0.7231
  C  C270  1  0.555100  0.750000  0.250000  1.0  -0.0329
  C  C271  1  0.110600  0.750000  0.750000  1.0  0.7231
  C  C272  1  0.055100  0.750000  0.750000  1.0  -0.0329
  C  C273  1  0.389400  0.250000  0.750000  1.0  0.7223
  C  C274  1  0.444900  0.250000  0.750000  1.0  -0.0331
  C  C275  1  0.889400  0.250000  0.250000  1.0  0.7223
  C  C276  1  0.944900  0.250000  0.250000  1.0  -0.0331
  C  C277  1  0.610600  0.750000  0.750000  1.0  0.7231
  C  C278  1  0.555100  0.750000  0.750000  1.0  -0.0329
  C  C279  1  0.610600  0.250000  0.250000  1.0  0.7231
  C  C280  1  0.555100  0.250000  0.250000  1.0  -0.0329
  C  C281  1  0.110600  0.750000  0.250000  1.0  0.7231
  C  C282  1  0.055100  0.750000  0.250000  1.0  -0.0329
  C  C283  1  0.389400  0.750000  0.250000  1.0  0.7223
  C  C284  1  0.444900  0.750000  0.250000  1.0  -0.0331
  C  C285  1  0.889400  0.750000  0.750000  1.0  0.7223
  C  C286  1  0.944900  0.750000  0.750000  1.0  -0.0331
  C  C287  1  0.110600  0.250000  0.750000  1.0  0.7231
  C  C288  1  0.055100  0.250000  0.750000  1.0  -0.0329
  C  C289  1  0.250000  0.250000  0.610600  1.0  0.7266
  C  C290  1  0.250000  0.250000  0.555100  1.0  -0.0339
  C  C291  1  0.250000  0.750000  0.110600  1.0  0.7266
  C  C292  1  0.250000  0.750000  0.055100  1.0  -0.0339
  C  C293  1  0.750000  0.250000  0.389400  1.0  0.7272
  C  C294  1  0.750000  0.250000  0.444900  1.0  -0.0335
  C  C295  1  0.750000  0.750000  0.889400  1.0  0.7272
  C  C296  1  0.750000  0.750000  0.944900  1.0  -0.0335
  C  C297  1  0.250000  0.250000  0.889400  1.0  0.7272
  C  C298  1  0.250000  0.250000  0.944900  1.0  -0.0335
  C  C299  1  0.750000  0.750000  0.610600  1.0  0.7266
  C  C300  1  0.750000  0.750000  0.555100  1.0  -0.0339
  C  C301  1  0.750000  0.250000  0.110600  1.0  0.7266
  C  C302  1  0.750000  0.250000  0.055100  1.0  -0.0339
  C  C303  1  0.250000  0.750000  0.389400  1.0  0.7272
  C  C304  1  0.250000  0.750000  0.444900  1.0  -0.0335
  C  C305  1  0.250000  0.389400  0.750000  1.0  0.7217
  C  C306  1  0.250000  0.444900  0.750000  1.0  -0.0321
  C  C307  1  0.250000  0.889400  0.250000  1.0  0.7217
  C  C308  1  0.250000  0.944900  0.250000  1.0  -0.0321
  C  C309  1  0.250000  0.610600  0.250000  1.0  0.7222
  C  C310  1  0.250000  0.555100  0.250000  1.0  -0.032
  C  C311  1  0.250000  0.110600  0.750000  1.0  0.7222
  C  C312  1  0.250000  0.055100  0.750000  1.0  -0.032
  C  C313  1  0.750000  0.389400  0.250000  1.0  0.7217
  C  C314  1  0.750000  0.444900  0.250000  1.0  -0.0321
  C  C315  1  0.750000  0.889400  0.750000  1.0  0.7217
  C  C316  1  0.750000  0.944900  0.750000  1.0  -0.0321
  C  C317  1  0.750000  0.610600  0.750000  1.0  0.7222
  C  C318  1  0.750000  0.555100  0.750000  1.0  -0.032
  C  C319  1  0.750000  0.110600  0.250000  1.0  0.7222
  C  C320  1  0.750000  0.055100  0.250000  1.0  -0.032
  O  O321  1  0.250000  0.250000  0.250000  1.0  -1.1846
  O  O322  1  0.750000  0.750000  0.250000  1.0  -1.1846
  O  O323  1  0.750000  0.250000  0.750000  1.0  -1.1846
  O  O324  1  0.250000  0.750000  0.750000  1.0  -1.1846
  O  O325  1  0.250000  0.250000  0.750000  1.0  -1.1846
  O  O326  1  0.750000  0.750000  0.750000  1.0  -1.1846
  O  O327  1  0.750000  0.250000  0.250000  1.0  -1.1846
  O  O328  1  0.250000  0.750000  0.250000  1.0  -1.1846
  O  O329  1  0.280600  0.366100  0.219400  1.0  -0.6279
  O  O330  1  0.280600  0.866100  0.719400  1.0  -0.6279
  O  O331  1  0.719400  0.633900  0.219400  1.0  -0.6272
  O  O332  1  0.719400  0.133900  0.719400  1.0  -0.6272
  O  O333  1  0.219400  0.133900  0.219400  1.0  -0.6272
  O  O334  1  0.719400  0.366100  0.780600  1.0  -0.6279
  O  O335  1  0.719400  0.866100  0.280600  1.0  -0.6279
  O  O336  1  0.219400  0.366100  0.280600  1.0  -0.6279
  O  O337  1  0.280600  0.633900  0.780600  1.0  -0.6278
  O  O338  1  0.280600  0.133900  0.280600  1.0  -0.6278
  O  O339  1  0.219400  0.280600  0.366100  1.0  -0.6273
  O  O340  1  0.219400  0.780600  0.866100  1.0  -0.6273
  O  O341  1  0.219400  0.719400  0.633900  1.0  -0.6277
  O  O342  1  0.219400  0.219400  0.133900  1.0  -0.6277
  O  O343  1  0.780600  0.719400  0.366100  1.0  -0.6276
  O  O344  1  0.780600  0.219400  0.866100  1.0  -0.6276
  O  O345  1  0.280600  0.219400  0.366100  1.0  -0.6276
  O  O346  1  0.780600  0.280600  0.633900  1.0  -0.6282
  O  O347  1  0.780600  0.780600  0.133900  1.0  -0.6282
  O  O348  1  0.280600  0.280600  0.133900  1.0  -0.6282
  O  O349  1  0.366100  0.219400  0.280600  1.0  -0.6289
  O  O350  1  0.866100  0.219400  0.780600  1.0  -0.6289
  O  O351  1  0.633900  0.219400  0.719400  1.0  -0.6288
  O  O352  1  0.133900  0.219400  0.219400  1.0  -0.6288
  O  O353  1  0.366100  0.780600  0.719400  1.0  -0.6287
  O  O354  1  0.366100  0.280600  0.219400  1.0  -0.6287
  O  O355  1  0.866100  0.780600  0.219400  1.0  -0.6287
  O  O356  1  0.633900  0.780600  0.280600  1.0  -0.629
  O  O357  1  0.133900  0.780600  0.780600  1.0  -0.629
  O  O358  1  0.133900  0.280600  0.280600  1.0  -0.629
  O  O359  1  0.366100  0.280600  0.780600  1.0  -0.6291
  O  O360  1  0.866100  0.280600  0.280600  1.0  -0.6291
  O  O361  1  0.633900  0.719400  0.780600  1.0  -0.6288
  O  O362  1  0.633900  0.219400  0.280600  1.0  -0.6288
  O  O363  1  0.133900  0.719400  0.280600  1.0  -0.6288
  O  O364  1  0.366100  0.719400  0.219400  1.0  -0.629
  O  O365  1  0.866100  0.719400  0.719400  1.0  -0.629
  O  O366  1  0.866100  0.219400  0.219400  1.0  -0.629
  O  O367  1  0.633900  0.280600  0.219400  1.0  -0.6286
  O  O368  1  0.133900  0.280600  0.719400  1.0  -0.6286
  O  O369  1  0.280600  0.219400  0.633900  1.0  -0.6281
  O  O370  1  0.280600  0.719400  0.133900  1.0  -0.6281
  O  O371  1  0.719400  0.219400  0.366100  1.0  -0.6272
  O  O372  1  0.719400  0.719400  0.866100  1.0  -0.6272
  O  O373  1  0.219400  0.219400  0.866100  1.0  -0.6272
  O  O374  1  0.719400  0.780600  0.633900  1.0  -0.6275
  O  O375  1  0.719400  0.280600  0.133900  1.0  -0.6275
  O  O376  1  0.219400  0.280600  0.633900  1.0  -0.6275
  O  O377  1  0.280600  0.780600  0.366100  1.0  -0.628
  O  O378  1  0.280600  0.280600  0.866100  1.0  -0.628
  O  O379  1  0.219400  0.366100  0.719400  1.0  -0.6269
  O  O380  1  0.219400  0.866100  0.219400  1.0  -0.6269
  O  O381  1  0.219400  0.633900  0.280600  1.0  -0.6273
  O  O382  1  0.219400  0.133900  0.780600  1.0  -0.6273
  O  O383  1  0.780600  0.366100  0.280600  1.0  -0.6284
  O  O384  1  0.780600  0.866100  0.780600  1.0  -0.6284
  O  O385  1  0.280600  0.866100  0.280600  1.0  -0.6284
  O  O386  1  0.780600  0.633900  0.719400  1.0  -0.6279
  O  O387  1  0.780600  0.133900  0.219400  1.0  -0.6279
  O  O388  1  0.280600  0.633900  0.219400  1.0  -0.6279
  O  O389  1  0.719400  0.633900  0.780600  1.0  -0.6273
  O  O390  1  0.719400  0.133900  0.280600  1.0  -0.6273
  O  O391  1  0.280600  0.366100  0.780600  1.0  -0.6284
  O  O392  1  0.280600  0.133900  0.719400  1.0  -0.6279
  O  O393  1  0.719400  0.366100  0.219400  1.0  -0.6269
  O  O394  1  0.719400  0.866100  0.719400  1.0  -0.6269
  O  O395  1  0.780600  0.719400  0.633900  1.0  -0.6281
  O  O396  1  0.780600  0.219400  0.133900  1.0  -0.6281
  O  O397  1  0.780600  0.280600  0.366100  1.0  -0.628
  O  O398  1  0.780600  0.780600  0.866100  1.0  -0.628
  O  O399  1  0.219400  0.780600  0.133900  1.0  -0.6275
  O  O400  1  0.219400  0.719400  0.366100  1.0  -0.6272
  O  O401  1  0.633900  0.780600  0.719400  1.0  -0.6286
  O  O402  1  0.133900  0.780600  0.219400  1.0  -0.6286
  O  O403  1  0.366100  0.780600  0.280600  1.0  -0.6291
  O  O404  1  0.866100  0.780600  0.780600  1.0  -0.6291
  O  O405  1  0.133900  0.219400  0.780600  1.0  -0.6288
  O  O406  1  0.366100  0.219400  0.719400  1.0  -0.629
  O  O407  1  0.633900  0.719400  0.219400  1.0  -0.6288
  O  O408  1  0.133900  0.719400  0.719400  1.0  -0.6288
  O  O409  1  0.866100  0.280600  0.719400  1.0  -0.6287
  O  O410  1  0.633900  0.280600  0.780600  1.0  -0.629
  O  O411  1  0.366100  0.719400  0.780600  1.0  -0.6289
  O  O412  1  0.866100  0.719400  0.280600  1.0  -0.6289
  O  O413  1  0.719400  0.780600  0.366100  1.0  -0.6273
  O  O414  1  0.719400  0.280600  0.866100  1.0  -0.6273
  O  O415  1  0.280600  0.780600  0.633900  1.0  -0.6282
  O  O416  1  0.280600  0.719400  0.866100  1.0  -0.6276
  O  O417  1  0.719400  0.219400  0.633900  1.0  -0.6277
  O  O418  1  0.719400  0.719400  0.133900  1.0  -0.6277
  O  O419  1  0.780600  0.633900  0.280600  1.0  -0.6278
  O  O420  1  0.780600  0.133900  0.780600  1.0  -0.6278
  O  O421  1  0.780600  0.366100  0.719400  1.0  -0.6279
  O  O422  1  0.780600  0.866100  0.219400  1.0  -0.6279
  O  O423  1  0.219400  0.633900  0.719400  1.0  -0.6272
  O  O424  1  0.219400  0.866100  0.780600  1.0  -0.6279
