# generated using pymatgen
data_Zn4H6C24S6O13
_symmetry_space_group_name_H-M   'P 1'
_cell_length_a   20.63620000
_cell_length_b   20.63620000
_cell_length_c   20.63620000
_cell_angle_alpha   120.00000000
_cell_angle_beta   120.00000000
_cell_angle_gamma   60.00000000
_symmetry_Int_Tables_number   1
_chemical_formula_structural   Zn4H6C24S6O13
_chemical_formula_sum   'Zn8 H12 C48 S12 O26'
_cell_volume   6214.04203894
_cell_formula_units_Z   2
loop_
 _symmetry_equiv_pos_site_id
 _symmetry_equiv_pos_as_xyz
  1  'x, y, z'
loop_
 _atom_site_type_symbol
 _atom_site_label
 _atom_site_symmetry_multiplicity
 _atom_site_fract_x
 _atom_site_fract_y
 _atom_site_fract_z
 _atom_site_occupancy
 _atom_site_charge
  Zn  Zn1  1  0.211610  0.211600  0.788390  1.0  1.1002
  Zn  Zn2  1  0.211610  0.365170  0.788390  1.0  1.0943
  Zn  Zn3  1  0.211610  0.211600  0.634820  1.0  1.1002
  Zn  Zn4  1  0.365180  0.211600  0.788390  1.0  1.0946
  Zn  Zn5  1  0.788390  0.788400  0.211610  1.0  1.0993
  Zn  Zn6  1  0.788390  0.634830  0.211610  1.0  1.0936
  Zn  Zn7  1  0.788390  0.788400  0.365180  1.0  1.1001
  Zn  Zn8  1  0.634820  0.788400  0.211610  1.0  1.0945
  H  H9  1  0.537400  0.348600  0.943000  1.0  0.1212
  H  H10  1  0.057000  0.057000  0.651400  1.0  0.1151
  H  H11  1  0.348600  0.057000  0.462600  1.0  0.1202
  H  H12  1  0.057000  0.537400  0.943000  1.0  0.117
  H  H13  1  0.537400  0.057000  0.943000  1.0  0.1168
  H  H14  1  0.057000  0.537400  0.651400  1.0  0.1168
  H  H15  1  0.462600  0.651400  0.057000  1.0  0.1205
  H  H16  1  0.943000  0.943000  0.348600  1.0  0.1157
  H  H17  1  0.651400  0.943000  0.537400  1.0  0.1192
  H  H18  1  0.943000  0.462600  0.057000  1.0  0.1163
  H  H19  1  0.462600  0.943000  0.057000  1.0  0.1158
  H  H20  1  0.943000  0.462600  0.348600  1.0  0.1161
  C  C21  1  0.504000  0.401200  0.952600  1.0  -0.0849
  C  C22  1  0.047400  0.047400  0.598800  1.0  -0.0867
  C  C23  1  0.401200  0.047400  0.496000  1.0  -0.0907
  C  C24  1  0.047400  0.504000  0.952600  1.0  -0.0866
  C  C25  1  0.504000  0.047400  0.952600  1.0  -0.0832
  C  C26  1  0.047400  0.504000  0.598800  1.0  -0.0866
  C  C27  1  0.128240  0.128240  0.628240  1.0  0.6158
  C  C28  1  0.077110  0.077110  0.577110  1.0  -0.0751
  C  C29  1  0.371760  0.371760  0.871760  1.0  0.616
  C  C30  1  0.422890  0.422890  0.922890  1.0  -0.083
  C  C31  1  0.371760  0.128240  0.628240  1.0  0.6172
  C  C32  1  0.422890  0.077110  0.577110  1.0  -0.0821
  C  C33  1  0.128240  0.371760  0.871760  1.0  0.6146
  C  C34  1  0.077110  0.422890  0.922890  1.0  -0.0821
  C  C35  1  0.371760  0.128240  0.871760  1.0  0.615
  C  C36  1  0.422890  0.077110  0.922890  1.0  -0.083
  C  C37  1  0.128240  0.371760  0.628240  1.0  0.6147
  C  C38  1  0.077110  0.422890  0.577110  1.0  -0.0821
  C  C39  1  0.000000  0.000000  0.466880  1.0  -0.0489
  C  C40  1  0.533120  0.466880  0.000000  1.0  -0.0508
  C  C41  1  0.533120  0.000000  0.533120  1.0  -0.0518
  C  C42  1  0.000000  0.466880  0.000000  1.0  -0.0486
  C  C43  1  0.466880  0.000000  0.000000  1.0  -0.0496
  C  C44  1  0.000000  0.466880  0.466880  1.0  -0.0494
  C  C45  1  0.496000  0.598800  0.047400  1.0  -0.0867
  C  C46  1  0.952600  0.952600  0.401200  1.0  -0.0883
  C  C47  1  0.598800  0.952600  0.504000  1.0  -0.0876
  C  C48  1  0.952600  0.496000  0.047400  1.0  -0.0853
  C  C49  1  0.496000  0.952600  0.047400  1.0  -0.0841
  C  C50  1  0.952600  0.496000  0.401200  1.0  -0.0858
  C  C51  1  0.871760  0.871760  0.371760  1.0  0.6162
  C  C52  1  0.922890  0.922890  0.422890  1.0  -0.0785
  C  C53  1  0.628240  0.628240  0.128240  1.0  0.6153
  C  C54  1  0.577110  0.577110  0.077110  1.0  -0.0816
  C  C55  1  0.628240  0.871760  0.371760  1.0  0.6157
  C  C56  1  0.577110  0.922890  0.422890  1.0  -0.0826
  C  C57  1  0.871760  0.628240  0.128240  1.0  0.6156
  C  C58  1  0.922890  0.577110  0.077110  1.0  -0.0815
  C  C59  1  0.628240  0.871760  0.128240  1.0  0.6142
  C  C60  1  0.577110  0.922890  0.077110  1.0  -0.0824
  C  C61  1  0.871760  0.628240  0.371760  1.0  0.6163
  C  C62  1  0.922890  0.577110  0.422890  1.0  -0.0821
  C  C63  1  0.000000  0.000000  0.533120  1.0  -0.0477
  C  C64  1  0.466880  0.533120  0.000000  1.0  -0.0486
  C  C65  1  0.466880  0.000000  0.466880  1.0  -0.0515
  C  C66  1  0.000000  0.533120  0.000000  1.0  -0.0504
  C  C67  1  0.533120  0.000000  0.000000  1.0  -0.0532
  C  C68  1  0.000000  0.533120  0.533120  1.0  -0.0493
  S  S69  1  0.047400  0.047400  0.496000  1.0  0.1604
  S  S70  1  0.401200  0.504000  0.952600  1.0  0.1641
  S  S71  1  0.504000  0.047400  0.598800  1.0  0.1602
  S  S72  1  0.047400  0.401200  0.952600  1.0  0.1615
  S  S73  1  0.401200  0.047400  0.952600  1.0  0.1649
  S  S74  1  0.047400  0.401200  0.496000  1.0  0.1614
  S  S75  1  0.952600  0.952600  0.504000  1.0  0.1625
  S  S76  1  0.598800  0.496000  0.047400  1.0  0.1633
  S  S77  1  0.496000  0.952600  0.401200  1.0  0.1584
  S  S78  1  0.952600  0.598800  0.047400  1.0  0.1626
  S  S79  1  0.598800  0.952600  0.047400  1.0  0.163
  S  S80  1  0.952600  0.598800  0.504000  1.0  0.1633
  O  O81  1  0.250000  0.250000  0.750000  1.0  -1.2761
  O  O82  1  0.146840  0.146840  0.702840  1.0  -0.5973
  O  O83  1  0.297160  0.409160  0.853160  1.0  -0.5947
  O  O84  1  0.146840  0.146840  0.590840  1.0  -0.6046
  O  O85  1  0.409160  0.297160  0.853160  1.0  -0.5958
  O  O86  1  0.297160  0.146840  0.590840  1.0  -0.5973
  O  O87  1  0.146840  0.409160  0.853160  1.0  -0.5918
  O  O88  1  0.409160  0.146840  0.702840  1.0  -0.5988
  O  O89  1  0.146840  0.297160  0.853160  1.0  -0.6034
  O  O90  1  0.409160  0.146840  0.853160  1.0  -0.5971
  O  O91  1  0.146840  0.409160  0.702840  1.0  -0.5918
  O  O92  1  0.297160  0.146840  0.853160  1.0  -0.6002
  O  O93  1  0.146840  0.297160  0.590840  1.0  -0.6032
  O  O94  1  0.750000  0.750000  0.250000  1.0  -1.2753
  O  O95  1  0.853160  0.853160  0.297160  1.0  -0.5986
  O  O96  1  0.702840  0.590840  0.146840  1.0  -0.5947
  O  O97  1  0.853160  0.853160  0.409160  1.0  -0.5999
  O  O98  1  0.590840  0.702840  0.146840  1.0  -0.5956
  O  O99  1  0.702840  0.853160  0.409160  1.0  -0.5976
  O  O100  1  0.853160  0.590840  0.146840  1.0  -0.5948
  O  O101  1  0.590840  0.853160  0.297160  1.0  -0.6008
  O  O102  1  0.853160  0.702840  0.146840  1.0  -0.6034
  O  O103  1  0.590840  0.853160  0.146840  1.0  -0.597
  O  O104  1  0.853160  0.590840  0.297160  1.0  -0.5941
  O  O105  1  0.702840  0.853160  0.146840  1.0  -0.6005
  O  O106  1  0.853160  0.702840  0.409160  1.0  -0.6029
