# generated using pymatgen
data_NiH12C24(NO2)6
_symmetry_space_group_name_H-M   'P 1'
_cell_length_a   11.33730000
_cell_length_b   11.33730000
_cell_length_c   30.74600000
_cell_angle_alpha   90.00000000
_cell_angle_beta   90.00000000
_cell_angle_gamma   118.54300000
_symmetry_Int_Tables_number   1
_chemical_formula_structural   NiH12C24(NO2)6
_chemical_formula_sum   'Ni4 H48 C96 N24 O48'
_cell_volume   3471.59679858
_cell_formula_units_Z   4
loop_
 _symmetry_equiv_pos_site_id
 _symmetry_equiv_pos_as_xyz
  1  'x, y, z'
loop_
 _atom_site_type_symbol
 _atom_site_label
 _atom_site_symmetry_multiplicity
 _atom_site_fract_x
 _atom_site_fract_y
 _atom_site_fract_z
 _atom_site_occupancy
 _atom_site_charge
  Ni  Ni1  1  0.686610  0.233650  0.572950  1.0  0.6593
  Ni  Ni2  1  0.733650  0.186610  0.072950  1.0  0.6595
  Ni  Ni3  1  0.233650  0.686610  0.427050  1.0  0.6593
  Ni  Ni4  1  0.186610  0.733650  0.927050  1.0  0.6592
  H  H5  1  0.382000  0.120000  0.726700  1.0  0.1254
  H  H6  1  0.778000  0.271400  0.707100  1.0  0.1254
  H  H7  1  0.702600  0.453800  0.928300  1.0  0.1229
  H  H8  1  0.713000  0.106400  0.932800  1.0  0.1307
  H  H9  1  0.535700  0.368700  0.613600  1.0  0.0928
  H  H10  1  0.531900  0.565500  0.615700  1.0  0.1342
  H  H11  1  0.850600  0.719400  0.536700  1.0  0.1115
  H  H12  1  0.845300  0.514700  0.536200  1.0  0.0917
  H  H13  1  0.866600  0.910200  0.545300  1.0  0.1362
  H  H14  1  0.858900  0.107900  0.545100  1.0  0.0887
  H  H15  1  0.513000  0.943000  0.603500  1.0  0.0822
  H  H16  1  0.508500  0.739700  0.604500  1.0  0.1269
  H  H17  1  0.620000  0.882000  0.226700  1.0  0.1254
  H  H18  1  0.771400  0.278000  0.207100  1.0  0.126
  H  H19  1  0.953800  0.202600  0.428300  1.0  0.122
  H  H20  1  0.606400  0.213000  0.432800  1.0  0.1301
  H  H21  1  0.868700  0.035700  0.113600  1.0  0.0933
  H  H22  1  0.065500  0.031900  0.115700  1.0  0.1351
  H  H23  1  0.219400  0.350600  0.036700  1.0  0.1116
  H  H24  1  0.014700  0.345300  0.036200  1.0  0.0914
  H  H25  1  0.410200  0.366600  0.045300  1.0  0.1352
  H  H26  1  0.607900  0.358900  0.045100  1.0  0.0889
  H  H27  1  0.443000  0.013000  0.103500  1.0  0.0816
  H  H28  1  0.239700  0.008500  0.104500  1.0  0.1262
  H  H29  1  0.120000  0.382000  0.273300  1.0  0.1255
  H  H30  1  0.271400  0.778000  0.292900  1.0  0.1256
  H  H31  1  0.453800  0.702600  0.071700  1.0  0.1219
  H  H32  1  0.106400  0.713000  0.067200  1.0  0.1299
  H  H33  1  0.368700  0.535700  0.386400  1.0  0.0934
  H  H34  1  0.565500  0.531900  0.384300  1.0  0.1347
  H  H35  1  0.719400  0.850600  0.463300  1.0  0.1088
  H  H36  1  0.514700  0.845300  0.463800  1.0  0.0913
  H  H37  1  0.910200  0.866600  0.454700  1.0  0.1349
  H  H38  1  0.107900  0.858900  0.454900  1.0  0.0887
  H  H39  1  0.943000  0.513000  0.396500  1.0  0.0817
  H  H40  1  0.739700  0.508500  0.395500  1.0  0.1262
  H  H41  1  0.882000  0.620000  0.773300  1.0  0.1251
  H  H42  1  0.278000  0.771400  0.792900  1.0  0.1252
  H  H43  1  0.202600  0.953800  0.571700  1.0  0.1225
  H  H44  1  0.213000  0.606400  0.567200  1.0  0.1303
  H  H45  1  0.035700  0.868700  0.886400  1.0  0.0928
  H  H46  1  0.031900  0.065500  0.884300  1.0  0.1337
  H  H47  1  0.350600  0.219400  0.963300  1.0  0.1085
  H  H48  1  0.345300  0.014700  0.963800  1.0  0.092
  H  H49  1  0.366600  0.410200  0.954700  1.0  0.1358
  H  H50  1  0.358900  0.607900  0.954900  1.0  0.0886
  H  H51  1  0.013000  0.443000  0.896500  1.0  0.0823
  H  H52  1  0.008500  0.239700  0.895500  1.0  0.127
  C  C53  1  0.553400  0.173000  0.661220  1.0  0.6555
  C  C54  1  0.576100  0.192100  0.709810  1.0  -0.0929
  C  C55  1  0.468900  0.154900  0.737510  1.0  -0.0063
  C  C56  1  0.493700  0.171100  0.782620  1.0  -0.0292
  C  C57  1  0.622600  0.223600  0.800530  1.0  0.0436
  C  C58  1  0.725700  0.258700  0.770200  1.0  -0.0396
  C  C59  1  0.705600  0.245200  0.725970  1.0  -0.0103
  C  C60  1  0.646800  0.243000  0.848800  1.0  0.0291
  C  C61  1  0.660700  0.354100  0.870460  1.0  -0.0079
  C  C62  1  0.696100  0.377700  0.914740  1.0  -0.0374
  C  C63  1  0.721100  0.287300  0.938080  1.0  -0.0988
  C  C64  1  0.702900  0.171500  0.917370  1.0  -0.0447
  C  C65  1  0.669700  0.152900  0.873800  1.0  -0.0319
  C  C66  1  0.767200  0.314200  0.984460  1.0  0.6484
  C  C67  1  0.599200  0.440000  0.597300  1.0  0.1819
  C  C68  1  0.596100  0.558100  0.598800  1.0  -0.1596
  C  C69  1  0.688200  0.668200  0.575100  1.0  0.1004
  C  C70  1  0.783800  0.648400  0.552100  1.0  -0.1676
  C  C71  1  0.780700  0.524700  0.552100  1.0  0.1603
  C  C72  1  0.687300  0.799700  0.575440  1.0  0.0988
  C  C73  1  0.793100  0.913900  0.557200  1.0  -0.1833
  C  C74  1  0.787100  0.032500  0.557100  1.0  0.1768
  C  C75  1  0.584400  0.936000  0.591200  1.0  0.1849
  C  C76  1  0.581700  0.813500  0.592300  1.0  -0.1669
  C  C77  1  0.673000  0.053400  0.161220  1.0  0.6546
  C  C78  1  0.692100  0.076100  0.209810  1.0  -0.0932
  C  C79  1  0.654900  0.968900  0.237510  1.0  -0.0038
  C  C80  1  0.671100  0.993700  0.282620  1.0  -0.0287
  C  C81  1  0.723600  0.122600  0.300530  1.0  0.0436
  C  C82  1  0.758700  0.225700  0.270200  1.0  -0.0395
  C  C83  1  0.745200  0.205600  0.225970  1.0  -0.0098
  C  C84  1  0.743000  0.146800  0.348800  1.0  0.0294
  C  C85  1  0.854100  0.160700  0.370460  1.0  -0.0055
  C  C86  1  0.877700  0.196100  0.414740  1.0  -0.0363
  C  C87  1  0.787300  0.221100  0.438080  1.0  -0.099
  C  C88  1  0.671500  0.202900  0.417370  1.0  -0.0424
  C  C89  1  0.652900  0.169700  0.373800  1.0  -0.0308
  C  C90  1  0.814200  0.267200  0.484460  1.0  0.6481
  C  C91  1  0.940000  0.099200  0.097300  1.0  0.1816
  C  C92  1  0.058100  0.096100  0.098800  1.0  -0.163
  C  C93  1  0.168200  0.188200  0.075100  1.0  0.1015
  C  C94  1  0.148400  0.283800  0.052100  1.0  -0.1681
  C  C95  1  0.024700  0.280700  0.052100  1.0  0.1599
  C  C96  1  0.299700  0.187300  0.075440  1.0  0.0982
  C  C97  1  0.413900  0.293100  0.057200  1.0  -0.1838
  C  C98  1  0.532500  0.287100  0.057100  1.0  0.1772
  C  C99  1  0.436000  0.084400  0.091200  1.0  0.1858
  C  C100  1  0.313500  0.081700  0.092300  1.0  -0.1686
  C  C101  1  0.173000  0.553400  0.338780  1.0  0.654
  C  C102  1  0.192100  0.576100  0.290190  1.0  -0.0929
  C  C103  1  0.154900  0.468900  0.262490  1.0  -0.0036
  C  C104  1  0.171100  0.493700  0.217380  1.0  -0.0287
  C  C105  1  0.223600  0.622600  0.199470  1.0  0.0435
  C  C106  1  0.258700  0.725700  0.229800  1.0  -0.0397
  C  C107  1  0.245200  0.705600  0.274030  1.0  -0.0082
  C  C108  1  0.243000  0.646800  0.151200  1.0  0.0294
  C  C109  1  0.354100  0.660700  0.129540  1.0  -0.0056
  C  C110  1  0.377700  0.696100  0.085260  1.0  -0.0368
  C  C111  1  0.287300  0.721100  0.061920  1.0  -0.0987
  C  C112  1  0.171500  0.702900  0.082630  1.0  -0.0428
  C  C113  1  0.152900  0.669700  0.126200  1.0  -0.0306
  C  C114  1  0.314200  0.767200  0.015540  1.0  0.649
  C  C115  1  0.440000  0.599200  0.402700  1.0  0.1812
  C  C116  1  0.558100  0.596100  0.401200  1.0  -0.1636
  C  C117  1  0.668200  0.688200  0.424900  1.0  0.1012
  C  C118  1  0.648400  0.783800  0.447900  1.0  -0.168
  C  C119  1  0.524700  0.780700  0.447900  1.0  0.1599
  C  C120  1  0.799700  0.687300  0.424560  1.0  0.0985
  C  C121  1  0.913900  0.793100  0.442800  1.0  -0.1836
  C  C122  1  0.032500  0.787100  0.442900  1.0  0.1774
  C  C123  1  0.936000  0.584400  0.408800  1.0  0.1861
  C  C124  1  0.813500  0.581700  0.407700  1.0  -0.1675
  C  C125  1  0.053400  0.673000  0.838780  1.0  0.655
  C  C126  1  0.076100  0.692100  0.790190  1.0  -0.0921
  C  C127  1  0.968900  0.654900  0.762490  1.0  -0.006
  C  C128  1  0.993700  0.671100  0.717380  1.0  -0.0293
  C  C129  1  0.122600  0.723600  0.699470  1.0  0.0435
  C  C130  1  0.225700  0.758700  0.729800  1.0  -0.0399
  C  C131  1  0.205600  0.745200  0.774030  1.0  -0.0083
  C  C132  1  0.146800  0.743000  0.651200  1.0  0.0291
  C  C133  1  0.160700  0.854100  0.629540  1.0  -0.0078
  C  C134  1  0.196100  0.877700  0.585260  1.0  -0.0384
  C  C135  1  0.221100  0.787300  0.561920  1.0  -0.0989
  C  C136  1  0.202900  0.671500  0.582630  1.0  -0.0459
  C  C137  1  0.169700  0.652900  0.626200  1.0  -0.0316
  C  C138  1  0.267200  0.814200  0.515540  1.0  0.6493
  C  C139  1  0.099200  0.940000  0.902700  1.0  0.1816
  C  C140  1  0.096100  0.058100  0.901200  1.0  -0.1598
  C  C141  1  0.188200  0.168200  0.924900  1.0  0.1002
  C  C142  1  0.283800  0.148400  0.947900  1.0  -0.1672
  C  C143  1  0.280700  0.024700  0.947900  1.0  0.1609
  C  C144  1  0.187300  0.299700  0.924560  1.0  0.0988
  C  C145  1  0.293100  0.413900  0.942800  1.0  -0.1829
  C  C146  1  0.287100  0.532500  0.942900  1.0  0.1771
  C  C147  1  0.084400  0.436000  0.908800  1.0  0.1851
  C  C148  1  0.081700  0.313500  0.907700  1.0  -0.1665
  N  N149  1  0.866900  0.309300  0.784300  1.0  0.6376
  N  N150  1  0.374500  0.129900  0.810300  1.0  0.6089
  N  N151  1  0.640800  0.459600  0.847800  1.0  0.6248
  N  N152  1  0.667800  0.031000  0.854200  1.0  0.6009
  N  N153  1  0.688200  0.419000  0.573940  1.0  -0.279
  N  N154  1  0.684200  0.045800  0.573240  1.0  -0.2699
  N  N155  1  0.809300  0.366900  0.284300  1.0  0.6354
  N  N156  1  0.629900  0.874500  0.310300  1.0  0.6082
  N  N157  1  0.959600  0.140800  0.347800  1.0  0.6227
  N  N158  1  0.531000  0.167800  0.354200  1.0  0.6005
  N  N159  1  0.919000  0.188200  0.073940  1.0  -0.2788
  N  N160  1  0.545800  0.184200  0.073240  1.0  -0.2706
  N  N161  1  0.309300  0.866900  0.215700  1.0  0.6358
  N  N162  1  0.129900  0.374500  0.189700  1.0  0.6077
  N  N163  1  0.459600  0.640800  0.152200  1.0  0.6214
  N  N164  1  0.031000  0.667800  0.145800  1.0  0.6006
  N  N165  1  0.419000  0.688200  0.426060  1.0  -0.279
  N  N166  1  0.045800  0.684200  0.426760  1.0  -0.2711
  N  N167  1  0.366900  0.809300  0.715700  1.0  0.6376
  N  N168  1  0.874500  0.629900  0.689700  1.0  0.6097
  N  N169  1  0.140800  0.959600  0.652200  1.0  0.6226
  N  N170  1  0.167800  0.531000  0.645800  1.0  0.6007
  N  N171  1  0.188200  0.919000  0.926060  1.0  -0.279
  N  N172  1  0.184200  0.545800  0.926760  1.0  -0.2701
  O  O173  1  0.658900  0.218300  0.638120  1.0  -0.5604
  O  O174  1  0.434800  0.117000  0.647790  1.0  -0.5709
  O  O175  1  0.827400  0.433600  0.996930  1.0  -0.5743
  O  O176  1  0.741000  0.212400  0.006920  1.0  -0.5572
  O  O177  1  0.892900  0.283700  0.819000  1.0  -0.3791
  O  O178  1  0.954900  0.379300  0.759800  1.0  -0.3543
  O  O179  1  0.265700  0.044300  0.796900  1.0  -0.352
  O  O180  1  0.385500  0.197300  0.842800  1.0  -0.3671
  O  O181  1  0.650300  0.468100  0.808960  1.0  -0.358
  O  O182  1  0.616200  0.532400  0.870500  1.0  -0.3561
  O  O183  1  0.598600  0.984400  0.822200  1.0  -0.3325
  O  O184  1  0.736800  0.985400  0.870300  1.0  -0.3818
  O  O185  1  0.718300  0.158900  0.138120  1.0  -0.561
  O  O186  1  0.617000  0.934800  0.147790  1.0  -0.5732
  O  O187  1  0.933600  0.327400  0.496930  1.0  -0.5772
  O  O188  1  0.712400  0.241000  0.506920  1.0  -0.5665
  O  O189  1  0.783700  0.392900  0.319000  1.0  -0.3803
  O  O190  1  0.879300  0.454900  0.259800  1.0  -0.3573
  O  O191  1  0.544300  0.765700  0.296900  1.0  -0.3523
  O  O192  1  0.697300  0.885500  0.342800  1.0  -0.3673
  O  O193  1  0.968100  0.150300  0.308960  1.0  -0.3568
  O  O194  1  0.032400  0.116200  0.370500  1.0  -0.3557
  O  O195  1  0.484400  0.098600  0.322200  1.0  -0.3346
  O  O196  1  0.485400  0.236800  0.370300  1.0  -0.3724
  O  O197  1  0.218300  0.658900  0.361880  1.0  -0.5614
  O  O198  1  0.117000  0.434800  0.352210  1.0  -0.5732
  O  O199  1  0.433600  0.827400  0.003070  1.0  -0.5764
  O  O200  1  0.212400  0.741000  0.993080  1.0  -0.5595
  O  O201  1  0.283700  0.892900  0.181000  1.0  -0.3788
  O  O202  1  0.379300  0.954900  0.240200  1.0  -0.3579
  O  O203  1  0.044300  0.265700  0.203100  1.0  -0.353
  O  O204  1  0.197300  0.385500  0.157200  1.0  -0.3668
  O  O205  1  0.468100  0.650300  0.191040  1.0  -0.3569
  O  O206  1  0.532400  0.616200  0.129500  1.0  -0.3568
  O  O207  1  0.984400  0.598600  0.177800  1.0  -0.3356
  O  O208  1  0.985400  0.736800  0.129700  1.0  -0.3721
  O  O209  1  0.158900  0.718300  0.861880  1.0  -0.5599
  O  O210  1  0.934800  0.617000  0.852210  1.0  -0.5714
  O  O211  1  0.327400  0.933600  0.503070  1.0  -0.5736
  O  O212  1  0.241000  0.712400  0.493080  1.0  -0.5646
  O  O213  1  0.392900  0.783700  0.681000  1.0  -0.3786
  O  O214  1  0.454900  0.879300  0.740200  1.0  -0.3545
  O  O215  1  0.765700  0.544300  0.703100  1.0  -0.3524
  O  O216  1  0.885500  0.697300  0.657200  1.0  -0.367
  O  O217  1  0.150300  0.968100  0.691040  1.0  -0.3622
  O  O218  1  0.116200  0.032400  0.629500  1.0  -0.3571
  O  O219  1  0.098600  0.484400  0.677800  1.0  -0.3333
  O  O220  1  0.236800  0.485400  0.629700  1.0  -0.3826
