# generated using pymatgen
data_CaN9
_symmetry_space_group_name_H-M   'P 1'
_cell_length_a   9.36600000
_cell_length_b   9.36600000
_cell_length_c   6.94700000
_cell_angle_alpha   90.00000000
_cell_angle_beta   90.00000000
_cell_angle_gamma   90.00000000
_symmetry_Int_Tables_number   1
_chemical_formula_structural   CaN9
_chemical_formula_sum   'Ca2 N18'
_cell_volume   609.40442833
_cell_formula_units_Z   2
loop_
 _symmetry_equiv_pos_site_id
 _symmetry_equiv_pos_as_xyz
  1  'x, y, z'
loop_
 _atom_site_type_symbol
 _atom_site_label
 _atom_site_symmetry_multiplicity
 _atom_site_fract_x
 _atom_site_fract_y
 _atom_site_fract_z
 _atom_site_occupancy
 _atom_site_charge
  Ca  Ca1  1  0.250000  0.250000  0.907100  1.0  1.4527
  Ca  Ca2  1  0.750000  0.750000  0.092900  1.0  1.4525
  N  N3  1  0.250000  0.250000  0.242000  1.0  -0.3653
  N  N4  1  0.250000  0.250000  0.404200  1.0  0.2817
  N  N5  1  0.250000  0.250000  0.569900  1.0  -0.3564
  N  N6  1  0.750000  0.750000  0.758000  1.0  -0.3663
  N  N7  1  0.750000  0.750000  0.595800  1.0  0.2817
  N  N8  1  0.750000  0.750000  0.430100  1.0  -0.3555
  N  N9  1  0.072100  0.072100  0.910900  1.0  -0.4433
  N  N10  1  0.427900  0.427900  0.910900  1.0  -0.4438
  N  N11  1  0.427900  0.072100  0.910900  1.0  -0.4434
  N  N12  1  0.072100  0.427900  0.910900  1.0  -0.4437
  N  N13  1  0.927900  0.572100  0.089100  1.0  -0.444
  N  N14  1  0.572100  0.927900  0.089100  1.0  -0.4444
  N  N15  1  0.572100  0.572100  0.089100  1.0  -0.4437
  N  N16  1  0.927900  0.927900  0.089100  1.0  -0.4446
  N  N17  1  0.000000  0.000000  0.000000  1.0  0.3814
  N  N18  1  0.500000  0.500000  0.000000  1.0  0.3814
  N  N19  1  0.500000  0.000000  0.000000  1.0  0.3814
  N  N20  1  0.000000  0.500000  0.000000  1.0  0.3814
