# generated using pymatgen
data_Ag3H6C4(SN4)2
_symmetry_space_group_name_H-M   'P 1'
_cell_length_a   9.94930000
_cell_length_b   14.07960000
_cell_length_c   19.90600000
_cell_angle_alpha   90.00000000
_cell_angle_beta   101.58500000
_cell_angle_gamma   90.00000000
_symmetry_Int_Tables_number   1
_chemical_formula_structural   Ag3H6C4(SN4)2
_chemical_formula_sum   'Ag12 H24 C16 S8 N32'
_cell_volume   2731.66834234
_cell_formula_units_Z   4
loop_
 _symmetry_equiv_pos_site_id
 _symmetry_equiv_pos_as_xyz
  1  'x, y, z'
loop_
 _atom_site_type_symbol
 _atom_site_label
 _atom_site_symmetry_multiplicity
 _atom_site_fract_x
 _atom_site_fract_y
 _atom_site_fract_z
 _atom_site_occupancy
 _atom_site_charge
  Ag  Ag1  1  0.611170  0.022390  0.451440  1.0  0.2299
  Ag  Ag2  1  0.612420  0.149220  0.279070  1.0  0.2715
  Ag  Ag3  1  0.932910  0.129750  0.634710  1.0  0.1415
  Ag  Ag4  1  0.888830  0.522390  0.048560  1.0  0.2295
  Ag  Ag5  1  0.887580  0.649220  0.220930  1.0  0.2714
  Ag  Ag6  1  0.567090  0.629750  0.865290  1.0  0.1405
  Ag  Ag7  1  0.388830  0.977610  0.548560  1.0  0.2296
  Ag  Ag8  1  0.387580  0.850780  0.720930  1.0  0.2715
  Ag  Ag9  1  0.067090  0.870250  0.365290  1.0  0.1364
  Ag  Ag10  1  0.111170  0.477610  0.951440  1.0  0.2299
  Ag  Ag11  1  0.112420  0.350780  0.779070  1.0  0.272
  Ag  Ag12  1  0.432910  0.370250  0.134710  1.0  0.1371
  H  H13  1  0.946400  0.822400  0.720800  1.0  0.1049
  H  H14  1  0.978400  0.925500  0.698600  1.0  0.1135
  H  H15  1  0.965300  0.841800  0.645700  1.0  0.1085
  H  H16  1  0.438000  0.866200  0.230000  1.0  0.1079
  H  H17  1  0.466900  0.910000  0.303900  1.0  0.1163
  H  H18  1  0.492100  0.970700  0.241600  1.0  0.1054
  H  H19  1  0.553600  0.322400  0.779200  1.0  0.1041
  H  H20  1  0.521600  0.425500  0.801400  1.0  0.1128
  H  H21  1  0.534700  0.341800  0.854300  1.0  0.1084
  H  H22  1  0.062000  0.366200  0.270000  1.0  0.1087
  H  H23  1  0.033100  0.410000  0.196100  1.0  0.1165
  H  H24  1  0.007900  0.470700  0.258400  1.0  0.1075
  H  H25  1  0.053600  0.177600  0.279200  1.0  0.1039
  H  H26  1  0.021600  0.074500  0.301400  1.0  0.112
  H  H27  1  0.034700  0.158200  0.354300  1.0  0.1081
  H  H28  1  0.562000  0.133800  0.770000  1.0  0.1086
  H  H29  1  0.533100  0.090000  0.696100  1.0  0.1164
  H  H30  1  0.507900  0.029300  0.758400  1.0  0.1062
  H  H31  1  0.446400  0.677600  0.220800  1.0  0.1049
  H  H32  1  0.478400  0.574500  0.198600  1.0  0.1133
  H  H33  1  0.465300  0.658200  0.145700  1.0  0.1081
  H  H34  1  0.938000  0.633800  0.730000  1.0  0.1084
  H  H35  1  0.966900  0.590000  0.803900  1.0  0.1161
  H  H36  1  0.992100  0.529300  0.741600  1.0  0.1058
  C  C37  1  0.709200  0.942700  0.614000  1.0  0.2811
  C  C38  1  0.931000  0.867300  0.683800  1.0  -0.1648
  C  C39  1  0.750500  0.910100  0.310800  1.0  0.2116
  C  C40  1  0.496600  0.908000  0.261000  1.0  -0.198
  C  C41  1  0.790800  0.442700  0.886000  1.0  0.2828
  C  C42  1  0.569000  0.367300  0.816200  1.0  -0.1637
  C  C43  1  0.749500  0.410100  0.189200  1.0  0.2121
  C  C44  1  0.003400  0.408000  0.239000  1.0  -0.1991
  C  C45  1  0.290800  0.057300  0.386000  1.0  0.2826
  C  C46  1  0.069000  0.132700  0.316200  1.0  -0.1638
  C  C47  1  0.249500  0.089900  0.689200  1.0  0.212
  C  C48  1  0.503400  0.092000  0.739000  1.0  -0.1993
  C  C49  1  0.209200  0.557300  0.114000  1.0  0.2804
  C  C50  1  0.431000  0.632700  0.183800  1.0  -0.1649
  C  C51  1  0.250500  0.589900  0.810800  1.0  0.211
  C  C52  1  0.996600  0.592000  0.761000  1.0  -0.198
  S  S53  1  0.780200  0.016400  0.560200  1.0  -0.3108
  S  S54  1  0.764200  0.018700  0.352700  1.0  -0.3076
  S  S55  1  0.719800  0.516400  0.939800  1.0  -0.3123
  S  S56  1  0.735800  0.518700  0.147300  1.0  -0.3078
  S  S57  1  0.219800  0.983600  0.439800  1.0  -0.3127
  S  S58  1  0.235800  0.981300  0.647300  1.0  -0.3082
  S  S59  1  0.280200  0.483600  0.060200  1.0  -0.3105
  S  S60  1  0.264200  0.481300  0.852700  1.0  -0.3081
  N  N61  1  0.584800  0.931300  0.617500  1.0  -0.185
  N  N62  1  0.579200  0.868800  0.669600  1.0  -0.1141
  N  N63  1  0.698200  0.841800  0.696000  1.0  -0.2296
  N  N64  1  0.785500  0.885900  0.662900  1.0  0.1098
  N  N65  1  0.852700  0.852100  0.306200  1.0  -0.2376
  N  N66  1  0.798800  0.778300  0.266600  1.0  -0.0861
  N  N67  1  0.668300  0.789600  0.245800  1.0  -0.2539
  N  N68  1  0.636900  0.873600  0.272000  1.0  0.1841
  N  N69  1  0.915200  0.431300  0.882500  1.0  -0.184
  N  N70  1  0.920800  0.368800  0.830400  1.0  -0.1143
  N  N71  1  0.801800  0.341800  0.804000  1.0  -0.2275
  N  N72  1  0.714500  0.385900  0.837100  1.0  0.1096
  N  N73  1  0.647300  0.352100  0.193800  1.0  -0.234
  N  N74  1  0.701200  0.278300  0.233400  1.0  -0.0841
  N  N75  1  0.831700  0.289600  0.254200  1.0  -0.2527
  N  N76  1  0.863100  0.373600  0.228000  1.0  0.1844
  N  N77  1  0.415200  0.068700  0.382500  1.0  -0.1831
  N  N78  1  0.420800  0.131200  0.330400  1.0  -0.1133
  N  N79  1  0.301800  0.158200  0.304000  1.0  -0.2274
  N  N80  1  0.214500  0.114100  0.337100  1.0  0.1097
  N  N81  1  0.147300  0.147900  0.693800  1.0  -0.2342
  N  N82  1  0.201200  0.221700  0.733400  1.0  -0.0849
  N  N83  1  0.331700  0.210400  0.754200  1.0  -0.2537
  N  N84  1  0.363100  0.126400  0.728000  1.0  0.1843
  N  N85  1  0.084800  0.568700  0.117500  1.0  -0.1854
  N  N86  1  0.079200  0.631200  0.169600  1.0  -0.1141
  N  N87  1  0.198200  0.658200  0.196000  1.0  -0.2298
  N  N88  1  0.285500  0.614100  0.162900  1.0  0.1098
  N  N89  1  0.352700  0.647900  0.806200  1.0  -0.2375
  N  N90  1  0.298800  0.721700  0.766600  1.0  -0.0868
  N  N91  1  0.168300  0.710400  0.745800  1.0  -0.2536
  N  N92  1  0.136900  0.626400  0.772000  1.0  0.1839
