# generated using pymatgen
data_Ag2H3C2SN4
_symmetry_space_group_name_H-M   'P 1'
_cell_length_a   10.03930000
_cell_length_b   13.96880000
_cell_length_c   19.89300000
_cell_angle_alpha   90.00000000
_cell_angle_beta   102.36900000
_cell_angle_gamma   90.00000000
_symmetry_Int_Tables_number   1
_chemical_formula_structural   Ag2H3C2SN4
_chemical_formula_sum   'Ag16 H24 C16 S8 N32'
_cell_volume   2724.97970035
_cell_formula_units_Z   8
loop_
 _symmetry_equiv_pos_site_id
 _symmetry_equiv_pos_as_xyz
  1  'x, y, z'
loop_
 _atom_site_type_symbol
 _atom_site_label
 _atom_site_symmetry_multiplicity
 _atom_site_fract_x
 _atom_site_fract_y
 _atom_site_fract_z
 _atom_site_occupancy
 _atom_site_charge
  Ag  Ag1  1  0.422500  0.636300  0.139820  1.0  -0.0108
  Ag  Ag2  1  0.522400  0.457700  0.071600  1.0  0.1097
  Ag  Ag3  1  0.892200  0.479070  0.046220  1.0  0.2085
  Ag  Ag4  1  0.608000  0.845710  0.274450  1.0  0.3669
  Ag  Ag5  1  0.077500  0.136300  0.360180  1.0  -0.0137
  Ag  Ag6  1  0.977600  0.957700  0.428400  1.0  0.1128
  Ag  Ag7  1  0.607800  0.979070  0.453780  1.0  0.2091
  Ag  Ag8  1  0.892000  0.345710  0.225550  1.0  0.3653
  Ag  Ag9  1  0.577500  0.363700  0.860180  1.0  -0.0149
  Ag  Ag10  1  0.477600  0.542300  0.928400  1.0  0.1139
  Ag  Ag11  1  0.107800  0.520930  0.953780  1.0  0.2085
  Ag  Ag12  1  0.392000  0.154290  0.725550  1.0  0.3675
  Ag  Ag13  1  0.922500  0.863700  0.639820  1.0  -0.0118
  Ag  Ag14  1  0.022400  0.042300  0.571600  1.0  0.1102
  Ag  Ag15  1  0.392200  0.020930  0.546220  1.0  0.2082
  Ag  Ag16  1  0.108000  0.654290  0.774450  1.0  0.3651
  H  H17  1  0.003300  0.522600  0.245500  1.0  0.085
  H  H18  1  0.050900  0.620700  0.280700  1.0  0.065
  H  H19  1  0.039500  0.607900  0.201400  1.0  0.0879
  H  H20  1  0.438400  0.328700  0.238600  1.0  0.085
  H  H21  1  0.472900  0.418300  0.198100  1.0  0.1023
  H  H22  1  0.458400  0.317300  0.163000  1.0  0.0778
  H  H23  1  0.496700  0.022600  0.254500  1.0  0.0847
  H  H24  1  0.449100  0.120700  0.219300  1.0  0.0637
  H  H25  1  0.460500  0.107900  0.298600  1.0  0.0886
  H  H26  1  0.061600  0.828700  0.261400  1.0  0.0831
  H  H27  1  0.027100  0.918300  0.301900  1.0  0.1011
  H  H28  1  0.041600  0.817300  0.337000  1.0  0.0786
  H  H29  1  0.996700  0.477400  0.754500  1.0  0.0861
  H  H30  1  0.949100  0.379300  0.719300  1.0  0.0632
  H  H31  1  0.960500  0.392100  0.798600  1.0  0.0888
  H  H32  1  0.561600  0.671300  0.761400  1.0  0.0843
  H  H33  1  0.527100  0.581700  0.801900  1.0  0.1001
  H  H34  1  0.541600  0.682700  0.837000  1.0  0.0787
  H  H35  1  0.503300  0.977400  0.745500  1.0  0.085
  H  H36  1  0.550900  0.879300  0.780700  1.0  0.065
  H  H37  1  0.539500  0.892100  0.701400  1.0  0.088
  H  H38  1  0.938400  0.171300  0.738600  1.0  0.0843
  H  H39  1  0.972900  0.081700  0.698100  1.0  0.1029
  H  H40  1  0.958400  0.182700  0.663000  1.0  0.0781
  C  C41  1  0.750000  0.586000  0.188700  1.0  0.2671
  C  C42  1  0.000000  0.591000  0.239700  1.0  -0.22
  C  C43  1  0.215000  0.435000  0.118200  1.0  0.2026
  C  C44  1  0.425000  0.359000  0.194200  1.0  -0.2059
  C  C45  1  0.750000  0.086000  0.311300  1.0  0.2667
  C  C46  1  0.500000  0.091000  0.260300  1.0  -0.2182
  C  C47  1  0.285000  0.935000  0.381800  1.0  0.2042
  C  C48  1  0.075000  0.859000  0.305800  1.0  -0.205
  C  C49  1  0.250000  0.414000  0.811300  1.0  0.2686
  C  C50  1  0.000000  0.409000  0.760300  1.0  -0.2182
  C  C51  1  0.785000  0.565000  0.881800  1.0  0.2055
  C  C52  1  0.575000  0.641000  0.805800  1.0  -0.205
  C  C53  1  0.250000  0.914000  0.688700  1.0  0.2684
  C  C54  1  0.500000  0.909000  0.739700  1.0  -0.2197
  C  C55  1  0.715000  0.065000  0.618200  1.0  0.2027
  C  C56  1  0.925000  0.141000  0.694200  1.0  -0.2058
  S  S57  1  0.745200  0.476900  0.146200  1.0  -0.114
  S  S58  1  0.280600  0.509800  0.063100  1.0  -0.0339
  S  S59  1  0.754800  0.976900  0.353800  1.0  -0.1158
  S  S60  1  0.219400  0.009800  0.436900  1.0  -0.0322
  S  S61  1  0.254800  0.523100  0.853800  1.0  -0.1155
  S  S62  1  0.719400  0.490200  0.936900  1.0  -0.0362
  S  S63  1  0.245200  0.023100  0.646200  1.0  -0.1136
  S  S64  1  0.780600  0.990200  0.563100  1.0  -0.0376
  N  N65  1  0.648000  0.642900  0.191300  1.0  -0.231
  N  N66  1  0.698000  0.716800  0.231900  1.0  -0.1279
  N  N67  1  0.831000  0.707600  0.252800  1.0  -0.3392
  N  N68  1  0.861000  0.622600  0.227000  1.0  0.1405
  N  N69  1  0.085000  0.427100  0.118100  1.0  -0.2534
  N  N70  1  0.075000  0.366700  0.170300  1.0  -0.1601
  N  N71  1  0.190000  0.340300  0.202100  1.0  -0.2582
  N  N72  1  0.280000  0.375700  0.168300  1.0  0.16
  N  N73  1  0.852000  0.142900  0.308700  1.0  -0.2323
  N  N74  1  0.802000  0.216800  0.268100  1.0  -0.1292
  N  N75  1  0.669000  0.207600  0.247200  1.0  -0.3393
  N  N76  1  0.639000  0.122600  0.273000  1.0  0.1424
  N  N77  1  0.415000  0.927100  0.381900  1.0  -0.2559
  N  N78  1  0.425000  0.866700  0.329700  1.0  -0.1628
  N  N79  1  0.310000  0.840300  0.297900  1.0  -0.2589
  N  N80  1  0.220000  0.875700  0.331700  1.0  0.1585
  N  N81  1  0.352000  0.357100  0.808700  1.0  -0.2321
  N  N82  1  0.302000  0.283200  0.768100  1.0  -0.1285
  N  N83  1  0.169000  0.292400  0.747200  1.0  -0.3406
  N  N84  1  0.139000  0.377400  0.773000  1.0  0.1429
  N  N85  1  0.915000  0.572900  0.881900  1.0  -0.2554
  N  N86  1  0.925000  0.633300  0.829700  1.0  -0.1633
  N  N87  1  0.810000  0.659700  0.797900  1.0  -0.257
  N  N88  1  0.720000  0.624300  0.831700  1.0  0.1587
  N  N89  1  0.148000  0.857100  0.691300  1.0  -0.2309
  N  N90  1  0.198000  0.783200  0.731900  1.0  -0.1276
  N  N91  1  0.331000  0.792400  0.752800  1.0  -0.3383
  N  N92  1  0.361000  0.877400  0.727000  1.0  0.1408
  N  N93  1  0.585000  0.072900  0.618100  1.0  -0.2547
  N  N94  1  0.575000  0.133300  0.670300  1.0  -0.161
  N  N95  1  0.690000  0.159700  0.702100  1.0  -0.2572
  N  N96  1  0.780000  0.124300  0.668300  1.0  0.1599
