# generated using pymatgen
data_Dy2ZnH26C36N6(ClO12)2
_symmetry_space_group_name_H-M   'P 1'
_cell_length_a   12.05100000
_cell_length_b   12.05100000
_cell_length_c   21.42720000
_cell_angle_alpha   77.42180000
_cell_angle_beta   77.42180000
_cell_angle_gamma   87.71110000
_symmetry_Int_Tables_number   1
_chemical_formula_structural   Dy2ZnH26C36N6(ClO12)2
_chemical_formula_sum   'Dy4 Zn2 H52 C72 N12 Cl4 O48'
_cell_volume   2964.13202625
_cell_formula_units_Z   2
loop_
 _symmetry_equiv_pos_site_id
 _symmetry_equiv_pos_as_xyz
  1  'x, y, z'
loop_
 _atom_site_type_symbol
 _atom_site_label
 _atom_site_symmetry_multiplicity
 _atom_site_fract_x
 _atom_site_fract_y
 _atom_site_fract_z
 _atom_site_occupancy
 _atom_site_charge
  Dy  Dy1  1  0.953980  0.089380  0.069090  1.0  2.2159
  Dy  Dy2  1  0.910620  0.046020  0.430910  1.0  2.2155
  Dy  Dy3  1  0.046020  0.910620  0.930910  1.0  2.2181
  Dy  Dy4  1  0.089380  0.953980  0.569090  1.0  2.2171
  Zn  Zn5  1  0.561010  0.438990  0.750000  1.0  0.6888
  Zn  Zn6  1  0.438990  0.561010  0.250000  1.0  0.689
  H  H7  1  0.308400  0.085000  0.865600  1.0  0.1415
  H  H8  1  0.219600  0.368400  0.932700  1.0  0.1325
  H  H9  1  0.453100  0.804300  0.836300  1.0  0.1332
  H  H10  1  0.837400  0.139800  0.803800  1.0  0.1331
  H  H11  1  0.579400  0.683200  0.789600  1.0  0.0977
  H  H12  1  0.647700  0.437500  0.878500  1.0  0.1001
  H  H13  1  0.755200  0.323200  0.942900  1.0  0.1291
  H  H14  1  0.457800  0.186800  0.791300  1.0  0.0937
  H  H15  1  0.222400  0.553400  0.897400  1.0  0.1287
  H  H16  1  0.891800  0.034200  0.211300  1.0  0.2518
  H  H17  1  0.901400  0.919000  0.191500  1.0  0.2314
  H  H18  1  0.089700  0.112900  0.163200  1.0  0.3009
  H  H19  1  0.011000  0.210800  0.162200  1.0  0.2985
  H  H20  1  0.915000  0.691600  0.634400  1.0  0.1409
  H  H21  1  0.631600  0.780400  0.567300  1.0  0.1318
  H  H22  1  0.195700  0.546900  0.663700  1.0  0.1335
  H  H23  1  0.860200  0.162600  0.696200  1.0  0.1325
  H  H24  1  0.316800  0.420600  0.710400  1.0  0.0978
  H  H25  1  0.562500  0.352300  0.621500  1.0  0.0988
  H  H26  1  0.676800  0.244800  0.557100  1.0  0.1291
  H  H27  1  0.813200  0.542200  0.708700  1.0  0.093
  H  H28  1  0.446600  0.777600  0.602600  1.0  0.1285
  H  H29  1  0.965800  0.108200  0.288700  1.0  0.2507
  H  H30  1  0.081000  0.098600  0.308500  1.0  0.229
  H  H31  1  0.887100  0.910300  0.336800  1.0  0.302
  H  H32  1  0.789200  0.989000  0.337800  1.0  0.3039
  H  H33  1  0.691600  0.915000  0.134400  1.0  0.1417
  H  H34  1  0.780400  0.631600  0.067300  1.0  0.1317
  H  H35  1  0.546900  0.195700  0.163700  1.0  0.1333
  H  H36  1  0.162600  0.860200  0.196200  1.0  0.1326
  H  H37  1  0.420600  0.316800  0.210400  1.0  0.0968
  H  H38  1  0.352300  0.562500  0.121500  1.0  0.0998
  H  H39  1  0.244800  0.676800  0.057100  1.0  0.1292
  H  H40  1  0.542200  0.813200  0.208700  1.0  0.093
  H  H41  1  0.777600  0.446600  0.102600  1.0  0.1289
  H  H42  1  0.108200  0.965800  0.788700  1.0  0.2501
  H  H43  1  0.098600  0.081000  0.808500  1.0  0.2303
  H  H44  1  0.910300  0.887100  0.836800  1.0  0.3016
  H  H45  1  0.989000  0.789200  0.837800  1.0  0.3019
  H  H46  1  0.085000  0.308400  0.365600  1.0  0.1417
  H  H47  1  0.368400  0.219600  0.432700  1.0  0.1324
  H  H48  1  0.804300  0.453100  0.336300  1.0  0.1333
  H  H49  1  0.139800  0.837400  0.303800  1.0  0.1333
  H  H50  1  0.683200  0.579400  0.289600  1.0  0.0979
  H  H51  1  0.437500  0.647700  0.378500  1.0  0.1
  H  H52  1  0.323200  0.755200  0.442900  1.0  0.1293
  H  H53  1  0.186800  0.457800  0.291300  1.0  0.0933
  H  H54  1  0.553400  0.222400  0.397400  1.0  0.1291
  H  H55  1  0.034200  0.891800  0.711300  1.0  0.2505
  H  H56  1  0.919000  0.901400  0.691500  1.0  0.2294
  H  H57  1  0.112900  0.089700  0.663200  1.0  0.3031
  H  H58  1  0.210800  0.011000  0.662200  1.0  0.3021
  C  C59  1  0.376000  0.509200  0.849100  1.0  0.173
  C  C60  1  0.318600  0.161600  0.864500  1.0  -0.1477
  C  C61  1  0.246300  0.216100  0.907500  1.0  -0.1736
  C  C62  1  0.265400  0.330000  0.903500  1.0  -0.0463
  C  C63  1  0.877500  0.140300  0.922600  1.0  0.7312
  C  C64  1  0.431400  0.730000  0.838800  1.0  -0.1155
  C  C65  1  0.800800  0.200600  0.819600  1.0  -0.0805
  C  C66  1  0.809200  0.218800  0.881000  1.0  -0.0894
  C  C67  1  0.506900  0.656700  0.811600  1.0  0.1821
  C  C68  1  0.687400  0.377600  0.863300  1.0  0.1793
  C  C69  1  0.321500  0.691700  0.870300  1.0  -0.128
  C  C70  1  0.737500  0.274300  0.783600  1.0  0.1826
  C  C71  1  0.231100  0.771300  0.895600  1.0  0.6827
  C  C72  1  0.353600  0.386600  0.855400  1.0  0.2111
  C  C73  1  0.751400  0.308800  0.902500  1.0  -0.1085
  C  C74  1  0.407500  0.224300  0.819100  1.0  0.1777
  C  C75  1  0.294700  0.581100  0.875800  1.0  -0.0617
  C  C76  1  0.147700  0.159500  0.959500  1.0  0.751
  C  C77  1  0.490800  0.624000  0.650900  1.0  0.1723
  C  C78  1  0.838400  0.681400  0.635500  1.0  -0.1456
  C  C79  1  0.783900  0.753700  0.592500  1.0  -0.1717
  C  C80  1  0.670000  0.734600  0.596500  1.0  -0.0436
  C  C81  1  0.859700  0.122500  0.577400  1.0  0.7294
  C  C82  1  0.270000  0.568600  0.661200  1.0  -0.1164
  C  C83  1  0.799400  0.199200  0.680400  1.0  -0.0787
  C  C84  1  0.781200  0.190800  0.619000  1.0  -0.0891
  C  C85  1  0.343300  0.493100  0.688400  1.0  0.1837
  C  C86  1  0.622400  0.312600  0.636700  1.0  0.1793
  C  C87  1  0.308300  0.678500  0.629700  1.0  -0.1282
  C  C88  1  0.725700  0.262500  0.716400  1.0  0.1828
  C  C89  1  0.228700  0.768900  0.604400  1.0  0.6829
  C  C90  1  0.613400  0.646400  0.644600  1.0  0.2111
  C  C91  1  0.691200  0.248600  0.597500  1.0  -0.111
  C  C92  1  0.775700  0.592500  0.680900  1.0  0.1783
  C  C93  1  0.418900  0.705300  0.624200  1.0  -0.0625
  C  C94  1  0.840500  0.852300  0.540500  1.0  0.7511
  C  C95  1  0.624000  0.490800  0.150900  1.0  0.1722
  C  C96  1  0.681400  0.838400  0.135500  1.0  -0.1497
  C  C97  1  0.753700  0.783900  0.092500  1.0  -0.1744
  C  C98  1  0.734600  0.670000  0.096500  1.0  -0.0446
  C  C99  1  0.122500  0.859700  0.077400  1.0  0.7317
  C  C100  1  0.568600  0.270000  0.161200  1.0  -0.1153
  C  C101  1  0.199200  0.799400  0.180400  1.0  -0.0802
  C  C102  1  0.190800  0.781200  0.119000  1.0  -0.0872
  C  C103  1  0.493100  0.343300  0.188400  1.0  0.1834
  C  C104  1  0.312600  0.622400  0.136700  1.0  0.1794
  C  C105  1  0.678500  0.308300  0.129700  1.0  -0.1277
  C  C106  1  0.262500  0.725700  0.216400  1.0  0.183
  C  C107  1  0.768900  0.228700  0.104400  1.0  0.6817
  C  C108  1  0.646400  0.613400  0.144600  1.0  0.2112
  C  C109  1  0.248600  0.691200  0.097500  1.0  -0.111
  C  C110  1  0.592500  0.775700  0.180900  1.0  0.1778
  C  C111  1  0.705300  0.418900  0.124200  1.0  -0.0631
  C  C112  1  0.852300  0.840500  0.040500  1.0  0.751
  C  C113  1  0.509200  0.376000  0.349100  1.0  0.1725
  C  C114  1  0.161600  0.318600  0.364500  1.0  -0.1444
  C  C115  1  0.216100  0.246300  0.407500  1.0  -0.1724
  C  C116  1  0.330000  0.265400  0.403500  1.0  -0.0437
  C  C117  1  0.140300  0.877500  0.422600  1.0  0.7298
  C  C118  1  0.730000  0.431400  0.338800  1.0  -0.1168
  C  C119  1  0.200600  0.800800  0.319600  1.0  -0.0806
  C  C120  1  0.218800  0.809200  0.381000  1.0  -0.0895
  C  C121  1  0.656700  0.506900  0.311600  1.0  0.1821
  C  C122  1  0.377600  0.687400  0.363300  1.0  0.1788
  C  C123  1  0.691700  0.321500  0.370300  1.0  -0.1287
  C  C124  1  0.274300  0.737500  0.283600  1.0  0.1827
  C  C125  1  0.771300  0.231100  0.395600  1.0  0.6833
  C  C126  1  0.386600  0.353600  0.355400  1.0  0.2109
  C  C127  1  0.308800  0.751400  0.402500  1.0  -0.1086
  C  C128  1  0.224300  0.407500  0.319100  1.0  0.1787
  C  C129  1  0.581100  0.294700  0.375800  1.0  -0.0612
  C  C130  1  0.159500  0.147700  0.459500  1.0  0.7519
  N  N131  1  0.680400  0.361400  0.804900  1.0  -0.3
  N  N132  1  0.423600  0.333600  0.813800  1.0  -0.317
  N  N133  1  0.480400  0.548400  0.815500  1.0  -0.315
  N  N134  1  0.638600  0.319600  0.695100  1.0  -0.2985
  N  N135  1  0.666400  0.576400  0.686200  1.0  -0.319
  N  N136  1  0.451600  0.519600  0.684500  1.0  -0.3161
  N  N137  1  0.319600  0.638600  0.195100  1.0  -0.2977
  N  N138  1  0.576400  0.666400  0.186200  1.0  -0.3186
  N  N139  1  0.519600  0.451600  0.184500  1.0  -0.3141
  N  N140  1  0.361400  0.680400  0.304900  1.0  -0.2977
  N  N141  1  0.333600  0.423600  0.313800  1.0  -0.3179
  N  N142  1  0.548400  0.480400  0.315500  1.0  -0.3169
  Cl  Cl143  1  0.085600  0.288200  0.720820  1.0  1.4999
  Cl  Cl144  1  0.711800  0.914400  0.779180  1.0  1.5013
  Cl  Cl145  1  0.914400  0.711800  0.279180  1.0  1.5021
  Cl  Cl146  1  0.288200  0.085600  0.220820  1.0  1.4994
  O  O147  1  0.892000  0.168800  0.973200  1.0  -0.6934
  O  O148  1  0.102400  0.212200  0.002300  1.0  -0.6233
  O  O149  1  0.116500  0.062700  0.958600  1.0  -0.7239
  O  O150  1  0.256900  0.869100  0.899000  1.0  -0.5948
  O  O151  1  0.130200  0.735400  0.911500  1.0  -0.5872
  O  O152  1  0.917000  0.052200  0.902800  1.0  -0.637
  O  O153  1  0.875400  0.996800  0.178400  1.0  -0.6693
  O  O154  1  0.057000  0.168400  0.135400  1.0  -0.7343
  O  O155  1  0.831200  0.108000  0.526800  1.0  -0.6919
  O  O156  1  0.787800  0.897600  0.497700  1.0  -0.6251
  O  O157  1  0.937300  0.883500  0.541400  1.0  -0.7192
  O  O158  1  0.130900  0.743100  0.601000  1.0  -0.5901
  O  O159  1  0.264600  0.869800  0.588500  1.0  -0.5868
  O  O160  1  0.947800  0.083000  0.597200  1.0  -0.6365
  O  O161  1  0.003200  0.124600  0.321600  1.0  -0.6711
  O  O162  1  0.831600  0.943000  0.364600  1.0  -0.728
  O  O163  1  0.108000  0.831200  0.026800  1.0  -0.6924
  O  O164  1  0.897600  0.787800  0.997700  1.0  -0.6246
  O  O165  1  0.883500  0.937300  0.041400  1.0  -0.7258
  O  O166  1  0.743100  0.130900  0.101000  1.0  -0.5944
  O  O167  1  0.869800  0.264600  0.088500  1.0  -0.5874
  O  O168  1  0.083000  0.947800  0.097200  1.0  -0.6369
  O  O169  1  0.124600  0.003200  0.821600  1.0  -0.6656
  O  O170  1  0.943000  0.831600  0.864600  1.0  -0.7281
  O  O171  1  0.168800  0.892000  0.473200  1.0  -0.6912
  O  O172  1  0.212200  0.102400  0.502300  1.0  -0.6258
  O  O173  1  0.062700  0.116500  0.458600  1.0  -0.7186
  O  O174  1  0.869100  0.256900  0.399000  1.0  -0.5916
  O  O175  1  0.735400  0.130200  0.411500  1.0  -0.5877
  O  O176  1  0.052200  0.917000  0.402800  1.0  -0.6366
  O  O177  1  0.996800  0.875400  0.678400  1.0  -0.6714
  O  O178  1  0.168400  0.057000  0.635400  1.0  -0.7336
  O  O179  1  0.996600  0.370200  0.706100  1.0  -0.6298
  O  O180  1  0.119800  0.301000  0.777800  1.0  -0.5562
  O  O181  1  0.044700  0.170900  0.730300  1.0  -0.6009
  O  O182  1  0.177100  0.307500  0.664100  1.0  -0.58
  O  O183  1  0.629800  0.003400  0.793900  1.0  -0.6287
  O  O184  1  0.699000  0.880200  0.722200  1.0  -0.557
  O  O185  1  0.829100  0.955300  0.769700  1.0  -0.6019
  O  O186  1  0.692500  0.822900  0.835900  1.0  -0.5812
  O  O187  1  0.003400  0.629800  0.293900  1.0  -0.6313
  O  O188  1  0.880200  0.699000  0.222200  1.0  -0.5554
  O  O189  1  0.955300  0.829100  0.269700  1.0  -0.602
  O  O190  1  0.822900  0.692500  0.335900  1.0  -0.5777
  O  O191  1  0.370200  0.996600  0.206100  1.0  -0.6296
  O  O192  1  0.301000  0.119800  0.277800  1.0  -0.557
  O  O193  1  0.170900  0.044700  0.230300  1.0  -0.6015
  O  O194  1  0.307500  0.177100  0.164100  1.0  -0.5818
