# generated using pymatgen
data_Co2H18C24N4O9
_symmetry_space_group_name_H-M   'P 1'
_cell_length_a   11.37900000
_cell_length_b   13.38600000
_cell_length_c   25.90400000
_cell_angle_alpha   90.00000000
_cell_angle_beta   90.00000000
_cell_angle_gamma   90.00000000
_symmetry_Int_Tables_number   1
_chemical_formula_structural   Co2H18C24N4O9
_chemical_formula_sum   'Co8 H72 C96 N16 O36'
_cell_volume   3945.67899178
_cell_formula_units_Z   4
loop_
 _symmetry_equiv_pos_site_id
 _symmetry_equiv_pos_as_xyz
  1  'x, y, z'
loop_
 _atom_site_type_symbol
 _atom_site_label
 _atom_site_symmetry_multiplicity
 _atom_site_fract_x
 _atom_site_fract_y
 _atom_site_fract_z
 _atom_site_occupancy
 _atom_site_charge
  Co  Co1  1  0.844320  0.443530  0.421990  1.0  0.9142
  Co  Co2  1  0.098130  0.553920  0.361330  1.0  0.9776
  Co  Co3  1  0.655680  0.556470  0.921990  1.0  0.913
  Co  Co4  1  0.401870  0.446080  0.861330  1.0  0.9782
  Co  Co5  1  0.155680  0.943530  0.078010  1.0  0.9124
  Co  Co6  1  0.901870  0.053920  0.138670  1.0  0.9774
  Co  Co7  1  0.344320  0.056470  0.578010  1.0  0.9136
  Co  Co8  1  0.598130  0.946080  0.638670  1.0  0.9781
  H  H9  1  0.911200  0.630400  0.409000  1.0  0.3936
  H  H10  1  0.868300  0.589000  0.354200  1.0  0.3233
  H  H11  1  0.294900  0.395900  0.347800  1.0  0.094
  H  H12  1  0.344700  0.157000  0.474000  1.0  0.0987
  H  H13  1  0.025400  0.253600  0.163000  1.0  0.0876
  H  H14  1  0.248900  0.284800  0.426600  1.0  0.1223
  H  H15  1  0.593500  0.502400  0.458400  1.0  0.0848
  H  H16  1  0.054300  0.366700  0.229100  1.0  0.1135
  H  H17  1  0.845300  0.075200  0.255000  1.0  0.0908
  H  H18  1  0.308300  0.688700  0.336200  1.0  0.0969
  H  H19  1  0.811300  0.722700  0.556300  1.0  0.1188
  H  H20  1  0.169300  0.228000  0.599600  1.0  0.0864
  H  H21  1  0.902300  0.598700  0.506500  1.0  0.0924
  H  H22  1  0.066200  0.352900  0.556300  1.0  0.1295
  H  H23  1  0.495800  0.628300  0.503000  1.0  0.1274
  H  H24  1  0.868500  0.187600  0.324100  1.0  0.12
  H  H25  1  0.514900  0.684300  0.336000  1.0  0.1237
  H  H26  1  0.495000  0.385000  0.353500  1.0  0.1236
  H  H27  1  0.588800  0.369600  0.909000  1.0  0.3927
  H  H28  1  0.631700  0.411000  0.854200  1.0  0.3224
  H  H29  1  0.205100  0.604100  0.847800  1.0  0.0941
  H  H30  1  0.155300  0.843000  0.974000  1.0  0.0983
  H  H31  1  0.474600  0.746400  0.663000  1.0  0.088
  H  H32  1  0.251100  0.715200  0.926600  1.0  0.1222
  H  H33  1  0.906500  0.497600  0.958400  1.0  0.0848
  H  H34  1  0.445700  0.633300  0.729100  1.0  0.1132
  H  H35  1  0.654700  0.924800  0.755000  1.0  0.0905
  H  H36  1  0.191700  0.311300  0.836200  1.0  0.0966
  H  H37  1  0.688700  0.277300  0.056300  1.0  0.119
  H  H38  1  0.330700  0.772000  0.099600  1.0  0.0861
  H  H39  1  0.597700  0.401300  0.006500  1.0  0.092
  H  H40  1  0.433800  0.647100  0.056300  1.0  0.1296
  H  H41  1  0.004200  0.371700  0.003000  1.0  0.1269
  H  H42  1  0.631500  0.812400  0.824100  1.0  0.12
  H  H43  1  0.985100  0.315700  0.836000  1.0  0.1233
  H  H44  1  0.005000  0.615000  0.853500  1.0  0.1244
  H  H45  1  0.088800  0.130400  0.091000  1.0  0.3934
  H  H46  1  0.131700  0.089000  0.145800  1.0  0.3201
  H  H47  1  0.705100  0.895900  0.152200  1.0  0.0938
  H  H48  1  0.655300  0.657000  0.026000  1.0  0.0988
  H  H49  1  0.974600  0.753600  0.337000  1.0  0.0879
  H  H50  1  0.751100  0.784800  0.073400  1.0  0.1224
  H  H51  1  0.406500  0.002400  0.041600  1.0  0.0853
  H  H52  1  0.945700  0.866700  0.270900  1.0  0.1133
  H  H53  1  0.154700  0.575200  0.245000  1.0  0.0902
  H  H54  1  0.691700  0.188700  0.163800  1.0  0.0969
  H  H55  1  0.188700  0.222700  0.943700  1.0  0.119
  H  H56  1  0.830700  0.728000  0.900400  1.0  0.0859
  H  H57  1  0.097700  0.098700  0.993500  1.0  0.0925
  H  H58  1  0.933800  0.852900  0.943700  1.0  0.1294
  H  H59  1  0.504200  0.128300  0.997000  1.0  0.1265
  H  H60  1  0.131500  0.687600  0.175900  1.0  0.1201
  H  H61  1  0.485100  0.184300  0.164000  1.0  0.124
  H  H62  1  0.505000  0.885000  0.146500  1.0  0.1234
  H  H63  1  0.411200  0.869600  0.591000  1.0  0.3939
  H  H64  1  0.368300  0.911000  0.645800  1.0  0.3189
  H  H65  1  0.794900  0.104100  0.652200  1.0  0.0939
  H  H66  1  0.844700  0.343000  0.526000  1.0  0.0991
  H  H67  1  0.525400  0.246400  0.837000  1.0  0.0882
  H  H68  1  0.748900  0.215200  0.573400  1.0  0.1222
  H  H69  1  0.093500  0.997600  0.541600  1.0  0.0855
  H  H70  1  0.554300  0.133300  0.770900  1.0  0.1132
  H  H71  1  0.345300  0.424800  0.745000  1.0  0.0906
  H  H72  1  0.808300  0.811300  0.663800  1.0  0.0963
  H  H73  1  0.311300  0.777300  0.443700  1.0  0.1189
  H  H74  1  0.669300  0.272000  0.400400  1.0  0.0863
  H  H75  1  0.402300  0.901300  0.493500  1.0  0.0933
  H  H76  1  0.566200  0.147100  0.443700  1.0  0.1287
  H  H77  1  0.995800  0.871700  0.497000  1.0  0.1272
  H  H78  1  0.368500  0.312400  0.675900  1.0  0.1197
  H  H79  1  0.014900  0.815700  0.664000  1.0  0.1238
  H  H80  1  0.995000  0.115000  0.646500  1.0  0.1241
  C  C81  1  0.340000  0.455600  0.346600  1.0  0.1576
  C  C82  1  0.288600  0.198200  0.490900  1.0  0.1644
  C  C83  1  0.993000  0.239600  0.196000  1.0  0.1553
  C  C84  1  0.232200  0.274900  0.462100  1.0  -0.1007
  C  C85  1  0.638200  0.549600  0.477600  1.0  0.1627
  C  C86  1  0.642400  0.686600  0.535300  1.0  -0.1122
  C  C87  1  0.980500  0.365400  0.326830  1.0  0.6828
  C  C88  1  0.150500  0.335400  0.488300  1.0  -0.0679
  C  C89  1  0.010800  0.307400  0.235500  1.0  -0.1025
  C  C90  1  0.887600  0.135500  0.249600  1.0  0.1558
  C  C91  1  0.347200  0.626200  0.339100  1.0  0.1471
  C  C92  1  0.765300  0.678600  0.535900  1.0  -0.1049
  C  C93  1  0.185700  0.239300  0.564100  1.0  0.1654
  C  C94  1  0.086500  0.415100  0.457790  1.0  0.7172
  C  C95  1  0.966200  0.289800  0.283500  1.0  -0.0936
  C  C96  1  0.579500  0.767800  0.565600  1.0  0.6182
  C  C97  1  0.819100  0.604500  0.505900  1.0  0.1334
  C  C98  1  0.124800  0.315500  0.538700  1.0  -0.1525
  C  C99  1  0.578900  0.622700  0.505100  1.0  -0.1405
  C  C100  1  0.901900  0.202100  0.291300  1.0  -0.1102
  C  C101  1  0.470900  0.624300  0.339400  1.0  -0.1144
  C  C102  1  0.458700  0.448300  0.348970  1.0  -0.1622
  C  C103  1  0.526900  0.533700  0.344750  1.0  -0.0984
  C  C104  1  0.658600  0.530200  0.351490  1.0  0.6601
  C  C105  1  0.160000  0.544400  0.846600  1.0  0.1579
  C  C106  1  0.211400  0.801800  0.990900  1.0  0.1653
  C  C107  1  0.507000  0.760400  0.696000  1.0  0.1544
  C  C108  1  0.267800  0.725100  0.962100  1.0  -0.1002
  C  C109  1  0.861800  0.450400  0.977600  1.0  0.1625
  C  C110  1  0.857600  0.313400  0.035300  1.0  -0.1123
  C  C111  1  0.519500  0.634600  0.826830  1.0  0.6825
  C  C112  1  0.349500  0.664600  0.988300  1.0  -0.0682
  C  C113  1  0.489200  0.692600  0.735500  1.0  -0.1027
  C  C114  1  0.612400  0.864500  0.749600  1.0  0.1555
  C  C115  1  0.152800  0.373800  0.839100  1.0  0.1465
  C  C116  1  0.734700  0.321400  0.035900  1.0  -0.1055
  C  C117  1  0.314300  0.760700  0.064100  1.0  0.1666
  C  C118  1  0.413500  0.584900  0.957790  1.0  0.7175
  C  C119  1  0.533800  0.710200  0.783500  1.0  -0.0933
  C  C120  1  0.920500  0.232200  0.065600  1.0  0.6197
  C  C121  1  0.680900  0.395500  0.005900  1.0  0.1348
  C  C122  1  0.375200  0.684500  0.038700  1.0  -0.1525
  C  C123  1  0.921100  0.377300  0.005100  1.0  -0.1386
  C  C124  1  0.598100  0.797900  0.791300  1.0  -0.1097
  C  C125  1  0.029100  0.375700  0.839400  1.0  -0.1168
  C  C126  1  0.041300  0.551700  0.848970  1.0  -0.1614
  C  C127  1  0.973100  0.466300  0.844750  1.0  -0.1004
  C  C128  1  0.841400  0.469800  0.851490  1.0  0.66
  C  C129  1  0.660000  0.955600  0.153400  1.0  0.1583
  C  C130  1  0.711400  0.698200  0.009100  1.0  0.1652
  C  C131  1  0.007000  0.739600  0.304000  1.0  0.1547
  C  C132  1  0.767800  0.774900  0.037900  1.0  -0.1022
  C  C133  1  0.361800  0.049600  0.022400  1.0  0.163
  C  C134  1  0.357600  0.186600  0.964700  1.0  -0.1137
  C  C135  1  0.019500  0.865400  0.173170  1.0  0.6823
  C  C136  1  0.849500  0.835400  0.011700  1.0  -0.0677
  C  C137  1  0.989200  0.807400  0.264500  1.0  -0.1024
  C  C138  1  0.112400  0.635500  0.250400  1.0  0.1539
  C  C139  1  0.652800  0.126200  0.160900  1.0  0.1464
  C  C140  1  0.234700  0.178600  0.964100  1.0  -0.1044
  C  C141  1  0.814300  0.739300  0.935900  1.0  0.1664
  C  C142  1  0.913500  0.915100  0.042210  1.0  0.7177
  C  C143  1  0.033800  0.789800  0.216500  1.0  -0.0925
  C  C144  1  0.420500  0.267800  0.934400  1.0  0.6189
  C  C145  1  0.180900  0.104500  0.994100  1.0  0.1361
  C  C146  1  0.875200  0.815500  0.961300  1.0  -0.1526
  C  C147  1  0.421100  0.122700  0.994900  1.0  -0.1402
  C  C148  1  0.098100  0.702100  0.208700  1.0  -0.1108
  C  C149  1  0.529100  0.124300  0.160600  1.0  -0.1162
  C  C150  1  0.541300  0.948300  0.151030  1.0  -0.1632
  C  C151  1  0.473100  0.033700  0.155250  1.0  -0.0983
  C  C152  1  0.341400  0.030200  0.148510  1.0  0.6598
  C  C153  1  0.840000  0.044400  0.653400  1.0  0.1565
  C  C154  1  0.788600  0.301800  0.509100  1.0  0.1648
  C  C155  1  0.493000  0.260400  0.804000  1.0  0.1551
  C  C156  1  0.732200  0.225100  0.537900  1.0  -0.1006
  C  C157  1  0.138200  0.950400  0.522400  1.0  0.1632
  C  C158  1  0.142400  0.813400  0.464700  1.0  -0.1123
  C  C159  1  0.480500  0.134600  0.673170  1.0  0.6822
  C  C160  1  0.650500  0.164600  0.511700  1.0  -0.0683
  C  C161  1  0.510800  0.192600  0.764500  1.0  -0.1023
  C  C162  1  0.387600  0.364500  0.750400  1.0  0.1555
  C  C163  1  0.847200  0.873800  0.660900  1.0  0.1475
  C  C164  1  0.265300  0.821400  0.464100  1.0  -0.1046
  C  C165  1  0.685700  0.260700  0.435900  1.0  0.1669
  C  C166  1  0.586500  0.084900  0.542210  1.0  0.7172
  C  C167  1  0.466200  0.210200  0.716500  1.0  -0.093
  C  C168  1  0.079500  0.732200  0.434400  1.0  0.6177
  C  C169  1  0.319100  0.895500  0.494100  1.0  0.134
  C  C170  1  0.624800  0.184500  0.461300  1.0  -0.1519
  C  C171  1  0.078900  0.877300  0.494900  1.0  -0.1403
  C  C172  1  0.401900  0.297900  0.708700  1.0  -0.1096
  C  C173  1  0.970900  0.875700  0.660600  1.0  -0.1166
  C  C174  1  0.958700  0.051700  0.651030  1.0  -0.1613
  C  C175  1  0.026900  0.966300  0.655250  1.0  -0.0979
  C  C176  1  0.158600  0.969800  0.648510  1.0  0.6599
  N  N177  1  0.265700  0.182000  0.541010  1.0  -0.3142
  N  N178  1  0.931700  0.154400  0.202510  1.0  -0.3454
  N  N179  1  0.757500  0.542100  0.476770  1.0  -0.3339
  N  N180  1  0.282600  0.543600  0.342690  1.0  -0.3246
  N  N181  1  0.234300  0.818000  0.041010  1.0  -0.3155
  N  N182  1  0.568300  0.845600  0.702510  1.0  -0.3455
  N  N183  1  0.742500  0.457900  0.976770  1.0  -0.3339
  N  N184  1  0.217400  0.456400  0.842690  1.0  -0.3252
  N  N185  1  0.734300  0.682000  0.958990  1.0  -0.3156
  N  N186  1  0.068300  0.654400  0.297490  1.0  -0.3447
  N  N187  1  0.242500  0.042100  0.023230  1.0  -0.3328
  N  N188  1  0.717400  0.043600  0.157310  1.0  -0.325
  N  N189  1  0.765700  0.318000  0.458990  1.0  -0.3141
  N  N190  1  0.431700  0.345600  0.797490  1.0  -0.345
  N  N191  1  0.257500  0.957900  0.523230  1.0  -0.3324
  N  N192  1  0.782600  0.956400  0.657310  1.0  -0.3244
  O  O193  1  0.916300  0.573000  0.384980  1.0  -0.7984
  O  O194  1  0.471500  0.769500  0.563330  1.0  -0.5669
  O  O195  1  0.719600  0.603300  0.336330  1.0  -0.6016
  O  O196  1  0.698500  0.451000  0.373520  1.0  -0.5796
  O  O197  1  0.646000  0.826200  0.592540  1.0  -0.6012
  O  O198  1  0.925600  0.349500  0.367430  1.0  -0.5951
  O  O199  1  0.049200  0.436300  0.316230  1.0  -0.6184
  O  O200  1  0.140700  0.453500  0.420340  1.0  -0.5982
  O  O201  1  0.984200  0.436300  0.473090  1.0  -0.5946
  O  O202  1  0.583700  0.427000  0.884980  1.0  -0.7982
  O  O203  1  0.028500  0.230500  0.063330  1.0  -0.5689
  O  O204  1  0.780400  0.396700  0.836330  1.0  -0.6012
  O  O205  1  0.801500  0.549000  0.873520  1.0  -0.5797
  O  O206  1  0.854000  0.173800  0.092540  1.0  -0.6013
  O  O207  1  0.574400  0.650500  0.867430  1.0  -0.5946
  O  O208  1  0.450800  0.563700  0.816230  1.0  -0.6189
  O  O209  1  0.359300  0.546500  0.920340  1.0  -0.5998
  O  O210  1  0.515800  0.563700  0.973090  1.0  -0.5956
  O  O211  1  0.083700  0.073000  0.115020  1.0  -0.7979
  O  O212  1  0.528500  0.269500  0.936670  1.0  -0.5675
  O  O213  1  0.280400  0.103300  0.163670  1.0  -0.6033
  O  O214  1  0.301500  0.951000  0.126480  1.0  -0.5792
  O  O215  1  0.354000  0.326200  0.907460  1.0  -0.601
  O  O216  1  0.074400  0.849500  0.132570  1.0  -0.5954
  O  O217  1  0.950800  0.936300  0.183770  1.0  -0.6188
  O  O218  1  0.859300  0.953500  0.079660  1.0  -0.6008
  O  O219  1  0.015800  0.936300  0.026910  1.0  -0.5944
  O  O220  1  0.416300  0.927000  0.615020  1.0  -0.7993
  O  O221  1  0.971500  0.730500  0.436670  1.0  -0.5668
  O  O222  1  0.219600  0.896700  0.663670  1.0  -0.6041
  O  O223  1  0.198500  0.049000  0.626480  1.0  -0.5805
  O  O224  1  0.146000  0.673800  0.407460  1.0  -0.6018
  O  O225  1  0.425600  0.150500  0.632570  1.0  -0.5955
  O  O226  1  0.549200  0.063700  0.683770  1.0  -0.619
  O  O227  1  0.640700  0.046500  0.579660  1.0  -0.5991
  O  O228  1  0.484200  0.063700  0.526910  1.0  -0.5952
