# generated using pymatgen
data_Co2H18C24N4O9
_symmetry_space_group_name_H-M   'P 1'
_cell_length_a   11.24900000
_cell_length_b   13.23800000
_cell_length_c   26.05000000
_cell_angle_alpha   90.00000000
_cell_angle_beta   90.00000000
_cell_angle_gamma   90.00000000
_symmetry_Int_Tables_number   1
_chemical_formula_structural   Co2H18C24N4O9
_chemical_formula_sum   'Co8 H72 C96 N16 O36'
_cell_volume   3879.21652510
_cell_formula_units_Z   4
loop_
 _symmetry_equiv_pos_site_id
 _symmetry_equiv_pos_as_xyz
  1  'x, y, z'
loop_
 _atom_site_type_symbol
 _atom_site_label
 _atom_site_symmetry_multiplicity
 _atom_site_fract_x
 _atom_site_fract_y
 _atom_site_fract_z
 _atom_site_occupancy
 _atom_site_charge
  Co  Co1  1  0.661470  0.560920  0.920480  1.0  0.9821
  Co  Co2  1  0.408020  0.438490  0.863070  1.0  0.9838
  Co  Co3  1  0.838530  0.439080  0.420480  1.0  0.9824
  Co  Co4  1  0.091980  0.561510  0.363070  1.0  0.9845
  Co  Co5  1  0.338530  0.060920  0.579520  1.0  0.9819
  Co  Co6  1  0.591980  0.938490  0.636930  1.0  0.9848
  Co  Co7  1  0.161470  0.939080  0.079520  1.0  0.9806
  Co  Co8  1  0.908020  0.061510  0.136930  1.0  0.9842
  H  H9  1  0.624300  0.814900  0.821600  1.0  0.1211
  H  H10  1  0.434400  0.630000  0.731300  1.0  0.1082
  H  H11  1  0.705500  0.303900  0.065100  1.0  0.1265
  H  H12  1  0.614500  0.419800  0.012400  1.0  0.083
  H  H13  1  0.015500  0.617200  0.844500  1.0  0.1183
  H  H14  1  0.983200  0.315600  0.836800  1.0  0.1187
  H  H15  1  0.919600  0.494800  0.947200  1.0  0.0724
  H  H16  1  0.340000  0.764300  0.101500  1.0  0.0889
  H  H17  1  0.643900  0.924000  0.751700  1.0  0.0778
  H  H18  1  0.219900  0.600000  0.842500  1.0  0.0951
  H  H19  1  0.225200  0.685400  0.936800  1.0  0.1122
  H  H20  1  0.021900  0.372400  0.994900  1.0  0.131
  H  H21  1  0.144900  0.823900  0.980400  1.0  0.0755
  H  H22  1  0.191500  0.304100  0.837900  1.0  0.0895
  H  H23  1  0.436800  0.636300  0.058700  1.0  0.12
  H  H24  1  0.460300  0.739600  0.663800  1.0  0.0887
  H  H25  1  0.641600  0.408300  0.856300  1.0  0.4139
  H  H26  1  0.600100  0.369900  0.911600  1.0  0.405
  H  H27  1  0.875700  0.185100  0.321600  1.0  0.1214
  H  H28  1  0.065600  0.370000  0.231300  1.0  0.1086
  H  H29  1  0.794500  0.696100  0.565100  1.0  0.1262
  H  H30  1  0.885500  0.580200  0.512400  1.0  0.0832
  H  H31  1  0.484500  0.382800  0.344500  1.0  0.1178
  H  H32  1  0.516800  0.684400  0.336800  1.0  0.1193
  H  H33  1  0.580400  0.505200  0.447200  1.0  0.072
  H  H34  1  0.160000  0.235700  0.601500  1.0  0.0889
  H  H35  1  0.856100  0.076000  0.251700  1.0  0.0779
  H  H36  1  0.280100  0.400000  0.342500  1.0  0.0948
  H  H37  1  0.274800  0.314600  0.436800  1.0  0.1126
  H  H38  1  0.478100  0.627600  0.494900  1.0  0.1306
  H  H39  1  0.355100  0.176100  0.480400  1.0  0.0757
  H  H40  1  0.308500  0.695900  0.337900  1.0  0.09
  H  H41  1  0.063200  0.363700  0.558700  1.0  0.1196
  H  H42  1  0.039700  0.260400  0.163800  1.0  0.0883
  H  H43  1  0.858400  0.591700  0.356300  1.0  0.4155
  H  H44  1  0.899900  0.630100  0.411600  1.0  0.4061
  H  H45  1  0.375700  0.314900  0.678400  1.0  0.1211
  H  H46  1  0.565600  0.130000  0.768700  1.0  0.1082
  H  H47  1  0.294500  0.803900  0.434900  1.0  0.1266
  H  H48  1  0.385500  0.919800  0.487600  1.0  0.0833
  H  H49  1  0.984500  0.117200  0.655500  1.0  0.1182
  H  H50  1  0.016800  0.815600  0.663200  1.0  0.1195
  H  H51  1  0.080400  0.994800  0.552800  1.0  0.0716
  H  H52  1  0.660000  0.264300  0.398500  1.0  0.089
  H  H53  1  0.356100  0.424000  0.748300  1.0  0.0781
  H  H54  1  0.780100  0.100000  0.657500  1.0  0.0953
  H  H55  1  0.774800  0.185400  0.563200  1.0  0.113
  H  H56  1  0.978100  0.872400  0.505100  1.0  0.1307
  H  H57  1  0.855100  0.323900  0.519600  1.0  0.0761
  H  H58  1  0.808500  0.804100  0.662100  1.0  0.0895
  H  H59  1  0.563200  0.136300  0.441300  1.0  0.1195
  H  H60  1  0.539700  0.239600  0.836200  1.0  0.0883
  H  H61  1  0.358400  0.908300  0.643700  1.0  0.4121
  H  H62  1  0.399900  0.869900  0.588400  1.0  0.4063
  H  H63  1  0.124300  0.685100  0.178400  1.0  0.1212
  H  H64  1  0.934400  0.870000  0.268700  1.0  0.1086
  H  H65  1  0.205500  0.196100  0.934900  1.0  0.1266
  H  H66  1  0.114500  0.080200  0.987600  1.0  0.0829
  H  H67  1  0.515500  0.882800  0.155500  1.0  0.1176
  H  H68  1  0.483200  0.184400  0.163200  1.0  0.1201
  H  H69  1  0.419600  0.005200  0.052800  1.0  0.0718
  H  H70  1  0.840000  0.735700  0.898500  1.0  0.0885
  H  H71  1  0.143900  0.576000  0.248300  1.0  0.078
  H  H72  1  0.719900  0.900000  0.157500  1.0  0.0949
  H  H73  1  0.725200  0.814600  0.063200  1.0  0.1128
  H  H74  1  0.521900  0.127600  0.005100  1.0  0.1301
  H  H75  1  0.644900  0.676100  0.019600  1.0  0.0763
  H  H76  1  0.691500  0.195900  0.162100  1.0  0.09
  H  H77  1  0.936800  0.863700  0.941300  1.0  0.1201
  H  H78  1  0.960300  0.760400  0.336200  1.0  0.0883
  H  H79  1  0.141600  0.091700  0.143700  1.0  0.4112
  H  H80  1  0.100100  0.130100  0.088400  1.0  0.404
  C  C81  1  0.841300  0.476000  0.846200  1.0  0.6435
  C  C82  1  0.976800  0.467200  0.841400  1.0  -0.0092
  C  C83  1  0.529500  0.708800  0.783700  1.0  -0.0367
  C  C84  1  0.590400  0.797400  0.789400  1.0  -0.1503
  C  C85  1  0.479900  0.689700  0.736200  1.0  -0.1284
  C  C86  1  0.936000  0.239700  0.064700  1.0  0.6438
  C  C87  1  0.750500  0.340600  0.040500  1.0  -0.1403
  C  C88  1  0.698100  0.410900  0.009700  1.0  0.1634
  C  C89  1  0.049800  0.551700  0.843100  1.0  -0.1558
  C  C90  1  0.030000  0.375200  0.839000  1.0  -0.1429
  C  C91  1  0.876700  0.454100  0.970900  1.0  0.154
  C  C92  1  0.319000  0.750500  0.066800  1.0  0.1579
  C  C93  1  0.602200  0.862300  0.747100  1.0  0.1531
  C  C94  1  0.171500  0.541200  0.842800  1.0  0.1458
  C  C95  1  0.874900  0.323700  0.034500  1.0  -0.0412
  C  C96  1  0.414200  0.574000  0.959700  1.0  0.6647
  C  C97  1  0.346400  0.650200  0.991700  1.0  -0.0183
  C  C98  1  0.254200  0.703300  0.969900  1.0  -0.1495
  C  C99  1  0.938800  0.381800  0.999400  1.0  -0.1502
  C  C100  1  0.203700  0.784100  0.997000  1.0  0.1555
  C  C101  1  0.516800  0.634100  0.827000  1.0  0.6653
  C  C102  1  0.155000  0.368700  0.839800  1.0  0.1432
  C  C103  1  0.376300  0.673600  0.041600  1.0  -0.1709
  C  C104  1  0.495000  0.755300  0.696100  1.0  0.142
  C  C105  1  0.658700  0.524000  0.346200  1.0  0.6437
  C  C106  1  0.523200  0.532800  0.341400  1.0  -0.0099
  C  C107  1  0.970500  0.291200  0.283700  1.0  -0.0378
  C  C108  1  0.909600  0.202600  0.289400  1.0  -0.1503
  C  C109  1  0.020100  0.310300  0.236200  1.0  -0.1303
  C  C110  1  0.564000  0.760300  0.564700  1.0  0.6429
  C  C111  1  0.749500  0.659400  0.540500  1.0  -0.1396
  C  C112  1  0.801900  0.589100  0.509700  1.0  0.163
  C  C113  1  0.450200  0.448300  0.343100  1.0  -0.1569
  C  C114  1  0.470000  0.624800  0.339000  1.0  -0.1425
  C  C115  1  0.623300  0.545900  0.470900  1.0  0.1529
  C  C116  1  0.181000  0.249500  0.566800  1.0  0.1567
  C  C117  1  0.897800  0.137700  0.247100  1.0  0.1539
  C  C118  1  0.328500  0.458800  0.342800  1.0  0.1459
  C  C119  1  0.625100  0.676300  0.534500  1.0  -0.0407
  C  C120  1  0.085800  0.426000  0.459700  1.0  0.665
  C  C121  1  0.153600  0.349800  0.491700  1.0  -0.0179
  C  C122  1  0.245800  0.296700  0.469900  1.0  -0.1502
  C  C123  1  0.561200  0.618200  0.499400  1.0  -0.1519
  C  C124  1  0.296300  0.215900  0.497000  1.0  0.1546
  C  C125  1  0.983200  0.365900  0.327000  1.0  0.6656
  C  C126  1  0.345000  0.631300  0.339800  1.0  0.1426
  C  C127  1  0.123700  0.326400  0.541600  1.0  -0.1718
  C  C128  1  0.005000  0.244700  0.196100  1.0  0.1423
  C  C129  1  0.158700  0.976000  0.653800  1.0  0.6427
  C  C130  1  0.023200  0.967200  0.658600  1.0  -0.0075
  C  C131  1  0.470500  0.208800  0.716300  1.0  -0.0373
  C  C132  1  0.409600  0.297400  0.710600  1.0  -0.1494
  C  C133  1  0.520100  0.189700  0.763800  1.0  -0.1294
  C  C134  1  0.064000  0.739700  0.435300  1.0  0.6428
  C  C135  1  0.249500  0.840600  0.459500  1.0  -0.1414
  C  C136  1  0.301900  0.910900  0.490300  1.0  0.1624
  C  C137  1  0.950200  0.051700  0.656900  1.0  -0.1541
  C  C138  1  0.970000  0.875200  0.661000  1.0  -0.1434
  C  C139  1  0.123300  0.954100  0.529100  1.0  0.1535
  C  C140  1  0.681000  0.250500  0.433200  1.0  0.1576
  C  C141  1  0.397800  0.362300  0.752900  1.0  0.1537
  C  C142  1  0.828500  0.041200  0.657200  1.0  0.1452
  C  C143  1  0.125100  0.823700  0.465500  1.0  -0.0412
  C  C144  1  0.585800  0.074000  0.540300  1.0  0.6659
  C  C145  1  0.653600  0.150200  0.508300  1.0  -0.0189
  C  C146  1  0.745800  0.203300  0.530100  1.0  -0.1504
  C  C147  1  0.061200  0.881800  0.500600  1.0  -0.1517
  C  C148  1  0.796300  0.284100  0.503000  1.0  0.1555
  C  C149  1  0.483200  0.134100  0.673000  1.0  0.6657
  C  C150  1  0.845000  0.868700  0.660200  1.0  0.1434
  C  C151  1  0.623700  0.173600  0.458400  1.0  -0.1711
  C  C152  1  0.505000  0.255300  0.803900  1.0  0.1427
  C  C153  1  0.341300  0.024000  0.153800  1.0  0.6432
  C  C154  1  0.476800  0.032800  0.158600  1.0  -0.0081
  C  C155  1  0.029500  0.791200  0.216300  1.0  -0.0395
  C  C156  1  0.090400  0.702600  0.210600  1.0  -0.1507
  C  C157  1  0.979900  0.810300  0.263800  1.0  -0.13
  C  C158  1  0.436000  0.260300  0.935300  1.0  0.6423
  C  C159  1  0.250500  0.159400  0.959500  1.0  -0.1406
  C  C160  1  0.198100  0.089100  0.990300  1.0  0.1629
  C  C161  1  0.549800  0.948300  0.156900  1.0  -0.156
  C  C162  1  0.530000  0.124800  0.161000  1.0  -0.144
  C  C163  1  0.376700  0.045900  0.029100  1.0  0.1539
  C  C164  1  0.819000  0.749500  0.933200  1.0  0.158
  C  C165  1  0.102200  0.637700  0.252900  1.0  0.1524
  C  C166  1  0.671500  0.958800  0.157200  1.0  0.1459
  C  C167  1  0.374900  0.176300  0.965500  1.0  -0.0412
  C  C168  1  0.914200  0.926000  0.040300  1.0  0.6655
  C  C169  1  0.846400  0.849800  0.008300  1.0  -0.018
  C  C170  1  0.754200  0.796700  0.030100  1.0  -0.1506
  C  C171  1  0.438800  0.118200  0.000600  1.0  -0.1506
  C  C172  1  0.703700  0.715900  0.003000  1.0  0.1554
  C  C173  1  0.016800  0.865900  0.173000  1.0  0.6651
  C  C174  1  0.655000  0.131300  0.160200  1.0  0.1441
  C  C175  1  0.876300  0.826400  0.958400  1.0  -0.171
  C  C176  1  0.995000  0.744700  0.303900  1.0  0.1428
  N  N177  1  0.223500  0.450600  0.843000  1.0  -0.3227
  N  N178  1  0.558100  0.841900  0.701100  1.0  -0.3499
  N  N179  1  0.758100  0.468700  0.975700  1.0  -0.3687
  N  N180  1  0.234300  0.807300  0.044600  1.0  -0.3289
  N  N181  1  0.276500  0.549400  0.343000  1.0  -0.3226
  N  N182  1  0.941900  0.158100  0.201100  1.0  -0.3497
  N  N183  1  0.741900  0.531300  0.475700  1.0  -0.3692
  N  N184  1  0.265700  0.192700  0.544600  1.0  -0.329
  N  N185  1  0.776500  0.950600  0.657000  1.0  -0.3232
  N  N186  1  0.441900  0.341900  0.798900  1.0  -0.3487
  N  N187  1  0.241900  0.968700  0.524300  1.0  -0.3688
  N  N188  1  0.765700  0.307300  0.455400  1.0  -0.3289
  N  N189  1  0.723500  0.049400  0.157000  1.0  -0.3233
  N  N190  1  0.058100  0.658100  0.298900  1.0  -0.3495
  N  N191  1  0.258100  0.031300  0.024300  1.0  -0.3672
  N  N192  1  0.734300  0.692700  0.955400  1.0  -0.329
  O  O193  1  0.521600  0.561800  0.972160  1.0  -0.5958
  O  O194  1  0.572400  0.653000  0.867680  1.0  -0.598
  O  O195  1  0.449600  0.559000  0.817930  1.0  -0.5958
  O  O196  1  0.359500  0.532300  0.923750  1.0  -0.5868
  O  O197  1  0.805100  0.553000  0.870600  1.0  -0.6074
  O  O198  1  0.869000  0.187000  0.092710  1.0  -0.6008
  O  O199  1  0.780300  0.405200  0.829400  1.0  -0.587
  O  O200  1  0.045900  0.230600  0.059000  1.0  -0.5934
  O  O201  1  0.592700  0.425800  0.886620  1.0  -0.8066
  O  O202  1  0.978400  0.438200  0.472160  1.0  -0.5962
  O  O203  1  0.927600  0.347000  0.367680  1.0  -0.5983
  O  O204  1  0.050400  0.441000  0.317930  1.0  -0.596
  O  O205  1  0.140500  0.467700  0.423750  1.0  -0.5863
  O  O206  1  0.694900  0.447000  0.370600  1.0  -0.6072
  O  O207  1  0.631000  0.813000  0.592710  1.0  -0.6007
  O  O208  1  0.719700  0.594800  0.329400  1.0  -0.5886
  O  O209  1  0.454100  0.769400  0.559000  1.0  -0.5942
  O  O210  1  0.907300  0.574200  0.386620  1.0  -0.8069
  O  O211  1  0.478400  0.061800  0.527840  1.0  -0.596
  O  O212  1  0.427600  0.153000  0.632320  1.0  -0.5987
  O  O213  1  0.550400  0.059000  0.682070  1.0  -0.5975
  O  O214  1  0.640500  0.032300  0.576250  1.0  -0.5881
  O  O215  1  0.194900  0.053000  0.629400  1.0  -0.6087
  O  O216  1  0.131000  0.687000  0.407290  1.0  -0.601
  O  O217  1  0.219700  0.905200  0.670600  1.0  -0.5889
  O  O218  1  0.954100  0.730600  0.441000  1.0  -0.5927
  O  O219  1  0.407300  0.925800  0.613380  1.0  -0.8076
  O  O220  1  0.021600  0.938200  0.027840  1.0  -0.5949
  O  O221  1  0.072400  0.847000  0.132320  1.0  -0.5991
  O  O222  1  0.949600  0.941000  0.182070  1.0  -0.5967
  O  O223  1  0.859500  0.967700  0.076250  1.0  -0.5884
  O  O224  1  0.305100  0.947000  0.129400  1.0  -0.6079
  O  O225  1  0.369000  0.313000  0.907290  1.0  -0.6011
  O  O226  1  0.280300  0.094800  0.170600  1.0  -0.5893
  O  O227  1  0.545900  0.269400  0.941000  1.0  -0.5934
  O  O228  1  0.092700  0.074200  0.113380  1.0  -0.8067
