# generated using pymatgen
data_Co2H18C24N4O9
_symmetry_space_group_name_H-M   'P 1'
_cell_length_a   11.37490000
_cell_length_b   13.35960000
_cell_length_c   25.96910000
_cell_angle_alpha   90.00000000
_cell_angle_beta   90.00000000
_cell_angle_gamma   90.00000000
_symmetry_Int_Tables_number   1
_chemical_formula_structural   Co2H18C24N4O9
_chemical_formula_sum   'Co8 H72 C96 N16 O36'
_cell_volume   3946.37127392
_cell_formula_units_Z   4
loop_
 _symmetry_equiv_pos_site_id
 _symmetry_equiv_pos_as_xyz
  1  'x, y, z'
loop_
 _atom_site_type_symbol
 _atom_site_label
 _atom_site_symmetry_multiplicity
 _atom_site_fract_x
 _atom_site_fract_y
 _atom_site_fract_z
 _atom_site_occupancy
 _atom_site_charge
  Co  Co1  1  0.838080  0.058900  0.078950  1.0  0.9853
  Co  Co2  1  0.094110  0.943700  0.138380  1.0  0.9666
  Co  Co3  1  0.661920  0.941100  0.578950  1.0  0.9841
  Co  Co4  1  0.405890  0.056300  0.638380  1.0  0.9676
  Co  Co5  1  0.161920  0.558900  0.421050  1.0  0.9851
  Co  Co6  1  0.905890  0.443700  0.361620  1.0  0.9681
  Co  Co7  1  0.338080  0.441100  0.921050  1.0  0.9851
  Co  Co8  1  0.594110  0.556300  0.861620  1.0  0.9676
  H  H9  1  0.864300  0.909300  0.144600  1.0  0.4139
  H  H10  1  0.907300  0.871200  0.089400  1.0  0.4107
  H  H11  1  0.308600  0.810600  0.164900  1.0  0.0834
  H  H12  1  0.286800  0.102400  0.155700  1.0  0.0874
  H  H13  1  0.364700  0.311800  0.017100  1.0  0.0726
  H  H14  1  0.273400  0.186100  0.062500  1.0  0.1102
  H  H15  1  0.041100  0.252400  0.334300  1.0  0.0826
  H  H16  1  0.047900  0.155600  0.947400  1.0  0.1234
  H  H17  1  0.585700  0.994800  0.045300  1.0  0.0796
  H  H18  1  0.843700  0.420100  0.246400  1.0  0.0778
  H  H19  1  0.510900  0.818000  0.166200  1.0  0.125
  H  H20  1  0.491300  0.873900  0.996000  1.0  0.1204
  H  H21  1  0.147600  0.280500  0.904000  1.0  0.0803
  H  H22  1  0.073500  0.140600  0.266700  1.0  0.1208
  H  H23  1  0.806200  0.787900  0.940900  1.0  0.1236
  H  H24  1  0.489100  0.116100  0.154800  1.0  0.1213
  H  H25  1  0.859700  0.309300  0.179100  1.0  0.1292
  H  H26  1  0.892200  0.910500  0.989600  1.0  0.0814
  H  H27  1  0.635700  0.090700  0.644600  1.0  0.4145
  H  H28  1  0.592700  0.128800  0.589400  1.0  0.41
  H  H29  1  0.191400  0.189400  0.664900  1.0  0.0836
  H  H30  1  0.213200  0.897600  0.655700  1.0  0.0867
  H  H31  1  0.135300  0.688200  0.517100  1.0  0.0732
  H  H32  1  0.226600  0.813900  0.562500  1.0  0.1101
  H  H33  1  0.458900  0.747600  0.834300  1.0  0.0826
  H  H34  1  0.452100  0.844400  0.447400  1.0  0.1242
  H  H35  1  0.914300  0.005200  0.545300  1.0  0.0803
  H  H36  1  0.656300  0.579900  0.746400  1.0  0.078
  H  H37  1  0.989100  0.182000  0.666200  1.0  0.1255
  H  H38  1  0.008700  0.126100  0.496000  1.0  0.1202
  H  H39  1  0.352400  0.719500  0.404000  1.0  0.0798
  H  H40  1  0.426500  0.859400  0.766700  1.0  0.1205
  H  H41  1  0.693800  0.212100  0.440900  1.0  0.1238
  H  H42  1  0.010900  0.883900  0.654800  1.0  0.1211
  H  H43  1  0.640300  0.690700  0.679100  1.0  0.1292
  H  H44  1  0.607800  0.089500  0.489600  1.0  0.0809
  H  H45  1  0.135700  0.409300  0.355400  1.0  0.4142
  H  H46  1  0.092700  0.371200  0.410600  1.0  0.4104
  H  H47  1  0.691400  0.310600  0.335100  1.0  0.0834
  H  H48  1  0.713200  0.602400  0.344300  1.0  0.0871
  H  H49  1  0.635300  0.811800  0.482900  1.0  0.0728
  H  H50  1  0.726600  0.686100  0.437500  1.0  0.1099
  H  H51  1  0.958900  0.752400  0.165700  1.0  0.0834
  H  H52  1  0.952100  0.655600  0.552600  1.0  0.1246
  H  H53  1  0.414300  0.494800  0.454700  1.0  0.0798
  H  H54  1  0.156300  0.920100  0.253600  1.0  0.078
  H  H55  1  0.489100  0.318000  0.333800  1.0  0.1248
  H  H56  1  0.508700  0.373900  0.504000  1.0  0.1206
  H  H57  1  0.852400  0.780500  0.596000  1.0  0.08
  H  H58  1  0.926500  0.640600  0.233300  1.0  0.1206
  H  H59  1  0.193800  0.287900  0.559100  1.0  0.1239
  H  H60  1  0.510900  0.616100  0.345200  1.0  0.1218
  H  H61  1  0.140300  0.809300  0.320900  1.0  0.1289
  H  H62  1  0.107800  0.410500  0.510400  1.0  0.0807
  H  H63  1  0.364300  0.590700  0.855400  1.0  0.4137
  H  H64  1  0.407300  0.628800  0.910600  1.0  0.4107
  H  H65  1  0.808600  0.689400  0.835100  1.0  0.0838
  H  H66  1  0.786800  0.397600  0.844300  1.0  0.0875
  H  H67  1  0.864700  0.188200  0.982900  1.0  0.0726
  H  H68  1  0.773400  0.313900  0.937500  1.0  0.1101
  H  H69  1  0.541100  0.247600  0.665700  1.0  0.0836
  H  H70  1  0.547900  0.344400  0.052600  1.0  0.1235
  H  H71  1  0.085700  0.505200  0.954700  1.0  0.0795
  H  H72  1  0.343700  0.079900  0.753600  1.0  0.0782
  H  H73  1  0.010900  0.682000  0.833800  1.0  0.1253
  H  H74  1  0.991300  0.626100  0.004000  1.0  0.1208
  H  H75  1  0.647600  0.219500  0.096000  1.0  0.0801
  H  H76  1  0.573500  0.359400  0.733300  1.0  0.1211
  H  H77  1  0.306200  0.712100  0.059100  1.0  0.1236
  H  H78  1  0.989100  0.383900  0.845200  1.0  0.1212
  H  H79  1  0.359700  0.190700  0.820900  1.0  0.1289
  H  H80  1  0.392200  0.589500  0.010400  1.0  0.0806
  C  C81  1  0.345700  0.874200  0.162500  1.0  0.151
  C  C82  1  0.332900  0.043200  0.156900  1.0  0.1501
  C  C83  1  0.297300  0.280800  0.002400  1.0  0.1651
  C  C84  1  0.243300  0.205300  0.029800  1.0  -0.1502
  C  C85  1  0.004900  0.264700  0.301900  1.0  0.1457
  C  C86  1  0.113400  0.187500  0.963100  1.0  -0.1725
  C  C87  1  0.577900  0.733200  0.933800  1.0  0.6591
  C  C88  1  0.631000  0.951700  0.024000  1.0  0.1402
  C  C89  1  0.889100  0.361100  0.251200  1.0  0.1573
  C  C90  1  0.466700  0.877900  0.162800  1.0  -0.1643
  C  C91  1  0.574500  0.879300  0.994800  1.0  -0.1426
  C  C92  1  0.980500  0.135300  0.172920  1.0  0.6695
  C  C93  1  0.149600  0.159100  0.010800  1.0  -0.0149
  C  C94  1  0.172700  0.263200  0.937700  1.0  0.1579
  C  C95  1  0.023100  0.196600  0.262000  1.0  -0.143
  C  C96  1  0.084700  0.080900  0.041900  1.0  0.6732
  C  C97  1  0.967300  0.211700  0.216000  1.0  -0.0389
  C  C98  1  0.758800  0.829000  0.962300  1.0  -0.1447
  C  C99  1  0.453700  0.051800  0.156400  1.0  -0.172
  C  C100  1  0.899200  0.296100  0.210600  1.0  -0.1548
  C  C101  1  0.809400  0.902100  0.991600  1.0  0.1661
  C  C102  1  0.638800  0.815000  0.964000  1.0  -0.0268
  C  C103  1  0.523000  0.967400  0.158100  1.0  -0.0066
  C  C104  1  0.655700  0.971900  0.150200  1.0  0.6492
  C  C105  1  0.154300  0.125800  0.662500  1.0  0.1507
  C  C106  1  0.167100  0.956800  0.656900  1.0  0.1505
  C  C107  1  0.202700  0.719200  0.502400  1.0  0.1649
  C  C108  1  0.256700  0.794700  0.529800  1.0  -0.1505
  C  C109  1  0.495100  0.735300  0.801900  1.0  0.1463
  C  C110  1  0.386600  0.812500  0.463100  1.0  -0.1717
  C  C111  1  0.922100  0.266800  0.433800  1.0  0.6585
  C  C112  1  0.869000  0.048300  0.524000  1.0  0.1403
  C  C113  1  0.610900  0.638900  0.751200  1.0  0.1566
  C  C114  1  0.033300  0.122100  0.662800  1.0  -0.1652
  C  C115  1  0.925500  0.120700  0.494800  1.0  -0.1446
  C  C116  1  0.519500  0.864700  0.672920  1.0  0.6692
  C  C117  1  0.350400  0.840900  0.510800  1.0  -0.0173
  C  C118  1  0.327300  0.736800  0.437700  1.0  0.1587
  C  C119  1  0.476900  0.803400  0.762000  1.0  -0.1443
  C  C120  1  0.415300  0.919100  0.541900  1.0  0.6712
  C  C121  1  0.532700  0.788300  0.716000  1.0  -0.0371
  C  C122  1  0.741200  0.171000  0.462300  1.0  -0.144
  C  C123  1  0.046300  0.948200  0.656400  1.0  -0.1716
  C  C124  1  0.600800  0.703900  0.710600  1.0  -0.1557
  C  C125  1  0.690600  0.097900  0.491600  1.0  0.1665
  C  C126  1  0.861200  0.185000  0.464000  1.0  -0.0282
  C  C127  1  0.977000  0.032600  0.658100  1.0  -0.0087
  C  C128  1  0.844300  0.028100  0.650200  1.0  0.6491
  C  C129  1  0.654300  0.374200  0.337500  1.0  0.1511
  C  C130  1  0.667100  0.543200  0.343100  1.0  0.1509
  C  C131  1  0.702700  0.780800  0.497600  1.0  0.1652
  C  C132  1  0.756700  0.705300  0.470200  1.0  -0.1507
  C  C133  1  0.995100  0.764700  0.198100  1.0  0.1464
  C  C134  1  0.886600  0.687500  0.536900  1.0  -0.1722
  C  C135  1  0.422100  0.233200  0.566200  1.0  0.6589
  C  C136  1  0.369000  0.451700  0.476000  1.0  0.14
  C  C137  1  0.110900  0.861100  0.248800  1.0  0.1573
  C  C138  1  0.533300  0.377900  0.337200  1.0  -0.1635
  C  C139  1  0.425500  0.379300  0.505200  1.0  -0.144
  C  C140  1  0.019500  0.635300  0.327080  1.0  0.6703
  C  C141  1  0.850400  0.659100  0.489200  1.0  -0.0191
  C  C142  1  0.827300  0.763200  0.562300  1.0  0.1586
  C  C143  1  0.976900  0.696600  0.238000  1.0  -0.144
  C  C144  1  0.915300  0.580900  0.458100  1.0  0.672
  C  C145  1  0.032700  0.711700  0.284000  1.0  -0.038
  C  C146  1  0.241200  0.329000  0.537700  1.0  -0.1442
  C  C147  1  0.546300  0.551800  0.343600  1.0  -0.1711
  C  C148  1  0.100800  0.796100  0.289400  1.0  -0.1565
  C  C149  1  0.190600  0.402100  0.508400  1.0  0.1655
  C  C150  1  0.361200  0.315000  0.536000  1.0  -0.0266
  C  C151  1  0.477000  0.467400  0.341900  1.0  -0.0107
  C  C152  1  0.344300  0.471900  0.349800  1.0  0.648
  C  C153  1  0.845700  0.625800  0.837500  1.0  0.1502
  C  C154  1  0.832900  0.456800  0.843100  1.0  0.1502
  C  C155  1  0.797300  0.219200  0.997600  1.0  0.165
  C  C156  1  0.743300  0.294700  0.970200  1.0  -0.1504
  C  C157  1  0.504900  0.235300  0.698100  1.0  0.1463
  C  C158  1  0.613400  0.312500  0.036900  1.0  -0.1729
  C  C159  1  0.077900  0.766800  0.066200  1.0  0.6591
  C  C160  1  0.131000  0.548300  0.976000  1.0  0.1398
  C  C161  1  0.389100  0.138900  0.748800  1.0  0.1587
  C  C162  1  0.966700  0.622100  0.837200  1.0  -0.1634
  C  C163  1  0.074500  0.620700  0.005200  1.0  -0.1419
  C  C164  1  0.480500  0.364700  0.827080  1.0  0.6706
  C  C165  1  0.649600  0.340900  0.989200  1.0  -0.0148
  C  C166  1  0.672700  0.236800  0.062300  1.0  0.1578
  C  C167  1  0.523100  0.303400  0.738000  1.0  -0.1436
  C  C168  1  0.584700  0.419100  0.958100  1.0  0.6723
  C  C169  1  0.467300  0.288300  0.784000  1.0  -0.0369
  C  C170  1  0.258800  0.671000  0.037700  1.0  -0.1445
  C  C171  1  0.953700  0.448200  0.843600  1.0  -0.1717
  C  C172  1  0.399200  0.203900  0.789400  1.0  -0.1551
  C  C173  1  0.309400  0.597900  0.008400  1.0  0.1655
  C  C174  1  0.138800  0.685000  0.036000  1.0  -0.0268
  C  C175  1  0.023000  0.532600  0.841900  1.0  -0.0078
  C  C176  1  0.155700  0.528100  0.849800  1.0  0.6474
  N  N177  1  0.278400  0.955000  0.159000  1.0  -0.3306
  N  N178  1  0.749100  0.962400  0.022710  1.0  -0.3668
  N  N179  1  0.938400  0.347000  0.296460  1.0  -0.3466
  N  N180  1  0.261000  0.312200  0.957320  1.0  -0.3219
  N  N181  1  0.221600  0.045000  0.659000  1.0  -0.3295
  N  N182  1  0.750900  0.037600  0.522710  1.0  -0.3654
  N  N183  1  0.561600  0.653000  0.796460  1.0  -0.3466
  N  N184  1  0.239000  0.687800  0.457320  1.0  -0.3219
  N  N185  1  0.721600  0.455000  0.341000  1.0  -0.3297
  N  N186  1  0.250900  0.462400  0.477290  1.0  -0.3668
  N  N187  1  0.061600  0.847000  0.203540  1.0  -0.3473
  N  N188  1  0.739000  0.812200  0.542680  1.0  -0.3226
  N  N189  1  0.778400  0.545000  0.841000  1.0  -0.3309
  N  N190  1  0.249100  0.537600  0.977290  1.0  -0.3677
  N  N191  1  0.438400  0.153000  0.703540  1.0  -0.3469
  N  N192  1  0.761000  0.187800  0.042680  1.0  -0.3218
  O  O193  1  0.912400  0.927300  0.114160  1.0  -0.8101
  O  O194  1  0.715100  0.899000  0.164420  1.0  -0.5986
  O  O195  1  0.470000  0.724500  0.940080  1.0  -0.5916
  O  O196  1  0.640800  0.679800  0.905140  1.0  -0.6005
  O  O197  1  0.693300  0.049000  0.127420  1.0  -0.6086
  O  O198  1  0.050100  0.064900  0.182250  1.0  -0.5965
  O  O199  1  0.920300  0.149700  0.133520  1.0  -0.5972
  O  O200  1  0.138500  0.040400  0.077630  1.0  -0.5753
  O  O201  1  0.978400  0.066300  0.028960  1.0  -0.6034
  O  O202  1  0.587600  0.072700  0.614160  1.0  -0.8089
  O  O203  1  0.784900  0.101000  0.664420  1.0  -0.5972
  O  O204  1  0.030000  0.275500  0.440080  1.0  -0.5917
  O  O205  1  0.859200  0.320200  0.405140  1.0  -0.6001
  O  O206  1  0.806700  0.951000  0.627420  1.0  -0.6082
  O  O207  1  0.449900  0.935100  0.682250  1.0  -0.5959
  O  O208  1  0.579700  0.850300  0.633520  1.0  -0.5977
  O  O209  1  0.361500  0.959600  0.577630  1.0  -0.5764
  O  O210  1  0.521600  0.933700  0.528960  1.0  -0.6032
  O  O211  1  0.087600  0.427300  0.385840  1.0  -0.8087
  O  O212  1  0.284900  0.399000  0.335580  1.0  -0.5964
  O  O213  1  0.530000  0.224500  0.559920  1.0  -0.5921
  O  O214  1  0.359200  0.179800  0.594860  1.0  -0.6008
  O  O215  1  0.306700  0.549000  0.372580  1.0  -0.6077
  O  O216  1  0.949900  0.564900  0.317750  1.0  -0.5954
  O  O217  1  0.079700  0.649700  0.366480  1.0  -0.5971
  O  O218  1  0.861500  0.540400  0.422370  1.0  -0.5755
  O  O219  1  0.021600  0.566300  0.471040  1.0  -0.6041
  O  O220  1  0.412400  0.572700  0.885840  1.0  -0.809
  O  O221  1  0.215100  0.601000  0.835580  1.0  -0.5973
  O  O222  1  0.970000  0.775500  0.059920  1.0  -0.5926
  O  O223  1  0.140800  0.820200  0.094860  1.0  -0.6011
  O  O224  1  0.193300  0.451000  0.872580  1.0  -0.6074
  O  O225  1  0.550100  0.435100  0.817750  1.0  -0.5959
  O  O226  1  0.420300  0.350300  0.866480  1.0  -0.5978
  O  O227  1  0.638500  0.459600  0.922370  1.0  -0.5747
  O  O228  1  0.478400  0.433700  0.971040  1.0  -0.6032
