# generated using pymatgen
data_Co2H18C24N4O9
_symmetry_space_group_name_H-M   'P 1'
_cell_length_a   11.43980000
_cell_length_b   13.29550000
_cell_length_c   26.24830000
_cell_angle_alpha   90.00000000
_cell_angle_beta   90.00000000
_cell_angle_gamma   90.00000000
_symmetry_Int_Tables_number   1
_chemical_formula_structural   Co2H18C24N4O9
_chemical_formula_sum   'Co8 H72 C96 N16 O36'
_cell_volume   3992.31028226
_cell_formula_units_Z   4
loop_
 _symmetry_equiv_pos_site_id
 _symmetry_equiv_pos_as_xyz
  1  'x, y, z'
loop_
 _atom_site_type_symbol
 _atom_site_label
 _atom_site_symmetry_multiplicity
 _atom_site_fract_x
 _atom_site_fract_y
 _atom_site_fract_z
 _atom_site_occupancy
 _atom_site_charge
  Co  Co1  1  0.574160  0.442240  0.137050  1.0  0.9596
  Co  Co2  1  0.317970  0.562460  0.080000  1.0  0.9814
  Co  Co3  1  0.925840  0.557760  0.637050  1.0  0.9605
  Co  Co4  1  0.182030  0.437540  0.580000  1.0  0.9824
  Co  Co5  1  0.425840  0.942240  0.362950  1.0  0.9604
  Co  Co6  1  0.682030  0.062460  0.420000  1.0  0.9821
  Co  Co7  1  0.074160  0.057760  0.862950  1.0  0.959
  Co  Co8  1  0.817970  0.937540  0.920000  1.0  0.9824
  H  H9  1  0.344200  0.408900  0.144100  1.0  0.4037
  H  H10  1  0.383700  0.371500  0.090100  1.0  0.3886
  H  H11  1  0.765200  0.605000  0.149800  1.0  0.082
  H  H12  1  0.965500  0.620900  0.146300  1.0  0.128
  H  H13  1  0.990100  0.324700  0.168500  1.0  0.1279
  H  H14  1  0.788600  0.315900  0.166000  1.0  0.0855
  H  H15  1  0.868200  0.083600  0.010400  1.0  0.0821
  H  H16  1  0.782500  0.206100  0.059300  1.0  0.1171
  H  H17  1  0.475000  0.131400  0.998600  1.0  0.1244
  H  H18  1  0.567500  0.006800  0.953800  1.0  0.0643
  H  H19  1  0.365200  0.818000  0.182700  1.0  0.127
  H  H20  1  0.366800  0.927500  0.249800  1.0  0.0798
  H  H21  1  0.531000  0.734900  0.334600  1.0  0.0755
  H  H22  1  0.542300  0.621800  0.269500  1.0  0.1246
  H  H23  1  0.756600  0.682600  0.060300  1.0  0.1154
  H  H24  1  0.841400  0.811800  0.016500  1.0  0.0732
  H  H25  1  0.626100  0.775300  0.903700  1.0  0.0819
  H  H26  1  0.526200  0.654900  0.947400  1.0  0.1228
  H  H27  1  0.155800  0.591100  0.644100  1.0  0.4033
  H  H28  1  0.116300  0.628500  0.590100  1.0  0.3871
  H  H29  1  0.734800  0.395000  0.649800  1.0  0.0811
  H  H30  1  0.534500  0.379100  0.646300  1.0  0.1278
  H  H31  1  0.509900  0.675300  0.668500  1.0  0.1279
  H  H32  1  0.711400  0.684100  0.666000  1.0  0.0863
  H  H33  1  0.631800  0.916400  0.510400  1.0  0.0826
  H  H34  1  0.717500  0.793900  0.559300  1.0  0.1175
  H  H35  1  0.025000  0.868600  0.498600  1.0  0.1245
  H  H36  1  0.932500  0.993200  0.453800  1.0  0.0645
  H  H37  1  0.134800  0.182000  0.682700  1.0  0.1269
  H  H38  1  0.133200  0.072500  0.749800  1.0  0.0797
  H  H39  1  0.969000  0.265100  0.834600  1.0  0.0759
  H  H40  1  0.957700  0.378200  0.769500  1.0  0.1248
  H  H41  1  0.743400  0.317400  0.560300  1.0  0.1155
  H  H42  1  0.658600  0.188200  0.516500  1.0  0.0732
  H  H43  1  0.873900  0.224700  0.403700  1.0  0.0813
  H  H44  1  0.973800  0.345100  0.447400  1.0  0.1228
  H  H45  1  0.655800  0.908900  0.355900  1.0  0.3954
  H  H46  1  0.616300  0.871500  0.409900  1.0  0.3843
  H  H47  1  0.234800  0.105000  0.350200  1.0  0.0821
  H  H48  1  0.034500  0.120900  0.353700  1.0  0.1283
  H  H49  1  0.009900  0.824700  0.331500  1.0  0.1274
  H  H50  1  0.211400  0.815900  0.334000  1.0  0.0856
  H  H51  1  0.131800  0.583600  0.489600  1.0  0.0827
  H  H52  1  0.217500  0.706100  0.440700  1.0  0.1172
  H  H53  1  0.525000  0.631400  0.501400  1.0  0.1241
  H  H54  1  0.432500  0.506800  0.546200  1.0  0.0647
  H  H55  1  0.634800  0.318000  0.317300  1.0  0.1269
  H  H56  1  0.633200  0.427500  0.250200  1.0  0.0799
  H  H57  1  0.469000  0.234900  0.165400  1.0  0.0761
  H  H58  1  0.457700  0.121800  0.230500  1.0  0.1247
  H  H59  1  0.243400  0.182600  0.439700  1.0  0.1153
  H  H60  1  0.158600  0.311800  0.483500  1.0  0.0728
  H  H61  1  0.373900  0.275300  0.596300  1.0  0.0814
  H  H62  1  0.473800  0.154900  0.552600  1.0  0.1227
  H  H63  1  0.844200  0.091100  0.855900  1.0  0.3921
  H  H64  1  0.883700  0.128500  0.909900  1.0  0.3835
  H  H65  1  0.265200  0.895000  0.850200  1.0  0.0814
  H  H66  1  0.465500  0.879100  0.853700  1.0  0.1282
  H  H67  1  0.490100  0.175300  0.831500  1.0  0.1275
  H  H68  1  0.288600  0.184100  0.834000  1.0  0.0866
  H  H69  1  0.368200  0.416400  0.989600  1.0  0.0828
  H  H70  1  0.282500  0.293900  0.940700  1.0  0.1169
  H  H71  1  0.975000  0.368600  0.001400  1.0  0.1246
  H  H72  1  0.067500  0.493200  0.046200  1.0  0.0645
  H  H73  1  0.865200  0.682000  0.817300  1.0  0.1269
  H  H74  1  0.866800  0.572500  0.750200  1.0  0.0799
  H  H75  1  0.031000  0.765100  0.665400  1.0  0.0758
  H  H76  1  0.042300  0.878200  0.730500  1.0  0.1246
  H  H77  1  0.256600  0.817400  0.939700  1.0  0.1154
  H  H78  1  0.341400  0.688200  0.983500  1.0  0.0729
  H  H79  1  0.126100  0.724700  0.096300  1.0  0.0819
  H  H80  1  0.026200  0.845100  0.052600  1.0  0.1225
  C  C81  1  0.811100  0.547300  0.151840  1.0  0.162
  C  C82  1  0.931600  0.557800  0.150350  1.0  -0.1738
  C  C83  1  0.000200  0.473400  0.154910  1.0  -0.0263
  C  C84  1  0.946200  0.382400  0.162810  1.0  -0.151
  C  C85  1  0.824600  0.378100  0.162090  1.0  0.1534
  C  C86  1  0.133400  0.477300  0.148780  1.0  0.6461
  C  C87  1  0.787900  0.093300  0.007860  1.0  0.164
  C  C88  1  0.736800  0.167400  0.037470  1.0  -0.1322
  C  C89  1  0.618000  0.183700  0.034430  1.0  -0.0348
  C  C90  1  0.555300  0.122800  0.001950  1.0  -0.143
  C  C91  1  0.611900  0.049000  0.974430  1.0  0.1688
  C  C92  1  0.557200  0.264700  0.064740  1.0  0.6602
  C  C93  1  0.460700  0.632900  0.174200  1.0  0.6772
  C  C94  1  0.454400  0.706900  0.217800  1.0  -0.0337
  C  C95  1  0.400900  0.799700  0.213120  1.0  -0.1463
  C  C96  1  0.401100  0.864600  0.253920  1.0  0.162
  C  C97  1  0.498200  0.752200  0.303390  1.0  0.1665
  C  C98  1  0.504800  0.683200  0.264620  1.0  -0.1528
  C  C99  1  0.562000  0.580600  0.041970  1.0  0.6688
  C  C100  1  0.627700  0.656300  0.009870  1.0  -0.0151
  C  C101  1  0.725800  0.702700  0.029100  1.0  -0.1517
  C  C102  1  0.777900  0.778800  0.001980  1.0  0.1684
  C  C103  1  0.650800  0.758800  0.936400  1.0  0.168
  C  C104  1  0.591200  0.685200  0.962160  1.0  -0.1751
  C  C105  1  0.688900  0.452700  0.651840  1.0  0.1614
  C  C106  1  0.568400  0.442200  0.650350  1.0  -0.1723
  C  C107  1  0.499800  0.526600  0.654910  1.0  -0.0291
  C  C108  1  0.553800  0.617600  0.662810  1.0  -0.1516
  C  C109  1  0.675400  0.621900  0.662090  1.0  0.1536
  C  C110  1  0.366600  0.522700  0.648780  1.0  0.6454
  C  C111  1  0.712100  0.906700  0.507860  1.0  0.1643
  C  C112  1  0.763200  0.832600  0.537470  1.0  -0.1316
  C  C113  1  0.882000  0.816300  0.534430  1.0  -0.0354
  C  C114  1  0.944700  0.877200  0.501950  1.0  -0.1372
  C  C115  1  0.888100  0.951000  0.474430  1.0  0.1683
  C  C116  1  0.942800  0.735300  0.564740  1.0  0.6602
  C  C117  1  0.039300  0.367100  0.674200  1.0  0.6766
  C  C118  1  0.045600  0.293100  0.717800  1.0  -0.0324
  C  C119  1  0.099100  0.200300  0.713120  1.0  -0.1474
  C  C120  1  0.098900  0.135400  0.753920  1.0  0.1618
  C  C121  1  0.001800  0.247800  0.803390  1.0  0.1659
  C  C122  1  0.995200  0.316800  0.764620  1.0  -0.1527
  C  C123  1  0.938000  0.419400  0.541970  1.0  0.6667
  C  C124  1  0.872300  0.343700  0.509870  1.0  -0.0155
  C  C125  1  0.774200  0.297300  0.529100  1.0  -0.1513
  C  C126  1  0.722100  0.221200  0.501980  1.0  0.1675
  C  C127  1  0.849200  0.241200  0.436400  1.0  0.1676
  C  C128  1  0.908800  0.314800  0.462160  1.0  -0.1756
  C  C129  1  0.188900  0.047300  0.348160  1.0  0.1628
  C  C130  1  0.068400  0.057800  0.349650  1.0  -0.1726
  C  C131  1  0.999800  0.973400  0.345090  1.0  -0.0343
  C  C132  1  0.053800  0.882400  0.337190  1.0  -0.1482
  C  C133  1  0.175400  0.878100  0.337910  1.0  0.153
  C  C134  1  0.866600  0.977300  0.351220  1.0  0.6452
  C  C135  1  0.212100  0.593300  0.492140  1.0  0.164
  C  C136  1  0.263200  0.667400  0.462530  1.0  -0.1313
  C  C137  1  0.382000  0.683700  0.465570  1.0  -0.0352
  C  C138  1  0.444700  0.622800  0.498050  1.0  -0.1374
  C  C139  1  0.388100  0.549000  0.525570  1.0  0.1691
  C  C140  1  0.442800  0.764700  0.435260  1.0  0.6593
  C  C141  1  0.539300  0.132900  0.325800  1.0  0.6784
  C  C142  1  0.545600  0.206900  0.282200  1.0  -0.0337
  C  C143  1  0.599100  0.299700  0.286880  1.0  -0.1472
  C  C144  1  0.598900  0.364600  0.246080  1.0  0.1616
  C  C145  1  0.501800  0.252200  0.196610  1.0  0.1654
  C  C146  1  0.495200  0.183200  0.235380  1.0  -0.1517
  C  C147  1  0.438000  0.080600  0.458030  1.0  0.6671
  C  C148  1  0.372300  0.156300  0.490130  1.0  -0.0154
  C  C149  1  0.274200  0.202700  0.470900  1.0  -0.1511
  C  C150  1  0.222100  0.278800  0.498020  1.0  0.1685
  C  C151  1  0.349200  0.258800  0.563600  1.0  0.1682
  C  C152  1  0.408800  0.185200  0.537840  1.0  -0.1766
  C  C153  1  0.311100  0.952700  0.848160  1.0  0.1614
  C  C154  1  0.431600  0.942200  0.849650  1.0  -0.1728
  C  C155  1  0.500200  0.026600  0.845090  1.0  -0.0309
  C  C156  1  0.446200  0.117600  0.837190  1.0  -0.151
  C  C157  1  0.324600  0.121900  0.837910  1.0  0.1531
  C  C158  1  0.633400  0.022700  0.851220  1.0  0.6453
  C  C159  1  0.287900  0.406700  0.992140  1.0  0.1637
  C  C160  1  0.236800  0.332600  0.962530  1.0  -0.1319
  C  C161  1  0.118000  0.316300  0.965570  1.0  -0.0336
  C  C162  1  0.055300  0.377200  0.998050  1.0  -0.1427
  C  C163  1  0.111900  0.451000  0.025570  1.0  0.1701
  C  C164  1  0.057200  0.235300  0.935260  1.0  0.6598
  C  C165  1  0.960700  0.867100  0.825800  1.0  0.6777
  C  C166  1  0.954400  0.793100  0.782200  1.0  -0.0345
  C  C167  1  0.900900  0.700300  0.786880  1.0  -0.147
  C  C168  1  0.901100  0.635400  0.746080  1.0  0.1628
  C  C169  1  0.998200  0.747800  0.696610  1.0  0.1659
  C  C170  1  0.004800  0.816800  0.735380  1.0  -0.1526
  C  C171  1  0.062000  0.919400  0.958030  1.0  0.6679
  C  C172  1  0.127700  0.843700  0.990130  1.0  -0.0144
  C  C173  1  0.225800  0.797300  0.970900  1.0  -0.1511
  C  C174  1  0.277900  0.721200  0.998020  1.0  0.1681
  C  C175  1  0.150800  0.741200  0.063600  1.0  0.1677
  C  C176  1  0.091200  0.814800  0.037840  1.0  -0.176
  N  N177  1  0.757900  0.458800  0.156090  1.0  -0.332
  N  N178  1  0.727600  0.035400  0.975990  1.0  -0.3586
  N  N179  1  0.741900  0.808000  0.955570  1.0  -0.3319
  N  N180  1  0.448000  0.842210  0.299450  1.0  -0.3527
  N  N181  1  0.742100  0.541200  0.656090  1.0  -0.3311
  N  N182  1  0.772400  0.964600  0.475990  1.0  -0.3582
  N  N183  1  0.758100  0.192000  0.455570  1.0  -0.3327
  N  N184  1  0.052000  0.157790  0.799450  1.0  -0.3527
  N  N185  1  0.242100  0.958800  0.343910  1.0  -0.3308
  N  N186  1  0.272400  0.535400  0.524010  1.0  -0.3574
  N  N187  1  0.258100  0.308000  0.544430  1.0  -0.3327
  N  N188  1  0.552000  0.342210  0.200550  1.0  -0.3529
  N  N189  1  0.257900  0.041200  0.843910  1.0  -0.3325
  N  N190  1  0.227600  0.464600  0.024010  1.0  -0.3575
  N  N191  1  0.241900  0.692000  0.044430  1.0  -0.3319
  N  N192  1  0.948000  0.657790  0.700550  1.0  -0.3524
  O  O193  1  0.390270  0.426340  0.114310  1.0  -0.8159
  O  O194  1  0.527830  0.560020  0.181410  1.0  -0.6036
  O  O195  1  0.398720  0.651150  0.135970  1.0  -0.6024
  O  O196  1  0.615730  0.539640  0.077000  1.0  -0.5689
  O  O197  1  0.455880  0.568010  0.030070  1.0  -0.6004
  O  O198  1  0.171760  0.553410  0.126420  1.0  -0.6036
  O  O199  1  0.190900  0.404200  0.163720  1.0  -0.602
  O  O200  1  0.450000  0.271800  0.059670  1.0  -0.5989
  O  O201  1  0.620600  0.318580  0.092610  1.0  -0.5999
  O  O202  1  0.109730  0.573660  0.614310  1.0  -0.8148
  O  O203  1  0.972170  0.439980  0.681410  1.0  -0.602
  O  O204  1  0.101280  0.348850  0.635970  1.0  -0.6026
  O  O205  1  0.884270  0.460360  0.577000  1.0  -0.5696
  O  O206  1  0.044120  0.431990  0.530070  1.0  -0.5996
  O  O207  1  0.328240  0.446590  0.626420  1.0  -0.603
  O  O208  1  0.309100  0.595800  0.663720  1.0  -0.6007
  O  O209  1  0.050000  0.728200  0.559670  1.0  -0.6012
  O  O210  1  0.879400  0.681420  0.592610  1.0  -0.6001
  O  O211  1  0.609730  0.926340  0.385690  1.0  -0.8152
  O  O212  1  0.472170  0.060020  0.318590  1.0  -0.601
  O  O213  1  0.601280  0.151150  0.364030  1.0  -0.6021
  O  O214  1  0.384270  0.039640  0.423000  1.0  -0.5685
  O  O215  1  0.544120  0.068010  0.469930  1.0  -0.6001
  O  O216  1  0.828240  0.053410  0.373580  1.0  -0.6018
  O  O217  1  0.809100  0.904200  0.336280  1.0  -0.5993
  O  O218  1  0.550000  0.771800  0.440330  1.0  -0.5996
  O  O219  1  0.379400  0.818580  0.407390  1.0  -0.5997
  O  O220  1  0.890270  0.073660  0.885690  1.0  -0.8149
  O  O221  1  0.027830  0.939980  0.818590  1.0  -0.6018
  O  O222  1  0.898720  0.848850  0.864030  1.0  -0.6026
  O  O223  1  0.115730  0.960360  0.923000  1.0  -0.568
  O  O224  1  0.955880  0.931990  0.969930  1.0  -0.5999
  O  O225  1  0.671760  0.946590  0.873580  1.0  -0.6033
  O  O226  1  0.690900  0.095800  0.836280  1.0  -0.6002
  O  O227  1  0.950000  0.228200  0.940330  1.0  -0.5992
  O  O228  1  0.120600  0.181420  0.907390  1.0  -0.6001
