# generated using pymatgen
data_Co2H18C24N4O9
_symmetry_space_group_name_H-M   'P 1'
_cell_length_a   11.46590000
_cell_length_b   13.27320000
_cell_length_c   26.12010000
_cell_angle_alpha   90.00000000
_cell_angle_beta   90.00000000
_cell_angle_gamma   90.00000000
_symmetry_Int_Tables_number   1
_chemical_formula_structural   Co2H18C24N4O9
_chemical_formula_sum   'Co8 H72 C96 N16 O36'
_cell_volume   3975.19670186
_cell_formula_units_Z   4
loop_
 _symmetry_equiv_pos_site_id
 _symmetry_equiv_pos_as_xyz
  1  'x, y, z'
loop_
 _atom_site_type_symbol
 _atom_site_label
 _atom_site_symmetry_multiplicity
 _atom_site_fract_x
 _atom_site_fract_y
 _atom_site_fract_z
 _atom_site_occupancy
 _atom_site_charge
  Co  Co1  1  0.848790  0.055710  0.921670  1.0  0.9432
  Co  Co2  1  0.105160  0.950320  0.859910  1.0  0.9706
  Co  Co3  1  0.651210  0.944290  0.421670  1.0  0.942
  Co  Co4  1  0.394840  0.049680  0.359910  1.0  0.9698
  Co  Co5  1  0.151210  0.555710  0.578330  1.0  0.9422
  Co  Co6  1  0.894840  0.450320  0.640090  1.0  0.9706
  Co  Co7  1  0.348790  0.444290  0.078330  1.0  0.9428
  Co  Co8  1  0.605160  0.549680  0.140090  1.0  0.9694
  H  H9  1  0.921100  0.870000  0.908600  1.0  0.3148
  H  H10  1  0.875800  0.910600  0.854500  1.0  0.314
  H  H11  1  0.605800  0.985000  0.955400  1.0  0.0834
  H  H12  1  0.238300  0.230800  0.926200  1.0  0.1148
  H  H13  1  0.025800  0.253800  0.664500  1.0  0.0826
  H  H14  1  0.837400  0.425300  0.755100  1.0  0.0787
  H  H15  1  0.327600  0.358400  0.971400  1.0  0.1006
  H  H16  1  0.313600  0.814400  0.830600  1.0  0.0936
  H  H17  1  0.512700  0.860800  0.003000  1.0  0.1126
  H  H18  1  0.061000  0.141300  0.730700  1.0  0.118
  H  H19  1  0.824900  0.781000  0.060700  1.0  0.1256
  H  H20  1  0.859200  0.313200  0.822400  1.0  0.1219
  H  H21  1  0.179400  0.264600  0.098800  1.0  0.0877
  H  H22  1  0.081500  0.141200  0.055900  1.0  0.1297
  H  H23  1  0.514900  0.815200  0.829700  1.0  0.1213
  H  H24  1  0.908900  0.904800  0.010300  1.0  0.0799
  H  H25  1  0.303400  0.110000  0.849000  1.0  0.106
  H  H26  1  0.505300  0.114500  0.854100  1.0  0.1059
  H  H27  1  0.578900  0.130000  0.408600  1.0  0.3125
  H  H28  1  0.624200  0.089400  0.354500  1.0  0.315
  H  H29  1  0.894200  0.015000  0.455400  1.0  0.0834
  H  H30  1  0.261700  0.769200  0.426200  1.0  0.1146
  H  H31  1  0.474200  0.746200  0.164500  1.0  0.0827
  H  H32  1  0.662600  0.574700  0.255100  1.0  0.0781
  H  H33  1  0.172400  0.641600  0.471400  1.0  0.1002
  H  H34  1  0.186400  0.185600  0.330600  1.0  0.0944
  H  H35  1  0.987300  0.139200  0.503000  1.0  0.1131
  H  H36  1  0.439000  0.858700  0.230700  1.0  0.1184
  H  H37  1  0.675100  0.219000  0.560700  1.0  0.1255
  H  H38  1  0.640800  0.686800  0.322400  1.0  0.1218
  H  H39  1  0.320600  0.735400  0.598800  1.0  0.0877
  H  H40  1  0.418500  0.858800  0.555900  1.0  0.1297
  H  H41  1  0.985100  0.184800  0.329700  1.0  0.1219
  H  H42  1  0.591100  0.095200  0.510300  1.0  0.0809
  H  H43  1  0.196600  0.890000  0.349000  1.0  0.1055
  H  H44  1  0.994700  0.885500  0.354100  1.0  0.1051
  H  H45  1  0.078900  0.370000  0.591400  1.0  0.3139
  H  H46  1  0.124200  0.410600  0.645500  1.0  0.3148
  H  H47  1  0.394200  0.485000  0.544600  1.0  0.0839
  H  H48  1  0.761700  0.730800  0.573800  1.0  0.1143
  H  H49  1  0.974200  0.753800  0.835500  1.0  0.0837
  H  H50  1  0.162600  0.925300  0.744900  1.0  0.0782
  H  H51  1  0.672400  0.858400  0.528600  1.0  0.1005
  H  H52  1  0.686400  0.314400  0.669400  1.0  0.0937
  H  H53  1  0.487300  0.360800  0.497000  1.0  0.1129
  H  H54  1  0.939000  0.641300  0.769300  1.0  0.1176
  H  H55  1  0.175100  0.281000  0.439300  1.0  0.1258
  H  H56  1  0.140800  0.813200  0.677600  1.0  0.1218
  H  H57  1  0.820600  0.764600  0.401200  1.0  0.0881
  H  H58  1  0.918500  0.641200  0.444100  1.0  0.129
  H  H59  1  0.485100  0.315200  0.670300  1.0  0.1208
  H  H60  1  0.091100  0.404800  0.489700  1.0  0.081
  H  H61  1  0.696600  0.610000  0.651000  1.0  0.1052
  H  H62  1  0.494700  0.614500  0.645900  1.0  0.1051
  H  H63  1  0.421100  0.630000  0.091400  1.0  0.3134
  H  H64  1  0.375800  0.589400  0.145500  1.0  0.3154
  H  H65  1  0.105800  0.515000  0.044600  1.0  0.0832
  H  H66  1  0.738300  0.269200  0.073800  1.0  0.1145
  H  H67  1  0.525800  0.246200  0.335500  1.0  0.0833
  H  H68  1  0.337400  0.074700  0.244900  1.0  0.0785
  H  H69  1  0.827600  0.141600  0.028600  1.0  0.1009
  H  H70  1  0.813600  0.685600  0.169400  1.0  0.0938
  H  H71  1  0.012700  0.639200  0.997000  1.0  0.1128
  H  H72  1  0.561000  0.358700  0.269300  1.0  0.1177
  H  H73  1  0.324900  0.719000  0.939300  1.0  0.1254
  H  H74  1  0.359200  0.186800  0.177600  1.0  0.1217
  H  H75  1  0.679400  0.235400  0.901200  1.0  0.0875
  H  H76  1  0.581500  0.358800  0.944100  1.0  0.1297
  H  H77  1  0.014900  0.684800  0.170300  1.0  0.1212
  H  H78  1  0.408900  0.595200  0.989700  1.0  0.0803
  H  H79  1  0.803400  0.390000  0.151000  1.0  0.1055
  H  H80  1  0.005300  0.385500  0.145900  1.0  0.1052
  C  C81  1  0.651200  0.941800  0.976400  1.0  0.1525
  C  C82  1  0.224800  0.237000  0.961900  1.0  -0.0911
  C  C83  1  0.980300  0.138800  0.826400  1.0  0.6923
  C  C84  1  0.992700  0.266500  0.697200  1.0  0.1555
  C  C85  1  0.881800  0.365800  0.749800  1.0  0.1612
  C  C86  1  0.279100  0.311900  0.989100  1.0  0.1485
  C  C87  1  0.353400  0.876600  0.834900  1.0  0.148
  C  C88  1  0.595000  0.868100  0.005200  1.0  -0.1038
  C  C89  1  0.533000  0.964900  0.843900  1.0  -0.0907
  C  C90  1  0.013200  0.198700  0.736400  1.0  -0.0928
  C  C91  1  0.657700  0.806400  0.036700  1.0  -0.0909
  C  C92  1  0.964400  0.214700  0.783600  1.0  -0.0797
  C  C93  1  0.777600  0.821100  0.038800  1.0  -0.1497
  C  C94  1  0.597000  0.725900  0.066900  1.0  0.6938
  C  C95  1  0.895700  0.300200  0.790400  1.0  -0.1567
  C  C96  1  0.191800  0.257800  0.063000  1.0  0.1698
  C  C97  1  0.133900  0.184000  0.037900  1.0  -0.1583
  C  C98  1  0.473400  0.876200  0.835300  1.0  -0.1493
  C  C99  1  0.151400  0.171400  0.986100  1.0  -0.0815
  C  C100  1  0.826900  0.895500  0.008500  1.0  0.1585
  C  C101  1  0.090600  0.088400  0.955200  1.0  0.6925
  C  C102  1  0.346500  0.049000  0.846400  1.0  0.125
  C  C103  1  0.467000  0.051900  0.848900  1.0  -0.0928
  C  C104  1  0.664300  0.967500  0.851600  1.0  0.674
  C  C105  1  0.848800  0.058200  0.476400  1.0  0.1526
  C  C106  1  0.275200  0.763000  0.461900  1.0  -0.0899
  C  C107  1  0.519700  0.861200  0.326400  1.0  0.6917
  C  C108  1  0.507300  0.733500  0.197200  1.0  0.1559
  C  C109  1  0.618200  0.634200  0.249800  1.0  0.1619
  C  C110  1  0.220900  0.688100  0.489100  1.0  0.1487
  C  C111  1  0.146600  0.123400  0.334900  1.0  0.1485
  C  C112  1  0.905000  0.131900  0.505200  1.0  -0.1033
  C  C113  1  0.967000  0.035100  0.343900  1.0  -0.0917
  C  C114  1  0.486800  0.801300  0.236400  1.0  -0.0914
  C  C115  1  0.842300  0.193600  0.536700  1.0  -0.0926
  C  C116  1  0.535600  0.785300  0.283600  1.0  -0.0812
  C  C117  1  0.722400  0.178900  0.538800  1.0  -0.1497
  C  C118  1  0.903000  0.274100  0.566900  1.0  0.6937
  C  C119  1  0.604300  0.699800  0.290400  1.0  -0.1547
  C  C120  1  0.308200  0.742200  0.563000  1.0  0.1698
  C  C121  1  0.366100  0.816000  0.537900  1.0  -0.1576
  C  C122  1  0.026600  0.123800  0.335300  1.0  -0.1492
  C  C123  1  0.348600  0.828600  0.486100  1.0  -0.0818
  C  C124  1  0.673100  0.104500  0.508500  1.0  0.1588
  C  C125  1  0.409400  0.911600  0.455200  1.0  0.6914
  C  C126  1  0.153500  0.951000  0.346400  1.0  0.1255
  C  C127  1  0.033000  0.948100  0.348900  1.0  -0.0917
  C  C128  1  0.835700  0.032500  0.351600  1.0  0.6753
  C  C129  1  0.348800  0.441800  0.523600  1.0  0.1523
  C  C130  1  0.775200  0.737000  0.538100  1.0  -0.0908
  C  C131  1  0.019700  0.638800  0.673600  1.0  0.6923
  C  C132  1  0.007300  0.766500  0.802800  1.0  0.156
  C  C133  1  0.118200  0.865800  0.750200  1.0  0.1606
  C  C134  1  0.720900  0.811900  0.510900  1.0  0.1493
  C  C135  1  0.646600  0.376600  0.665100  1.0  0.1489
  C  C136  1  0.405000  0.368100  0.494800  1.0  -0.1035
  C  C137  1  0.467000  0.464900  0.656100  1.0  -0.0921
  C  C138  1  0.986800  0.698700  0.763600  1.0  -0.0917
  C  C139  1  0.342300  0.306400  0.463300  1.0  -0.0933
  C  C140  1  0.035600  0.714700  0.716400  1.0  -0.0809
  C  C141  1  0.222400  0.321100  0.461200  1.0  -0.1487
  C  C142  1  0.403000  0.225900  0.433100  1.0  0.6933
  C  C143  1  0.104300  0.800200  0.709600  1.0  -0.1549
  C  C144  1  0.808200  0.757800  0.437000  1.0  0.1685
  C  C145  1  0.866100  0.684000  0.462100  1.0  -0.1579
  C  C146  1  0.526600  0.376200  0.664700  1.0  -0.1483
  C  C147  1  0.848600  0.671400  0.513900  1.0  -0.0816
  C  C148  1  0.173100  0.395500  0.491500  1.0  0.1583
  C  C149  1  0.909400  0.588400  0.544800  1.0  0.6917
  C  C150  1  0.653500  0.549000  0.653600  1.0  0.1252
  C  C151  1  0.533000  0.551900  0.651100  1.0  -0.0938
  C  C152  1  0.335700  0.467500  0.648400  1.0  0.6754
  C  C153  1  0.151200  0.558200  0.023600  1.0  0.1526
  C  C154  1  0.724800  0.263000  0.038100  1.0  -0.0908
  C  C155  1  0.480300  0.361200  0.173600  1.0  0.6928
  C  C156  1  0.492700  0.233500  0.302800  1.0  0.1557
  C  C157  1  0.381800  0.134200  0.250200  1.0  0.1613
  C  C158  1  0.779100  0.188100  0.010900  1.0  0.1494
  C  C159  1  0.853400  0.623400  0.165100  1.0  0.1482
  C  C160  1  0.095000  0.631900  0.994800  1.0  -0.1041
  C  C161  1  0.033000  0.535100  0.156100  1.0  -0.0922
  C  C162  1  0.513200  0.301300  0.263600  1.0  -0.0915
  C  C163  1  0.157700  0.693600  0.963300  1.0  -0.0925
  C  C164  1  0.464400  0.285300  0.216400  1.0  -0.0811
  C  C165  1  0.277600  0.678900  0.961200  1.0  -0.1493
  C  C166  1  0.097000  0.774100  0.933100  1.0  0.6943
  C  C167  1  0.395700  0.199800  0.209600  1.0  -0.1549
  C  C168  1  0.691800  0.242200  0.937000  1.0  0.1689
  C  C169  1  0.633900  0.316000  0.962100  1.0  -0.1582
  C  C170  1  0.973400  0.623800  0.164700  1.0  -0.1473
  C  C171  1  0.651400  0.328600  0.013900  1.0  -0.082
  C  C172  1  0.326900  0.604500  0.991500  1.0  0.1571
  C  C173  1  0.590600  0.411600  0.044800  1.0  0.6922
  C  C174  1  0.846500  0.451000  0.153600  1.0  0.1244
  C  C175  1  0.967000  0.448100  0.151100  1.0  -0.0938
  C  C176  1  0.164300  0.532500  0.148400  1.0  0.6755
  N  N177  1  0.265500  0.321500  0.040200  1.0  -0.3258
  N  N178  1  0.927400  0.349800  0.703700  1.0  -0.3445
  N  N179  1  0.767700  0.953900  0.977400  1.0  -0.3082
  N  N180  1  0.289400  0.961300  0.840500  1.0  -0.3309
  N  N181  1  0.234500  0.678500  0.540200  1.0  -0.3261
  N  N182  1  0.572600  0.650200  0.203700  1.0  -0.3449
  N  N183  1  0.732300  0.046100  0.477400  1.0  -0.3087
  N  N184  1  0.210600  0.038700  0.340500  1.0  -0.3299
  N  N185  1  0.734500  0.821500  0.459800  1.0  -0.326
  N  N186  1  0.072600  0.849800  0.796300  1.0  -0.3441
  N  N187  1  0.232300  0.453900  0.522600  1.0  -0.3078
  N  N188  1  0.710600  0.461300  0.659500  1.0  -0.3308
  N  N189  1  0.765500  0.178500  0.959800  1.0  -0.325
  N  N190  1  0.427400  0.150200  0.296300  1.0  -0.3438
  N  N191  1  0.267700  0.546100  0.022600  1.0  -0.3074
  N  N192  1  0.789400  0.538700  0.159500  1.0  -0.3313
  O  O193  1  0.923800  0.928000  0.884790  1.0  -0.7852
  O  O194  1  0.722100  0.891400  0.838200  1.0  -0.5939
  O  O195  1  0.490200  0.720500  0.061300  1.0  -0.5734
  O  O196  1  0.704300  0.043800  0.872900  1.0  -0.5897
  O  O197  1  0.052200  0.068500  0.816400  1.0  -0.6041
  O  O198  1  0.924000  0.151300  0.866400  1.0  -0.5919
  O  O199  1  0.988500  0.065800  0.970600  1.0  -0.6088
  O  O200  1  0.658400  0.671100  0.095000  1.0  -0.5902
  O  O201  1  0.144500  0.052300  0.918320  1.0  -0.5893
  O  O202  1  0.576200  0.072000  0.384790  1.0  -0.7848
  O  O203  1  0.777900  0.108600  0.338200  1.0  -0.5946
  O  O204  1  0.009800  0.279500  0.561300  1.0  -0.573
  O  O205  1  0.795700  0.956200  0.372900  1.0  -0.5901
  O  O206  1  0.447800  0.931500  0.316400  1.0  -0.6042
  O  O207  1  0.576000  0.848700  0.366400  1.0  -0.5929
  O  O208  1  0.511500  0.934200  0.470600  1.0  -0.6097
  O  O209  1  0.841600  0.328900  0.595000  1.0  -0.5894
  O  O210  1  0.355500  0.947700  0.418320  1.0  -0.5908
  O  O211  1  0.076200  0.428000  0.615210  1.0  -0.7853
  O  O212  1  0.277900  0.391400  0.661800  1.0  -0.5971
  O  O213  1  0.509800  0.220500  0.438700  1.0  -0.5732
  O  O214  1  0.295700  0.543800  0.627100  1.0  -0.5908
  O  O215  1  0.947800  0.568500  0.683600  1.0  -0.604
  O  O216  1  0.076000  0.651300  0.633600  1.0  -0.5917
  O  O217  1  0.011500  0.565800  0.529400  1.0  -0.61
  O  O218  1  0.341600  0.171100  0.405000  1.0  -0.5892
  O  O219  1  0.855500  0.552300  0.581680  1.0  -0.5925
  O  O220  1  0.423800  0.572000  0.115210  1.0  -0.7848
  O  O221  1  0.222100  0.608600  0.161800  1.0  -0.5949
  O  O222  1  0.990200  0.779500  0.938700  1.0  -0.5729
  O  O223  1  0.204300  0.456200  0.127100  1.0  -0.5908
  O  O224  1  0.552200  0.431500  0.183600  1.0  -0.6041
  O  O225  1  0.424000  0.348700  0.133600  1.0  -0.5929
  O  O226  1  0.488500  0.434200  0.029400  1.0  -0.6094
  O  O227  1  0.158400  0.828900  0.905000  1.0  -0.5893
  O  O228  1  0.644500  0.447700  0.081680  1.0  -0.5906
