# generated using pymatgen
data_Co2H18C24N4O9
_symmetry_space_group_name_H-M   'P 1'
_cell_length_a   11.47770000
_cell_length_b   13.31640000
_cell_length_c   26.03070000
_cell_angle_alpha   90.00000000
_cell_angle_beta   90.00000000
_cell_angle_gamma   90.00000000
_symmetry_Int_Tables_number   1
_chemical_formula_structural   Co2H18C24N4O9
_chemical_formula_sum   'Co8 H72 C96 N16 O36'
_cell_volume   3978.57498976
_cell_formula_units_Z   4
loop_
 _symmetry_equiv_pos_site_id
 _symmetry_equiv_pos_as_xyz
  1  'x, y, z'
loop_
 _atom_site_type_symbol
 _atom_site_label
 _atom_site_symmetry_multiplicity
 _atom_site_fract_x
 _atom_site_fract_y
 _atom_site_fract_z
 _atom_site_occupancy
 _atom_site_charge
  Co  Co1  1  0.345800  0.444260  0.921840  1.0  0.9481
  Co  Co2  1  0.602220  0.549970  0.860390  1.0  0.9719
  Co  Co3  1  0.154200  0.555740  0.421840  1.0  0.948
  Co  Co4  1  0.897780  0.450030  0.360390  1.0  0.9729
  Co  Co5  1  0.654200  0.944260  0.578160  1.0  0.9476
  Co  Co6  1  0.397780  0.049970  0.639610  1.0  0.9726
  Co  Co7  1  0.845800  0.055740  0.078160  1.0  0.9489
  Co  Co8  1  0.102220  0.950030  0.139610  1.0  0.9729
  H  H9  1  0.373600  0.590000  0.855100  1.0  0.3097
  H  H10  1  0.418900  0.629400  0.909600  1.0  0.3558
  H  H11  1  0.101400  0.515000  0.955100  1.0  0.0825
  H  H12  1  0.337600  0.075800  0.754600  1.0  0.0823
  H  H13  1  0.526300  0.248400  0.663800  1.0  0.0872
  H  H14  1  0.809200  0.685400  0.830800  1.0  0.0908
  H  H15  1  0.009300  0.638800  0.002700  1.0  0.114
  H  H16  1  0.733400  0.268400  0.925600  1.0  0.1251
  H  H17  1  0.825100  0.143200  0.971300  1.0  0.0926
  H  H18  1  0.406200  0.595100  0.010800  1.0  0.0827
  H  H19  1  0.010600  0.685400  0.830400  1.0  0.1258
  H  H20  1  0.677800  0.234200  0.099800  1.0  0.0893
  H  H21  1  0.565200  0.356500  0.732000  1.0  0.1114
  H  H22  1  0.320500  0.719300  0.061300  1.0  0.1256
  H  H23  1  0.577100  0.357500  0.056600  1.0  0.1342
  H  H24  1  0.361300  0.187300  0.822500  1.0  0.1224
  H  H25  1  0.800800  0.393200  0.850600  1.0  0.0881
  H  H26  1  0.001300  0.386300  0.856400  1.0  0.1181
  H  H27  1  0.126400  0.410000  0.355100  1.0  0.3086
  H  H28  1  0.081100  0.370600  0.409600  1.0  0.3547
  H  H29  1  0.398600  0.485000  0.455100  1.0  0.0828
  H  H30  1  0.162400  0.924200  0.254600  1.0  0.0819
  H  H31  1  0.973700  0.751600  0.163800  1.0  0.0872
  H  H32  1  0.690800  0.314600  0.330800  1.0  0.0904
  H  H33  1  0.490700  0.361200  0.502700  1.0  0.1143
  H  H34  1  0.766600  0.731600  0.425600  1.0  0.1247
  H  H35  1  0.674900  0.856800  0.471300  1.0  0.0922
  H  H36  1  0.093800  0.404900  0.510800  1.0  0.0831
  H  H37  1  0.489400  0.314600  0.330400  1.0  0.1258
  H  H38  1  0.822200  0.765800  0.599800  1.0  0.0892
  H  H39  1  0.934800  0.643500  0.232000  1.0  0.1114
  H  H40  1  0.179500  0.280700  0.561300  1.0  0.126
  H  H41  1  0.922900  0.642500  0.556600  1.0  0.1344
  H  H42  1  0.138700  0.812700  0.322500  1.0  0.1224
  H  H43  1  0.699200  0.606800  0.350600  1.0  0.0881
  H  H44  1  0.498700  0.613700  0.356400  1.0  0.1181
  H  H45  1  0.626400  0.090000  0.644900  1.0  0.3096
  H  H46  1  0.581100  0.129400  0.590400  1.0  0.3548
  H  H47  1  0.898600  0.015000  0.544900  1.0  0.0832
  H  H48  1  0.662400  0.575800  0.745400  1.0  0.0819
  H  H49  1  0.473700  0.748400  0.836200  1.0  0.088
  H  H50  1  0.190800  0.185400  0.669200  1.0  0.0909
  H  H51  1  0.990700  0.138800  0.497300  1.0  0.1139
  H  H52  1  0.266600  0.768400  0.574400  1.0  0.1247
  H  H53  1  0.174900  0.643200  0.528700  1.0  0.0925
  H  H54  1  0.593800  0.095100  0.489200  1.0  0.0827
  H  H55  1  0.989400  0.185400  0.669600  1.0  0.126
  H  H56  1  0.322200  0.734200  0.400200  1.0  0.0893
  H  H57  1  0.434800  0.856500  0.768000  1.0  0.1115
  H  H58  1  0.679500  0.219300  0.438700  1.0  0.1258
  H  H59  1  0.422900  0.857500  0.443400  1.0  0.1339
  H  H60  1  0.638700  0.687300  0.677500  1.0  0.1221
  H  H61  1  0.199200  0.893200  0.649400  1.0  0.0879
  H  H62  1  0.998700  0.886300  0.643600  1.0  0.1173
  H  H63  1  0.873600  0.910000  0.144900  1.0  0.3109
  H  H64  1  0.918900  0.870600  0.090400  1.0  0.3567
  H  H65  1  0.601400  0.985000  0.044900  1.0  0.083
  H  H66  1  0.837600  0.424200  0.245400  1.0  0.0822
  H  H67  1  0.026300  0.251600  0.336200  1.0  0.0875
  H  H68  1  0.309200  0.814600  0.169200  1.0  0.0899
  H  H69  1  0.509300  0.861200  0.997300  1.0  0.1141
  H  H70  1  0.233400  0.231600  0.074400  1.0  0.1247
  H  H71  1  0.325100  0.356800  0.028700  1.0  0.0929
  H  H72  1  0.906200  0.904900  0.989200  1.0  0.083
  H  H73  1  0.510600  0.814600  0.169600  1.0  0.1258
  H  H74  1  0.177800  0.265800  0.900200  1.0  0.0891
  H  H75  1  0.065200  0.143500  0.268000  1.0  0.1116
  H  H76  1  0.820500  0.780700  0.938700  1.0  0.1257
  H  H77  1  0.077100  0.142500  0.943400  1.0  0.1336
  H  H78  1  0.861300  0.312700  0.177500  1.0  0.1221
  H  H79  1  0.300800  0.106800  0.149400  1.0  0.0887
  H  H80  1  0.501300  0.113700  0.143600  1.0  0.1177
  C  C81  1  0.147000  0.557800  0.976300  1.0  0.1543
  C  C82  1  0.383000  0.134700  0.749500  1.0  0.1668
  C  C83  1  0.494500  0.234200  0.696700  1.0  0.1123
  C  C84  1  0.849000  0.623500  0.835500  1.0  0.1554
  C  C85  1  0.091400  0.631400  0.005000  1.0  -0.1024
  C  C86  1  0.720900  0.262700  0.961600  1.0  -0.146
  C  C87  1  0.092700  0.773300  0.066700  1.0  0.6927
  C  C88  1  0.775700  0.188800  0.989100  1.0  0.1694
  C  C89  1  0.479000  0.362800  0.826300  1.0  0.6861
  C  C90  1  0.324200  0.604400  0.009000  1.0  0.1439
  C  C91  1  0.969500  0.624400  0.836000  1.0  -0.147
  C  C92  1  0.689200  0.241200  0.063800  1.0  0.164
  C  C93  1  0.464500  0.285800  0.783500  1.0  -0.0874
  C  C94  1  0.030200  0.535500  0.844700  1.0  -0.0692
  C  C95  1  0.647600  0.328900  0.986400  1.0  -0.0819
  C  C96  1  0.515200  0.300500  0.737000  1.0  -0.0765
  C  C97  1  0.154100  0.693500  0.036600  1.0  -0.0865
  C  C98  1  0.273900  0.679100  0.039300  1.0  -0.1454
  C  C99  1  0.629900  0.315500  0.038500  1.0  -0.1555
  C  C100  1  0.586300  0.410900  0.955800  1.0  0.7033
  C  C101  1  0.397200  0.200500  0.790300  1.0  -0.14
  C  C102  1  0.844000  0.453800  0.847800  1.0  0.1517
  C  C103  1  0.964000  0.448900  0.850600  1.0  -0.1497
  C  C104  1  0.161600  0.533600  0.852100  1.0  0.6806
  C  C105  1  0.353000  0.442200  0.476300  1.0  0.1547
  C  C106  1  0.117000  0.865300  0.249500  1.0  0.1658
  C  C107  1  0.005500  0.765800  0.196700  1.0  0.1118
  C  C108  1  0.651000  0.376500  0.335500  1.0  0.155
  C  C109  1  0.408600  0.368600  0.505000  1.0  -0.1005
  C  C110  1  0.779100  0.737300  0.461600  1.0  -0.1452
  C  C111  1  0.407300  0.226700  0.566700  1.0  0.6913
  C  C112  1  0.724300  0.811200  0.489100  1.0  0.17
  C  C113  1  0.021000  0.637200  0.326300  1.0  0.686
  C  C114  1  0.175800  0.395600  0.509000  1.0  0.1437
  C  C115  1  0.530500  0.375600  0.336000  1.0  -0.1465
  C  C116  1  0.810800  0.758800  0.563800  1.0  0.1647
  C  C117  1  0.035500  0.714200  0.283500  1.0  -0.0857
  C  C118  1  0.469800  0.464500  0.344700  1.0  -0.0706
  C  C119  1  0.852400  0.671100  0.486400  1.0  -0.0822
  C  C120  1  0.984800  0.699500  0.237000  1.0  -0.0765
  C  C121  1  0.345900  0.306500  0.536600  1.0  -0.0858
  C  C122  1  0.226100  0.320900  0.539300  1.0  -0.146
  C  C123  1  0.870100  0.684500  0.538500  1.0  -0.154
  C  C124  1  0.913700  0.589100  0.455800  1.0  0.7027
  C  C125  1  0.102800  0.799500  0.290300  1.0  -0.1393
  C  C126  1  0.656000  0.546200  0.347800  1.0  0.152
  C  C127  1  0.536000  0.551100  0.350600  1.0  -0.1502
  C  C128  1  0.338400  0.466400  0.352100  1.0  0.6816
  C  C129  1  0.853000  0.057800  0.523700  1.0  0.1539
  C  C130  1  0.617000  0.634700  0.750500  1.0  0.1654
  C  C131  1  0.505500  0.734200  0.803300  1.0  0.113
  C  C132  1  0.151000  0.123500  0.664500  1.0  0.1551
  C  C133  1  0.908600  0.131400  0.495000  1.0  -0.1012
  C  C134  1  0.279100  0.762700  0.538400  1.0  -0.1461
  C  C135  1  0.907300  0.273300  0.433300  1.0  0.691
  C  C136  1  0.224300  0.688800  0.510900  1.0  0.1698
  C  C137  1  0.521000  0.862800  0.673700  1.0  0.6861
  C  C138  1  0.675800  0.104400  0.491000  1.0  0.1448
  C  C139  1  0.030500  0.124400  0.664000  1.0  -0.1476
  C  C140  1  0.310800  0.741200  0.436200  1.0  0.165
  C  C141  1  0.535500  0.785800  0.716500  1.0  -0.0864
  C  C142  1  0.969800  0.035500  0.655300  1.0  -0.0703
  C  C143  1  0.352400  0.828900  0.513600  1.0  -0.0822
  C  C144  1  0.484800  0.800500  0.763000  1.0  -0.077
  C  C145  1  0.845900  0.193500  0.463400  1.0  -0.0874
  C  C146  1  0.726100  0.179100  0.460700  1.0  -0.1458
  C  C147  1  0.370100  0.815500  0.461500  1.0  -0.1556
  C  C148  1  0.413700  0.910900  0.544200  1.0  0.703
  C  C149  1  0.602800  0.700500  0.709700  1.0  -0.1394
  C  C150  1  0.156000  0.953800  0.652200  1.0  0.1509
  C  C151  1  0.036000  0.948900  0.649400  1.0  -0.1507
  C  C152  1  0.838400  0.033600  0.647900  1.0  0.6813
  C  C153  1  0.647000  0.942200  0.023700  1.0  0.1539
  C  C154  1  0.883000  0.365300  0.250500  1.0  0.1672
  C  C155  1  0.994500  0.265800  0.303300  1.0  0.1123
  C  C156  1  0.349000  0.876500  0.164500  1.0  0.1555
  C  C157  1  0.591400  0.868600  0.995000  1.0  -0.1022
  C  C158  1  0.220900  0.237300  0.038400  1.0  -0.1467
  C  C159  1  0.592700  0.726700  0.933300  1.0  0.6914
  C  C160  1  0.275700  0.311200  0.010900  1.0  0.1702
  C  C161  1  0.979000  0.137200  0.173700  1.0  0.6862
  C  C162  1  0.824200  0.895600  0.991000  1.0  0.144
  C  C163  1  0.469500  0.875600  0.164000  1.0  -0.1471
  C  C164  1  0.189200  0.258800  0.936200  1.0  0.1647
  C  C165  1  0.964500  0.214200  0.216500  1.0  -0.0859
  C  C166  1  0.530200  0.964500  0.155300  1.0  -0.07
  C  C167  1  0.147600  0.171100  0.013600  1.0  -0.0827
  C  C168  1  0.015200  0.199500  0.263000  1.0  -0.0765
  C  C169  1  0.654100  0.806500  0.963400  1.0  -0.0855
  C  C170  1  0.773900  0.820900  0.960700  1.0  -0.1464
  C  C171  1  0.129900  0.184500  0.961500  1.0  -0.1551
  C  C172  1  0.086300  0.089100  0.044200  1.0  0.7045
  C  C173  1  0.897200  0.299500  0.209700  1.0  -0.1392
  C  C174  1  0.344000  0.046200  0.152200  1.0  0.1516
  C  C175  1  0.464000  0.051100  0.149400  1.0  -0.1497
  C  C176  1  0.661600  0.966400  0.147900  1.0  0.6812
  N  N177  1  0.430400  0.150500  0.703230  1.0  -0.3349
  N  N178  1  0.762300  0.178100  0.040280  1.0  -0.3331
  N  N179  1  0.263100  0.545100  0.977360  1.0  -0.3163
  N  N180  1  0.785600  0.539900  0.841400  1.0  -0.3226
  N  N181  1  0.069600  0.849500  0.203230  1.0  -0.335
  N  N182  1  0.737700  0.821900  0.540280  1.0  -0.3327
  N  N183  1  0.236900  0.454900  0.477360  1.0  -0.3168
  N  N184  1  0.714400  0.460100  0.341400  1.0  -0.3236
  N  N185  1  0.569600  0.650500  0.796770  1.0  -0.3344
  N  N186  1  0.237700  0.678100  0.459720  1.0  -0.3325
  N  N187  1  0.736900  0.045100  0.522640  1.0  -0.3156
  N  N188  1  0.214400  0.039900  0.658600  1.0  -0.3239
  N  N189  1  0.930400  0.349500  0.296770  1.0  -0.3345
  N  N190  1  0.262300  0.321900  0.959720  1.0  -0.3333
  N  N191  1  0.763100  0.954900  0.022640  1.0  -0.3149
  N  N192  1  0.285600  0.960100  0.158600  1.0  -0.3231
  O  O193  1  0.421500  0.572000  0.885410  1.0  -0.7841
  O  O194  1  0.986300  0.779700  0.060600  1.0  -0.5687
  O  O195  1  0.218100  0.609600  0.838400  1.0  -0.5953
  O  O196  1  0.202000  0.457100  0.873200  1.0  -0.5928
  O  O197  1  0.550200  0.431700  0.816550  1.0  -0.5963
  O  O198  1  0.485500  0.433900  0.971220  1.0  -0.6161
  O  O199  1  0.154900  0.829300  0.094540  1.0  -0.6005
  O  O200  1  0.421100  0.349100  0.866160  1.0  -0.5983
  O  O201  1  0.640100  0.446700  0.919060  1.0  -0.5918
  O  O202  1  0.078500  0.428000  0.385410  1.0  -0.7838
  O  O203  1  0.513700  0.220300  0.560600  1.0  -0.5694
  O  O204  1  0.281900  0.390400  0.338400  1.0  -0.5941
  O  O205  1  0.298000  0.542900  0.373200  1.0  -0.5929
  O  O206  1  0.949800  0.568300  0.316550  1.0  -0.5966
  O  O207  1  0.014500  0.566100  0.471220  1.0  -0.618
  O  O208  1  0.345100  0.170700  0.594540  1.0  -0.6004
  O  O209  1  0.078900  0.650900  0.366160  1.0  -0.5968
  O  O210  1  0.859900  0.553300  0.419060  1.0  -0.5931
  O  O211  1  0.578500  0.072000  0.614590  1.0  -0.7836
  O  O212  1  0.013700  0.279700  0.439400  1.0  -0.5681
  O  O213  1  0.781900  0.109600  0.661600  1.0  -0.5929
  O  O214  1  0.798000  0.957100  0.626800  1.0  -0.5934
  O  O215  1  0.449800  0.931700  0.683450  1.0  -0.597
  O  O216  1  0.514500  0.933900  0.528780  1.0  -0.6171
  O  O217  1  0.845100  0.329300  0.405460  1.0  -0.6001
  O  O218  1  0.578900  0.849100  0.633840  1.0  -0.5976
  O  O219  1  0.359900  0.946700  0.580940  1.0  -0.5943
  O  O220  1  0.921500  0.928000  0.114590  1.0  -0.7852
  O  O221  1  0.486300  0.720300  0.939400  1.0  -0.5683
  O  O222  1  0.718100  0.890400  0.161600  1.0  -0.5942
  O  O223  1  0.702000  0.042900  0.126800  1.0  -0.5937
  O  O224  1  0.050200  0.068300  0.183450  1.0  -0.5972
  O  O225  1  0.985500  0.066100  0.028780  1.0  -0.6162
  O  O226  1  0.654900  0.670700  0.905460  1.0  -0.6009
  O  O227  1  0.921100  0.150900  0.133840  1.0  -0.5964
  O  O228  1  0.140100  0.053300  0.080940  1.0  -0.5932
