# generated using pymatgen
data_Co2H18C24N4O9
_symmetry_space_group_name_H-M   'P 1'
_cell_length_a   11.26900000
_cell_length_b   13.38200000
_cell_length_c   25.59200000
_cell_angle_alpha   90.00000000
_cell_angle_beta   90.00000000
_cell_angle_gamma   90.00000000
_symmetry_Int_Tables_number   1
_chemical_formula_structural   Co2H18C24N4O9
_chemical_formula_sum   'Co8 H72 C96 N16 O36'
_cell_volume   3859.31859074
_cell_formula_units_Z   4
loop_
 _symmetry_equiv_pos_site_id
 _symmetry_equiv_pos_as_xyz
  1  'x, y, z'
loop_
 _atom_site_type_symbol
 _atom_site_label
 _atom_site_symmetry_multiplicity
 _atom_site_fract_x
 _atom_site_fract_y
 _atom_site_fract_z
 _atom_site_occupancy
 _atom_site_charge
  Co  Co1  1  0.917100  0.940080  0.636550  1.0  1.0487
  Co  Co2  1  0.171420  0.059680  0.578860  1.0  0.9346
  Co  Co3  1  0.582900  0.059920  0.136550  1.0  1.0508
  Co  Co4  1  0.328580  0.940320  0.078860  1.0  0.9349
  Co  Co5  1  0.082900  0.440080  0.863450  1.0  1.0506
  Co  Co6  1  0.828580  0.559680  0.921140  1.0  0.935
  Co  Co7  1  0.417100  0.559920  0.363450  1.0  1.0473
  Co  Co8  1  0.671420  0.440320  0.421140  1.0  0.9346
  H  H9  1  0.108200  0.871300  0.587600  1.0  0.4011
  H  H10  1  0.149300  0.909100  0.644100  1.0  0.3855
  H  H11  1  0.712300  0.708500  0.560000  1.0  0.1244
  H  H12  1  0.132400  0.313100  0.677000  1.0  0.1309
  H  H13  1  0.622900  0.586200  0.509500  1.0  0.0845
  H  H14  1  0.144400  0.424500  0.746800  1.0  0.0881
  H  H15  1  0.930300  0.494300  0.455100  1.0  0.0734
  H  H16  1  0.921200  0.138200  0.766200  1.0  0.1227
  H  H17  1  0.521800  0.114800  0.658400  1.0  0.126
  H  H18  1  0.496600  0.814000  0.667800  1.0  0.1302
  H  H19  1  0.031100  0.613900  0.503300  1.0  0.1318
  H  H20  1  0.726500  0.099000  0.656400  1.0  0.0928
  H  H21  1  0.853200  0.272900  0.397800  1.0  0.0816
  H  H22  1  0.738200  0.188300  0.562900  1.0  0.1197
  H  H23  1  0.956100  0.147100  0.440500  1.0  0.1294
  H  H24  1  0.702700  0.805300  0.661400  1.0  0.0894
  H  H25  1  0.944400  0.251400  0.834500  1.0  0.0838
  H  H26  1  0.648300  0.312400  0.518000  1.0  0.067
  H  H27  1  0.391800  0.128700  0.087600  1.0  0.401
  H  H28  1  0.350700  0.090900  0.144100  1.0  0.3897
  H  H29  1  0.787700  0.291500  0.060000  1.0  0.1246
  H  H30  1  0.367600  0.686900  0.177000  1.0  0.1302
  H  H31  1  0.877100  0.413800  0.009500  1.0  0.0851
  H  H32  1  0.355600  0.575500  0.246800  1.0  0.0887
  H  H33  1  0.569700  0.505700  0.955100  1.0  0.0733
  H  H34  1  0.578800  0.861800  0.266200  1.0  0.1226
  H  H35  1  0.978200  0.885200  0.158400  1.0  0.126
  H  H36  1  0.003400  0.186000  0.167800  1.0  0.1308
  H  H37  1  0.468900  0.386100  0.003300  1.0  0.1312
  H  H38  1  0.773500  0.901000  0.156400  1.0  0.0929
  H  H39  1  0.646800  0.727100  0.897800  1.0  0.0808
  H  H40  1  0.761800  0.811700  0.062900  1.0  0.1198
  H  H41  1  0.543900  0.852900  0.940500  1.0  0.1303
  H  H42  1  0.797300  0.194700  0.161400  1.0  0.0904
  H  H43  1  0.555600  0.748600  0.334500  1.0  0.0836
  H  H44  1  0.851700  0.687600  0.018000  1.0  0.0675
  H  H45  1  0.891800  0.371300  0.912400  1.0  0.4015
  H  H46  1  0.850700  0.409100  0.855900  1.0  0.3927
  H  H47  1  0.287700  0.208500  0.940000  1.0  0.1243
  H  H48  1  0.867600  0.813100  0.823000  1.0  0.1303
  H  H49  1  0.377100  0.086200  0.990500  1.0  0.0853
  H  H50  1  0.855600  0.924500  0.753200  1.0  0.0882
  H  H51  1  0.069700  0.994300  0.044900  1.0  0.0733
  H  H52  1  0.078800  0.638200  0.733800  1.0  0.123
  H  H53  1  0.478200  0.614800  0.841600  1.0  0.1257
  H  H54  1  0.503400  0.314000  0.832200  1.0  0.131
  H  H55  1  0.968900  0.113900  0.996700  1.0  0.1312
  H  H56  1  0.273500  0.599000  0.843600  1.0  0.0932
  H  H57  1  0.146800  0.772900  0.102200  1.0  0.0812
  H  H58  1  0.261800  0.688300  0.937100  1.0  0.1195
  H  H59  1  0.043900  0.647100  0.059500  1.0  0.1297
  H  H60  1  0.297300  0.305300  0.838600  1.0  0.0891
  H  H61  1  0.055600  0.751400  0.665500  1.0  0.0842
  H  H62  1  0.351700  0.812400  0.982000  1.0  0.0663
  H  H63  1  0.608200  0.628700  0.412400  1.0  0.4
  H  H64  1  0.649300  0.590900  0.355900  1.0  0.3914
  H  H65  1  0.212300  0.791500  0.440000  1.0  0.1245
  H  H66  1  0.632400  0.186900  0.323000  1.0  0.1309
  H  H67  1  0.122900  0.913800  0.490500  1.0  0.0844
  H  H68  1  0.644400  0.075500  0.253200  1.0  0.0881
  H  H69  1  0.430300  0.005700  0.544900  1.0  0.0733
  H  H70  1  0.421200  0.361800  0.233800  1.0  0.1232
  H  H71  1  0.021800  0.385200  0.341600  1.0  0.125
  H  H72  1  0.996600  0.686000  0.332200  1.0  0.1316
  H  H73  1  0.531100  0.886100  0.496700  1.0  0.1313
  H  H74  1  0.226500  0.401000  0.343600  1.0  0.0926
  H  H75  1  0.353200  0.227100  0.602200  1.0  0.0809
  H  H76  1  0.238200  0.311700  0.437100  1.0  0.1194
  H  H77  1  0.456100  0.352900  0.559500  1.0  0.13
  H  H78  1  0.202700  0.694700  0.338600  1.0  0.0897
  H  H79  1  0.444400  0.248600  0.165500  1.0  0.0846
  H  H80  1  0.148300  0.187600  0.482000  1.0  0.0671
  C  C81  1  0.352400  0.971600  0.654330  1.0  0.6507
  C  C82  1  0.759000  0.666300  0.538360  1.0  -0.1314
  C  C83  1  0.883500  0.676900  0.536320  1.0  -0.0307
  C  C84  1  0.093200  0.298940  0.709030  1.0  -0.1471
  C  C85  1  0.485800  0.966000  0.660090  1.0  -0.0202
  C  C86  1  0.706800  0.593200  0.508000  1.0  0.1593
  C  C87  1  0.925200  0.075160  0.538700  1.0  0.6623
  C  C88  1  0.943600  0.759800  0.565600  1.0  0.6572
  C  C89  1  0.100500  0.364500  0.750990  1.0  0.1502
  C  C90  1  0.886100  0.539500  0.476130  1.0  0.1594
  C  C91  1  0.969600  0.195700  0.761690  1.0  -0.1248
  C  C92  1  0.556900  0.050200  0.658570  1.0  -0.166
  C  C93  1  0.027100  0.212300  0.715120  1.0  -0.035
  C  C94  1  0.541900  0.873400  0.663580  1.0  -0.1701
  C  C95  1  0.946900  0.610400  0.504900  1.0  -0.153
  C  C96  1  0.679000  0.040400  0.657270  1.0  0.1554
  C  C97  1  0.831800  0.256900  0.432720  1.0  0.1541
  C  C98  1  0.858300  0.152600  0.507090  1.0  -0.0121
  C  C99  1  0.022500  0.134470  0.672110  1.0  0.6673
  C  C100  1  0.765500  0.204800  0.528880  1.0  -0.166
  C  C101  1  0.892300  0.180100  0.457510  1.0  -0.1833
  C  C102  1  0.665300  0.868900  0.660750  1.0  0.1477
  C  C103  1  0.983000  0.264000  0.802170  1.0  0.1589
  C  C104  1  0.713300  0.279100  0.502000  1.0  0.1634
  C  C105  1  0.147600  0.028400  0.154330  1.0  0.6526
  C  C106  1  0.741000  0.333700  0.038360  1.0  -0.1317
  C  C107  1  0.616500  0.323100  0.036320  1.0  -0.0308
  C  C108  1  0.406800  0.701060  0.209030  1.0  -0.147
  C  C109  1  0.014200  0.034000  0.160090  1.0  -0.0178
  C  C110  1  0.793200  0.406800  0.008000  1.0  0.1586
  C  C111  1  0.574800  0.924840  0.038700  1.0  0.663
  C  C112  1  0.556400  0.240200  0.065600  1.0  0.6576
  C  C113  1  0.399500  0.635500  0.250990  1.0  0.1504
  C  C114  1  0.613900  0.460500  0.976130  1.0  0.1594
  C  C115  1  0.530400  0.804300  0.261690  1.0  -0.1245
  C  C116  1  0.943100  0.949800  0.158570  1.0  -0.1649
  C  C117  1  0.472900  0.787700  0.215120  1.0  -0.0347
  C  C118  1  0.958100  0.126600  0.163580  1.0  -0.1683
  C  C119  1  0.553100  0.389600  0.004900  1.0  -0.1542
  C  C120  1  0.821000  0.959600  0.157270  1.0  0.1559
  C  C121  1  0.668200  0.743100  0.932720  1.0  0.1543
  C  C122  1  0.641700  0.847400  0.007090  1.0  -0.0118
  C  C123  1  0.477500  0.865530  0.172110  1.0  0.667
  C  C124  1  0.734500  0.795200  0.028880  1.0  -0.167
  C  C125  1  0.607700  0.819900  0.957510  1.0  -0.1833
  C  C126  1  0.834700  0.131100  0.160750  1.0  0.1479
  C  C127  1  0.517000  0.736000  0.302170  1.0  0.1587
  C  C128  1  0.786700  0.720900  0.002000  1.0  0.163
  C  C129  1  0.647600  0.471600  0.845670  1.0  0.6491
  C  C130  1  0.241000  0.166300  0.961640  1.0  -0.132
  C  C131  1  0.116500  0.176900  0.963680  1.0  -0.031
  C  C132  1  0.906800  0.798940  0.790970  1.0  -0.1474
  C  C133  1  0.514200  0.466000  0.839910  1.0  -0.0201
  C  C134  1  0.293200  0.093200  0.992000  1.0  0.1589
  C  C135  1  0.074800  0.575160  0.961300  1.0  0.6626
  C  C136  1  0.056400  0.259800  0.934400  1.0  0.6572
  C  C137  1  0.899500  0.864500  0.749010  1.0  0.1497
  C  C138  1  0.113900  0.039500  0.023870  1.0  0.1598
  C  C139  1  0.030400  0.695700  0.738310  1.0  -0.1244
  C  C140  1  0.443100  0.550200  0.841430  1.0  -0.165
  C  C141  1  0.972900  0.712300  0.784880  1.0  -0.0337
  C  C142  1  0.458100  0.373400  0.836420  1.0  -0.1709
  C  C143  1  0.053100  0.110400  0.995100  1.0  -0.1534
  C  C144  1  0.321000  0.540400  0.842730  1.0  0.1556
  C  C145  1  0.168200  0.756900  0.067280  1.0  0.1537
  C  C146  1  0.141700  0.652600  0.992910  1.0  -0.0148
  C  C147  1  0.977500  0.634470  0.827890  1.0  0.6673
  C  C148  1  0.234500  0.704800  0.971120  1.0  -0.1672
  C  C149  1  0.107700  0.680100  0.042490  1.0  -0.1835
  C  C150  1  0.334700  0.368900  0.839250  1.0  0.1479
  C  C151  1  0.017000  0.764000  0.697830  1.0  0.1584
  C  C152  1  0.286700  0.779100  0.998000  1.0  0.1632
  C  C153  1  0.852400  0.528400  0.345670  1.0  0.6494
  C  C154  1  0.259000  0.833700  0.461640  1.0  -0.1316
  C  C155  1  0.383500  0.823100  0.463680  1.0  -0.0314
  C  C156  1  0.593200  0.201060  0.290970  1.0  -0.1466
  C  C157  1  0.985800  0.534000  0.339910  1.0  -0.0245
  C  C158  1  0.206800  0.906800  0.492000  1.0  0.1598
  C  C159  1  0.425200  0.424840  0.461300  1.0  0.6615
  C  C160  1  0.443600  0.740200  0.434400  1.0  0.657
  C  C161  1  0.600500  0.135500  0.249010  1.0  0.1511
  C  C162  1  0.386100  0.960500  0.523870  1.0  0.1602
  C  C163  1  0.469600  0.304300  0.238310  1.0  -0.1253
  C  C164  1  0.056900  0.449800  0.341430  1.0  -0.164
  C  C165  1  0.527100  0.287700  0.284880  1.0  -0.0344
  C  C166  1  0.041900  0.626600  0.336420  1.0  -0.1698
  C  C167  1  0.446900  0.889600  0.495100  1.0  -0.1532
  C  C168  1  0.179000  0.459600  0.342730  1.0  0.1555
  C  C169  1  0.331800  0.243100  0.567280  1.0  0.1547
  C  C170  1  0.358300  0.347400  0.492910  1.0  -0.0115
  C  C171  1  0.522500  0.365530  0.327890  1.0  0.6675
  C  C172  1  0.265500  0.295200  0.471120  1.0  -0.1665
  C  C173  1  0.392300  0.319900  0.542490  1.0  -0.1836
  C  C174  1  0.165300  0.631100  0.339250  1.0  0.1479
  C  C175  1  0.483000  0.236000  0.197830  1.0  0.1592
  C  C176  1  0.213300  0.220900  0.498000  1.0  0.1631
  N  N177  1  0.732970  0.950370  0.657210  1.0  -0.3206
  N  N178  1  0.767230  0.531760  0.476630  1.0  -0.3519
  N  N179  1  0.048180  0.346640  0.797160  1.0  -0.358
  N  N180  1  0.745800  0.309120  0.455030  1.0  -0.3265
  N  N181  1  0.767030  0.049630  0.157210  1.0  -0.3218
  N  N182  1  0.732770  0.468240  0.976630  1.0  -0.3511
  N  N183  1  0.451820  0.653360  0.297160  1.0  -0.3572
  N  N184  1  0.754200  0.690880  0.955030  1.0  -0.3258
  N  N185  1  0.267030  0.450370  0.842790  1.0  -0.3221
  N  N186  1  0.232770  0.031760  0.023370  1.0  -0.3512
  N  N187  1  0.951820  0.846640  0.702840  1.0  -0.3593
  N  N188  1  0.254200  0.809120  0.044970  1.0  -0.3254
  N  N189  1  0.232970  0.549630  0.342790  1.0  -0.3208
  N  N190  1  0.267230  0.968240  0.523370  1.0  -0.3514
  N  N191  1  0.548180  0.153360  0.202840  1.0  -0.3597
  N  N192  1  0.245800  0.190880  0.544970  1.0  -0.3254
  O  O193  1  0.032820  0.062690  0.525900  1.0  -0.6001
  O  O194  1  0.955240  0.061830  0.681110  1.0  -0.6087
  O  O195  1  0.314660  0.048490  0.630860  1.0  -0.6131
  O  O196  1  0.084610  0.150080  0.632360  1.0  -0.6029
  O  O197  1  0.869970  0.033620  0.574700  1.0  -0.5899
  O  O198  1  0.877140  0.814280  0.593330  1.0  -0.6242
  O  O199  1  0.101050  0.926690  0.613070  1.0  -0.8017
  O  O200  1  0.053660  0.767640  0.561250  1.0  -0.6021
  O  O201  1  0.291910  0.901190  0.671330  1.0  -0.5983
  O  O202  1  0.467180  0.937310  0.025900  1.0  -0.6002
  O  O203  1  0.544760  0.938170  0.181110  1.0  -0.6077
  O  O204  1  0.185340  0.951510  0.130860  1.0  -0.6127
  O  O205  1  0.415390  0.849920  0.132360  1.0  -0.6032
  O  O206  1  0.630030  0.966380  0.074700  1.0  -0.5896
  O  O207  1  0.622860  0.185720  0.093330  1.0  -0.6255
  O  O208  1  0.398950  0.073310  0.113070  1.0  -0.8021
  O  O209  1  0.446340  0.232360  0.061250  1.0  -0.6019
  O  O210  1  0.208090  0.098810  0.171330  1.0  -0.5983
  O  O211  1  0.967180  0.562690  0.974100  1.0  -0.6003
  O  O212  1  0.044760  0.561830  0.818890  1.0  -0.6069
  O  O213  1  0.685340  0.548490  0.869140  1.0  -0.6147
  O  O214  1  0.915390  0.650080  0.867640  1.0  -0.6028
  O  O215  1  0.130030  0.533620  0.925300  1.0  -0.5872
  O  O216  1  0.122860  0.314280  0.906670  1.0  -0.6237
  O  O217  1  0.898950  0.426690  0.886930  1.0  -0.8024
  O  O218  1  0.946340  0.267640  0.938750  1.0  -0.6021
  O  O219  1  0.708090  0.401190  0.828670  1.0  -0.5969
  O  O220  1  0.532820  0.437310  0.474100  1.0  -0.6007
  O  O221  1  0.455240  0.438170  0.318890  1.0  -0.6075
  O  O222  1  0.814660  0.451510  0.369140  1.0  -0.6155
  O  O223  1  0.584610  0.349920  0.367640  1.0  -0.603
  O  O224  1  0.369970  0.466380  0.425300  1.0  -0.5877
  O  O225  1  0.377140  0.685720  0.406670  1.0  -0.6244
  O  O226  1  0.601050  0.573310  0.386930  1.0  -0.8012
  O  O227  1  0.553660  0.732360  0.438750  1.0  -0.6024
  O  O228  1  0.791910  0.598810  0.328670  1.0  -0.5983
