# generated using pymatgen
data_AgH12C22SN4(OF)3
_symmetry_space_group_name_H-M   'P 1'
_cell_length_a   10.41000000
_cell_length_b   13.12600000
_cell_length_c   19.28200000
_cell_angle_alpha   86.69200000
_cell_angle_beta   78.25600000
_cell_angle_gamma   76.86700000
_symmetry_Int_Tables_number   1
_chemical_formula_structural   AgH12C22SN4(OF)3
_chemical_formula_sum   'Ag4 H48 C88 S4 N16 O12 F12'
_cell_volume   2511.92188613
_cell_formula_units_Z   4
loop_
 _symmetry_equiv_pos_site_id
 _symmetry_equiv_pos_as_xyz
  1  'x, y, z'
loop_
 _atom_site_type_symbol
 _atom_site_label
 _atom_site_symmetry_multiplicity
 _atom_site_fract_x
 _atom_site_fract_y
 _atom_site_fract_z
 _atom_site_occupancy
 _atom_site_charge
  Ag  Ag1  1  0.089140  0.185520  0.616850  1.0  0.3767
  Ag  Ag2  1  0.280390  0.371870  0.148380  1.0  0.4054
  Ag  Ag3  1  0.910860  0.814480  0.383150  1.0  0.3768
  Ag  Ag4  1  0.719610  0.628130  0.851620  1.0  0.4069
  H  H5  1  0.994500  0.205200  0.781700  1.0  0.2953
  H  H6  1  0.364800  0.078600  0.664200  1.0  0.3185
  H  H7  1  0.079200  0.610000  0.734600  1.0  0.1355
  H  H8  1  0.010700  0.644100  0.864300  1.0  0.1226
  H  H9  1  0.931700  0.500800  0.924000  1.0  0.126
  H  H10  1  0.713400  0.399900  0.913800  1.0  0.1063
  H  H11  1  0.701600  0.168000  0.059300  1.0  0.1349
  H  H12  1  0.904900  0.077900  0.999300  1.0  0.1113
  H  H13  1  0.013700  0.147400  0.898300  1.0  0.114
  H  H14  1  0.319000  0.329700  0.631200  1.0  0.1115
  H  H15  1  0.427700  0.387700  0.525200  1.0  0.1183
  H  H16  1  0.313800  0.525800  0.465200  1.0  0.1134
  H  H17  1  0.987000  0.543700  0.616500  1.0  0.1067
  H  H18  1  0.576600  0.204500  0.389200  1.0  0.135
  H  H19  1  0.780100  0.231800  0.426200  1.0  0.1228
  H  H20  1  0.762900  0.201200  0.555700  1.0  0.1359
  H  H21  1  0.547300  0.958800  0.703400  1.0  0.1252
  H  H22  1  0.753000  0.043400  0.835700  1.0  0.1296
  H  H23  1  0.750900  0.201300  0.776300  1.0  0.1143
  H  H24  1  0.639300  0.240200  0.681900  1.0  0.1055
  H  H25  1  0.337800  0.287300  0.406100  1.0  0.1003
  H  H26  1  0.200800  0.303900  0.325200  1.0  0.1255
  H  H27  1  0.071000  0.182900  0.324400  1.0  0.1136
  H  H28  1  0.221100  0.027200  0.486500  1.0  0.1189
  H  H29  1  0.005500  0.794800  0.218300  1.0  0.2943
  H  H30  1  0.635200  0.921400  0.335800  1.0  0.3161
  H  H31  1  0.920800  0.390000  0.265400  1.0  0.1359
  H  H32  1  0.989300  0.355900  0.135700  1.0  0.1227
  H  H33  1  0.068300  0.499200  0.076000  1.0  0.1271
  H  H34  1  0.286600  0.600100  0.086200  1.0  0.1065
  H  H35  1  0.298400  0.832000  0.940700  1.0  0.1349
  H  H36  1  0.095100  0.922100  0.000700  1.0  0.1122
  H  H37  1  0.986300  0.852600  0.101700  1.0  0.1136
  H  H38  1  0.681000  0.670300  0.368800  1.0  0.1105
  H  H39  1  0.572300  0.612300  0.474800  1.0  0.1181
  H  H40  1  0.686200  0.474200  0.534800  1.0  0.114
  H  H41  1  0.013000  0.456300  0.383500  1.0  0.1066
  H  H42  1  0.423400  0.795500  0.610800  1.0  0.135
  H  H43  1  0.219900  0.768200  0.573800  1.0  0.1231
  H  H44  1  0.237100  0.798800  0.444300  1.0  0.1364
  H  H45  1  0.452700  0.041200  0.296600  1.0  0.1241
  H  H46  1  0.247000  0.956600  0.164300  1.0  0.1296
  H  H47  1  0.249100  0.798700  0.223700  1.0  0.1136
  H  H48  1  0.360700  0.759800  0.318100  1.0  0.1051
  H  H49  1  0.662200  0.712700  0.593900  1.0  0.1005
  H  H50  1  0.799200  0.696100  0.674800  1.0  0.1256
  H  H51  1  0.929000  0.817100  0.675600  1.0  0.1137
  H  H52  1  0.778900  0.972800  0.513500  1.0  0.1183
  C  C53  1  0.027100  0.467300  0.760800  1.0  0.0421
  C  C54  1  0.037400  0.569000  0.769000  1.0  -0.0572
  C  C55  1  0.973300  0.599200  0.838600  1.0  -0.1506
  C  C56  1  0.922000  0.515900  0.874800  1.0  -0.1059
  C  C57  1  0.957300  0.432600  0.826500  1.0  0.0565
  C  C58  1  0.944400  0.330600  0.833500  1.0  0.1797
  C  C59  1  0.876400  0.282300  0.897400  1.0  0.009
  C  C60  1  0.753200  0.335900  0.931900  1.0  -0.1535
  C  C61  1  0.687300  0.295000  0.993900  1.0  0.0071
  C  C62  1  0.560200  0.349500  0.031800  1.0  0.335
  C  C63  1  0.745300  0.196800  0.018600  1.0  -0.1116
  C  C64  1  0.866100  0.143300  0.982800  1.0  -0.0812
  C  C65  1  0.931500  0.185100  0.922400  1.0  -0.1272
  C  C66  1  0.074500  0.397500  0.704700  1.0  0.2156
  C  C67  1  0.142100  0.430100  0.634400  1.0  -0.0241
  C  C68  1  0.273300  0.384700  0.606800  1.0  -0.0208
  C  C69  1  0.338600  0.419200  0.543600  1.0  -0.1133
  C  C70  1  0.270000  0.501300  0.507600  1.0  -0.018
  C  C71  1  0.137100  0.547100  0.534200  1.0  -0.0788
  C  C72  1  0.067700  0.631000  0.495500  1.0  0.3821
  C  C73  1  0.075600  0.511800  0.597700  1.0  -0.0836
  C  C74  1  0.378300  0.146700  0.509300  1.0  0.1985
  C  C75  1  0.508300  0.168700  0.495900  1.0  -0.0129
  C  C76  1  0.593400  0.197200  0.435000  1.0  -0.0838
  C  C77  1  0.707700  0.212200  0.456500  1.0  -0.0587
  C  C78  1  0.699800  0.194300  0.529400  1.0  -0.0913
  C  C79  1  0.577200  0.163600  0.555000  1.0  -0.0084
  C  C80  1  0.519500  0.125900  0.619900  1.0  0.2254
  C  C81  1  0.582900  0.103200  0.682000  1.0  -0.0211
  C  C82  1  0.588000  0.008200  0.717500  1.0  -0.1853
  C  C83  1  0.653300  0.986700  0.773700  1.0  0.0092
  C  C84  1  0.660400  0.887000  0.807800  1.0  0.391
  C  C85  1  0.711700  0.058600  0.796700  1.0  -0.1148
  C  C86  1  0.709100  0.152800  0.762000  1.0  -0.0941
  C  C87  1  0.643000  0.175600  0.704900  1.0  -0.0892
  C  C88  1  0.293800  0.156100  0.455600  1.0  -0.0494
  C  C89  1  0.286000  0.238200  0.406100  1.0  -0.111
  C  C90  1  0.204300  0.248400  0.357500  1.0  -0.0929
  C  C91  1  0.127500  0.176100  0.356900  1.0  -0.0601
  C  C92  1  0.134600  0.093000  0.404700  1.0  -0.0682
  C  C93  1  0.060400  0.012800  0.400000  1.0  0.3655
  C  C94  1  0.217300  0.082900  0.454300  1.0  -0.1301
  C  C95  1  0.522000  0.480500  0.274500  1.0  0.4936
  C  C96  1  0.972900  0.532700  0.239200  1.0  0.0422
  C  C97  1  0.962600  0.431000  0.231000  1.0  -0.058
  C  C98  1  0.026700  0.400800  0.161400  1.0  -0.1508
  C  C99  1  0.078000  0.484100  0.125200  1.0  -0.1052
  C  C100  1  0.042700  0.567400  0.173500  1.0  0.057
  C  C101  1  0.055600  0.669400  0.166500  1.0  0.1801
  C  C102  1  0.123600  0.717700  0.102600  1.0  0.0099
  C  C103  1  0.246800  0.664100  0.068100  1.0  -0.1537
  C  C104  1  0.312700  0.705000  0.006100  1.0  0.0052
  C  C105  1  0.439800  0.650500  0.968200  1.0  0.3359
  C  C106  1  0.254700  0.803200  0.981400  1.0  -0.1119
  C  C107  1  0.133900  0.856700  0.017200  1.0  -0.0813
  C  C108  1  0.068500  0.814900  0.077600  1.0  -0.1273
  C  C109  1  0.925500  0.602500  0.295300  1.0  0.2143
  C  C110  1  0.857900  0.569900  0.365600  1.0  -0.0254
  C  C111  1  0.726700  0.615300  0.393200  1.0  -0.021
  C  C112  1  0.661400  0.580800  0.456400  1.0  -0.1136
  C  C113  1  0.730000  0.498700  0.492400  1.0  -0.0159
  C  C114  1  0.862900  0.452900  0.465800  1.0  -0.0804
  C  C115  1  0.932300  0.369000  0.504500  1.0  0.3808
  C  C116  1  0.924400  0.488200  0.402300  1.0  -0.0838
  C  C117  1  0.621700  0.853300  0.490700  1.0  0.1991
  C  C118  1  0.491700  0.831300  0.504100  1.0  -0.0125
  C  C119  1  0.406600  0.802800  0.565000  1.0  -0.0828
  C  C120  1  0.292300  0.787800  0.543500  1.0  -0.059
  C  C121  1  0.300200  0.805700  0.470600  1.0  -0.0914
  C  C122  1  0.422800  0.836400  0.445000  1.0  -0.0075
  C  C123  1  0.480500  0.874100  0.380100  1.0  0.2254
  C  C124  1  0.417100  0.896800  0.318000  1.0  -0.0212
  C  C125  1  0.412000  0.991800  0.282500  1.0  -0.1822
  C  C126  1  0.346700  0.013300  0.226300  1.0  0.0094
  C  C127  1  0.339600  0.113000  0.192200  1.0  0.3905
  C  C128  1  0.288300  0.941400  0.203300  1.0  -0.1123
  C  C129  1  0.290900  0.847200  0.238000  1.0  -0.0952
  C  C130  1  0.357000  0.824400  0.295100  1.0  -0.0882
  C  C131  1  0.706200  0.843900  0.544400  1.0  -0.0483
  C  C132  1  0.714000  0.761800  0.593900  1.0  -0.1091
  C  C133  1  0.795700  0.751600  0.642500  1.0  -0.0934
  C  C134  1  0.872500  0.823900  0.643100  1.0  -0.0593
  C  C135  1  0.865400  0.907000  0.595300  1.0  -0.0655
  C  C136  1  0.939600  0.987200  0.600000  1.0  0.3638
  C  C137  1  0.782700  0.917100  0.545700  1.0  -0.1304
  C  C138  1  0.478000  0.519500  0.725500  1.0  0.4961
  C  C139  1  0.147100  0.858200  0.782200  1.0  0.4558
  C  C140  1  0.852900  0.141800  0.217800  1.0  0.4552
  S  S141  1  0.341600  0.521100  0.271440  1.0  1.2671
  S  S142  1  0.658400  0.478900  0.728560  1.0  1.2665
  S  S143  1  0.169800  0.984610  0.787660  1.0  1.1703
  S  S144  1  0.830200  0.015390  0.212340  1.0  1.1706
  N  N145  1  0.000000  0.269600  0.776600  1.0  -0.1683
  N  N146  1  0.064200  0.297800  0.711600  1.0  -0.2104
  N  N147  1  0.011800  0.696000  0.464300  1.0  -0.4648
  N  N148  1  0.459800  0.390800  0.063200  1.0  -0.4707
  N  N149  1  0.399100  0.103600  0.624200  1.0  -0.167
  N  N150  1  0.324300  0.115800  0.572900  1.0  -0.2399
  N  N151  1  0.007200  0.949700  0.395900  1.0  -0.4763
  N  N152  1  0.667000  0.804200  0.832100  1.0  -0.4971
  N  N153  1  0.000000  0.730400  0.223400  1.0  -0.1676
  N  N154  1  0.935800  0.702200  0.288400  1.0  -0.2088
  N  N155  1  0.988200  0.304000  0.535700  1.0  -0.4617
  N  N156  1  0.540200  0.609200  0.936800  1.0  -0.4694
  N  N157  1  0.600900  0.896400  0.375800  1.0  -0.1663
  N  N158  1  0.675700  0.884200  0.427100  1.0  -0.2382
  N  N159  1  0.992800  0.050300  0.604100  1.0  -0.4783
  N  N160  1  0.333000  0.195800  0.167900  1.0  -0.4966
  O  O161  1  0.343400  0.590100  0.213200  1.0  -0.5941
  O  O162  1  0.279900  0.568700  0.336000  1.0  -0.5544
  O  O163  1  0.307100  0.427900  0.258500  1.0  -0.6335
  O  O164  1  0.656600  0.409900  0.786800  1.0  -0.5925
  O  O165  1  0.720100  0.431300  0.664000  1.0  -0.5551
  O  O166  1  0.692900  0.572100  0.741500  1.0  -0.6335
  O  O167  1  0.182700  0.985200  0.862900  1.0  -0.6528
  O  O168  1  0.049900  0.049300  0.769600  1.0  -0.5649
  O  O169  1  0.285000  0.989900  0.737000  1.0  -0.5918
  O  O170  1  0.817300  0.014800  0.137100  1.0  -0.6521
  O  O171  1  0.950100  0.950700  0.230400  1.0  -0.5646
  O  O172  1  0.715000  0.010100  0.263000  1.0  -0.5911
  F  F173  1  0.563000  0.560300  0.286200  1.0  -0.1979
  F  F174  1  0.526800  0.418400  0.332200  1.0  -0.2014
  F  F175  1  0.586300  0.431800  0.222100  1.0  -0.1429
  F  F176  1  0.437000  0.439700  0.713800  1.0  -0.1974
  F  F177  1  0.473200  0.581600  0.667800  1.0  -0.2031
  F  F178  1  0.413700  0.568200  0.777900  1.0  -0.1425
  F  F179  1  0.139700  0.842000  0.713700  1.0  -0.2142
  F  F180  1  0.033900  0.847300  0.819600  1.0  -0.22
  F  F181  1  0.237900  0.787300  0.801400  1.0  -0.1763
  F  F182  1  0.860300  0.158000  0.286300  1.0  -0.2136
  F  F183  1  0.966100  0.152700  0.180400  1.0  -0.2179
  F  F184  1  0.762100  0.212700  0.198600  1.0  -0.1776
