# generated using pymatgen
data_CoH8C12O5
_symmetry_space_group_name_H-M   'P 1'
_cell_length_a   8.00200000
_cell_length_b   9.09100000
_cell_length_c   12.93500000
_cell_angle_alpha   107.80500000
_cell_angle_beta   100.04200000
_cell_angle_gamma   104.10600000
_symmetry_Int_Tables_number   1
_chemical_formula_structural   CoH8C12O5
_chemical_formula_sum   'Co2 H16 C24 O10'
_cell_volume   836.72858903
_cell_formula_units_Z   2
loop_
 _symmetry_equiv_pos_site_id
 _symmetry_equiv_pos_as_xyz
  1  'x, y, z'
loop_
 _atom_site_type_symbol
 _atom_site_label
 _atom_site_symmetry_multiplicity
 _atom_site_fract_x
 _atom_site_fract_y
 _atom_site_fract_z
 _atom_site_occupancy
 _atom_site_charge
  Co  Co1  1  0.249730  0.502720  0.499890  1.0  0.9822
  Co  Co2  1  0.749740  0.502500  0.499790  1.0  0.9416
  H  H3  1  0.574100  0.681600  0.586000  1.0  0.4377
  H  H4  1  0.538100  0.663800  0.475800  1.0  0.4408
  H  H5  1  0.930300  0.328900  0.412100  1.0  0.4468
  H  H6  1  0.964900  0.342600  0.521300  1.0  0.4426
  H  H7  1  0.630900  0.994800  0.914500  1.0  0.1016
  H  H8  1  0.597500  0.135900  0.090500  1.0  0.1224
  H  H9  1  0.101300  0.782800  0.797600  1.0  0.1004
  H  H10  1  0.401200  0.229900  0.204300  1.0  0.1143
  H  H11  1  0.869900  0.022200  0.078400  1.0  0.097
  H  H12  1  0.899600  0.866800  0.918300  1.0  0.0995
  H  H13  1  0.950400  0.266300  0.841400  1.0  0.1142
  H  H14  1  0.923500  0.297300  0.017100  1.0  0.1108
  H  H15  1  0.678100  0.580800  0.821900  1.0  0.1144
  H  H16  1  0.804600  0.417200  0.176600  1.0  0.1007
  H  H17  1  0.548400  0.737000  0.163300  1.0  0.115
  H  H18  1  0.574300  0.710100  0.985200  1.0  0.1202
  C  C19  1  0.397900  0.771200  0.729310  1.0  0.7014
  C  C20  1  0.368800  0.870560  0.839820  1.0  -0.1446
  C  C21  1  0.517400  0.980300  0.926060  1.0  -0.0196
  C  C22  1  0.497900  0.069600  0.030450  1.0  -0.1262
  C  C23  1  0.326000  0.056260  0.041700  1.0  0.0116
  C  C24  1  0.175100  0.945800  0.952890  1.0  0.0336
  C  C25  1  0.200400  0.856200  0.855560  1.0  -0.0607
  C  C26  1  0.301900  0.156000  0.146740  1.0  -0.0635
  C  C27  1  0.135100  0.141200  0.160720  1.0  -0.1316
  C  C28  1  0.984300  0.030100  0.069700  1.0  -0.0623
  C  C29  1  0.002000  0.938700  0.974250  1.0  -0.1264
  C  C30  1  0.105500  0.232000  0.267280  1.0  0.7042
  C  C31  1  0.837800  0.406100  0.697670  1.0  0.6937
  C  C32  1  0.821100  0.423600  0.811640  1.0  -0.1409
  C  C33  1  0.891600  0.337200  0.873960  1.0  -0.0338
  C  C34  1  0.875500  0.355400  0.978840  1.0  -0.1331
  C  C35  1  0.788700  0.459200  0.030470  1.0  0.0594
  C  C36  1  0.715700  0.545700  0.970990  1.0  0.0334
  C  C37  1  0.729700  0.525800  0.861400  1.0  -0.0778
  C  C38  1  0.763200  0.478100  0.138100  1.0  -0.0845
  C  C39  1  0.681000  0.581500  0.186510  1.0  -0.1453
  C  C40  1  0.608000  0.668100  0.129110  1.0  -0.0395
  C  C41  1  0.623300  0.652300  0.023330  1.0  -0.1553
  C  C42  1  0.663500  0.599000  0.305600  1.0  0.6986
  O  O43  1  0.260020  0.675530  0.652190  1.0  -0.6229
  O  O44  1  0.555580  0.798710  0.724010  1.0  -0.5718
  O  O45  1  0.240060  0.331540  0.346420  1.0  -0.6367
  O  O46  1  0.950800  0.214400  0.275920  1.0  -0.581
  O  O47  1  0.792200  0.506550  0.657410  1.0  -0.608
  O  O48  1  0.901000  0.300250  0.646470  1.0  -0.573
  O  O49  1  0.713500  0.504970  0.342570  1.0  -0.5779
  O  O50  1  0.602700  0.707650  0.353010  1.0  -0.5895
  O  O51  1  0.535620  0.610420  0.519530  1.0  -0.8194
  O  O52  1  0.968110  0.398250  0.479110  1.0  -0.8125
