# generated using pymatgen
data_Co5H78C92(N4O13)2
_symmetry_space_group_name_H-M   'P 1'
_cell_length_a   24.33450000
_cell_length_b   24.33450000
_cell_length_c   24.33450000
_cell_angle_alpha   105.91900000
_cell_angle_beta   105.91900000
_cell_angle_gamma   105.91900000
_symmetry_Int_Tables_number   1
_chemical_formula_structural   Co5H78C92(N4O13)2
_chemical_formula_sum   'Co15 H234 C276 N24 O78'
_cell_volume   12337.67510091
_cell_formula_units_Z   3
loop_
 _symmetry_equiv_pos_site_id
 _symmetry_equiv_pos_as_xyz
  1  'x, y, z'
loop_
 _atom_site_type_symbol
 _atom_site_label
 _atom_site_symmetry_multiplicity
 _atom_site_fract_x
 _atom_site_fract_y
 _atom_site_fract_z
 _atom_site_occupancy
 _atom_site_charge
  Co  Co1  1  0.384120  0.530480  0.047450  1.0  0.9552
  Co  Co2  1  0.020100  0.055280  0.486600  1.0  0.9755
  Co  Co3  1  0.047450  0.384120  0.530480  1.0  0.9524
  Co  Co4  1  0.486600  0.020100  0.055280  1.0  0.9757
  Co  Co5  1  0.530480  0.047450  0.384120  1.0  0.9556
  Co  Co6  1  0.055280  0.486600  0.020100  1.0  0.9757
  Co  Co7  1  0.615880  0.469520  0.952550  1.0  0.9536
  Co  Co8  1  0.979900  0.944720  0.513400  1.0  0.9762
  Co  Co9  1  0.952550  0.615880  0.469520  1.0  0.9542
  Co  Co10  1  0.513400  0.979900  0.944720  1.0  0.9752
  Co  Co11  1  0.469520  0.952550  0.615880  1.0  0.9553
  Co  Co12  1  0.944720  0.513400  0.979900  1.0  0.9762
  Co  Co13  1  0.500000  0.500000  0.000000  1.0  1.0745
  Co  Co14  1  0.000000  0.500000  0.500000  1.0  1.0745
  Co  Co15  1  0.500000  0.000000  0.500000  1.0  1.0745
  H  H16  1  0.390900  0.538200  0.153700  1.0  0.152
  H  H17  1  0.399700  0.253000  0.908100  1.0  0.1234
  H  H18  1  0.426700  0.357200  0.966200  1.0  0.1099
  H  H19  1  0.248000  0.336500  0.894400  1.0  0.0969
  H  H20  1  0.220800  0.233000  0.836400  1.0  0.1386
  H  H21  1  0.267200  0.203600  0.745000  1.0  0.0991
  H  H22  1  0.185200  0.154400  0.648800  1.0  0.1069
  H  H23  1  0.127700  0.004700  0.692800  1.0  0.1165
  H  H24  1  0.210500  0.055700  0.788800  1.0  0.1257
  H  H25  1  0.335900  0.091900  0.786800  1.0  0.1199
  H  H26  1  0.398500  0.046800  0.834700  1.0  0.1149
  H  H27  1  0.382400  0.124900  0.995600  1.0  0.1105
  H  H28  1  0.321400  0.171600  0.949600  1.0  0.14
  H  H29  1  0.307100  0.637000  0.826100  1.0  0.1218
  H  H30  1  0.326900  0.598300  0.903200  1.0  0.115
  H  H31  1  0.492000  0.605800  0.891700  1.0  0.1159
  H  H32  1  0.469500  0.642800  0.811200  1.0  0.124
  H  H33  1  0.453800  0.752400  0.866400  1.0  0.1079
  H  H34  1  0.506700  0.855300  0.887600  1.0  0.1139
  H  H35  1  0.427600  0.825700  0.706800  1.0  0.1063
  H  H36  1  0.377200  0.722300  0.685700  1.0  0.1128
  H  H37  1  0.284400  0.703900  0.713800  1.0  0.11
  H  H38  1  0.182400  0.643800  0.646400  1.0  0.1128
  H  H39  1  0.218000  0.488800  0.633200  1.0  0.1003
  H  H40  1  0.321900  0.548700  0.696200  1.0  0.1275
  H  H41  1  0.315900  0.416000  0.086600  1.0  0.1069
  H  H42  1  0.289400  0.469700  0.098700  1.0  0.1287
  H  H43  1  0.326100  0.455800  0.155400  1.0  0.101
  H  H44  1  0.441100  0.487300  0.188900  1.0  0.1081
  H  H45  1  0.469800  0.500800  0.139800  1.0  0.1129
  H  H46  1  0.417800  0.434800  0.121900  1.0  0.1049
  H  H47  1  0.153700  0.390900  0.538200  1.0  0.1536
  H  H48  1  0.908100  0.399700  0.253000  1.0  0.1221
  H  H49  1  0.966200  0.426700  0.357200  1.0  0.1113
  H  H50  1  0.894400  0.248000  0.336500  1.0  0.0971
  H  H51  1  0.836400  0.220800  0.233000  1.0  0.1373
  H  H52  1  0.745000  0.267200  0.203600  1.0  0.0985
  H  H53  1  0.648800  0.185200  0.154400  1.0  0.1063
  H  H54  1  0.692800  0.127700  0.004700  1.0  0.1147
  H  H55  1  0.788800  0.210500  0.055700  1.0  0.1246
  H  H56  1  0.786800  0.335900  0.091900  1.0  0.1195
  H  H57  1  0.834700  0.398500  0.046800  1.0  0.115
  H  H58  1  0.995600  0.382400  0.124900  1.0  0.1115
  H  H59  1  0.949600  0.321400  0.171600  1.0  0.1378
  H  H60  1  0.826100  0.307100  0.637000  1.0  0.1198
  H  H61  1  0.903200  0.326900  0.598300  1.0  0.1145
  H  H62  1  0.891700  0.492000  0.605800  1.0  0.1156
  H  H63  1  0.811200  0.469500  0.642800  1.0  0.124
  H  H64  1  0.866400  0.453800  0.752400  1.0  0.1078
  H  H65  1  0.887600  0.506700  0.855300  1.0  0.1152
  H  H66  1  0.706800  0.427600  0.825700  1.0  0.1058
  H  H67  1  0.685700  0.377200  0.722300  1.0  0.1105
  H  H68  1  0.713800  0.284400  0.703900  1.0  0.1088
  H  H69  1  0.646400  0.182400  0.643800  1.0  0.1148
  H  H70  1  0.633200  0.218000  0.488800  1.0  0.0999
  H  H71  1  0.696200  0.321900  0.548700  1.0  0.1256
  H  H72  1  0.086600  0.315900  0.416000  1.0  0.1099
  H  H73  1  0.098700  0.289400  0.469700  1.0  0.1238
  H  H74  1  0.155400  0.326100  0.455800  1.0  0.1009
  H  H75  1  0.188900  0.441100  0.487300  1.0  0.1072
  H  H76  1  0.139800  0.469800  0.500800  1.0  0.1161
  H  H77  1  0.121900  0.417800  0.434800  1.0  0.1062
  H  H78  1  0.538200  0.153700  0.390900  1.0  0.1517
  H  H79  1  0.253000  0.908100  0.399700  1.0  0.1225
  H  H80  1  0.357200  0.966200  0.426700  1.0  0.1103
  H  H81  1  0.336500  0.894400  0.248000  1.0  0.0978
  H  H82  1  0.233000  0.836400  0.220800  1.0  0.139
  H  H83  1  0.203600  0.745000  0.267200  1.0  0.0986
  H  H84  1  0.154400  0.648800  0.185200  1.0  0.1075
  H  H85  1  0.004700  0.692800  0.127700  1.0  0.1148
  H  H86  1  0.055700  0.788800  0.210500  1.0  0.1264
  H  H87  1  0.091900  0.786800  0.335900  1.0  0.1202
  H  H88  1  0.046800  0.834700  0.398500  1.0  0.1158
  H  H89  1  0.124900  0.995600  0.382400  1.0  0.1123
  H  H90  1  0.171600  0.949600  0.321400  1.0  0.14
  H  H91  1  0.637000  0.826100  0.307100  1.0  0.1197
  H  H92  1  0.598300  0.903200  0.326900  1.0  0.1147
  H  H93  1  0.605800  0.891700  0.492000  1.0  0.1169
  H  H94  1  0.642800  0.811200  0.469500  1.0  0.1239
  H  H95  1  0.752400  0.866400  0.453800  1.0  0.1073
  H  H96  1  0.855300  0.887600  0.506700  1.0  0.1144
  H  H97  1  0.825700  0.706800  0.427600  1.0  0.1065
  H  H98  1  0.722300  0.685700  0.377200  1.0  0.1115
  H  H99  1  0.703900  0.713800  0.284400  1.0  0.1078
  H  H100  1  0.643800  0.646400  0.182400  1.0  0.1125
  H  H101  1  0.488800  0.633200  0.218000  1.0  0.1009
  H  H102  1  0.548700  0.696200  0.321900  1.0  0.1267
  H  H103  1  0.416000  0.086600  0.315900  1.0  0.1065
  H  H104  1  0.469700  0.098700  0.289400  1.0  0.1298
  H  H105  1  0.455800  0.155400  0.326100  1.0  0.1001
  H  H106  1  0.487300  0.188900  0.441100  1.0  0.1047
  H  H107  1  0.500800  0.139800  0.469800  1.0  0.1116
  H  H108  1  0.434800  0.121900  0.417800  1.0  0.1062
  H  H109  1  0.609100  0.461800  0.846300  1.0  0.1538
  H  H110  1  0.600300  0.747000  0.091900  1.0  0.1229
  H  H111  1  0.573300  0.642800  0.033800  1.0  0.11
  H  H112  1  0.752000  0.663500  0.105600  1.0  0.0973
  H  H113  1  0.779200  0.767000  0.163600  1.0  0.1388
  H  H114  1  0.732800  0.796400  0.255000  1.0  0.0987
  H  H115  1  0.814800  0.845600  0.351200  1.0  0.1074
  H  H116  1  0.872300  0.995300  0.307200  1.0  0.1154
  H  H117  1  0.789500  0.944300  0.211200  1.0  0.1253
  H  H118  1  0.664100  0.908100  0.213200  1.0  0.1204
  H  H119  1  0.601500  0.953200  0.165300  1.0  0.1153
  H  H120  1  0.617600  0.875100  0.004400  1.0  0.111
  H  H121  1  0.678600  0.828400  0.050400  1.0  0.1397
  H  H122  1  0.692900  0.363000  0.173900  1.0  0.1226
  H  H123  1  0.673100  0.401700  0.096800  1.0  0.1148
  H  H124  1  0.508000  0.394200  0.108300  1.0  0.1149
  H  H125  1  0.530500  0.357200  0.188800  1.0  0.1246
  H  H126  1  0.546200  0.247600  0.133600  1.0  0.1082
  H  H127  1  0.493300  0.144700  0.112400  1.0  0.1139
  H  H128  1  0.572400  0.174300  0.293200  1.0  0.1063
  H  H129  1  0.622800  0.277700  0.314300  1.0  0.1122
  H  H130  1  0.715600  0.296100  0.286200  1.0  0.1118
  H  H131  1  0.817600  0.356200  0.353600  1.0  0.113
  H  H132  1  0.782000  0.511200  0.366800  1.0  0.1007
  H  H133  1  0.678100  0.451300  0.303800  1.0  0.1277
  H  H134  1  0.684100  0.584000  0.913400  1.0  0.1089
  H  H135  1  0.710600  0.530300  0.901300  1.0  0.1274
  H  H136  1  0.673900  0.544200  0.844600  1.0  0.102
  H  H137  1  0.558900  0.512700  0.811100  1.0  0.1073
  H  H138  1  0.530200  0.499200  0.860200  1.0  0.1128
  H  H139  1  0.582200  0.565200  0.878100  1.0  0.106
  H  H140  1  0.846300  0.609100  0.461800  1.0  0.1551
  H  H141  1  0.091900  0.600300  0.747000  1.0  0.1221
  H  H142  1  0.033800  0.573300  0.642800  1.0  0.1111
  H  H143  1  0.105600  0.752000  0.663500  1.0  0.0965
  H  H144  1  0.163600  0.779200  0.767000  1.0  0.137
  H  H145  1  0.255000  0.732800  0.796400  1.0  0.0984
  H  H146  1  0.351200  0.814800  0.845600  1.0  0.1058
  H  H147  1  0.307200  0.872300  0.995300  1.0  0.1145
  H  H148  1  0.211200  0.789500  0.944300  1.0  0.1246
  H  H149  1  0.213200  0.664100  0.908100  1.0  0.1199
  H  H150  1  0.165300  0.601500  0.953200  1.0  0.1149
  H  H151  1  0.004400  0.617600  0.875100  1.0  0.1112
  H  H152  1  0.050400  0.678600  0.828400  1.0  0.1389
  H  H153  1  0.173900  0.692900  0.363000  1.0  0.1202
  H  H154  1  0.096800  0.673100  0.401700  1.0  0.1148
  H  H155  1  0.108300  0.508000  0.394200  1.0  0.1146
  H  H156  1  0.188800  0.530500  0.357200  1.0  0.1238
  H  H157  1  0.133600  0.546200  0.247600  1.0  0.1078
  H  H158  1  0.112400  0.493300  0.144700  1.0  0.1154
  H  H159  1  0.293200  0.572400  0.174300  1.0  0.1057
  H  H160  1  0.314300  0.622800  0.277700  1.0  0.1105
  H  H161  1  0.286200  0.715600  0.296100  1.0  0.1096
  H  H162  1  0.353600  0.817600  0.356200  1.0  0.1139
  H  H163  1  0.366800  0.782000  0.511200  1.0  0.1001
  H  H164  1  0.303800  0.678100  0.451300  1.0  0.1257
  H  H165  1  0.913400  0.684100  0.584000  1.0  0.1081
  H  H166  1  0.901300  0.710600  0.530300  1.0  0.1276
  H  H167  1  0.844600  0.673900  0.544200  1.0  0.0996
  H  H168  1  0.811100  0.558900  0.512700  1.0  0.1055
  H  H169  1  0.860200  0.530200  0.499200  1.0  0.1145
  H  H170  1  0.878100  0.582200  0.565200  1.0  0.1067
  H  H171  1  0.461800  0.846300  0.609100  1.0  0.1543
  H  H172  1  0.747000  0.091900  0.600300  1.0  0.1231
  H  H173  1  0.642800  0.033800  0.573300  1.0  0.1103
  H  H174  1  0.663500  0.105600  0.752000  1.0  0.0982
  H  H175  1  0.767000  0.163600  0.779200  1.0  0.1385
  H  H176  1  0.796400  0.255000  0.732800  1.0  0.099
  H  H177  1  0.845600  0.351200  0.814800  1.0  0.1069
  H  H178  1  0.995300  0.307200  0.872300  1.0  0.1146
  H  H179  1  0.944300  0.211200  0.789500  1.0  0.1268
  H  H180  1  0.908100  0.213200  0.664100  1.0  0.1209
  H  H181  1  0.953200  0.165300  0.601500  1.0  0.1161
  H  H182  1  0.875100  0.004400  0.617600  1.0  0.1124
  H  H183  1  0.828400  0.050400  0.678600  1.0  0.14
  H  H184  1  0.363000  0.173900  0.692900  1.0  0.1189
  H  H185  1  0.401700  0.096800  0.673100  1.0  0.115
  H  H186  1  0.394200  0.108300  0.508000  1.0  0.1157
  H  H187  1  0.357200  0.188800  0.530500  1.0  0.1239
  H  H188  1  0.247600  0.133600  0.546200  1.0  0.1074
  H  H189  1  0.144700  0.112400  0.493300  1.0  0.1143
  H  H190  1  0.174300  0.293200  0.572400  1.0  0.1069
  H  H191  1  0.277700  0.314300  0.622800  1.0  0.1117
  H  H192  1  0.296100  0.286200  0.715600  1.0  0.1075
  H  H193  1  0.356200  0.353600  0.817600  1.0  0.112
  H  H194  1  0.511200  0.366800  0.782000  1.0  0.1017
  H  H195  1  0.451300  0.303800  0.678100  1.0  0.1263
  H  H196  1  0.584000  0.913400  0.684100  1.0  0.1075
  H  H197  1  0.530300  0.901300  0.710600  1.0  0.1299
  H  H198  1  0.544200  0.844600  0.673900  1.0  0.0996
  H  H199  1  0.512700  0.811100  0.558900  1.0  0.1064
  H  H200  1  0.499200  0.860200  0.530200  1.0  0.1115
  H  H201  1  0.565200  0.878100  0.582200  1.0  0.1064
  H  H202  1  0.803900  0.537400  0.023500  1.0  0.2408
  H  H203  1  0.788100  0.567600  0.076000  1.0  0.1969
  H  H204  1  0.871200  0.629300  0.032000  1.0  0.1064
  H  H205  1  0.810200  0.641100  0.034700  1.0  0.1088
  H  H206  1  0.868700  0.663600  0.097100  1.0  0.113
  H  H207  1  0.899200  0.602700  0.138300  1.0  0.1098
  H  H208  1  0.855200  0.534100  0.124600  1.0  0.1234
  H  H209  1  0.895300  0.545600  0.083500  1.0  0.1248
  H  H210  1  0.023500  0.803900  0.537400  1.0  0.2409
  H  H211  1  0.076000  0.788100  0.567600  1.0  0.1991
  H  H212  1  0.032000  0.871200  0.629300  1.0  0.1071
  H  H213  1  0.034700  0.810200  0.641100  1.0  0.112
  H  H214  1  0.097100  0.868700  0.663600  1.0  0.1115
  H  H215  1  0.138300  0.899200  0.602700  1.0  0.1089
  H  H216  1  0.124600  0.855200  0.534100  1.0  0.124
  H  H217  1  0.083500  0.895300  0.545600  1.0  0.127
  H  H218  1  0.537400  0.023500  0.803900  1.0  0.24
  H  H219  1  0.567600  0.076000  0.788100  1.0  0.1972
  H  H220  1  0.629300  0.032000  0.871200  1.0  0.1081
  H  H221  1  0.641100  0.034700  0.810200  1.0  0.113
  H  H222  1  0.663600  0.097100  0.868700  1.0  0.1144
  H  H223  1  0.602700  0.138300  0.899200  1.0  0.1065
  H  H224  1  0.534100  0.124600  0.855200  1.0  0.1226
  H  H225  1  0.545600  0.083500  0.895300  1.0  0.1242
  H  H226  1  0.196100  0.462600  0.976500  1.0  0.2416
  H  H227  1  0.211900  0.432400  0.924000  1.0  0.1972
  H  H228  1  0.128800  0.370700  0.968000  1.0  0.1058
  H  H229  1  0.189800  0.358900  0.965300  1.0  0.1062
  H  H230  1  0.131300  0.336400  0.902900  1.0  0.1123
  H  H231  1  0.100800  0.397300  0.861700  1.0  0.1097
  H  H232  1  0.144800  0.465900  0.875400  1.0  0.1215
  H  H233  1  0.104700  0.454400  0.916500  1.0  0.1228
  H  H234  1  0.976500  0.196100  0.462600  1.0  0.2411
  H  H235  1  0.924000  0.211900  0.432400  1.0  0.196
  H  H236  1  0.968000  0.128800  0.370700  1.0  0.104
  H  H237  1  0.965300  0.189800  0.358900  1.0  0.1116
  H  H238  1  0.902900  0.131300  0.336400  1.0  0.1116
  H  H239  1  0.861700  0.100800  0.397300  1.0  0.1091
  H  H240  1  0.875400  0.144800  0.465900  1.0  0.1238
  H  H241  1  0.916500  0.104700  0.454400  1.0  0.1254
  H  H242  1  0.462600  0.976500  0.196100  1.0  0.2425
  H  H243  1  0.432400  0.924000  0.211900  1.0  0.1967
  H  H244  1  0.370700  0.968000  0.128800  1.0  0.1086
  H  H245  1  0.358900  0.965300  0.189800  1.0  0.1118
  H  H246  1  0.336400  0.902900  0.131300  1.0  0.1126
  H  H247  1  0.397300  0.861700  0.100800  1.0  0.1051
  H  H248  1  0.465900  0.875400  0.144800  1.0  0.1207
  H  H249  1  0.454400  0.916500  0.104700  1.0  0.124
  C  C250  1  0.307420  0.232740  0.868480  1.0  0.1481
  C  C251  1  0.368550  0.270040  0.905890  1.0  -0.1675
  C  C252  1  0.384750  0.332160  0.940160  1.0  -0.0312
  C  C253  1  0.339460  0.357650  0.936380  1.0  -0.1658
  C  C254  1  0.278930  0.319650  0.897510  1.0  -0.0215
  C  C255  1  0.262350  0.257920  0.863230  1.0  -0.2458
  C  C256  1  0.244350  0.136020  0.776810  1.0  0.1642
  C  C257  1  0.238150  0.163540  0.734640  1.0  -0.1881
  C  C258  1  0.190210  0.133940  0.676760  1.0  -0.0588
  C  C259  1  0.150000  0.073890  0.660620  1.0  -0.1281
  C  C260  1  0.156280  0.045060  0.702970  1.0  -0.041
  C  C261  1  0.204620  0.076010  0.760510  1.0  -0.1798
  C  C262  1  0.325840  0.138350  0.863330  1.0  0.1484
  C  C263  1  0.346310  0.100130  0.829600  1.0  -0.1803
  C  C264  1  0.383000  0.072530  0.858070  1.0  -0.046
  C  C265  1  0.396600  0.082380  0.919280  1.0  -0.1021
  C  C266  1  0.373470  0.119090  0.953340  1.0  -0.0325
  C  C267  1  0.337720  0.147090  0.926500  1.0  -0.1565
  C  C268  1  0.355930  0.422570  0.975980  1.0  0.6252
  C  C269  1  0.095490  0.043050  0.600500  1.0  0.6955
  C  C270  1  0.435940  0.053650  0.950220  1.0  0.699
  C  C271  1  0.386420  0.642560  0.810700  1.0  0.1481
  C  C272  1  0.344220  0.630020  0.838830  1.0  -0.1273
  C  C273  1  0.356330  0.607610  0.884920  1.0  -0.0146
  C  C274  1  0.411100  0.598420  0.905070  1.0  -0.1186
  C  C275  1  0.454170  0.611630  0.878280  1.0  -0.0522
  C  C276  1  0.440720  0.633850  0.830150  1.0  -0.0876
  C  C277  1  0.407170  0.727010  0.774140  1.0  0.1651
  C  C278  1  0.447860  0.767400  0.833940  1.0  -0.0769
  C  C279  1  0.479490  0.828600  0.846620  1.0  -0.0399
  C  C280  1  0.471760  0.851420  0.800000  1.0  -0.1363
  C  C281  1  0.432840  0.810790  0.739450  1.0  -0.0871
  C  C282  1  0.402240  0.749730  0.727130  1.0  -0.2192
  C  C283  1  0.312400  0.632520  0.715450  1.0  0.1724
  C  C284  1  0.271000  0.660100  0.698100  1.0  -0.1286
  C  C285  1  0.210100  0.624310  0.657900  1.0  -0.0314
  C  C286  1  0.189550  0.560350  0.634530  1.0  -0.1403
  C  C287  1  0.231490  0.532520  0.649550  1.0  -0.0379
  C  C288  1  0.293170  0.567980  0.688280  1.0  -0.1877
  C  C289  1  0.423200  0.571670  0.954460  1.0  0.7032
  C  C290  1  0.502710  0.919790  0.814890  1.0  0.6778
  C  C291  1  0.124080  0.519440  0.592890  1.0  0.6653
  C  C292  1  0.323300  0.457140  0.114890  1.0  -0.1948
  C  C293  1  0.432040  0.479400  0.144960  1.0  -0.1852
  C  C294  1  0.868480  0.307420  0.232740  1.0  0.1485
  C  C295  1  0.905890  0.368550  0.270040  1.0  -0.1731
  C  C296  1  0.940160  0.384750  0.332160  1.0  -0.0351
  C  C297  1  0.936380  0.339460  0.357650  1.0  -0.1633
  C  C298  1  0.897510  0.278930  0.319650  1.0  -0.0218
  C  C299  1  0.863230  0.262350  0.257920  1.0  -0.2459
  C  C300  1  0.776810  0.244350  0.136020  1.0  0.1652
  C  C301  1  0.734640  0.238150  0.163540  1.0  -0.1895
  C  C302  1  0.676760  0.190210  0.133940  1.0  -0.0565
  C  C303  1  0.660620  0.150000  0.073890  1.0  -0.126
  C  C304  1  0.702970  0.156280  0.045060  1.0  -0.0389
  C  C305  1  0.760510  0.204620  0.076010  1.0  -0.1762
  C  C306  1  0.863330  0.325840  0.138350  1.0  0.1487
  C  C307  1  0.829600  0.346310  0.100130  1.0  -0.1845
  C  C308  1  0.858070  0.383000  0.072530  1.0  -0.0454
  C  C309  1  0.919280  0.396600  0.082380  1.0  -0.1047
  C  C310  1  0.953340  0.373470  0.119090  1.0  -0.0288
  C  C311  1  0.926500  0.337720  0.147090  1.0  -0.1528
  C  C312  1  0.975980  0.355930  0.422570  1.0  0.6261
  C  C313  1  0.600500  0.095490  0.043050  1.0  0.696
  C  C314  1  0.950220  0.435940  0.053650  1.0  0.697
  C  C315  1  0.810700  0.386420  0.642560  1.0  0.1506
  C  C316  1  0.838830  0.344220  0.630020  1.0  -0.1232
  C  C317  1  0.884920  0.356330  0.607610  1.0  -0.016
  C  C318  1  0.905070  0.411100  0.598420  1.0  -0.1166
  C  C319  1  0.878280  0.454170  0.611630  1.0  -0.0528
  C  C320  1  0.830150  0.440720  0.633850  1.0  -0.092
  C  C321  1  0.774140  0.407170  0.727010  1.0  0.1633
  C  C322  1  0.833940  0.447860  0.767400  1.0  -0.0768
  C  C323  1  0.846620  0.479490  0.828600  1.0  -0.036
  C  C324  1  0.800000  0.471760  0.851420  1.0  -0.1369
  C  C325  1  0.739450  0.432840  0.810790  1.0  -0.0846
  C  C326  1  0.727130  0.402240  0.749730  1.0  -0.2246
  C  C327  1  0.715450  0.312400  0.632520  1.0  0.1736
  C  C328  1  0.698100  0.271000  0.660100  1.0  -0.1262
  C  C329  1  0.657900  0.210100  0.624310  1.0  -0.0344
  C  C330  1  0.634530  0.189550  0.560350  1.0  -0.1386
  C  C331  1  0.649550  0.231490  0.532520  1.0  -0.0387
  C  C332  1  0.688280  0.293170  0.567980  1.0  -0.18
  C  C333  1  0.954460  0.423200  0.571670  1.0  0.7012
  C  C334  1  0.814890  0.502710  0.919790  1.0  0.677
  C  C335  1  0.592890  0.124080  0.519440  1.0  0.6696
  C  C336  1  0.114890  0.323300  0.457140  1.0  -0.1986
  C  C337  1  0.144960  0.432040  0.479400  1.0  -0.1874
  C  C338  1  0.232740  0.868480  0.307420  1.0  0.1476
  C  C339  1  0.270040  0.905890  0.368550  1.0  -0.1675
  C  C340  1  0.332160  0.940160  0.384750  1.0  -0.0339
  C  C341  1  0.357650  0.936380  0.339460  1.0  -0.1665
  C  C342  1  0.319650  0.897510  0.278930  1.0  -0.0225
  C  C343  1  0.257920  0.863230  0.262350  1.0  -0.2422
  C  C344  1  0.136020  0.776810  0.244350  1.0  0.164
  C  C345  1  0.163540  0.734640  0.238150  1.0  -0.1915
  C  C346  1  0.133940  0.676760  0.190210  1.0  -0.0551
  C  C347  1  0.073890  0.660620  0.150000  1.0  -0.1254
  C  C348  1  0.045060  0.702970  0.156280  1.0  -0.0389
  C  C349  1  0.076010  0.760510  0.204620  1.0  -0.1763
  C  C350  1  0.138350  0.863330  0.325840  1.0  0.1472
  C  C351  1  0.100130  0.829600  0.346310  1.0  -0.1852
  C  C352  1  0.072530  0.858070  0.383000  1.0  -0.0453
  C  C353  1  0.082380  0.919280  0.396600  1.0  -0.1026
  C  C354  1  0.119090  0.953340  0.373470  1.0  -0.0311
  C  C355  1  0.147090  0.926500  0.337720  1.0  -0.1533
  C  C356  1  0.422570  0.975980  0.355930  1.0  0.6231
  C  C357  1  0.043050  0.600500  0.095490  1.0  0.6969
  C  C358  1  0.053650  0.950220  0.435940  1.0  0.699
  C  C359  1  0.642560  0.810700  0.386420  1.0  0.1509
  C  C360  1  0.630020  0.838830  0.344220  1.0  -0.1256
  C  C361  1  0.607610  0.884920  0.356330  1.0  -0.0181
  C  C362  1  0.598420  0.905070  0.411100  1.0  -0.1122
  C  C363  1  0.611630  0.878280  0.454170  1.0  -0.0576
  C  C364  1  0.633850  0.830150  0.440720  1.0  -0.0838
  C  C365  1  0.727010  0.774140  0.407170  1.0  0.1626
  C  C366  1  0.767400  0.833940  0.447860  1.0  -0.0763
  C  C367  1  0.828600  0.846620  0.479490  1.0  -0.0398
  C  C368  1  0.851420  0.800000  0.471760  1.0  -0.1328
  C  C369  1  0.810790  0.739450  0.432840  1.0  -0.0874
  C  C370  1  0.749730  0.727130  0.402240  1.0  -0.2246
  C  C371  1  0.632520  0.715450  0.312400  1.0  0.1712
  C  C372  1  0.660100  0.698100  0.271000  1.0  -0.1269
  C  C373  1  0.624310  0.657900  0.210100  1.0  -0.0289
  C  C374  1  0.560350  0.634530  0.189550  1.0  -0.1394
  C  C375  1  0.532520  0.649550  0.231490  1.0  -0.0343
  C  C376  1  0.567980  0.688280  0.293170  1.0  -0.1874
  C  C377  1  0.571670  0.954460  0.423200  1.0  0.7014
  C  C378  1  0.919790  0.814890  0.502710  1.0  0.6764
  C  C379  1  0.519440  0.592890  0.124080  1.0  0.6717
  C  C380  1  0.457140  0.114890  0.323300  1.0  -0.199
  C  C381  1  0.479400  0.144960  0.432040  1.0  -0.1874
  C  C382  1  0.692580  0.767260  0.131520  1.0  0.1486
  C  C383  1  0.631450  0.729960  0.094110  1.0  -0.1692
  C  C384  1  0.615250  0.667840  0.059840  1.0  -0.0298
  C  C385  1  0.660540  0.642350  0.063620  1.0  -0.1657
  C  C386  1  0.721070  0.680350  0.102490  1.0  -0.0218
  C  C387  1  0.737650  0.742080  0.136770  1.0  -0.2444
  C  C388  1  0.755650  0.863980  0.223190  1.0  0.1648
  C  C389  1  0.761850  0.836460  0.265360  1.0  -0.1884
  C  C390  1  0.809790  0.866060  0.323240  1.0  -0.0589
  C  C391  1  0.850000  0.926110  0.339380  1.0  -0.1281
  C  C392  1  0.843720  0.954940  0.297030  1.0  -0.0409
  C  C393  1  0.795380  0.923990  0.239490  1.0  -0.1786
  C  C394  1  0.674160  0.861650  0.136670  1.0  0.1483
  C  C395  1  0.653690  0.899870  0.170400  1.0  -0.1799
  C  C396  1  0.617000  0.927470  0.141930  1.0  -0.0463
  C  C397  1  0.603400  0.917620  0.080720  1.0  -0.1016
  C  C398  1  0.626530  0.880910  0.046660  1.0  -0.0315
  C  C399  1  0.662280  0.852910  0.073500  1.0  -0.1551
  C  C400  1  0.644070  0.577430  0.024020  1.0  0.6255
  C  C401  1  0.904510  0.956950  0.399500  1.0  0.6958
  C  C402  1  0.564060  0.946350  0.049780  1.0  0.7009
  C  C403  1  0.613580  0.357440  0.189300  1.0  0.1494
  C  C404  1  0.655780  0.369980  0.161170  1.0  -0.1275
  C  C405  1  0.643670  0.392390  0.115080  1.0  -0.0148
  C  C406  1  0.588900  0.401580  0.094930  1.0  -0.1181
  C  C407  1  0.545830  0.388370  0.121720  1.0  -0.0526
  C  C408  1  0.559280  0.366150  0.169850  1.0  -0.0883
  C  C409  1  0.592830  0.272990  0.225860  1.0  0.1628
  C  C410  1  0.552140  0.232600  0.166060  1.0  -0.0782
  C  C411  1  0.520510  0.171400  0.153380  1.0  -0.0423
  C  C412  1  0.528240  0.148580  0.200000  1.0  -0.1367
  C  C413  1  0.567160  0.189210  0.260550  1.0  -0.0884
  C  C414  1  0.597760  0.250270  0.272870  1.0  -0.2198
  C  C415  1  0.687600  0.367480  0.284550  1.0  0.1702
  C  C416  1  0.729000  0.339900  0.301900  1.0  -0.1273
  C  C417  1  0.789900  0.375690  0.342100  1.0  -0.0315
  C  C418  1  0.810450  0.439650  0.365470  1.0  -0.1408
  C  C419  1  0.768510  0.467480  0.350450  1.0  -0.0388
  C  C420  1  0.706830  0.432020  0.311720  1.0  -0.1903
  C  C421  1  0.576800  0.428330  0.045540  1.0  0.7036
  C  C422  1  0.497290  0.080210  0.185110  1.0  0.6775
  C  C423  1  0.875920  0.480560  0.407110  1.0  0.6668
  C  C424  1  0.676700  0.542860  0.885110  1.0  -0.1962
  C  C425  1  0.567960  0.520600  0.855040  1.0  -0.1885
  C  C426  1  0.131520  0.692580  0.767260  1.0  0.1481
  C  C427  1  0.094110  0.631450  0.729960  1.0  -0.1727
  C  C428  1  0.059840  0.615250  0.667840  1.0  -0.0346
  C  C429  1  0.063620  0.660540  0.642350  1.0  -0.164
  C  C430  1  0.102490  0.721070  0.680350  1.0  -0.0233
  C  C431  1  0.136770  0.737650  0.742080  1.0  -0.2446
  C  C432  1  0.223190  0.755650  0.863980  1.0  0.1647
  C  C433  1  0.265360  0.761850  0.836460  1.0  -0.1885
  C  C434  1  0.323240  0.809790  0.866060  1.0  -0.0562
  C  C435  1  0.339380  0.850000  0.926110  1.0  -0.1262
  C  C436  1  0.297030  0.843720  0.954940  1.0  -0.038
  C  C437  1  0.239490  0.795380  0.923990  1.0  -0.1772
  C  C438  1  0.136670  0.674160  0.861650  1.0  0.1473
  C  C439  1  0.170400  0.653690  0.899870  1.0  -0.1848
  C  C440  1  0.141930  0.617000  0.927470  1.0  -0.0447
  C  C441  1  0.080720  0.603400  0.917620  1.0  -0.1052
  C  C442  1  0.046660  0.626530  0.880910  1.0  -0.029
  C  C443  1  0.073500  0.662280  0.852910  1.0  -0.1537
  C  C444  1  0.024020  0.644070  0.577430  1.0  0.6259
  C  C445  1  0.399500  0.904510  0.956950  1.0  0.6955
  C  C446  1  0.049780  0.564060  0.946350  1.0  0.697
  C  C447  1  0.189300  0.613580  0.357440  1.0  0.1507
  C  C448  1  0.161170  0.655780  0.369980  1.0  -0.1246
  C  C449  1  0.115080  0.643670  0.392390  1.0  -0.0155
  C  C450  1  0.094930  0.588900  0.401580  1.0  -0.1163
  C  C451  1  0.121720  0.545830  0.388370  1.0  -0.0529
  C  C452  1  0.169850  0.559280  0.366150  1.0  -0.0903
  C  C453  1  0.225860  0.592830  0.272990  1.0  0.164
  C  C454  1  0.166060  0.552140  0.232600  1.0  -0.0763
  C  C455  1  0.153380  0.520510  0.171400  1.0  -0.0393
  C  C456  1  0.200000  0.528240  0.148580  1.0  -0.1369
  C  C457  1  0.260550  0.567160  0.189210  1.0  -0.0864
  C  C458  1  0.272870  0.597760  0.250270  1.0  -0.2185
  C  C459  1  0.284550  0.687600  0.367480  1.0  0.1724
  C  C460  1  0.301900  0.729000  0.339900  1.0  -0.1245
  C  C461  1  0.342100  0.789900  0.375690  1.0  -0.0336
  C  C462  1  0.365470  0.810450  0.439650  1.0  -0.1388
  C  C463  1  0.350450  0.768510  0.467480  1.0  -0.0405
  C  C464  1  0.311720  0.706830  0.432020  1.0  -0.1819
  C  C465  1  0.045540  0.576800  0.428330  1.0  0.7014
  C  C466  1  0.185110  0.497290  0.080210  1.0  0.6772
  C  C467  1  0.407110  0.875920  0.480560  1.0  0.6696
  C  C468  1  0.885110  0.676700  0.542860  1.0  -0.1978
  C  C469  1  0.855040  0.567960  0.520600  1.0  -0.1865
  C  C470  1  0.767260  0.131520  0.692580  1.0  0.1484
  C  C471  1  0.729960  0.094110  0.631450  1.0  -0.1666
  C  C472  1  0.667840  0.059840  0.615250  1.0  -0.0326
  C  C473  1  0.642350  0.063620  0.660540  1.0  -0.1653
  C  C474  1  0.680350  0.102490  0.721070  1.0  -0.0239
  C  C475  1  0.742080  0.136770  0.737650  1.0  -0.2454
  C  C476  1  0.863980  0.223190  0.755650  1.0  0.1662
  C  C477  1  0.836460  0.265360  0.761850  1.0  -0.1886
  C  C478  1  0.866060  0.323240  0.809790  1.0  -0.0549
  C  C479  1  0.926110  0.339380  0.850000  1.0  -0.125
  C  C480  1  0.954940  0.297030  0.843720  1.0  -0.0376
  C  C481  1  0.923990  0.239490  0.795380  1.0  -0.1744
  C  C482  1  0.861650  0.136670  0.674160  1.0  0.1479
  C  C483  1  0.899870  0.170400  0.653690  1.0  -0.186
  C  C484  1  0.927470  0.141930  0.617000  1.0  -0.0458
  C  C485  1  0.917620  0.080720  0.603400  1.0  -0.1021
  C  C486  1  0.880910  0.046660  0.626530  1.0  -0.0314
  C  C487  1  0.852910  0.073500  0.662280  1.0  -0.1528
  C  C488  1  0.577430  0.024020  0.644070  1.0  0.6215
  C  C489  1  0.956950  0.399500  0.904510  1.0  0.6966
  C  C490  1  0.946350  0.049780  0.564060  1.0  0.6969
  C  C491  1  0.357440  0.189300  0.613580  1.0  0.1495
  C  C492  1  0.369980  0.161170  0.655780  1.0  -0.1261
  C  C493  1  0.392390  0.115080  0.643670  1.0  -0.0189
  C  C494  1  0.401580  0.094930  0.588900  1.0  -0.112
  C  C495  1  0.388370  0.121720  0.545830  1.0  -0.0569
  C  C496  1  0.366150  0.169850  0.559280  1.0  -0.0861
  C  C497  1  0.272990  0.225860  0.592830  1.0  0.1632
  C  C498  1  0.232600  0.166060  0.552140  1.0  -0.0782
  C  C499  1  0.171400  0.153380  0.520510  1.0  -0.0412
  C  C500  1  0.148580  0.200000  0.528240  1.0  -0.1338
  C  C501  1  0.189210  0.260550  0.567160  1.0  -0.088
  C  C502  1  0.250270  0.272870  0.597760  1.0  -0.2233
  C  C503  1  0.367480  0.284550  0.687600  1.0  0.1714
  C  C504  1  0.339900  0.301900  0.729000  1.0  -0.1275
  C  C505  1  0.375690  0.342100  0.789900  1.0  -0.0284
  C  C506  1  0.439650  0.365470  0.810450  1.0  -0.1394
  C  C507  1  0.467480  0.350450  0.768510  1.0  -0.0351
  C  C508  1  0.432020  0.311720  0.706830  1.0  -0.1851
  C  C509  1  0.428330  0.045540  0.576800  1.0  0.7007
  C  C510  1  0.080210  0.185110  0.497290  1.0  0.6749
  C  C511  1  0.480560  0.407110  0.875920  1.0  0.6723
  C  C512  1  0.542860  0.885110  0.676700  1.0  -0.1967
  C  C513  1  0.520600  0.855040  0.567960  1.0  -0.1878
  C  C514  1  0.844650  0.631440  0.055810  1.0  -0.1856
  C  C515  1  0.871860  0.562260  0.105850  1.0  -0.1859
  C  C516  1  0.055810  0.844650  0.631440  1.0  -0.1857
  C  C517  1  0.105850  0.871860  0.562260  1.0  -0.1879
  C  C518  1  0.631440  0.055810  0.844650  1.0  -0.1829
  C  C519  1  0.562260  0.105850  0.871860  1.0  -0.188
  C  C520  1  0.155350  0.368560  0.944190  1.0  -0.1856
  C  C521  1  0.128140  0.437740  0.894150  1.0  -0.1861
  C  C522  1  0.944190  0.155350  0.368560  1.0  -0.1833
  C  C523  1  0.894150  0.128140  0.437740  1.0  -0.1849
  C  C524  1  0.368560  0.944190  0.155350  1.0  -0.1848
  C  C525  1  0.437740  0.894150  0.128140  1.0  -0.1874
  N  N526  1  0.382820  0.502660  0.121150  1.0  -0.3616
  N  N527  1  0.291300  0.168330  0.836420  1.0  -0.1427
  N  N528  1  0.372560  0.665230  0.761600  1.0  -0.154
  N  N529  1  0.121150  0.382820  0.502660  1.0  -0.3575
  N  N530  1  0.836420  0.291300  0.168330  1.0  -0.1418
  N  N531  1  0.761600  0.372560  0.665230  1.0  -0.1557
  N  N532  1  0.502660  0.121150  0.382820  1.0  -0.3564
  N  N533  1  0.168330  0.836420  0.291300  1.0  -0.1419
  N  N534  1  0.665230  0.761600  0.372560  1.0  -0.1553
  N  N535  1  0.617180  0.497340  0.878850  1.0  -0.3607
  N  N536  1  0.708700  0.831670  0.163580  1.0  -0.1426
  N  N537  1  0.627440  0.334770  0.238400  1.0  -0.1552
  N  N538  1  0.878850  0.617180  0.497340  1.0  -0.357
  N  N539  1  0.163580  0.708700  0.831670  1.0  -0.1424
  N  N540  1  0.238400  0.627440  0.334770  1.0  -0.1552
  N  N541  1  0.497340  0.878850  0.617180  1.0  -0.3579
  N  N542  1  0.831670  0.163580  0.708700  1.0  -0.1415
  N  N543  1  0.334770  0.238400  0.627440  1.0  -0.1528
  N  N544  1  0.819370  0.569070  0.061470  1.0  -0.0968
  N  N545  1  0.061470  0.819370  0.569070  1.0  -0.0996
  N  N546  1  0.569070  0.061470  0.819370  1.0  -0.0953
  N  N547  1  0.180630  0.430930  0.938530  1.0  -0.0954
  N  N548  1  0.938530  0.180630  0.430930  1.0  -0.0978
  N  N549  1  0.430930  0.938530  0.180630  1.0  -0.0999
  O  O550  1  0.412280  0.458620  0.007000  1.0  -0.667
  O  O551  1  0.313410  0.442460  0.979290  1.0  -0.5893
  O  O552  1  0.089020  0.073870  0.567090  1.0  -0.5865
  O  O553  1  0.059920  0.989720  0.588420  1.0  -0.5879
  O  O554  1  0.460740  0.026100  0.917750  1.0  -0.5897
  O  O555  1  0.441380  0.057820  0.002920  1.0  -0.5788
  O  O556  1  0.473090  0.562580  0.968890  1.0  -0.6028
  O  O557  1  0.382850  0.560990  0.976510  1.0  -0.6027
  O  O558  1  0.533100  0.955360  0.869950  1.0  -0.6127
  O  O559  1  0.497580  0.937760  0.771630  1.0  -0.5453
  O  O560  1  0.092760  0.540270  0.560480  1.0  -0.5869
  O  O561  1  0.106560  0.466680  0.595160  1.0  -0.6004
  O  O562  1  0.335400  0.584510  0.073310  1.0  -0.3039
  O  O563  1  0.007000  0.412280  0.458620  1.0  -0.6681
  O  O564  1  0.979290  0.313410  0.442460  1.0  -0.5922
  O  O565  1  0.567090  0.089020  0.073870  1.0  -0.5854
  O  O566  1  0.588420  0.059920  0.989720  1.0  -0.5896
  O  O567  1  0.917750  0.460740  0.026100  1.0  -0.5873
  O  O568  1  0.002920  0.441380  0.057820  1.0  -0.5779
  O  O569  1  0.968890  0.473090  0.562580  1.0  -0.6058
  O  O570  1  0.976510  0.382850  0.560990  1.0  -0.6006
  O  O571  1  0.869950  0.533100  0.955360  1.0  -0.612
  O  O572  1  0.771630  0.497580  0.937760  1.0  -0.5469
  O  O573  1  0.560480  0.092760  0.540270  1.0  -0.5862
  O  O574  1  0.595160  0.106560  0.466680  1.0  -0.5958
  O  O575  1  0.073310  0.335400  0.584510  1.0  -0.3059
  O  O576  1  0.458620  0.007000  0.412280  1.0  -0.6674
  O  O577  1  0.442460  0.979290  0.313410  1.0  -0.5911
  O  O578  1  0.073870  0.567090  0.089020  1.0  -0.5857
  O  O579  1  0.989720  0.588420  0.059920  1.0  -0.5872
  O  O580  1  0.026100  0.917750  0.460740  1.0  -0.588
  O  O581  1  0.057820  0.002920  0.441380  1.0  -0.5818
  O  O582  1  0.562580  0.968890  0.473090  1.0  -0.6053
  O  O583  1  0.560990  0.976510  0.382850  1.0  -0.6019
  O  O584  1  0.955360  0.869950  0.533100  1.0  -0.6146
  O  O585  1  0.937760  0.771630  0.497580  1.0  -0.5468
  O  O586  1  0.540270  0.560480  0.092760  1.0  -0.5869
  O  O587  1  0.466680  0.595160  0.106560  1.0  -0.5959
  O  O588  1  0.584510  0.073310  0.335400  1.0  -0.3021
  O  O589  1  0.587720  0.541380  0.993000  1.0  -0.6669
  O  O590  1  0.686590  0.557540  0.020710  1.0  -0.5899
  O  O591  1  0.910980  0.926130  0.432910  1.0  -0.5862
  O  O592  1  0.940080  0.010280  0.411580  1.0  -0.5875
  O  O593  1  0.539260  0.973900  0.082250  1.0  -0.5882
  O  O594  1  0.558620  0.942180  0.997080  1.0  -0.5787
  O  O595  1  0.526910  0.437420  0.031110  1.0  -0.6022
  O  O596  1  0.617150  0.439010  0.023490  1.0  -0.6022
  O  O597  1  0.466900  0.044640  0.130050  1.0  -0.6131
  O  O598  1  0.502420  0.062240  0.228370  1.0  -0.5499
  O  O599  1  0.907240  0.459730  0.439520  1.0  -0.5875
  O  O600  1  0.893440  0.533320  0.404840  1.0  -0.6009
  O  O601  1  0.664600  0.415490  0.926690  1.0  -0.3047
  O  O602  1  0.993000  0.587720  0.541380  1.0  -0.6678
  O  O603  1  0.020710  0.686590  0.557540  1.0  -0.591
  O  O604  1  0.432910  0.910980  0.926130  1.0  -0.586
  O  O605  1  0.411580  0.940080  0.010280  1.0  -0.5892
  O  O606  1  0.082250  0.539260  0.973900  1.0  -0.5872
  O  O607  1  0.997080  0.558620  0.942180  1.0  -0.5776
  O  O608  1  0.031110  0.526910  0.437420  1.0  -0.605
  O  O609  1  0.023490  0.617150  0.439010  1.0  -0.5992
  O  O610  1  0.130050  0.466900  0.044640  1.0  -0.6116
  O  O611  1  0.228370  0.502420  0.062240  1.0  -0.5501
  O  O612  1  0.439520  0.907240  0.459730  1.0  -0.587
  O  O613  1  0.404840  0.893440  0.533320  1.0  -0.5961
  O  O614  1  0.926690  0.664600  0.415490  1.0  -0.3035
  O  O615  1  0.541380  0.993000  0.587720  1.0  -0.6681
  O  O616  1  0.557540  0.020710  0.686590  1.0  -0.5901
  O  O617  1  0.926130  0.432910  0.910980  1.0  -0.5857
  O  O618  1  0.010280  0.411580  0.940080  1.0  -0.588
  O  O619  1  0.973900  0.082250  0.539260  1.0  -0.5876
  O  O620  1  0.942180  0.997080  0.558620  1.0  -0.5806
  O  O621  1  0.437420  0.031110  0.526910  1.0  -0.6065
  O  O622  1  0.439010  0.023490  0.617150  1.0  -0.6039
  O  O623  1  0.044640  0.130050  0.466900  1.0  -0.6148
  O  O624  1  0.062240  0.228370  0.502420  1.0  -0.5476
  O  O625  1  0.459730  0.439520  0.907240  1.0  -0.5873
  O  O626  1  0.533320  0.404840  0.893440  1.0  -0.5965
  O  O627  1  0.415490  0.926690  0.664600  1.0  -0.3036
