# generated using pymatgen
data_Zr3H4C20(SO2)6
_symmetry_space_group_name_H-M   'P 1'
_cell_length_a   35.32990000
_cell_length_b   35.32990000
_cell_length_c   35.32990000
_cell_angle_alpha   60.00000000
_cell_angle_beta   60.00000000
_cell_angle_gamma   60.00000000
_symmetry_Int_Tables_number   1
_chemical_formula_structural   Zr3H4C20(SO2)6
_chemical_formula_sum   'Zr36 H48 C240 S72 O144'
_cell_volume   31182.59303170
_cell_formula_units_Z   12
loop_
 _symmetry_equiv_pos_site_id
 _symmetry_equiv_pos_as_xyz
  1  'x, y, z'
loop_
 _atom_site_type_symbol
 _atom_site_label
 _atom_site_symmetry_multiplicity
 _atom_site_fract_x
 _atom_site_fract_y
 _atom_site_fract_z
 _atom_site_occupancy
 _atom_site_charge
  Zr  Zr1  1  0.069740  0.500000  0.930260  1.0  2.1481
  Zr  Zr2  1  0.500000  0.069740  0.500000  1.0  2.1486
  Zr  Zr3  1  0.930260  0.500000  0.069740  1.0  2.1485
  Zr  Zr4  1  0.500000  0.930260  0.500000  1.0  2.151
  Zr  Zr5  1  0.069740  0.930260  0.500000  1.0  2.1459
  Zr  Zr6  1  0.500000  0.500000  0.930260  1.0  2.1523
  Zr  Zr7  1  0.930260  0.069740  0.500000  1.0  2.1418
  Zr  Zr8  1  0.500000  0.500000  0.069740  1.0  2.1528
  Zr  Zr9  1  0.069740  0.500000  0.500000  1.0  2.1486
  Zr  Zr10  1  0.500000  0.930260  0.069740  1.0  2.1515
  Zr  Zr11  1  0.930260  0.500000  0.500000  1.0  2.1476
  Zr  Zr12  1  0.500000  0.069740  0.930260  1.0  2.1482
  Zr  Zr13  1  0.035390  0.414660  0.035400  1.0  2.1113
  Zr  Zr14  1  0.414650  0.035400  0.514550  1.0  2.1072
  Zr  Zr15  1  0.035390  0.514550  0.035400  1.0  2.1098
  Zr  Zr16  1  0.514540  0.035400  0.414660  1.0  2.1092
  Zr  Zr17  1  0.035390  0.035400  0.514550  1.0  2.1127
  Zr  Zr18  1  0.414650  0.514550  0.035400  1.0  2.1083
  Zr  Zr19  1  0.035390  0.035400  0.414660  1.0  2.11
  Zr  Zr20  1  0.514540  0.414660  0.035400  1.0  2.1079
  Zr  Zr21  1  0.035390  0.514550  0.414660  1.0  2.1096
  Zr  Zr22  1  0.414650  0.035400  0.035400  1.0  2.1078
  Zr  Zr23  1  0.035390  0.414660  0.514550  1.0  2.1108
  Zr  Zr24  1  0.514540  0.035400  0.035400  1.0  2.1111
  Zr  Zr25  1  0.585350  0.964600  0.964600  1.0  2.0896
  Zr  Zr26  1  0.964610  0.585340  0.485450  1.0  2.1102
  Zr  Zr27  1  0.485460  0.964600  0.964600  1.0  2.1069
  Zr  Zr28  1  0.964610  0.485450  0.585340  1.0  2.1095
  Zr  Zr29  1  0.964610  0.964600  0.485450  1.0  2.1086
  Zr  Zr30  1  0.485460  0.585340  0.964600  1.0  2.1097
  Zr  Zr31  1  0.964610  0.964600  0.585340  1.0  2.1111
  Zr  Zr32  1  0.585350  0.485450  0.964600  1.0  2.0897
  Zr  Zr33  1  0.485460  0.964600  0.585340  1.0  2.1081
  Zr  Zr34  1  0.964610  0.585340  0.964600  1.0  2.1093
  Zr  Zr35  1  0.585350  0.964600  0.485450  1.0  2.0905
  Zr  Zr36  1  0.964610  0.485450  0.964600  1.0  2.1086
  H  H37  1  0.218900  0.397100  0.878300  1.0  0.1255
  H  H38  1  0.397100  0.218900  0.505700  1.0  0.1246
  H  H39  1  0.878300  0.505700  0.218900  1.0  0.1232
  H  H40  1  0.505700  0.878300  0.397100  1.0  0.1273
  H  H41  1  0.218900  0.878300  0.505700  1.0  0.1269
  H  H42  1  0.397100  0.505700  0.878300  1.0  0.1237
  H  H43  1  0.878300  0.218900  0.397100  1.0  0.1229
  H  H44  1  0.505700  0.397100  0.218900  1.0  0.1257
  H  H45  1  0.218900  0.505700  0.397100  1.0  0.1236
  H  H46  1  0.397100  0.878300  0.218900  1.0  0.1281
  H  H47  1  0.878300  0.397100  0.505700  1.0  0.125
  H  H48  1  0.505700  0.218900  0.878300  1.0  0.1235
  H  H49  1  0.602900  0.781100  0.121700  1.0  0.1246
  H  H50  1  0.781100  0.602900  0.494300  1.0  0.1258
  H  H51  1  0.494300  0.121700  0.781100  1.0  0.127
  H  H52  1  0.121700  0.494300  0.602900  1.0  0.1238
  H  H53  1  0.121700  0.781100  0.494300  1.0  0.1237
  H  H54  1  0.494300  0.602900  0.121700  1.0  0.1264
  H  H55  1  0.781100  0.121700  0.602900  1.0  0.1262
  H  H56  1  0.602900  0.494300  0.781100  1.0  0.1232
  H  H57  1  0.494300  0.781100  0.602900  1.0  0.1233
  H  H58  1  0.121700  0.602900  0.781100  1.0  0.1255
  H  H59  1  0.602900  0.121700  0.494300  1.0  0.1266
  H  H60  1  0.781100  0.494300  0.121700  1.0  0.1235
  H  H61  1  0.781100  0.602900  0.121700  1.0  0.1267
  H  H62  1  0.602900  0.781100  0.494300  1.0  0.1239
  H  H63  1  0.121700  0.494300  0.781100  1.0  0.1247
  H  H64  1  0.494300  0.121700  0.602900  1.0  0.1261
  H  H65  1  0.781100  0.121700  0.494300  1.0  0.1262
  H  H66  1  0.602900  0.494300  0.121700  1.0  0.1234
  H  H67  1  0.121700  0.781100  0.602900  1.0  0.1234
  H  H68  1  0.494300  0.602900  0.781100  1.0  0.126
  H  H69  1  0.781100  0.494300  0.602900  1.0  0.1243
  H  H70  1  0.602900  0.121700  0.781100  1.0  0.1267
  H  H71  1  0.121700  0.602900  0.494300  1.0  0.1255
  H  H72  1  0.494300  0.781100  0.121700  1.0  0.1232
  H  H73  1  0.397100  0.218900  0.878300  1.0  0.124
  H  H74  1  0.218900  0.397100  0.505700  1.0  0.1258
  H  H75  1  0.505700  0.878300  0.218900  1.0  0.1262
  H  H76  1  0.878300  0.505700  0.397100  1.0  0.1241
  H  H77  1  0.878300  0.218900  0.505700  1.0  0.1234
  H  H78  1  0.505700  0.397100  0.878300  1.0  0.1255
  H  H79  1  0.218900  0.878300  0.397100  1.0  0.1269
  H  H80  1  0.397100  0.505700  0.218900  1.0  0.1239
  H  H81  1  0.505700  0.218900  0.397100  1.0  0.1227
  H  H82  1  0.878300  0.397100  0.218900  1.0  0.125
  H  H83  1  0.397100  0.878300  0.505700  1.0  0.1276
  H  H84  1  0.218900  0.505700  0.878300  1.0  0.1244
  C  C85  1  0.182400  0.361100  0.939980  1.0  -0.1351
  C  C86  1  0.219150  0.368650  0.901770  1.0  -0.0754
  C  C87  1  0.258000  0.327680  0.902020  1.0  -0.0377
  C  C88  1  0.135790  0.395090  0.953270  1.0  0.7792
  C  C89  1  0.249950  0.290210  0.941050  1.0  0.0161
  C  C90  1  0.361100  0.182400  0.516520  1.0  -0.1355
  C  C91  1  0.368650  0.219150  0.510430  1.0  -0.0722
  C  C92  1  0.327680  0.258000  0.512300  1.0  -0.039
  C  C93  1  0.395090  0.135790  0.515850  1.0  0.7789
  C  C94  1  0.290210  0.249950  0.518790  1.0  0.0179
  C  C95  1  0.939980  0.516520  0.182400  1.0  -0.1357
  C  C96  1  0.901770  0.510430  0.219150  1.0  -0.0719
  C  C97  1  0.902020  0.512300  0.258000  1.0  -0.0406
  C  C98  1  0.953270  0.515850  0.135790  1.0  0.7805
  C  C99  1  0.941050  0.518790  0.249950  1.0  0.0157
  C  C100  1  0.516520  0.939980  0.361100  1.0  -0.135
  C  C101  1  0.510430  0.901770  0.368650  1.0  -0.0716
  C  C102  1  0.512300  0.902020  0.327680  1.0  -0.0407
  C  C103  1  0.515850  0.953270  0.395090  1.0  0.7806
  C  C104  1  0.518790  0.941050  0.290210  1.0  0.0183
  C  C105  1  0.182400  0.939980  0.516520  1.0  -0.1352
  C  C106  1  0.219150  0.901770  0.510430  1.0  -0.074
  C  C107  1  0.258000  0.902020  0.512300  1.0  -0.0384
  C  C108  1  0.135790  0.953270  0.515850  1.0  0.78
  C  C109  1  0.249950  0.941050  0.518790  1.0  0.0148
  C  C110  1  0.361100  0.516520  0.939980  1.0  -0.1357
  C  C111  1  0.368650  0.510430  0.901770  1.0  -0.0714
  C  C112  1  0.327680  0.512300  0.902020  1.0  -0.0403
  C  C113  1  0.395090  0.515850  0.953270  1.0  0.7795
  C  C114  1  0.290210  0.518790  0.941050  1.0  0.0164
  C  C115  1  0.939980  0.182400  0.361100  1.0  -0.1362
  C  C116  1  0.901770  0.219150  0.368650  1.0  -0.073
  C  C117  1  0.902020  0.258000  0.327680  1.0  -0.0383
  C  C118  1  0.953270  0.135790  0.395090  1.0  0.7795
  C  C119  1  0.941050  0.249950  0.290210  1.0  0.0177
  C  C120  1  0.516520  0.361100  0.182400  1.0  -0.1375
  C  C121  1  0.510430  0.368650  0.219150  1.0  -0.0729
  C  C122  1  0.512300  0.327680  0.258000  1.0  -0.0413
  C  C123  1  0.515850  0.395090  0.135790  1.0  0.7788
  C  C124  1  0.518790  0.290210  0.249950  1.0  0.0172
  C  C125  1  0.182400  0.516520  0.361100  1.0  -0.136
  C  C126  1  0.219150  0.510430  0.368650  1.0  -0.073
  C  C127  1  0.258000  0.512300  0.327680  1.0  -0.0376
  C  C128  1  0.135790  0.515850  0.395090  1.0  0.7795
  C  C129  1  0.249950  0.518790  0.290210  1.0  0.0168
  C  C130  1  0.361100  0.939980  0.182400  1.0  -0.1352
  C  C131  1  0.368650  0.901770  0.219150  1.0  -0.0724
  C  C132  1  0.327680  0.902020  0.258000  1.0  -0.0419
  C  C133  1  0.395090  0.953270  0.135790  1.0  0.7793
  C  C134  1  0.290210  0.941050  0.249950  1.0  0.0163
  C  C135  1  0.939980  0.361100  0.516520  1.0  -0.1357
  C  C136  1  0.901770  0.368650  0.510430  1.0  -0.0737
  C  C137  1  0.902020  0.327680  0.512300  1.0  -0.0404
  C  C138  1  0.953270  0.395090  0.515850  1.0  0.7793
  C  C139  1  0.941050  0.290210  0.518790  1.0  0.0186
  C  C140  1  0.516520  0.182400  0.939980  1.0  -0.1363
  C  C141  1  0.510430  0.219150  0.901770  1.0  -0.0744
  C  C142  1  0.512300  0.258000  0.902020  1.0  -0.039
  C  C143  1  0.515850  0.135790  0.953270  1.0  0.7805
  C  C144  1  0.518790  0.249950  0.941050  1.0  0.0185
  C  C145  1  0.638900  0.817600  0.060020  1.0  -0.1346
  C  C146  1  0.631350  0.780850  0.098230  1.0  -0.0727
  C  C147  1  0.672320  0.742000  0.097980  1.0  -0.0407
  C  C148  1  0.604910  0.864210  0.046730  1.0  0.7801
  C  C149  1  0.709790  0.750050  0.058950  1.0  0.0192
  C  C150  1  0.817600  0.638900  0.483480  1.0  -0.1346
  C  C151  1  0.780850  0.631350  0.489570  1.0  -0.0737
  C  C152  1  0.742000  0.672320  0.487700  1.0  -0.0411
  C  C153  1  0.864210  0.604910  0.484150  1.0  0.779
  C  C154  1  0.750050  0.709790  0.481210  1.0  0.0162
  C  C155  1  0.483480  0.060020  0.817600  1.0  -0.1354
  C  C156  1  0.489570  0.098230  0.780850  1.0  -0.074
  C  C157  1  0.487700  0.097980  0.742000  1.0  -0.0393
  C  C158  1  0.484150  0.046730  0.864210  1.0  0.779
  C  C159  1  0.481210  0.058950  0.750050  1.0  0.0174
  C  C160  1  0.060020  0.483480  0.638900  1.0  -0.1356
  C  C161  1  0.098230  0.489570  0.631350  1.0  -0.0728
  C  C162  1  0.097980  0.487700  0.672320  1.0  -0.0392
  C  C163  1  0.046730  0.484150  0.604910  1.0  0.7794
  C  C164  1  0.058950  0.481210  0.709790  1.0  0.0161
  C  C165  1  0.060020  0.817600  0.483480  1.0  -0.1364
  C  C166  1  0.098230  0.780850  0.489570  1.0  -0.0722
  C  C167  1  0.097980  0.742000  0.487700  1.0  -0.0382
  C  C168  1  0.046730  0.864210  0.484150  1.0  0.778
  C  C169  1  0.058950  0.750050  0.481210  1.0  0.019
  C  C170  1  0.483480  0.638900  0.060020  1.0  -0.1363
  C  C171  1  0.489570  0.631350  0.098230  1.0  -0.0712
  C  C172  1  0.487700  0.672320  0.097980  1.0  -0.0429
  C  C173  1  0.484150  0.604910  0.046730  1.0  0.7793
  C  C174  1  0.481210  0.709790  0.058950  1.0  0.0165
  C  C175  1  0.817600  0.060020  0.638900  1.0  -0.1349
  C  C176  1  0.780850  0.098230  0.631350  1.0  -0.0757
  C  C177  1  0.742000  0.097980  0.672320  1.0  -0.0391
  C  C178  1  0.864210  0.046730  0.604910  1.0  0.779
  C  C179  1  0.750050  0.058950  0.709790  1.0  0.017
  C  C180  1  0.638900  0.483480  0.817600  1.0  -0.1351
  C  C181  1  0.631350  0.489570  0.780850  1.0  -0.0716
  C  C182  1  0.672320  0.487700  0.742000  1.0  -0.04
  C  C183  1  0.604910  0.484150  0.864210  1.0  0.7811
  C  C184  1  0.709790  0.481210  0.750050  1.0  0.0166
  C  C185  1  0.483480  0.817600  0.638900  1.0  -0.1368
  C  C186  1  0.489570  0.780850  0.631350  1.0  -0.0751
  C  C187  1  0.487700  0.742000  0.672320  1.0  -0.0393
  C  C188  1  0.484150  0.864210  0.604910  1.0  0.7789
  C  C189  1  0.481210  0.750050  0.709790  1.0  0.0183
  C  C190  1  0.060020  0.638900  0.817600  1.0  -0.1352
  C  C191  1  0.098230  0.631350  0.780850  1.0  -0.0722
  C  C192  1  0.097980  0.672320  0.742000  1.0  -0.0374
  C  C193  1  0.046730  0.604910  0.864210  1.0  0.7796
  C  C194  1  0.058950  0.709790  0.750050  1.0  0.0163
  C  C195  1  0.638900  0.060020  0.483480  1.0  -0.1349
  C  C196  1  0.631350  0.098230  0.489570  1.0  -0.0745
  C  C197  1  0.672320  0.097980  0.487700  1.0  -0.0399
  C  C198  1  0.604910  0.046730  0.484150  1.0  0.7803
  C  C199  1  0.709790  0.058950  0.481210  1.0  0.0165
  C  C200  1  0.817600  0.483480  0.060020  1.0  -0.1366
  C  C201  1  0.780850  0.489570  0.098230  1.0  -0.0721
  C  C202  1  0.742000  0.487700  0.097980  1.0  -0.0408
  C  C203  1  0.864210  0.484150  0.046730  1.0  0.7781
  C  C204  1  0.750050  0.481210  0.058950  1.0  0.0183
  C  C205  1  0.817600  0.638900  0.060020  1.0  -0.1343
  C  C206  1  0.780850  0.631350  0.098230  1.0  -0.0732
  C  C207  1  0.742000  0.672320  0.097980  1.0  -0.0441
  C  C208  1  0.864210  0.604910  0.046730  1.0  0.7792
  C  C209  1  0.750050  0.709790  0.058950  1.0  0.0171
  C  C210  1  0.638900  0.817600  0.483480  1.0  -0.1351
  C  C211  1  0.631350  0.780850  0.489570  1.0  -0.0733
  C  C212  1  0.672320  0.742000  0.487700  1.0  -0.0429
  C  C213  1  0.604910  0.864210  0.484150  1.0  0.7799
  C  C214  1  0.709790  0.750050  0.481210  1.0  0.0161
  C  C215  1  0.060020  0.483480  0.817600  1.0  -0.1357
  C  C216  1  0.098230  0.489570  0.780850  1.0  -0.0723
  C  C217  1  0.097980  0.487700  0.742000  1.0  -0.0409
  C  C218  1  0.046730  0.484150  0.864210  1.0  0.7793
  C  C219  1  0.058950  0.481210  0.750050  1.0  0.0155
  C  C220  1  0.483480  0.060020  0.638900  1.0  -0.135
  C  C221  1  0.489570  0.098230  0.631350  1.0  -0.074
  C  C222  1  0.487700  0.097980  0.672320  1.0  -0.0427
  C  C223  1  0.484150  0.046730  0.604910  1.0  0.7795
  C  C224  1  0.481210  0.058950  0.709790  1.0  0.0164
  C  C225  1  0.817600  0.060020  0.483480  1.0  -0.1365
  C  C226  1  0.780850  0.098230  0.489570  1.0  -0.0755
  C  C227  1  0.742000  0.097980  0.487700  1.0  -0.0422
  C  C228  1  0.864210  0.046730  0.484150  1.0  0.7776
  C  C229  1  0.750050  0.058950  0.481210  1.0  0.0174
  C  C230  1  0.638900  0.483480  0.060020  1.0  -0.1362
  C  C231  1  0.631350  0.489570  0.098230  1.0  -0.0716
  C  C232  1  0.672320  0.487700  0.097980  1.0  -0.0449
  C  C233  1  0.604910  0.484150  0.046730  1.0  0.7803
  C  C234  1  0.709790  0.481210  0.058950  1.0  0.0163
  C  C235  1  0.060020  0.817600  0.638900  1.0  -0.1349
  C  C236  1  0.098230  0.780850  0.631350  1.0  -0.0735
  C  C237  1  0.097980  0.742000  0.672320  1.0  -0.0404
  C  C238  1  0.046730  0.864210  0.604910  1.0  0.7789
  C  C239  1  0.058950  0.750050  0.709790  1.0  0.0166
  C  C240  1  0.483480  0.638900  0.817600  1.0  -0.1359
  C  C241  1  0.489570  0.631350  0.780850  1.0  -0.0718
  C  C242  1  0.487700  0.672320  0.742000  1.0  -0.0433
  C  C243  1  0.484150  0.604910  0.864210  1.0  0.7802
  C  C244  1  0.481210  0.709790  0.750050  1.0  0.0153
  C  C245  1  0.817600  0.483480  0.638900  1.0  -0.1358
  C  C246  1  0.780850  0.489570  0.631350  1.0  -0.0735
  C  C247  1  0.742000  0.487700  0.672320  1.0  -0.0428
  C  C248  1  0.864210  0.484150  0.604910  1.0  0.7789
  C  C249  1  0.750050  0.481210  0.709790  1.0  0.0174
  C  C250  1  0.638900  0.060020  0.817600  1.0  -0.1342
  C  C251  1  0.631350  0.098230  0.780850  1.0  -0.0744
  C  C252  1  0.672320  0.097980  0.742000  1.0  -0.0411
  C  C253  1  0.604910  0.046730  0.864210  1.0  0.7806
  C  C254  1  0.709790  0.058950  0.750050  1.0  0.0146
  C  C255  1  0.060020  0.638900  0.483480  1.0  -0.1353
  C  C256  1  0.098230  0.631350  0.489570  1.0  -0.0721
  C  C257  1  0.097980  0.672320  0.487700  1.0  -0.0413
  C  C258  1  0.046730  0.604910  0.484150  1.0  0.7793
  C  C259  1  0.058950  0.709790  0.481210  1.0  0.0169
  C  C260  1  0.483480  0.817600  0.060020  1.0  -0.137
  C  C261  1  0.489570  0.780850  0.098230  1.0  -0.0733
  C  C262  1  0.487700  0.742000  0.097980  1.0  -0.0429
  C  C263  1  0.484150  0.864210  0.046730  1.0  0.7787
  C  C264  1  0.481210  0.750050  0.058950  1.0  0.0178
  C  C265  1  0.361100  0.182400  0.939980  1.0  -0.1354
  C  C266  1  0.368650  0.219150  0.901770  1.0  -0.0727
  C  C267  1  0.327680  0.258000  0.902020  1.0  -0.0405
  C  C268  1  0.395090  0.135790  0.953270  1.0  0.7788
  C  C269  1  0.290210  0.249950  0.941050  1.0  0.0164
  C  C270  1  0.182400  0.361100  0.516520  1.0  -0.1352
  C  C271  1  0.219150  0.368650  0.510430  1.0  -0.0747
  C  C272  1  0.258000  0.327680  0.512300  1.0  -0.0414
  C  C273  1  0.135790  0.395090  0.515850  1.0  0.7793
  C  C274  1  0.249950  0.290210  0.518790  1.0  0.0164
  C  C275  1  0.516520  0.939980  0.182400  1.0  -0.1349
  C  C276  1  0.510430  0.901770  0.219150  1.0  -0.0723
  C  C277  1  0.512300  0.902020  0.258000  1.0  -0.0444
  C  C278  1  0.515850  0.953270  0.135790  1.0  0.7808
  C  C279  1  0.518790  0.941050  0.249950  1.0  0.0171
  C  C280  1  0.939980  0.516520  0.361100  1.0  -0.1358
  C  C281  1  0.901770  0.510430  0.368650  1.0  -0.0718
  C  C282  1  0.902020  0.512300  0.327680  1.0  -0.0428
  C  C283  1  0.953270  0.515850  0.395090  1.0  0.7804
  C  C284  1  0.941050  0.518790  0.290210  1.0  0.0142
  C  C285  1  0.939980  0.182400  0.516520  1.0  -0.135
  C  C286  1  0.901770  0.219150  0.510430  1.0  -0.0733
  C  C287  1  0.902020  0.258000  0.512300  1.0  -0.0405
  C  C288  1  0.953270  0.135790  0.515850  1.0  0.7806
  C  C289  1  0.941050  0.249950  0.518790  1.0  0.0155
  C  C290  1  0.516520  0.361100  0.939980  1.0  -0.136
  C  C291  1  0.510430  0.368650  0.901770  1.0  -0.0736
  C  C292  1  0.512300  0.327680  0.902020  1.0  -0.0424
  C  C293  1  0.515850  0.395090  0.953270  1.0  0.7796
  C  C294  1  0.518790  0.290210  0.941050  1.0  0.0166
  C  C295  1  0.182400  0.939980  0.361100  1.0  -0.1366
  C  C296  1  0.219150  0.901770  0.368650  1.0  -0.0728
  C  C297  1  0.258000  0.902020  0.327680  1.0  -0.0415
  C  C298  1  0.135790  0.953270  0.395090  1.0  0.779
  C  C299  1  0.249950  0.941050  0.290210  1.0  0.0156
  C  C300  1  0.361100  0.516520  0.182400  1.0  -0.1362
  C  C301  1  0.368650  0.510430  0.219150  1.0  -0.0715
  C  C302  1  0.327680  0.512300  0.258000  1.0  -0.0453
  C  C303  1  0.395090  0.515850  0.135790  1.0  0.7785
  C  C304  1  0.290210  0.518790  0.249950  1.0  0.0161
  C  C305  1  0.516520  0.182400  0.361100  1.0  -0.1376
  C  C306  1  0.510430  0.219150  0.368650  1.0  -0.0733
  C  C307  1  0.512300  0.258000  0.327680  1.0  -0.0428
  C  C308  1  0.515850  0.135790  0.395090  1.0  0.78
  C  C309  1  0.518790  0.249950  0.290210  1.0  0.0172
  C  C310  1  0.939980  0.361100  0.182400  1.0  -0.1364
  C  C311  1  0.901770  0.368650  0.219150  1.0  -0.0736
  C  C312  1  0.902020  0.327680  0.258000  1.0  -0.0441
  C  C313  1  0.953270  0.395090  0.135790  1.0  0.779
  C  C314  1  0.941050  0.290210  0.249950  1.0  0.0186
  C  C315  1  0.361100  0.939980  0.516520  1.0  -0.1351
  C  C316  1  0.368650  0.901770  0.510430  1.0  -0.0725
  C  C317  1  0.327680  0.902020  0.512300  1.0  -0.0428
  C  C318  1  0.395090  0.953270  0.515850  1.0  0.7799
  C  C319  1  0.290210  0.941050  0.518790  1.0  0.0139
  C  C320  1  0.182400  0.516520  0.939980  1.0  -0.1355
  C  C321  1  0.219150  0.510430  0.901770  1.0  -0.0734
  C  C322  1  0.258000  0.512300  0.902020  1.0  -0.0394
  C  C323  1  0.135790  0.515850  0.953270  1.0  0.78
  C  C324  1  0.249950  0.518790  0.941050  1.0  0.0162
  S  S325  1  0.194370  0.304570  0.978030  1.0  0.0832
  S  S326  1  0.304570  0.194370  0.523030  1.0  0.0837
  S  S327  1  0.978030  0.523030  0.194370  1.0  0.0823
  S  S328  1  0.523030  0.978030  0.304570  1.0  0.085
  S  S329  1  0.194370  0.978030  0.523030  1.0  0.0852
  S  S330  1  0.304570  0.523030  0.978030  1.0  0.0836
  S  S331  1  0.978030  0.194370  0.304570  1.0  0.0813
  S  S332  1  0.523030  0.304570  0.194370  1.0  0.0839
  S  S333  1  0.194370  0.523030  0.304570  1.0  0.0851
  S  S334  1  0.304570  0.978030  0.194370  1.0  0.0851
  S  S335  1  0.978030  0.304570  0.523030  1.0  0.0801
  S  S336  1  0.523030  0.194370  0.978030  1.0  0.0833
  S  S337  1  0.695430  0.805630  0.021970  1.0  0.0827
  S  S338  1  0.805630  0.695430  0.476970  1.0  0.0821
  S  S339  1  0.476970  0.021970  0.805630  1.0  0.0859
  S  S340  1  0.021970  0.476970  0.695430  1.0  0.0861
  S  S341  1  0.021970  0.805630  0.476970  1.0  0.084
  S  S342  1  0.476970  0.695430  0.021970  1.0  0.0833
  S  S343  1  0.805630  0.021970  0.695430  1.0  0.0846
  S  S344  1  0.695430  0.476970  0.805630  1.0  0.0807
  S  S345  1  0.476970  0.805630  0.695430  1.0  0.084
  S  S346  1  0.021970  0.695430  0.805630  1.0  0.0838
  S  S347  1  0.695430  0.021970  0.476970  1.0  0.0853
  S  S348  1  0.805630  0.476970  0.021970  1.0  0.0842
  S  S349  1  0.805630  0.695430  0.021970  1.0  0.0825
  S  S350  1  0.695430  0.805630  0.476970  1.0  0.0821
  S  S351  1  0.021970  0.476970  0.805630  1.0  0.0859
  S  S352  1  0.476970  0.021970  0.695430  1.0  0.0861
  S  S353  1  0.805630  0.021970  0.476970  1.0  0.0842
  S  S354  1  0.695430  0.476970  0.021970  1.0  0.0814
  S  S355  1  0.021970  0.805630  0.695430  1.0  0.0851
  S  S356  1  0.476970  0.695430  0.805630  1.0  0.0832
  S  S357  1  0.805630  0.476970  0.695430  1.0  0.0834
  S  S358  1  0.695430  0.021970  0.805630  1.0  0.0859
  S  S359  1  0.021970  0.695430  0.476970  1.0  0.0838
  S  S360  1  0.476970  0.805630  0.021970  1.0  0.0841
  S  S361  1  0.304570  0.194370  0.978030  1.0  0.0839
  S  S362  1  0.194370  0.304570  0.523030  1.0  0.0834
  S  S363  1  0.523030  0.978030  0.194370  1.0  0.0856
  S  S364  1  0.978030  0.523030  0.304570  1.0  0.0821
  S  S365  1  0.978030  0.194370  0.523030  1.0  0.0812
  S  S366  1  0.523030  0.304570  0.978030  1.0  0.0813
  S  S367  1  0.194370  0.978030  0.304570  1.0  0.0838
  S  S368  1  0.304570  0.523030  0.194370  1.0  0.0841
  S  S369  1  0.523030  0.194370  0.304570  1.0  0.0848
  S  S370  1  0.978030  0.304570  0.194370  1.0  0.0813
  S  S371  1  0.304570  0.978030  0.523030  1.0  0.0852
  S  S372  1  0.194370  0.523030  0.978030  1.0  0.0837
  S  S373  1  0.314610  0.314610  0.864230  1.0  0.1178
  S  S374  1  0.314610  0.314610  0.506550  1.0  0.1185
  S  S375  1  0.864230  0.506550  0.314610  1.0  0.1206
  S  S376  1  0.506550  0.864230  0.314610  1.0  0.1225
  S  S377  1  0.314610  0.864230  0.506550  1.0  0.1224
  S  S378  1  0.314610  0.506550  0.864230  1.0  0.1195
  S  S379  1  0.864230  0.314610  0.314610  1.0  0.1215
  S  S380  1  0.506550  0.314610  0.314610  1.0  0.1241
  S  S381  1  0.314610  0.506550  0.314610  1.0  0.121
  S  S382  1  0.314610  0.864230  0.314610  1.0  0.1218
  S  S383  1  0.864230  0.314610  0.506550  1.0  0.121
  S  S384  1  0.506550  0.314610  0.864230  1.0  0.1213
  S  S385  1  0.685390  0.685390  0.135770  1.0  0.1198
  S  S386  1  0.685390  0.685390  0.493450  1.0  0.1202
  S  S387  1  0.493450  0.135770  0.685390  1.0  0.1216
  S  S388  1  0.135770  0.493450  0.685390  1.0  0.1142
  S  S389  1  0.135770  0.685390  0.493450  1.0  0.1168
  S  S390  1  0.493450  0.685390  0.135770  1.0  0.122
  S  S391  1  0.685390  0.135770  0.685390  1.0  0.1217
  S  S392  1  0.685390  0.493450  0.685390  1.0  0.1211
  S  S393  1  0.493450  0.685390  0.685390  1.0  0.1225
  S  S394  1  0.135770  0.685390  0.685390  1.0  0.1175
  S  S395  1  0.685390  0.135770  0.493450  1.0  0.1226
  S  S396  1  0.685390  0.493450  0.135770  1.0  0.1218
  O  O397  1  0.128960  0.435460  0.924620  1.0  -0.5997
  O  O398  1  0.107340  0.380480  0.992020  1.0  -0.637
  O  O399  1  0.435460  0.128960  0.510960  1.0  -0.6001
  O  O400  1  0.380480  0.107340  0.520160  1.0  -0.638
  O  O401  1  0.924620  0.510960  0.128960  1.0  -0.5994
  O  O402  1  0.992020  0.520160  0.107340  1.0  -0.6377
  O  O403  1  0.510960  0.924620  0.435460  1.0  -0.6021
  O  O404  1  0.520160  0.992020  0.380480  1.0  -0.6328
  O  O405  1  0.128960  0.924620  0.510960  1.0  -0.6021
  O  O406  1  0.107340  0.992020  0.520160  1.0  -0.6321
  O  O407  1  0.435460  0.510960  0.924620  1.0  -0.5987
  O  O408  1  0.380480  0.520160  0.992020  1.0  -0.6345
  O  O409  1  0.924620  0.128960  0.435460  1.0  -0.5997
  O  O410  1  0.992020  0.107340  0.380480  1.0  -0.6376
  O  O411  1  0.510960  0.435460  0.128960  1.0  -0.5978
  O  O412  1  0.520160  0.380480  0.107340  1.0  -0.6363
  O  O413  1  0.128960  0.510960  0.435460  1.0  -0.5984
  O  O414  1  0.107340  0.520160  0.380480  1.0  -0.6397
  O  O415  1  0.435460  0.924620  0.128960  1.0  -0.6016
  O  O416  1  0.380480  0.992020  0.107340  1.0  -0.6345
  O  O417  1  0.924620  0.435460  0.510960  1.0  -0.6006
  O  O418  1  0.992020  0.380480  0.520160  1.0  -0.637
  O  O419  1  0.510960  0.128960  0.924620  1.0  -0.5986
  O  O420  1  0.520160  0.107340  0.992020  1.0  -0.6381
  O  O421  1  0.564540  0.871040  0.075380  1.0  -0.5985
  O  O422  1  0.619520  0.892660  0.007980  1.0  -0.6357
  O  O423  1  0.871040  0.564540  0.489040  1.0  -0.5996
  O  O424  1  0.892660  0.619520  0.479840  1.0  -0.6362
  O  O425  1  0.489040  0.075380  0.871040  1.0  -0.6004
  O  O426  1  0.479840  0.007980  0.892660  1.0  -0.6365
  O  O427  1  0.075380  0.489040  0.564540  1.0  -0.6006
  O  O428  1  0.007980  0.479840  0.619520  1.0  -0.6377
  O  O429  1  0.075380  0.871040  0.489040  1.0  -0.6015
  O  O430  1  0.007980  0.892660  0.479840  1.0  -0.6362
  O  O431  1  0.489040  0.564540  0.075380  1.0  -0.5992
  O  O432  1  0.479840  0.619520  0.007980  1.0  -0.6363
  O  O433  1  0.871040  0.075380  0.564540  1.0  -0.6019
  O  O434  1  0.892660  0.007980  0.619520  1.0  -0.6363
  O  O435  1  0.564540  0.489040  0.871040  1.0  -0.5978
  O  O436  1  0.619520  0.479840  0.892660  1.0  -0.6333
  O  O437  1  0.489040  0.871040  0.564540  1.0  -0.5993
  O  O438  1  0.479840  0.892660  0.619520  1.0  -0.6388
  O  O439  1  0.075380  0.564540  0.871040  1.0  -0.6013
  O  O440  1  0.007980  0.619520  0.892660  1.0  -0.6364
  O  O441  1  0.564540  0.075380  0.489040  1.0  -0.5996
  O  O442  1  0.619520  0.007980  0.479840  1.0  -0.6357
  O  O443  1  0.871040  0.489040  0.075380  1.0  -0.5984
  O  O444  1  0.892660  0.479840  0.007980  1.0  -0.6395
  O  O445  1  0.871040  0.564540  0.075380  1.0  -0.6003
  O  O446  1  0.892660  0.619520  0.007980  1.0  -0.638
  O  O447  1  0.564540  0.871040  0.489040  1.0  -0.5987
  O  O448  1  0.619520  0.892660  0.479840  1.0  -0.6347
  O  O449  1  0.075380  0.489040  0.871040  1.0  -0.6016
  O  O450  1  0.007980  0.479840  0.892660  1.0  -0.6385
  O  O451  1  0.489040  0.075380  0.564540  1.0  -0.5994
  O  O452  1  0.479840  0.007980  0.619520  1.0  -0.6354
  O  O453  1  0.871040  0.075380  0.489040  1.0  -0.6033
  O  O454  1  0.892660  0.007980  0.479840  1.0  -0.6366
  O  O455  1  0.564540  0.489040  0.075380  1.0  -0.5978
  O  O456  1  0.619520  0.479840  0.007980  1.0  -0.636
  O  O457  1  0.075380  0.871040  0.564540  1.0  -0.5999
  O  O458  1  0.007980  0.892660  0.619520  1.0  -0.635
  O  O459  1  0.489040  0.564540  0.871040  1.0  -0.5977
  O  O460  1  0.479840  0.619520  0.892660  1.0  -0.6323
  O  O461  1  0.871040  0.489040  0.564540  1.0  -0.5995
  O  O462  1  0.892660  0.479840  0.619520  1.0  -0.6391
  O  O463  1  0.564540  0.075380  0.871040  1.0  -0.5997
  O  O464  1  0.619520  0.007980  0.892660  1.0  -0.6349
  O  O465  1  0.075380  0.564540  0.489040  1.0  -0.6015
  O  O466  1  0.007980  0.619520  0.479840  1.0  -0.6376
  O  O467  1  0.489040  0.871040  0.075380  1.0  -0.5981
  O  O468  1  0.479840  0.892660  0.007980  1.0  -0.6404
  O  O469  1  0.435460  0.128960  0.924620  1.0  -0.5999
  O  O470  1  0.380480  0.107340  0.992020  1.0  -0.6358
  O  O471  1  0.128960  0.435460  0.510960  1.0  -0.5998
  O  O472  1  0.107340  0.380480  0.520160  1.0  -0.6389
  O  O473  1  0.510960  0.924620  0.128960  1.0  -0.6011
  O  O474  1  0.520160  0.992020  0.107340  1.0  -0.6316
  O  O475  1  0.924620  0.510960  0.435460  1.0  -0.6006
  O  O476  1  0.992020  0.520160  0.380480  1.0  -0.638
  O  O477  1  0.924620  0.128960  0.510960  1.0  -0.598
  O  O478  1  0.992020  0.107340  0.520160  1.0  -0.6357
  O  O479  1  0.510960  0.435460  0.924620  1.0  -0.5981
  O  O480  1  0.520160  0.380480  0.992020  1.0  -0.6338
  O  O481  1  0.128960  0.924620  0.435460  1.0  -0.6037
  O  O482  1  0.107340  0.992020  0.380480  1.0  -0.6341
  O  O483  1  0.435460  0.510960  0.128960  1.0  -0.5992
  O  O484  1  0.380480  0.520160  0.107340  1.0  -0.6368
  O  O485  1  0.510960  0.128960  0.435460  1.0  -0.5982
  O  O486  1  0.520160  0.107340  0.380480  1.0  -0.6404
  O  O487  1  0.924620  0.435460  0.128960  1.0  -0.6007
  O  O488  1  0.992020  0.380480  0.107340  1.0  -0.6382
  O  O489  1  0.435460  0.924620  0.510960  1.0  -0.6014
  O  O490  1  0.380480  0.992020  0.520160  1.0  -0.6341
  O  O491  1  0.128960  0.510960  0.924620  1.0  -0.5987
  O  O492  1  0.107340  0.520160  0.992020  1.0  -0.638
  O  O493  1  0.068630  0.465090  0.001190  1.0  -1.1882
  O  O494  1  0.465090  0.068630  0.465090  1.0  -1.1893
  O  O495  1  0.001190  0.465090  0.068630  1.0  -1.188
  O  O496  1  0.465090  0.001190  0.465090  1.0  -1.19
  O  O497  1  0.068630  0.001190  0.465090  1.0  -1.1908
  O  O498  1  0.465090  0.465090  0.001190  1.0  -1.193
  O  O499  1  0.001190  0.068630  0.465090  1.0  -1.1905
  O  O500  1  0.465090  0.465090  0.068630  1.0  -1.1926
  O  O501  1  0.068630  0.465090  0.465090  1.0  -1.1894
  O  O502  1  0.465090  0.001190  0.068630  1.0  -1.1888
  O  O503  1  0.001190  0.465090  0.465090  1.0  -1.1894
  O  O504  1  0.465090  0.068630  0.001190  1.0  -1.1893
  O  O505  1  0.534910  0.931370  0.998810  1.0  -1.1896
  O  O506  1  0.931370  0.534910  0.534910  1.0  -1.1896
  O  O507  1  0.534910  0.998810  0.931370  1.0  -1.1895
  O  O508  1  0.998810  0.534910  0.534910  1.0  -1.1889
  O  O509  1  0.998810  0.931370  0.534910  1.0  -1.1931
  O  O510  1  0.534910  0.534910  0.998810  1.0  -1.1897
  O  O511  1  0.931370  0.998810  0.534910  1.0  -1.1936
  O  O512  1  0.534910  0.534910  0.931370  1.0  -1.191
  O  O513  1  0.534910  0.931370  0.534910  1.0  -1.1884
  O  O514  1  0.998810  0.534910  0.931370  1.0  -1.1899
  O  O515  1  0.534910  0.998810  0.534910  1.0  -1.1883
  O  O516  1  0.931370  0.534910  0.998810  1.0  -1.1897
  O  O517  1  0.034170  0.549950  0.965830  1.0  -1.1493
  O  O518  1  0.549950  0.034170  0.450050  1.0  -1.1473
  O  O519  1  0.965830  0.450050  0.034170  1.0  -1.1498
  O  O520  1  0.450050  0.965830  0.549950  1.0  -1.1489
  O  O521  1  0.034170  0.965830  0.450050  1.0  -1.1533
  O  O522  1  0.549950  0.450050  0.965830  1.0  -1.152
  O  O523  1  0.965830  0.034170  0.549950  1.0  -1.1441
  O  O524  1  0.450050  0.549950  0.034170  1.0  -1.1529
  O  O525  1  0.034170  0.450050  0.549950  1.0  -1.1498
  O  O526  1  0.549950  0.965830  0.034170  1.0  -1.1469
  O  O527  1  0.965830  0.549950  0.450050  1.0  -1.1501
  O  O528  1  0.450050  0.034170  0.965830  1.0  -1.1499
  O  O529  1  0.450050  0.965830  0.034170  1.0  -1.1497
  O  O530  1  0.965830  0.450050  0.549950  1.0  -1.1502
  O  O531  1  0.549950  0.034170  0.965830  1.0  -1.1467
  O  O532  1  0.034170  0.549950  0.450050  1.0  -1.1505
  O  O533  1  0.034170  0.965830  0.549950  1.0  -1.1438
  O  O534  1  0.549950  0.450050  0.034170  1.0  -1.1521
  O  O535  1  0.965830  0.034170  0.450050  1.0  -1.1537
  O  O536  1  0.450050  0.549950  0.965830  1.0  -1.1533
  O  O537  1  0.549950  0.965830  0.450050  1.0  -1.1471
  O  O538  1  0.034170  0.450050  0.965830  1.0  -1.1496
  O  O539  1  0.450050  0.034170  0.549950  1.0  -1.1488
  O  O540  1  0.965830  0.549950  0.034170  1.0  -1.1486
