# generated using pymatgen
data_Hf3H4C20(SO2)6
_symmetry_space_group_name_H-M   'P 1'
_cell_length_a   35.24220000
_cell_length_b   35.24220000
_cell_length_c   35.24220000
_cell_angle_alpha   60.00000000
_cell_angle_beta   60.00000000
_cell_angle_gamma   60.00000000
_symmetry_Int_Tables_number   1
_chemical_formula_structural   Hf3H4C20(SO2)6
_chemical_formula_sum   'Hf36 H48 C240 S72 O144'
_cell_volume   30950.95377420
_cell_formula_units_Z   12
loop_
 _symmetry_equiv_pos_site_id
 _symmetry_equiv_pos_as_xyz
  1  'x, y, z'
loop_
 _atom_site_type_symbol
 _atom_site_label
 _atom_site_symmetry_multiplicity
 _atom_site_fract_x
 _atom_site_fract_y
 _atom_site_fract_z
 _atom_site_occupancy
 _atom_site_charge
  Hf  Hf1  1  0.069570  0.500000  0.930430  1.0  2.526
  Hf  Hf2  1  0.500000  0.069570  0.500000  1.0  2.5258
  Hf  Hf3  1  0.930430  0.500000  0.069570  1.0  2.5267
  Hf  Hf4  1  0.500000  0.930430  0.500000  1.0  2.5298
  Hf  Hf5  1  0.069570  0.930430  0.500000  1.0  2.5238
  Hf  Hf6  1  0.500000  0.500000  0.930430  1.0  2.5301
  Hf  Hf7  1  0.930430  0.069570  0.500000  1.0  2.522
  Hf  Hf8  1  0.500000  0.500000  0.069570  1.0  2.5297
  Hf  Hf9  1  0.069570  0.500000  0.500000  1.0  2.5255
  Hf  Hf10  1  0.500000  0.930430  0.069570  1.0  2.5292
  Hf  Hf11  1  0.930430  0.500000  0.500000  1.0  2.5269
  Hf  Hf12  1  0.500000  0.069570  0.930430  1.0  2.5264
  Hf  Hf13  1  0.035310  0.414830  0.035310  1.0  2.3673
  Hf  Hf14  1  0.414830  0.035310  0.514550  1.0  2.3773
  Hf  Hf15  1  0.035310  0.514550  0.035310  1.0  2.3767
  Hf  Hf16  1  0.514550  0.035310  0.414830  1.0  2.3739
  Hf  Hf17  1  0.035310  0.035310  0.514550  1.0  2.3799
  Hf  Hf18  1  0.414830  0.514550  0.035310  1.0  2.3782
  Hf  Hf19  1  0.035310  0.035310  0.414830  1.0  2.3746
  Hf  Hf20  1  0.514550  0.414830  0.035310  1.0  2.3669
  Hf  Hf21  1  0.035310  0.514550  0.414830  1.0  2.3735
  Hf  Hf22  1  0.414830  0.035310  0.035310  1.0  2.3776
  Hf  Hf23  1  0.035310  0.414830  0.514550  1.0  2.367
  Hf  Hf24  1  0.514550  0.035310  0.035310  1.0  2.3786
  Hf  Hf25  1  0.585170  0.964690  0.964690  1.0  2.3642
  Hf  Hf26  1  0.964690  0.585170  0.485450  1.0  2.3731
  Hf  Hf27  1  0.485450  0.964690  0.964690  1.0  2.3733
  Hf  Hf28  1  0.964690  0.485450  0.585170  1.0  2.3765
  Hf  Hf29  1  0.964690  0.964690  0.485450  1.0  2.3735
  Hf  Hf30  1  0.485450  0.585170  0.964690  1.0  2.3738
  Hf  Hf31  1  0.964690  0.964690  0.585170  1.0  2.378
  Hf  Hf32  1  0.585170  0.485450  0.964690  1.0  2.3652
  Hf  Hf33  1  0.485450  0.964690  0.585170  1.0  2.377
  Hf  Hf34  1  0.964690  0.585170  0.964690  1.0  2.3726
  Hf  Hf35  1  0.585170  0.964690  0.485450  1.0  2.365
  Hf  Hf36  1  0.964690  0.485450  0.964690  1.0  2.3726
  H  H37  1  0.217100  0.395900  0.875900  1.0  0.1038
  H  H38  1  0.395900  0.217100  0.511100  1.0  0.1025
  H  H39  1  0.875900  0.511100  0.217100  1.0  0.1019
  H  H40  1  0.511100  0.875900  0.395900  1.0  0.1057
  H  H41  1  0.217100  0.875900  0.511100  1.0  0.105
  H  H42  1  0.395900  0.511100  0.875900  1.0  0.1023
  H  H43  1  0.875900  0.217100  0.395900  1.0  0.1028
  H  H44  1  0.511100  0.395900  0.217100  1.0  0.1048
  H  H45  1  0.217100  0.511100  0.395900  1.0  0.1022
  H  H46  1  0.395900  0.875900  0.217100  1.0  0.1061
  H  H47  1  0.875900  0.395900  0.511100  1.0  0.103
  H  H48  1  0.511100  0.217100  0.875900  1.0  0.1016
  H  H49  1  0.604100  0.782900  0.124100  1.0  0.1027
  H  H50  1  0.782900  0.604100  0.488900  1.0  0.1036
  H  H51  1  0.488900  0.124100  0.782900  1.0  0.1052
  H  H52  1  0.124100  0.488900  0.604100  1.0  0.1018
  H  H53  1  0.124100  0.782900  0.488900  1.0  0.1033
  H  H54  1  0.488900  0.604100  0.124100  1.0  0.1042
  H  H55  1  0.782900  0.124100  0.604100  1.0  0.1046
  H  H56  1  0.604100  0.488900  0.782900  1.0  0.101
  H  H57  1  0.488900  0.782900  0.604100  1.0  0.1022
  H  H58  1  0.124100  0.604100  0.782900  1.0  0.1039
  H  H59  1  0.604100  0.124100  0.488900  1.0  0.1047
  H  H60  1  0.782900  0.488900  0.124100  1.0  0.1018
  H  H61  1  0.782900  0.604100  0.124100  1.0  0.1044
  H  H62  1  0.604100  0.782900  0.488900  1.0  0.1019
  H  H63  1  0.124100  0.488900  0.782900  1.0  0.1027
  H  H64  1  0.488900  0.124100  0.604100  1.0  0.1045
  H  H65  1  0.782900  0.124100  0.488900  1.0  0.105
  H  H66  1  0.604100  0.488900  0.124100  1.0  0.1012
  H  H67  1  0.124100  0.782900  0.604100  1.0  0.1026
  H  H68  1  0.488900  0.604100  0.782900  1.0  0.1039
  H  H69  1  0.782900  0.488900  0.604100  1.0  0.102
  H  H70  1  0.604100  0.124100  0.782900  1.0  0.1047
  H  H71  1  0.124100  0.604100  0.488900  1.0  0.1038
  H  H72  1  0.488900  0.782900  0.124100  1.0  0.1023
  H  H73  1  0.395900  0.217100  0.875900  1.0  0.1021
  H  H74  1  0.217100  0.395900  0.511100  1.0  0.1039
  H  H75  1  0.511100  0.875900  0.217100  1.0  0.1045
  H  H76  1  0.875900  0.511100  0.395900  1.0  0.1026
  H  H77  1  0.875900  0.217100  0.511100  1.0  0.1024
  H  H78  1  0.511100  0.395900  0.875900  1.0  0.1045
  H  H79  1  0.217100  0.875900  0.395900  1.0  0.1058
  H  H80  1  0.395900  0.511100  0.217100  1.0  0.1023
  H  H81  1  0.511100  0.217100  0.395900  1.0  0.1013
  H  H82  1  0.875900  0.395900  0.217100  1.0  0.1032
  H  H83  1  0.395900  0.875900  0.511100  1.0  0.1059
  H  H84  1  0.217100  0.511100  0.875900  1.0  0.1027
  C  C85  1  0.182510  0.361470  0.940010  1.0  -0.1708
  C  C86  1  0.218190  0.367990  0.900610  1.0  -0.0967
  C  C87  1  0.257720  0.327100  0.901280  1.0  -0.0794
  C  C88  1  0.135630  0.395450  0.953070  1.0  0.7492
  C  C89  1  0.250120  0.290760  0.940640  1.0  -0.017
  C  C90  1  0.361470  0.182510  0.516010  1.0  -0.171
  C  C91  1  0.367990  0.218190  0.513210  1.0  -0.0935
  C  C92  1  0.327100  0.257720  0.513900  1.0  -0.0794
  C  C93  1  0.395450  0.135630  0.515850  1.0  0.748
  C  C94  1  0.290760  0.250120  0.518480  1.0  -0.0161
  C  C95  1  0.940010  0.516010  0.182510  1.0  -0.1712
  C  C96  1  0.900610  0.513210  0.218190  1.0  -0.0947
  C  C97  1  0.901280  0.513900  0.257720  1.0  -0.0802
  C  C98  1  0.953070  0.515850  0.135630  1.0  0.7501
  C  C99  1  0.940640  0.518480  0.250120  1.0  -0.0159
  C  C100  1  0.516010  0.940010  0.361470  1.0  -0.1707
  C  C101  1  0.513210  0.900610  0.367990  1.0  -0.0946
  C  C102  1  0.513900  0.901280  0.327100  1.0  -0.0807
  C  C103  1  0.515850  0.953070  0.395450  1.0  0.7503
  C  C104  1  0.518480  0.940640  0.290760  1.0  -0.0142
  C  C105  1  0.182510  0.940010  0.516010  1.0  -0.171
  C  C106  1  0.218190  0.900610  0.513210  1.0  -0.0948
  C  C107  1  0.257720  0.901280  0.513900  1.0  -0.079
  C  C108  1  0.135630  0.953070  0.515850  1.0  0.7496
  C  C109  1  0.250120  0.940640  0.518480  1.0  -0.0184
  C  C110  1  0.361470  0.516010  0.940010  1.0  -0.1707
  C  C111  1  0.367990  0.513210  0.900610  1.0  -0.0934
  C  C112  1  0.327100  0.513900  0.901280  1.0  -0.0803
  C  C113  1  0.395450  0.515850  0.953070  1.0  0.7477
  C  C114  1  0.290760  0.518480  0.940640  1.0  -0.0164
  C  C115  1  0.940010  0.182510  0.361470  1.0  -0.1708
  C  C116  1  0.900610  0.218190  0.367990  1.0  -0.0949
  C  C117  1  0.901280  0.257720  0.327100  1.0  -0.0798
  C  C118  1  0.953070  0.135630  0.395450  1.0  0.7493
  C  C119  1  0.940640  0.250120  0.290760  1.0  -0.0151
  C  C120  1  0.516010  0.361470  0.182510  1.0  -0.1734
  C  C121  1  0.513210  0.367990  0.218190  1.0  -0.0952
  C  C122  1  0.513900  0.327100  0.257720  1.0  -0.0793
  C  C123  1  0.515850  0.395450  0.135630  1.0  0.7492
  C  C124  1  0.518480  0.290760  0.250120  1.0  -0.0178
  C  C125  1  0.182510  0.516010  0.361470  1.0  -0.1715
  C  C126  1  0.218190  0.513210  0.367990  1.0  -0.0944
  C  C127  1  0.257720  0.513900  0.327100  1.0  -0.0786
  C  C128  1  0.135630  0.515850  0.395450  1.0  0.7491
  C  C129  1  0.250120  0.518480  0.290760  1.0  -0.0172
  C  C130  1  0.361470  0.940010  0.182510  1.0  -0.171
  C  C131  1  0.367990  0.900610  0.218190  1.0  -0.0947
  C  C132  1  0.327100  0.901280  0.257720  1.0  -0.0816
  C  C133  1  0.395450  0.953070  0.135630  1.0  0.7478
  C  C134  1  0.290760  0.940640  0.250120  1.0  -0.0177
  C  C135  1  0.940010  0.361470  0.516010  1.0  -0.1708
  C  C136  1  0.900610  0.367990  0.513210  1.0  -0.0959
  C  C137  1  0.901280  0.327100  0.513900  1.0  -0.08
  C  C138  1  0.953070  0.395450  0.515850  1.0  0.749
  C  C139  1  0.940640  0.290760  0.518480  1.0  -0.0166
  C  C140  1  0.516010  0.182510  0.940010  1.0  -0.1713
  C  C141  1  0.513210  0.218190  0.900610  1.0  -0.0954
  C  C142  1  0.513900  0.257720  0.901280  1.0  -0.0801
  C  C143  1  0.515850  0.135630  0.953070  1.0  0.7501
  C  C144  1  0.518480  0.250120  0.940640  1.0  -0.0174
  C  C145  1  0.638530  0.817490  0.059990  1.0  -0.1694
  C  C146  1  0.632010  0.781810  0.099390  1.0  -0.0945
  C  C147  1  0.672900  0.742280  0.098720  1.0  -0.0816
  C  C148  1  0.604550  0.864370  0.046930  1.0  0.7496
  C  C149  1  0.709240  0.749880  0.059360  1.0  -0.0154
  C  C150  1  0.817490  0.638530  0.483990  1.0  -0.1699
  C  C151  1  0.781810  0.632010  0.486790  1.0  -0.0965
  C  C152  1  0.742280  0.672900  0.486100  1.0  -0.0804
  C  C153  1  0.864370  0.604550  0.484150  1.0  0.7489
  C  C154  1  0.749880  0.709240  0.481520  1.0  -0.0163
  C  C155  1  0.483990  0.059990  0.817490  1.0  -0.1703
  C  C156  1  0.486790  0.099390  0.781810  1.0  -0.0963
  C  C157  1  0.486100  0.098720  0.742280  1.0  -0.0797
  C  C158  1  0.484150  0.046930  0.864370  1.0  0.7492
  C  C159  1  0.481520  0.059360  0.749880  1.0  -0.0152
  C  C160  1  0.059990  0.483990  0.638530  1.0  -0.1709
  C  C161  1  0.099390  0.486790  0.632010  1.0  -0.0947
  C  C162  1  0.098720  0.486100  0.672900  1.0  -0.0805
  C  C163  1  0.046930  0.484150  0.604550  1.0  0.7493
  C  C164  1  0.059360  0.481520  0.709240  1.0  -0.0165
  C  C165  1  0.059990  0.817490  0.483990  1.0  -0.171
  C  C166  1  0.099390  0.781810  0.486790  1.0  -0.0941
  C  C167  1  0.098720  0.742280  0.486100  1.0  -0.079
  C  C168  1  0.046930  0.864370  0.484150  1.0  0.7477
  C  C169  1  0.059360  0.749880  0.481520  1.0  -0.0151
  C  C170  1  0.483990  0.638530  0.059990  1.0  -0.1727
  C  C171  1  0.486790  0.632010  0.099390  1.0  -0.095
  C  C172  1  0.486100  0.672900  0.098720  1.0  -0.0798
  C  C173  1  0.484150  0.604550  0.046930  1.0  0.7493
  C  C174  1  0.481520  0.709240  0.059360  1.0  -0.0181
  C  C175  1  0.817490  0.059990  0.638530  1.0  -0.1702
  C  C176  1  0.781810  0.099390  0.632010  1.0  -0.096
  C  C177  1  0.742280  0.098720  0.672900  1.0  -0.0794
  C  C178  1  0.864370  0.046930  0.604550  1.0  0.7489
  C  C179  1  0.749880  0.059360  0.709240  1.0  -0.017
  C  C180  1  0.638530  0.483990  0.817490  1.0  -0.1696
  C  C181  1  0.632010  0.486790  0.781810  1.0  -0.0943
  C  C182  1  0.672900  0.486100  0.742280  1.0  -0.08
  C  C183  1  0.604550  0.484150  0.864370  1.0  0.7511
  C  C184  1  0.709240  0.481520  0.749880  1.0  -0.0155
  C  C185  1  0.483990  0.817490  0.638530  1.0  -0.1715
  C  C186  1  0.486790  0.781810  0.632010  1.0  -0.0964
  C  C187  1  0.486100  0.742280  0.672900  1.0  -0.0801
  C  C188  1  0.484150  0.864370  0.604550  1.0  0.7495
  C  C189  1  0.481520  0.749880  0.709240  1.0  -0.0173
  C  C190  1  0.059990  0.638530  0.817490  1.0  -0.171
  C  C191  1  0.099390  0.632010  0.781810  1.0  -0.0949
  C  C192  1  0.098720  0.672900  0.742280  1.0  -0.0799
  C  C193  1  0.046930  0.604550  0.864370  1.0  0.7494
  C  C194  1  0.059360  0.709240  0.749880  1.0  -0.0172
  C  C195  1  0.638530  0.059990  0.483990  1.0  -0.1687
  C  C196  1  0.632010  0.099390  0.486790  1.0  -0.0966
  C  C197  1  0.672900  0.098720  0.486100  1.0  -0.08
  C  C198  1  0.604550  0.046930  0.484150  1.0  0.75
  C  C199  1  0.709240  0.059360  0.481520  1.0  -0.0167
  C  C200  1  0.817490  0.483990  0.059990  1.0  -0.1713
  C  C201  1  0.781810  0.486790  0.099390  1.0  -0.0948
  C  C202  1  0.742280  0.486100  0.098720  1.0  -0.0805
  C  C203  1  0.864370  0.484150  0.046930  1.0  0.7474
  C  C204  1  0.749880  0.481520  0.059360  1.0  -0.0164
  C  C205  1  0.817490  0.638530  0.059990  1.0  -0.1704
  C  C206  1  0.781810  0.632010  0.099390  1.0  -0.0955
  C  C207  1  0.742280  0.672900  0.098720  1.0  -0.0839
  C  C208  1  0.864370  0.604550  0.046930  1.0  0.749
  C  C209  1  0.749880  0.709240  0.059360  1.0  -0.0162
  C  C210  1  0.638530  0.817490  0.483990  1.0  -0.1689
  C  C211  1  0.632010  0.781810  0.486790  1.0  -0.0958
  C  C212  1  0.672900  0.742280  0.486100  1.0  -0.0843
  C  C213  1  0.604550  0.864370  0.484150  1.0  0.7493
  C  C214  1  0.709240  0.749880  0.481520  1.0  -0.0182
  C  C215  1  0.059990  0.483990  0.817490  1.0  -0.1715
  C  C216  1  0.099390  0.486790  0.781810  1.0  -0.0941
  C  C217  1  0.098720  0.486100  0.742280  1.0  -0.083
  C  C218  1  0.046930  0.484150  0.864370  1.0  0.7492
  C  C219  1  0.059360  0.481520  0.749880  1.0  -0.0178
  C  C220  1  0.483990  0.059990  0.638530  1.0  -0.1698
  C  C221  1  0.486790  0.099390  0.632010  1.0  -0.0963
  C  C222  1  0.486100  0.098720  0.672900  1.0  -0.0834
  C  C223  1  0.484150  0.046930  0.604550  1.0  0.7496
  C  C224  1  0.481520  0.059360  0.709240  1.0  -0.016
  C  C225  1  0.817490  0.059990  0.483990  1.0  -0.1708
  C  C226  1  0.781810  0.099390  0.486790  1.0  -0.0966
  C  C227  1  0.742280  0.098720  0.486100  1.0  -0.0834
  C  C228  1  0.864370  0.046930  0.484150  1.0  0.7473
  C  C229  1  0.749880  0.059360  0.481520  1.0  -0.0168
  C  C230  1  0.638530  0.483990  0.059990  1.0  -0.1712
  C  C231  1  0.632010  0.486790  0.099390  1.0  -0.0937
  C  C232  1  0.672900  0.486100  0.098720  1.0  -0.0835
  C  C233  1  0.604550  0.484150  0.046930  1.0  0.7505
  C  C234  1  0.709240  0.481520  0.059360  1.0  -0.0171
  C  C235  1  0.059990  0.817490  0.638530  1.0  -0.1704
  C  C236  1  0.099390  0.781810  0.632010  1.0  -0.0939
  C  C237  1  0.098720  0.742280  0.672900  1.0  -0.0815
  C  C238  1  0.046930  0.864370  0.604550  1.0  0.749
  C  C239  1  0.059360  0.749880  0.709240  1.0  -0.0178
  C  C240  1  0.483990  0.638530  0.817490  1.0  -0.1716
  C  C241  1  0.486790  0.632010  0.781810  1.0  -0.096
  C  C242  1  0.486100  0.672900  0.742280  1.0  -0.0834
  C  C243  1  0.484150  0.604550  0.864370  1.0  0.7497
  C  C244  1  0.481520  0.709240  0.749880  1.0  -0.0191
  C  C245  1  0.817490  0.483990  0.638530  1.0  -0.171
  C  C246  1  0.781810  0.486790  0.632010  1.0  -0.0951
  C  C247  1  0.742280  0.486100  0.672900  1.0  -0.0837
  C  C248  1  0.864370  0.484150  0.604550  1.0  0.7487
  C  C249  1  0.749880  0.481520  0.709240  1.0  -0.0173
  C  C250  1  0.638530  0.059990  0.817490  1.0  -0.1687
  C  C251  1  0.632010  0.099390  0.781810  1.0  -0.0969
  C  C252  1  0.672900  0.098720  0.742280  1.0  -0.082
  C  C253  1  0.604550  0.046930  0.864370  1.0  0.7502
  C  C254  1  0.709240  0.059360  0.749880  1.0  -0.0182
  C  C255  1  0.059990  0.638530  0.483990  1.0  -0.171
  C  C256  1  0.099390  0.632010  0.486790  1.0  -0.0944
  C  C257  1  0.098720  0.672900  0.486100  1.0  -0.084
  C  C258  1  0.046930  0.604550  0.484150  1.0  0.7493
  C  C259  1  0.059360  0.709240  0.481520  1.0  -0.0173
  C  C260  1  0.483990  0.817490  0.059990  1.0  -0.1716
  C  C261  1  0.486790  0.781810  0.099390  1.0  -0.0949
  C  C262  1  0.486100  0.742280  0.098720  1.0  -0.0839
  C  C263  1  0.484150  0.864370  0.046930  1.0  0.7484
  C  C264  1  0.481520  0.749880  0.059360  1.0  -0.0181
  C  C265  1  0.361470  0.182510  0.940010  1.0  -0.1703
  C  C266  1  0.367990  0.218190  0.900610  1.0  -0.0944
  C  C267  1  0.327100  0.257720  0.901280  1.0  -0.0814
  C  C268  1  0.395450  0.135630  0.953070  1.0  0.7478
  C  C269  1  0.290760  0.250120  0.940640  1.0  -0.0175
  C  C270  1  0.182510  0.361470  0.516010  1.0  -0.1714
  C  C271  1  0.218190  0.367990  0.513210  1.0  -0.0955
  C  C272  1  0.257720  0.327100  0.513900  1.0  -0.0837
  C  C273  1  0.135630  0.395450  0.515850  1.0  0.7493
  C  C274  1  0.250120  0.290760  0.518480  1.0  -0.0173
  C  C275  1  0.516010  0.940010  0.182510  1.0  -0.1701
  C  C276  1  0.513210  0.900610  0.218190  1.0  -0.0956
  C  C277  1  0.513900  0.901280  0.257720  1.0  -0.0848
  C  C278  1  0.515850  0.953070  0.135630  1.0  0.75
  C  C279  1  0.518480  0.940640  0.250120  1.0  -0.0153
  C  C280  1  0.940010  0.516010  0.361470  1.0  -0.1718
  C  C281  1  0.900610  0.513210  0.367990  1.0  -0.0946
  C  C282  1  0.901280  0.513900  0.327100  1.0  -0.0833
  C  C283  1  0.953070  0.515850  0.395450  1.0  0.7506
  C  C284  1  0.940640  0.518480  0.290760  1.0  -0.0179
  C  C285  1  0.940010  0.182510  0.516010  1.0  -0.1702
  C  C286  1  0.900610  0.218190  0.513210  1.0  -0.0947
  C  C287  1  0.901280  0.257720  0.513900  1.0  -0.0825
  C  C288  1  0.953070  0.135630  0.515850  1.0  0.7502
  C  C289  1  0.940640  0.250120  0.518480  1.0  -0.0172
  C  C290  1  0.516010  0.361470  0.940010  1.0  -0.1713
  C  C291  1  0.513210  0.367990  0.900610  1.0  -0.0963
  C  C292  1  0.513900  0.327100  0.901280  1.0  -0.0824
  C  C293  1  0.515850  0.395450  0.953070  1.0  0.7497
  C  C294  1  0.518480  0.290760  0.940640  1.0  -0.0185
  C  C295  1  0.182510  0.940010  0.361470  1.0  -0.1713
  C  C296  1  0.218190  0.900610  0.367990  1.0  -0.0948
  C  C297  1  0.257720  0.901280  0.327100  1.0  -0.0827
  C  C298  1  0.135630  0.953070  0.395450  1.0  0.7487
  C  C299  1  0.250120  0.940640  0.290760  1.0  -0.0183
  C  C300  1  0.361470  0.516010  0.182510  1.0  -0.1717
  C  C301  1  0.367990  0.513210  0.218190  1.0  -0.0927
  C  C302  1  0.327100  0.513900  0.257720  1.0  -0.0834
  C  C303  1  0.395450  0.515850  0.135630  1.0  0.7473
  C  C304  1  0.290760  0.518480  0.250120  1.0  -0.0171
  C  C305  1  0.516010  0.182510  0.361470  1.0  -0.1728
  C  C306  1  0.513210  0.218190  0.367990  1.0  -0.0948
  C  C307  1  0.513900  0.257720  0.327100  1.0  -0.0833
  C  C308  1  0.515850  0.135630  0.395450  1.0  0.7496
  C  C309  1  0.518480  0.250120  0.290760  1.0  -0.0193
  C  C310  1  0.940010  0.361470  0.182510  1.0  -0.1708
  C  C311  1  0.900610  0.367990  0.218190  1.0  -0.0956
  C  C312  1  0.901280  0.327100  0.257720  1.0  -0.0846
  C  C313  1  0.953070  0.395450  0.135630  1.0  0.7488
  C  C314  1  0.940640  0.290760  0.250120  1.0  -0.017
  C  C315  1  0.361470  0.940010  0.516010  1.0  -0.1708
  C  C316  1  0.367990  0.900610  0.513210  1.0  -0.0953
  C  C317  1  0.327100  0.901280  0.513900  1.0  -0.0836
  C  C318  1  0.395450  0.953070  0.515850  1.0  0.7479
  C  C319  1  0.290760  0.940640  0.518480  1.0  -0.0194
  C  C320  1  0.182510  0.516010  0.940010  1.0  -0.1707
  C  C321  1  0.218190  0.513210  0.900610  1.0  -0.0946
  C  C322  1  0.257720  0.513900  0.901280  1.0  -0.0814
  C  C323  1  0.135630  0.515850  0.953070  1.0  0.7495
  C  C324  1  0.250120  0.518480  0.940640  1.0  -0.0183
  S  S325  1  0.194320  0.304740  0.978080  1.0  0.0634
  S  S326  1  0.304740  0.194320  0.522860  1.0  0.0643
  S  S327  1  0.978080  0.522860  0.194320  1.0  0.0614
  S  S328  1  0.522860  0.978080  0.304740  1.0  0.0641
  S  S329  1  0.194320  0.978080  0.522860  1.0  0.0655
  S  S330  1  0.304740  0.522860  0.978080  1.0  0.065
  S  S331  1  0.978080  0.194320  0.304740  1.0  0.0622
  S  S332  1  0.522860  0.304740  0.194320  1.0  0.0663
  S  S333  1  0.194320  0.522860  0.304740  1.0  0.0666
  S  S334  1  0.304740  0.978080  0.194320  1.0  0.0651
  S  S335  1  0.978080  0.304740  0.522860  1.0  0.0601
  S  S336  1  0.522860  0.194320  0.978080  1.0  0.0658
  S  S337  1  0.695260  0.805680  0.021920  1.0  0.0618
  S  S338  1  0.805680  0.695260  0.477140  1.0  0.0615
  S  S339  1  0.477140  0.021920  0.805680  1.0  0.0659
  S  S340  1  0.021920  0.477140  0.695260  1.0  0.0656
  S  S341  1  0.021920  0.805680  0.477140  1.0  0.0643
  S  S342  1  0.477140  0.695260  0.021920  1.0  0.0643
  S  S343  1  0.805680  0.021920  0.695260  1.0  0.0652
  S  S344  1  0.695260  0.477140  0.805680  1.0  0.0622
  S  S345  1  0.477140  0.805680  0.695260  1.0  0.0655
  S  S346  1  0.021920  0.695260  0.805680  1.0  0.0631
  S  S347  1  0.695260  0.021920  0.477140  1.0  0.0656
  S  S348  1  0.805680  0.477140  0.021920  1.0  0.066
  S  S349  1  0.805680  0.695260  0.021920  1.0  0.0618
  S  S350  1  0.695260  0.805680  0.477140  1.0  0.0615
  S  S351  1  0.021920  0.477140  0.805680  1.0  0.0652
  S  S352  1  0.477140  0.021920  0.695260  1.0  0.066
  S  S353  1  0.805680  0.021920  0.477140  1.0  0.065
  S  S354  1  0.695260  0.477140  0.021920  1.0  0.0625
  S  S355  1  0.021920  0.805680  0.695260  1.0  0.0655
  S  S356  1  0.477140  0.695260  0.805680  1.0  0.0649
  S  S357  1  0.805680  0.477140  0.695260  1.0  0.0649
  S  S358  1  0.695260  0.021920  0.805680  1.0  0.0657
  S  S359  1  0.021920  0.695260  0.477140  1.0  0.0634
  S  S360  1  0.477140  0.805680  0.021920  1.0  0.0659
  S  S361  1  0.304740  0.194320  0.978080  1.0  0.0648
  S  S362  1  0.194320  0.304740  0.522860  1.0  0.0639
  S  S363  1  0.522860  0.978080  0.194320  1.0  0.0645
  S  S364  1  0.978080  0.522860  0.304740  1.0  0.0611
  S  S365  1  0.978080  0.194320  0.522860  1.0  0.0616
  S  S366  1  0.522860  0.304740  0.978080  1.0  0.0639
  S  S367  1  0.194320  0.978080  0.304740  1.0  0.0641
  S  S368  1  0.304740  0.522860  0.194320  1.0  0.0653
  S  S369  1  0.522860  0.194320  0.304740  1.0  0.0677
  S  S370  1  0.978080  0.304740  0.194320  1.0  0.0619
  S  S371  1  0.304740  0.978080  0.522860  1.0  0.0646
  S  S372  1  0.194320  0.522860  0.978080  1.0  0.065
  S  S373  1  0.314610  0.314610  0.863310  1.0  0.0936
  S  S374  1  0.314610  0.314610  0.507470  1.0  0.0944
  S  S375  1  0.863310  0.507470  0.314610  1.0  0.0959
  S  S376  1  0.507470  0.863310  0.314610  1.0  0.097
  S  S377  1  0.314610  0.863310  0.507470  1.0  0.0979
  S  S378  1  0.314610  0.507470  0.863310  1.0  0.0945
  S  S379  1  0.863310  0.314610  0.314610  1.0  0.0972
  S  S380  1  0.507470  0.314610  0.314610  1.0  0.0993
  S  S381  1  0.314610  0.507470  0.314610  1.0  0.0955
  S  S382  1  0.314610  0.863310  0.314610  1.0  0.0973
  S  S383  1  0.863310  0.314610  0.507470  1.0  0.0965
  S  S384  1  0.507470  0.314610  0.863310  1.0  0.0964
  S  S385  1  0.685390  0.685390  0.136690  1.0  0.0953
  S  S386  1  0.685390  0.685390  0.492530  1.0  0.0954
  S  S387  1  0.492530  0.136690  0.685390  1.0  0.0965
  S  S388  1  0.136690  0.492530  0.685390  1.0  0.0899
  S  S389  1  0.136690  0.685390  0.492530  1.0  0.0922
  S  S390  1  0.492530  0.685390  0.136690  1.0  0.0966
  S  S391  1  0.685390  0.136690  0.685390  1.0  0.0967
  S  S392  1  0.685390  0.492530  0.685390  1.0  0.0963
  S  S393  1  0.492530  0.685390  0.685390  1.0  0.0971
  S  S394  1  0.136690  0.685390  0.685390  1.0  0.0929
  S  S395  1  0.685390  0.136690  0.492530  1.0  0.0975
  S  S396  1  0.685390  0.492530  0.136690  1.0  0.097
  O  O397  1  0.128660  0.435960  0.924540  1.0  -0.6091
  O  O398  1  0.107180  0.380800  0.991920  1.0  -0.6539
  O  O399  1  0.435960  0.128660  0.510840  1.0  -0.6091
  O  O400  1  0.380800  0.107180  0.520100  1.0  -0.6537
  O  O401  1  0.924540  0.510840  0.128660  1.0  -0.6081
  O  O402  1  0.991920  0.520100  0.107180  1.0  -0.6545
  O  O403  1  0.510840  0.924540  0.435960  1.0  -0.6106
  O  O404  1  0.520100  0.991920  0.380800  1.0  -0.6509
  O  O405  1  0.128660  0.924540  0.510840  1.0  -0.611
  O  O406  1  0.107180  0.991920  0.520100  1.0  -0.6499
  O  O407  1  0.435960  0.510840  0.924540  1.0  -0.6072
  O  O408  1  0.380800  0.520100  0.991920  1.0  -0.6517
  O  O409  1  0.924540  0.128660  0.435960  1.0  -0.6088
  O  O410  1  0.991920  0.107180  0.380800  1.0  -0.6553
  O  O411  1  0.510840  0.435960  0.128660  1.0  -0.6073
  O  O412  1  0.520100  0.380800  0.107180  1.0  -0.6526
  O  O413  1  0.128660  0.510840  0.435960  1.0  -0.6073
  O  O414  1  0.107180  0.520100  0.380800  1.0  -0.6571
  O  O415  1  0.435960  0.924540  0.128660  1.0  -0.6095
  O  O416  1  0.380800  0.991920  0.107180  1.0  -0.6519
  O  O417  1  0.924540  0.435960  0.510840  1.0  -0.61
  O  O418  1  0.991920  0.380800  0.520100  1.0  -0.6539
  O  O419  1  0.510840  0.128660  0.924540  1.0  -0.6074
  O  O420  1  0.520100  0.107180  0.991920  1.0  -0.6554
  O  O421  1  0.564040  0.871340  0.075460  1.0  -0.6078
  O  O422  1  0.619200  0.892820  0.008080  1.0  -0.6528
  O  O423  1  0.871340  0.564040  0.489160  1.0  -0.6084
  O  O424  1  0.892820  0.619200  0.479900  1.0  -0.6532
  O  O425  1  0.489160  0.075460  0.871340  1.0  -0.6091
  O  O426  1  0.479900  0.008080  0.892820  1.0  -0.6535
  O  O427  1  0.075460  0.489160  0.564040  1.0  -0.609
  O  O428  1  0.008080  0.479900  0.619200  1.0  -0.6541
  O  O429  1  0.075460  0.871340  0.489160  1.0  -0.6102
  O  O430  1  0.008080  0.892820  0.479900  1.0  -0.6535
  O  O431  1  0.489160  0.564040  0.075460  1.0  -0.608
  O  O432  1  0.479900  0.619200  0.008080  1.0  -0.6535
  O  O433  1  0.871340  0.075460  0.564040  1.0  -0.6107
  O  O434  1  0.892820  0.008080  0.619200  1.0  -0.6529
  O  O435  1  0.564040  0.489160  0.871340  1.0  -0.6065
  O  O436  1  0.619200  0.479900  0.892820  1.0  -0.6508
  O  O437  1  0.489160  0.871340  0.564040  1.0  -0.6079
  O  O438  1  0.479900  0.892820  0.619200  1.0  -0.6561
  O  O439  1  0.075460  0.564040  0.871340  1.0  -0.6102
  O  O440  1  0.008080  0.619200  0.892820  1.0  -0.6532
  O  O441  1  0.564040  0.075460  0.489160  1.0  -0.608
  O  O442  1  0.619200  0.008080  0.479900  1.0  -0.6531
  O  O443  1  0.871340  0.489160  0.075460  1.0  -0.6074
  O  O444  1  0.892820  0.479900  0.008080  1.0  -0.6571
  O  O445  1  0.871340  0.564040  0.075460  1.0  -0.6093
  O  O446  1  0.892820  0.619200  0.008080  1.0  -0.6549
  O  O447  1  0.564040  0.871340  0.489160  1.0  -0.6079
  O  O448  1  0.619200  0.892820  0.479900  1.0  -0.6518
  O  O449  1  0.075460  0.489160  0.871340  1.0  -0.6099
  O  O450  1  0.008080  0.479900  0.892820  1.0  -0.6549
  O  O451  1  0.489160  0.075460  0.564040  1.0  -0.6077
  O  O452  1  0.479900  0.008080  0.619200  1.0  -0.6522
  O  O453  1  0.871340  0.075460  0.489160  1.0  -0.6118
  O  O454  1  0.892820  0.008080  0.479900  1.0  -0.6539
  O  O455  1  0.564040  0.489160  0.075460  1.0  -0.6064
  O  O456  1  0.619200  0.479900  0.008080  1.0  -0.6529
  O  O457  1  0.075460  0.871340  0.564040  1.0  -0.6089
  O  O458  1  0.008080  0.892820  0.619200  1.0  -0.6517
  O  O459  1  0.489160  0.564040  0.871340  1.0  -0.6067
  O  O460  1  0.479900  0.619200  0.892820  1.0  -0.6498
  O  O461  1  0.871340  0.489160  0.564040  1.0  -0.6079
  O  O462  1  0.892820  0.479900  0.619200  1.0  -0.6564
  O  O463  1  0.564040  0.075460  0.871340  1.0  -0.6084
  O  O464  1  0.619200  0.008080  0.892820  1.0  -0.6523
  O  O465  1  0.075460  0.564040  0.489160  1.0  -0.61
  O  O466  1  0.008080  0.619200  0.479900  1.0  -0.6543
  O  O467  1  0.489160  0.871340  0.075460  1.0  -0.6071
  O  O468  1  0.479900  0.892820  0.008080  1.0  -0.6582
  O  O469  1  0.435960  0.128660  0.924540  1.0  -0.6086
  O  O470  1  0.380800  0.107180  0.991920  1.0  -0.6519
  O  O471  1  0.128660  0.435960  0.510840  1.0  -0.6092
  O  O472  1  0.107180  0.380800  0.520100  1.0  -0.6555
  O  O473  1  0.510840  0.924540  0.128660  1.0  -0.6095
  O  O474  1  0.520100  0.991920  0.107180  1.0  -0.6496
  O  O475  1  0.924540  0.510840  0.435960  1.0  -0.6094
  O  O476  1  0.991920  0.520100  0.380800  1.0  -0.6547
  O  O477  1  0.924540  0.128660  0.510840  1.0  -0.6074
  O  O478  1  0.991920  0.107180  0.520100  1.0  -0.6529
  O  O479  1  0.510840  0.435960  0.924540  1.0  -0.6077
  O  O480  1  0.520100  0.380800  0.991920  1.0  -0.6505
  O  O481  1  0.128660  0.924540  0.435960  1.0  -0.6124
  O  O482  1  0.107180  0.991920  0.380800  1.0  -0.6525
  O  O483  1  0.435960  0.510840  0.128660  1.0  -0.6076
  O  O484  1  0.380800  0.520100  0.107180  1.0  -0.6541
  O  O485  1  0.510840  0.128660  0.435960  1.0  -0.6074
  O  O486  1  0.520100  0.107180  0.380800  1.0  -0.6585
  O  O487  1  0.924540  0.435960  0.128660  1.0  -0.6095
  O  O488  1  0.991920  0.380800  0.107180  1.0  -0.655
  O  O489  1  0.435960  0.924540  0.510840  1.0  -0.61
  O  O490  1  0.380800  0.991920  0.520100  1.0  -0.6515
  O  O491  1  0.128660  0.510840  0.924540  1.0  -0.6072
  O  O492  1  0.107180  0.520100  0.991920  1.0  -0.655
  O  O493  1  0.068910  0.465030  0.001030  1.0  -1.214
  O  O494  1  0.465030  0.068910  0.465030  1.0  -1.2162
  O  O495  1  0.001030  0.465030  0.068910  1.0  -1.2144
  O  O496  1  0.465030  0.001030  0.465030  1.0  -1.216
  O  O497  1  0.068910  0.001030  0.465030  1.0  -1.2164
  O  O498  1  0.465030  0.465030  0.001030  1.0  -1.2188
  O  O499  1  0.001030  0.068910  0.465030  1.0  -1.216
  O  O500  1  0.465030  0.465030  0.068910  1.0  -1.2188
  O  O501  1  0.068910  0.465030  0.465030  1.0  -1.2154
  O  O502  1  0.465030  0.001030  0.068910  1.0  -1.2147
  O  O503  1  0.001030  0.465030  0.465030  1.0  -1.215
  O  O504  1  0.465030  0.068910  0.001030  1.0  -1.2148
  O  O505  1  0.534970  0.931090  0.998970  1.0  -1.2156
  O  O506  1  0.931090  0.534970  0.534970  1.0  -1.2148
  O  O507  1  0.534970  0.998970  0.931090  1.0  -1.215
  O  O508  1  0.998970  0.534970  0.534970  1.0  -1.2145
  O  O509  1  0.998970  0.931090  0.534970  1.0  -1.2187
  O  O510  1  0.534970  0.534970  0.998970  1.0  -1.2156
  O  O511  1  0.931090  0.998970  0.534970  1.0  -1.2191
  O  O512  1  0.534970  0.534970  0.931090  1.0  -1.2165
  O  O513  1  0.534970  0.931090  0.534970  1.0  -1.2141
  O  O514  1  0.998970  0.534970  0.931090  1.0  -1.2158
  O  O515  1  0.534970  0.998970  0.534970  1.0  -1.2144
  O  O516  1  0.931090  0.534970  0.998970  1.0  -1.2163
  O  O517  1  0.034030  0.549130  0.965970  1.0  -1.0977
  O  O518  1  0.549130  0.034030  0.450870  1.0  -1.0953
  O  O519  1  0.965970  0.450870  0.034030  1.0  -1.0946
  O  O520  1  0.450870  0.965970  0.549130  1.0  -1.0954
  O  O521  1  0.034030  0.965970  0.450870  1.0  -1.0997
  O  O522  1  0.549130  0.450870  0.965970  1.0  -1.0971
  O  O523  1  0.965970  0.034030  0.549130  1.0  -1.0946
  O  O524  1  0.450870  0.549130  0.034030  1.0  -1.0978
  O  O525  1  0.034030  0.450870  0.549130  1.0  -1.096
  O  O526  1  0.549130  0.965970  0.034030  1.0  -1.0958
  O  O527  1  0.965970  0.549130  0.450870  1.0  -1.0965
  O  O528  1  0.450870  0.034030  0.965970  1.0  -1.0955
  O  O529  1  0.450870  0.965970  0.034030  1.0  -1.0951
  O  O530  1  0.965970  0.450870  0.549130  1.0  -1.0964
  O  O531  1  0.549130  0.034030  0.965970  1.0  -1.0957
  O  O532  1  0.034030  0.549130  0.450870  1.0  -1.0972
  O  O533  1  0.034030  0.965970  0.549130  1.0  -1.0945
  O  O534  1  0.549130  0.450870  0.034030  1.0  -1.0967
  O  O535  1  0.965970  0.034030  0.450870  1.0  -1.0994
  O  O536  1  0.450870  0.549130  0.965970  1.0  -1.0988
  O  O537  1  0.549130  0.965970  0.450870  1.0  -1.0954
  O  O538  1  0.034030  0.450870  0.965970  1.0  -1.0944
  O  O539  1  0.450870  0.034030  0.549130  1.0  -1.0954
  O  O540  1  0.965970  0.549130  0.034030  1.0  -1.0967
