# generated using pymatgen
data_Co3H40C40(NO8)2
_symmetry_space_group_name_H-M   'P 1'
_cell_length_a   9.77940000
_cell_length_b   17.30260000
_cell_length_c   18.22740000
_cell_angle_alpha   92.41720000
_cell_angle_beta   90.00000000
_cell_angle_gamma   106.41500000
_symmetry_Int_Tables_number   1
_chemical_formula_structural   Co3H40C40(NO8)2
_chemical_formula_sum   'Co6 H80 C80 N4 O32'
_cell_volume   2955.66635185
_cell_formula_units_Z   2
loop_
 _symmetry_equiv_pos_site_id
 _symmetry_equiv_pos_as_xyz
  1  'x, y, z'
loop_
 _atom_site_type_symbol
 _atom_site_label
 _atom_site_symmetry_multiplicity
 _atom_site_fract_x
 _atom_site_fract_y
 _atom_site_fract_z
 _atom_site_occupancy
 _atom_site_charge
  Co  Co1  1  0.144910  0.692380  0.002100  1.0  1.0812
  Co  Co2  1  0.452540  0.307630  0.497900  1.0  1.0798
  Co  Co3  1  0.855090  0.307630  0.997900  1.0  1.0767
  Co  Co4  1  0.547460  0.692370  0.502100  1.0  1.0779
  Co  Co5  1  0.000000  0.500000  0.000000  1.0  1.1673
  Co  Co6  1  0.500000  0.500000  0.500000  1.0  1.1681
  H  H7  1  0.590780  0.925880  0.093070  1.0  0.1115
  H  H8  1  0.289580  0.929840  0.923130  1.0  0.1146
  H  H9  1  0.530270  0.572220  0.883800  1.0  0.1167
  H  H10  1  0.303050  0.505640  0.083910  1.0  0.1217
  H  H11  1  0.007020  0.742940  0.222650  1.0  0.1227
  H  H12  1  0.877180  0.736240  0.339720  1.0  0.1241
  H  H13  1  0.622680  0.496520  0.276670  1.0  0.1188
  H  H14  1  0.748620  0.504520  0.158490  1.0  0.1199
  H  H15  1  0.664900  0.074120  0.406930  1.0  0.1115
  H  H16  1  0.359740  0.070160  0.576870  1.0  0.1139
  H  H17  1  0.958050  0.427780  0.616200  1.0  0.1171
  H  H18  1  0.797410  0.494360  0.416090  1.0  0.1217
  H  H19  1  0.264080  0.257060  0.277350  1.0  0.1222
  H  H20  1  0.140940  0.263760  0.160280  1.0  0.1242
  H  H21  1  0.126160  0.503480  0.223330  1.0  0.1183
  H  H22  1  0.244100  0.495480  0.341510  1.0  0.1194
  H  H23  1  0.409220  0.074120  0.906930  1.0  0.1116
  H  H24  1  0.710420  0.070160  0.076870  1.0  0.1149
  H  H25  1  0.469730  0.427780  0.116200  1.0  0.1183
  H  H26  1  0.696950  0.494360  0.916090  1.0  0.121
  H  H27  1  0.992980  0.257060  0.777350  1.0  0.1224
  H  H28  1  0.122820  0.263760  0.660280  1.0  0.1243
  H  H29  1  0.377320  0.503480  0.723330  1.0  0.1182
  H  H30  1  0.251380  0.495480  0.841510  1.0  0.1195
  H  H31  1  0.335100  0.925880  0.593070  1.0  0.1115
  H  H32  1  0.640260  0.929840  0.423130  1.0  0.1155
  H  H33  1  0.041950  0.572220  0.383800  1.0  0.1182
  H  H34  1  0.202590  0.505640  0.583910  1.0  0.1211
  H  H35  1  0.735920  0.742940  0.722650  1.0  0.1233
  H  H36  1  0.859060  0.736240  0.839720  1.0  0.1243
  H  H37  1  0.873840  0.496520  0.776670  1.0  0.1187
  H  H38  1  0.755900  0.504520  0.658490  1.0  0.1196
  H  H39  1  0.434460  0.785420  0.834660  1.0  0.1065
  H  H40  1  0.289860  0.707340  0.840810  1.0  0.1372
  H  H41  1  0.446720  0.756980  0.703530  1.0  0.1091
  H  H42  1  0.465520  0.678940  0.758340  1.0  0.0961
  H  H43  1  0.202150  0.684120  0.676240  1.0  0.1071
  H  H44  1  0.307860  0.621000  0.657530  1.0  0.1163
  H  H45  1  0.207370  0.610460  0.736510  1.0  0.1171
  H  H46  1  0.161780  0.772220  0.757040  1.0  0.1118
  H  H47  1  0.210360  0.822240  0.843710  1.0  0.0977
  H  H48  1  0.369390  0.864180  0.702680  1.0  0.0999
  H  H49  1  0.268740  0.918720  0.747610  1.0  0.1066
  H  H50  1  0.424400  0.911080  0.787250  1.0  0.1248
  H  H51  1  0.649040  0.214580  0.665340  1.0  0.1064
  H  H52  1  0.582520  0.292660  0.659190  1.0  0.1367
  H  H53  1  0.689740  0.243020  0.796470  1.0  0.1087
  H  H54  1  0.786580  0.321060  0.741660  1.0  0.096
  H  H55  1  0.518030  0.315880  0.823760  1.0  0.1061
  H  H56  1  0.686860  0.379000  0.842470  1.0  0.1152
  H  H57  1  0.596910  0.389540  0.763490  1.0  0.1172
  H  H58  1  0.389560  0.227780  0.742960  1.0  0.1102
  H  H59  1  0.388120  0.177760  0.656290  1.0  0.0985
  H  H60  1  0.505210  0.135820  0.797320  1.0  0.1003
  H  H61  1  0.350020  0.081280  0.752390  1.0  0.1059
  H  H62  1  0.513320  0.088920  0.712750  1.0  0.1256
  H  H63  1  0.565540  0.214580  0.165340  1.0  0.1077
  H  H64  1  0.710140  0.292660  0.159190  1.0  0.1366
  H  H65  1  0.553280  0.243020  0.296470  1.0  0.1095
  H  H66  1  0.534480  0.321060  0.241660  1.0  0.0963
  H  H67  1  0.797850  0.315880  0.323760  1.0  0.1065
  H  H68  1  0.692140  0.379000  0.342470  1.0  0.1157
  H  H69  1  0.792630  0.389540  0.263490  1.0  0.1178
  H  H70  1  0.838220  0.227780  0.242960  1.0  0.1109
  H  H71  1  0.789640  0.177760  0.156290  1.0  0.0983
  H  H72  1  0.630610  0.135820  0.297320  1.0  0.1008
  H  H73  1  0.731260  0.081280  0.252390  1.0  0.1072
  H  H74  1  0.575600  0.088920  0.212750  1.0  0.1247
  H  H75  1  0.350960  0.785420  0.334660  1.0  0.1063
  H  H76  1  0.417480  0.707340  0.340810  1.0  0.137
  H  H77  1  0.310260  0.756980  0.203530  1.0  0.1106
  H  H78  1  0.213420  0.678940  0.258340  1.0  0.0964
  H  H79  1  0.481970  0.684120  0.176240  1.0  0.108
  H  H80  1  0.313140  0.621000  0.157530  1.0  0.1167
  H  H81  1  0.403090  0.610460  0.236510  1.0  0.1178
  H  H82  1  0.610440  0.772220  0.257040  1.0  0.1118
  H  H83  1  0.611880  0.822240  0.343710  1.0  0.0972
  H  H84  1  0.494790  0.864180  0.202680  1.0  0.1004
  H  H85  1  0.649980  0.918720  0.247610  1.0  0.1074
  H  H86  1  0.486680  0.911080  0.287250  1.0  0.1234
  C  C87  1  0.358430  0.831080  0.019910  1.0  0.6957
  C  C88  1  0.432490  0.918360  0.009020  1.0  -0.0868
  C  C89  1  0.551090  0.958260  0.052370  1.0  -0.0937
  C  C90  1  0.381820  0.960540  0.956740  1.0  -0.0948
  C  C91  1  0.308510  0.592460  0.962700  1.0  0.6424
  C  C92  1  0.406040  0.543580  0.981800  1.0  -0.0995
  C  C93  1  0.517180  0.540500  0.934450  1.0  -0.0945
  C  C94  1  0.389060  0.503080  0.047310  1.0  -0.1065
  C  C95  1  0.955660  0.630300  0.110000  1.0  0.672
  C  C96  1  0.883460  0.624840  0.182520  1.0  -0.0934
  C  C97  1  0.921500  0.689680  0.234070  1.0  -0.1093
  C  C98  1  0.849380  0.685660  0.300120  1.0  -0.1066
  C  C99  1  0.740700  0.616120  0.315150  1.0  -0.1234
  C  C100  1  0.705390  0.550720  0.264430  1.0  -0.1149
  C  C101  1  0.776340  0.555140  0.198040  1.0  -0.1059
  C  C102  1  0.660590  0.611780  0.385350  1.0  0.6866
  C  C103  1  0.527350  0.168920  0.480090  1.0  0.6964
  C  C104  1  0.514130  0.081640  0.490980  1.0  -0.0871
  C  C105  1  0.592830  0.041740  0.447630  1.0  -0.0949
  C  C106  1  0.421280  0.039460  0.543260  1.0  -0.0958
  C  C107  1  0.716050  0.407540  0.537300  1.0  0.6426
  C  C108  1  0.862460  0.456420  0.518200  1.0  -0.0995
  C  C109  1  0.976680  0.459500  0.565550  1.0  -0.0943
  C  C110  1  0.885980  0.496920  0.452690  1.0  -0.1068
  C  C111  1  0.325360  0.369700  0.390000  1.0  0.6707
  C  C112  1  0.258620  0.375160  0.317480  1.0  -0.0933
  C  C113  1  0.231820  0.310320  0.265930  1.0  -0.1071
  C  C114  1  0.163720  0.314340  0.199880  1.0  -0.1064
  C  C115  1  0.124580  0.383880  0.184850  1.0  -0.1243
  C  C116  1  0.154670  0.449280  0.235570  1.0  -0.1152
  C  C117  1  0.221200  0.444860  0.301960  1.0  -0.1059
  C  C118  1  0.048810  0.388220  0.114650  1.0  0.6866
  C  C119  1  0.641570  0.168920  0.980090  1.0  0.6968
  C  C120  1  0.567510  0.081640  0.990980  1.0  -0.0867
  C  C121  1  0.448910  0.041740  0.947630  1.0  -0.0956
  C  C122  1  0.618180  0.039460  0.043260  1.0  -0.0972
  C  C123  1  0.691490  0.407540  0.037300  1.0  0.6424
  C  C124  1  0.593960  0.456420  0.018200  1.0  -0.0996
  C  C125  1  0.482820  0.459500  0.065550  1.0  -0.0942
  C  C126  1  0.610940  0.496920  0.952690  1.0  -0.1042
  C  C127  1  0.044340  0.369700  0.890000  1.0  0.6717
  C  C128  1  0.116540  0.375160  0.817480  1.0  -0.0934
  C  C129  1  0.078500  0.310320  0.765930  1.0  -0.1072
  C  C130  1  0.150620  0.314340  0.699880  1.0  -0.1059
  C  C131  1  0.259300  0.383880  0.684850  1.0  -0.1244
  C  C132  1  0.294610  0.449280  0.735570  1.0  -0.1116
  C  C133  1  0.223660  0.444860  0.801960  1.0  -0.1061
  C  C134  1  0.339410  0.388220  0.614650  1.0  0.6877
  C  C135  1  0.472650  0.831080  0.519910  1.0  0.6961
  C  C136  1  0.485870  0.918360  0.509020  1.0  -0.0869
  C  C137  1  0.407170  0.958260  0.552370  1.0  -0.0944
  C  C138  1  0.578720  0.960540  0.456740  1.0  -0.0959
  C  C139  1  0.283950  0.592460  0.462700  1.0  0.6424
  C  C140  1  0.137540  0.543580  0.481800  1.0  -0.0998
  C  C141  1  0.023320  0.540500  0.434450  1.0  -0.0943
  C  C142  1  0.114020  0.503080  0.547310  1.0  -0.1045
  C  C143  1  0.674640  0.630300  0.610000  1.0  0.673
  C  C144  1  0.741380  0.624840  0.682520  1.0  -0.0933
  C  C145  1  0.768180  0.689680  0.734070  1.0  -0.1099
  C  C146  1  0.836280  0.685660  0.800120  1.0  -0.1067
  C  C147  1  0.875420  0.616120  0.815150  1.0  -0.1236
  C  C148  1  0.845330  0.550720  0.764430  1.0  -0.1118
  C  C149  1  0.778800  0.555140  0.698040  1.0  -0.106
  C  C150  1  0.951190  0.611780  0.885350  1.0  0.6876
  C  C151  1  0.390630  0.711040  0.740750  1.0  0.0022
  C  C152  1  0.267920  0.652260  0.699740  1.0  -0.2653
  C  C153  1  0.252110  0.804980  0.791910  1.0  0.0154
  C  C154  1  0.334380  0.880200  0.754610  1.0  -0.2721
  C  C155  1  0.679590  0.288960  0.759250  1.0  0.003
  C  C156  1  0.615660  0.347740  0.800260  1.0  -0.2656
  C  C157  1  0.447130  0.195020  0.708090  1.0  0.0165
  C  C158  1  0.454180  0.119800  0.745390  1.0  -0.2713
  C  C159  1  0.609370  0.288960  0.259250  1.0  0.0015
  C  C160  1  0.732080  0.347740  0.300260  1.0  -0.2658
  C  C161  1  0.747890  0.195020  0.208090  1.0  0.0183
  C  C162  1  0.665620  0.119800  0.245390  1.0  -0.271
  C  C163  1  0.320410  0.711040  0.240750  1.0  0.0014
  C  C164  1  0.384340  0.652260  0.199740  1.0  -0.2661
  C  C165  1  0.552870  0.804980  0.291910  1.0  0.0178
  C  C166  1  0.545820  0.880200  0.254610  1.0  -0.2717
  N  N167  1  0.344220  0.751520  0.806570  1.0  -0.0514
  N  N168  1  0.592700  0.248480  0.693430  1.0  -0.0492
  N  N169  1  0.655780  0.248480  0.193430  1.0  -0.0495
  N  N170  1  0.407300  0.751520  0.306570  1.0  -0.0512
  O  O171  1  0.256270  0.798260  0.973810  1.0  -0.5959
  O  O172  1  0.393400  0.794680  0.070450  1.0  -0.6009
  O  O173  1  0.207700  0.592980  0.008930  1.0  -0.6633
  O  O174  1  0.328420  0.632280  0.906850  1.0  -0.6169
  O  O175  1  0.056380  0.693420  0.099700  1.0  -0.5918
  O  O176  1  0.910700  0.573360  0.063050  1.0  -0.6183
  O  O177  1  0.670470  0.678300  0.419820  1.0  -0.5829
  O  O178  1  0.589650  0.543220  0.404120  1.0  -0.5728
  O  O179  1  0.458010  0.201740  0.526190  1.0  -0.5959
  O  O180  1  0.598720  0.205320  0.429550  1.0  -0.6006
  O  O181  1  0.614720  0.407020  0.491070  1.0  -0.6636
  O  O182  1  0.696140  0.367720  0.593150  1.0  -0.6174
  O  O183  1  0.362960  0.306580  0.400300  1.0  -0.5911
  O  O184  1  0.337340  0.426640  0.436950  1.0  -0.6193
  O  O185  1  0.992170  0.321700  0.080180  1.0  -0.5833
  O  O186  1  0.046430  0.456780  0.095880  1.0  -0.5725
  O  O187  1  0.743730  0.201740  0.026190  1.0  -0.5966
  O  O188  1  0.606600  0.205320  0.929550  1.0  -0.601
  O  O189  1  0.792300  0.407020  0.991070  1.0  -0.6634
  O  O190  1  0.671580  0.367720  0.093150  1.0  -0.6176
  O  O191  1  0.943620  0.306580  0.900300  1.0  -0.592
  O  O192  1  0.089300  0.426640  0.936950  1.0  -0.6191
  O  O193  1  0.329530  0.321700  0.580180  1.0  -0.5847
  O  O194  1  0.410350  0.456780  0.595880  1.0  -0.5722
  O  O195  1  0.541990  0.798260  0.473810  1.0  -0.5972
  O  O196  1  0.401280  0.794680  0.570450  1.0  -0.6011
  O  O197  1  0.385280  0.592980  0.508930  1.0  -0.6636
  O  O198  1  0.303860  0.632280  0.406850  1.0  -0.6168
  O  O199  1  0.637040  0.693420  0.599700  1.0  -0.5909
  O  O200  1  0.662660  0.573360  0.563050  1.0  -0.6187
  O  O201  1  0.007830  0.678300  0.919820  1.0  -0.5842
  O  O202  1  0.953570  0.543220  0.904120  1.0  -0.5719
