# generated using pymatgen
data_Zn3H40C40(NO8)2
_symmetry_space_group_name_H-M   'P 1'
_cell_length_a   9.78440000
_cell_length_b   17.33530000
_cell_length_c   18.21560000
_cell_angle_alpha   92.50670000
_cell_angle_beta   90.00000000
_cell_angle_gamma   106.39200000
_symmetry_Int_Tables_number   1
_chemical_formula_structural   Zn3H40C40(NO8)2
_chemical_formula_sum   'Zn6 H80 C80 N4 O32'
_cell_volume   2960.98270595
_cell_formula_units_Z   2
loop_
 _symmetry_equiv_pos_site_id
 _symmetry_equiv_pos_as_xyz
  1  'x, y, z'
loop_
 _atom_site_type_symbol
 _atom_site_label
 _atom_site_symmetry_multiplicity
 _atom_site_fract_x
 _atom_site_fract_y
 _atom_site_fract_z
 _atom_site_occupancy
 _atom_site_charge
  Zn  Zn1  1  0.046750  0.693200  0.003490  1.0  0.9785
  Zn  Zn2  1  0.353550  0.306800  0.496510  1.0  0.9779
  Zn  Zn3  1  0.953250  0.306800  0.996510  1.0  0.9779
  Zn  Zn4  1  0.646450  0.693200  0.503490  1.0  0.9789
  Zn  Zn5  1  0.000000  0.500000  0.000000  1.0  1.103
  Zn  Zn6  1  0.500000  0.500000  0.500000  1.0  1.103
  H  H7  1  0.131000  0.933400  0.929000  1.0  0.1024
  H  H8  1  0.845500  0.931800  0.087600  1.0  0.1044
  H  H9  1  0.644900  0.271400  0.665100  1.0  0.1118
  H  H10  1  0.758800  0.265400  0.775200  1.0  0.1029
  H  H11  1  0.738200  0.488200  0.835000  1.0  0.0972
  H  H12  1  0.628800  0.495000  0.724200  1.0  0.0943
  H  H13  1  0.691000  0.506400  0.078400  1.0  0.0918
  H  H14  1  0.537400  0.567600  0.890900  1.0  0.0945
  H  H15  1  0.197600  0.066600  0.571000  1.0  0.1013
  H  H16  1  0.913700  0.068200  0.412400  1.0  0.1044
  H  H17  1  0.373500  0.728600  0.834900  1.0  0.1123
  H  H18  1  0.493400  0.734600  0.724800  1.0  0.1034
  H  H19  1  0.250000  0.511800  0.665000  1.0  0.0971
  H  H20  1  0.133800  0.505000  0.775800  1.0  0.094
  H  H21  1  0.184600  0.493600  0.421600  1.0  0.0916
  H  H22  1  0.969800  0.432400  0.609100  1.0  0.095
  H  H23  1  0.869000  0.066600  0.071000  1.0  0.1007
  H  H24  1  0.154500  0.068200  0.912400  1.0  0.1043
  H  H25  1  0.355100  0.728600  0.334900  1.0  0.1126
  H  H26  1  0.241200  0.734600  0.224800  1.0  0.1042
  H  H27  1  0.261800  0.511800  0.165000  1.0  0.0973
  H  H28  1  0.371200  0.505000  0.275800  1.0  0.0943
  H  H29  1  0.309000  0.493600  0.921600  1.0  0.0912
  H  H30  1  0.462600  0.432400  0.109100  1.0  0.0951
  H  H31  1  0.802400  0.933400  0.429000  1.0  0.1013
  H  H32  1  0.086300  0.931800  0.587600  1.0  0.1045
  H  H33  1  0.626500  0.271400  0.165100  1.0  0.1119
  H  H34  1  0.506600  0.265400  0.275200  1.0  0.1028
  H  H35  1  0.750000  0.488200  0.335000  1.0  0.0974
  H  H36  1  0.866200  0.495000  0.224200  1.0  0.0943
  H  H37  1  0.815400  0.506400  0.578400  1.0  0.0911
  H  H38  1  0.030200  0.567600  0.390900  1.0  0.0947
  H  H39  1  0.915900  0.713600  0.836700  1.0  0.2393
  H  H40  1  0.857800  0.781400  0.831300  1.0  0.2301
  H  H41  1  0.725500  0.683000  0.756200  1.0  0.077
  H  H42  1  0.812300  0.752000  0.707500  1.0  0.0776
  H  H43  1  0.899800  0.613800  0.733500  1.0  0.1052
  H  H44  1  0.821500  0.624400  0.661100  1.0  0.0987
  H  H45  1  0.974600  0.680600  0.679700  1.0  0.1045
  H  H46  1  0.104600  0.820400  0.838900  1.0  0.0748
  H  H47  1  0.103900  0.776400  0.761700  1.0  0.0754
  H  H48  1  0.991700  0.908400  0.785200  1.0  0.1087
  H  H49  1  0.140500  0.915400  0.749800  1.0  0.1075
  H  H50  1  0.000500  0.866200  0.708200  1.0  0.1044
  H  H51  1  0.202300  0.286400  0.663300  1.0  0.2409
  H  H52  1  0.076400  0.218600  0.668700  1.0  0.231
  H  H53  1  0.042500  0.317000  0.743800  1.0  0.0773
  H  H54  1  0.060300  0.248000  0.792500  1.0  0.077
  H  H55  1  0.286000  0.386200  0.766500  1.0  0.1056
  H  H56  1  0.197100  0.375600  0.838900  1.0  0.0989
  H  H57  1  0.294000  0.319400  0.820300  1.0  0.1017
  H  H58  1  0.284200  0.179600  0.661100  1.0  0.0738
  H  H59  1  0.327500  0.223600  0.738300  1.0  0.0745
  H  H60  1  0.083300  0.091600  0.714800  1.0  0.1092
  H  H61  1  0.225100  0.084600  0.750200  1.0  0.1067
  H  H62  1  0.134300  0.133800  0.791800  1.0  0.1053
  H  H63  1  0.084100  0.286400  0.163300  1.0  0.2406
  H  H64  1  0.142200  0.218600  0.168700  1.0  0.2305
  H  H65  1  0.274500  0.317000  0.243800  1.0  0.0792
  H  H66  1  0.187700  0.248000  0.292500  1.0  0.0763
  H  H67  1  0.100200  0.386200  0.266500  1.0  0.1056
  H  H68  1  0.178500  0.375600  0.338900  1.0  0.099
  H  H69  1  0.025400  0.319400  0.320300  1.0  0.102
  H  H70  1  0.895400  0.179600  0.161100  1.0  0.0745
  H  H71  1  0.896100  0.223600  0.238300  1.0  0.0707
  H  H72  1  0.008300  0.091600  0.214800  1.0  0.1101
  H  H73  1  0.859500  0.084600  0.250200  1.0  0.1076
  H  H74  1  0.999500  0.133800  0.291800  1.0  0.1052
  H  H75  1  0.797700  0.713600  0.336700  1.0  0.2385
  H  H76  1  0.923600  0.781400  0.331300  1.0  0.2313
  H  H77  1  0.957500  0.683000  0.256200  1.0  0.0787
  H  H78  1  0.939700  0.752000  0.207500  1.0  0.0762
  H  H79  1  0.714000  0.613800  0.233500  1.0  0.1047
  H  H80  1  0.802900  0.624400  0.161100  1.0  0.098
  H  H81  1  0.706000  0.680600  0.179700  1.0  0.1024
  H  H82  1  0.715800  0.820400  0.338900  1.0  0.0741
  H  H83  1  0.672500  0.776400  0.261700  1.0  0.0726
  H  H84  1  0.916700  0.908400  0.285200  1.0  0.1097
  H  H85  1  0.774900  0.915400  0.249800  1.0  0.1077
  H  H86  1  0.865700  0.866200  0.208200  1.0  0.1042
  C  C87  1  0.971670  0.831220  0.021370  1.0  0.6883
  C  C88  1  0.985600  0.918760  0.009560  1.0  -0.1307
  C  C89  1  0.078150  0.960040  0.957480  1.0  -0.0323
  C  C90  1  0.907320  0.958940  0.052430  1.0  -0.0496
  C  C91  1  0.548670  0.388140  0.613490  1.0  0.6807
  C  C92  1  0.624290  0.383980  0.683790  1.0  -0.1541
  C  C93  1  0.663820  0.314860  0.699190  1.0  -0.0293
  C  C94  1  0.757820  0.375460  0.816930  1.0  -0.1433
  C  C95  1  0.731210  0.311100  0.765270  1.0  -0.0229
  C  C96  1  0.719460  0.444860  0.801050  1.0  0.0021
  C  C97  1  0.653660  0.448720  0.734810  1.0  -0.0219
  C  C98  1  0.824740  0.370900  0.889650  1.0  0.6822
  C  C99  1  0.783300  0.593260  0.961950  1.0  0.6322
  C  C100  1  0.637180  0.543920  0.981820  1.0  -0.1308
  C  C101  1  0.614560  0.503700  0.047090  1.0  -0.0393
  C  C102  1  0.522180  0.540440  0.934450  1.0  -0.019
  C  C103  1  0.140450  0.168780  0.478630  1.0  0.688
  C  C104  1  0.066840  0.081240  0.490440  1.0  -0.1309
  C  C105  1  0.118110  0.039960  0.542520  1.0  -0.0331
  C  C106  1  0.948380  0.041060  0.447570  1.0  -0.0501
  C  C107  1  0.160530  0.611860  0.886510  1.0  0.6811
  C  C108  1  0.240310  0.616020  0.816210  1.0  -0.1537
  C  C109  1  0.348960  0.685140  0.800810  1.0  -0.0288
  C  C110  1  0.382360  0.624540  0.683070  1.0  -0.1438
  C  C111  1  0.420110  0.688900  0.734730  1.0  -0.0236
  C  C112  1  0.274600  0.555140  0.698950  1.0  0.0033
  C  C113  1  0.204940  0.551280  0.765190  1.0  -0.0218
  C  C114  1  0.453840  0.629100  0.610350  1.0  0.6833
  C  C115  1  0.190040  0.406740  0.538050  1.0  0.633
  C  C116  1  0.093260  0.456080  0.518180  1.0  -0.1309
  C  C117  1  0.110860  0.496300  0.452910  1.0  -0.0393
  C  C118  1  0.981740  0.459560  0.565550  1.0  -0.0205
  C  C119  1  0.028330  0.168780  0.978630  1.0  0.6873
  C  C120  1  0.014400  0.081240  0.990440  1.0  -0.1311
  C  C121  1  0.921850  0.039960  0.042520  1.0  -0.0334
  C  C122  1  0.092680  0.041060  0.947570  1.0  -0.0464
  C  C123  1  0.451330  0.611860  0.386510  1.0  0.6814
  C  C124  1  0.375710  0.616020  0.316210  1.0  -0.1547
  C  C125  1  0.336180  0.685140  0.300810  1.0  -0.0293
  C  C126  1  0.242180  0.624540  0.183070  1.0  -0.1433
  C  C127  1  0.268790  0.688900  0.234730  1.0  -0.0242
  C  C128  1  0.280540  0.555140  0.198950  1.0  0.0038
  C  C129  1  0.346340  0.551280  0.265190  1.0  -0.0217
  C  C130  1  0.175260  0.629100  0.110350  1.0  0.6837
  C  C131  1  0.216700  0.406740  0.038050  1.0  0.634
  C  C132  1  0.362820  0.456080  0.018180  1.0  -0.1308
  C  C133  1  0.385440  0.496300  0.952910  1.0  -0.0374
  C  C134  1  0.477820  0.459560  0.065550  1.0  -0.0209
  C  C135  1  0.859550  0.831220  0.521370  1.0  0.6875
  C  C136  1  0.933160  0.918760  0.509560  1.0  -0.1309
  C  C137  1  0.881890  0.960040  0.457480  1.0  -0.0327
  C  C138  1  0.051620  0.958940  0.552430  1.0  -0.0465
  C  C139  1  0.839470  0.388140  0.113490  1.0  0.6809
  C  C140  1  0.759690  0.383980  0.183790  1.0  -0.1548
  C  C141  1  0.651040  0.314860  0.199190  1.0  -0.0287
  C  C142  1  0.617640  0.375460  0.316930  1.0  -0.1423
  C  C143  1  0.579890  0.311100  0.265270  1.0  -0.0232
  C  C144  1  0.725400  0.444860  0.301050  1.0  0.0024
  C  C145  1  0.795060  0.448720  0.234810  1.0  -0.0218
  C  C146  1  0.546160  0.370900  0.389650  1.0  0.6828
  C  C147  1  0.809960  0.593260  0.461950  1.0  0.6328
  C  C148  1  0.906740  0.543920  0.481820  1.0  -0.1306
  C  C149  1  0.889140  0.503700  0.547090  1.0  -0.0375
  C  C150  1  0.018260  0.540440  0.434450  1.0  -0.0192
  C  C151  1  0.820650  0.711300  0.740780  1.0  -0.0124
  C  C152  1  0.885060  0.652120  0.700050  1.0  -0.323
  C  C153  1  0.052600  0.805400  0.792720  1.0  -0.0044
  C  C154  1  0.045690  0.880780  0.755580  1.0  -0.3398
  C  C155  1  0.109350  0.288700  0.759220  1.0  -0.0128
  C  C156  1  0.232940  0.347880  0.799950  1.0  -0.3214
  C  C157  1  0.247200  0.194600  0.707280  1.0  -0.0048
  C  C158  1  0.164910  0.119220  0.744420  1.0  -0.3402
  C  C159  1  0.179350  0.288700  0.259220  1.0  -0.0114
  C  C160  1  0.114940  0.347880  0.299950  1.0  -0.3219
  C  C161  1  0.947400  0.194600  0.207280  1.0  -0.0064
  C  C162  1  0.954310  0.119220  0.244420  1.0  -0.3411
  C  C163  1  0.890650  0.711300  0.240780  1.0  -0.0117
  C  C164  1  0.767060  0.652120  0.200050  1.0  -0.3222
  C  C165  1  0.752800  0.805400  0.292720  1.0  -0.0062
  C  C166  1  0.835090  0.880780  0.255580  1.0  -0.3403
  N  N167  1  0.906990  0.751860  0.806850  1.0  -0.1087
  N  N168  1  0.155130  0.248140  0.693150  1.0  -0.1061
  N  N169  1  0.093010  0.248140  0.193150  1.0  -0.1063
  N  N170  1  0.844870  0.751860  0.306850  1.0  -0.1092
  O  O171  1  0.836670  0.428000  0.936310  1.0  -0.6057
  O  O172  1  0.040890  0.798060  0.975490  1.0  -0.6136
  O  O173  1  0.899600  0.796040  0.071920  1.0  -0.5495
  O  O174  1  0.493430  0.322080  0.578060  1.0  -0.5964
  O  O175  1  0.545900  0.457020  0.595360  1.0  -0.5971
  O  O176  1  0.863830  0.307980  0.900100  1.0  -0.6113
  O  O177  1  0.886060  0.594080  0.007960  1.0  -0.6724
  O  O178  1  0.800870  0.632700  0.906350  1.0  -0.6094
  O  O179  1  0.408670  0.572000  0.563690  1.0  -0.6047
  O  O180  1  0.242830  0.201940  0.524510  1.0  -0.6149
  O  O181  1  0.103560  0.203960  0.428080  1.0  -0.5496
  O  O182  1  0.171350  0.677920  0.921940  1.0  -0.5962
  O  O183  1  0.088880  0.542980  0.904640  1.0  -0.5969
  O  O184  1  0.555850  0.692020  0.599900  1.0  -0.613
  O  O185  1  0.291980  0.405920  0.492040  1.0  -0.6736
  O  O186  1  0.168170  0.367300  0.593650  1.0  -0.6118
  O  O187  1  0.163330  0.572000  0.063690  1.0  -0.6048
  O  O188  1  0.959110  0.201940  0.024510  1.0  -0.6144
  O  O189  1  0.100400  0.203960  0.928080  1.0  -0.5492
  O  O190  1  0.506570  0.677920  0.421940  1.0  -0.5969
  O  O191  1  0.454100  0.542980  0.404640  1.0  -0.5971
  O  O192  1  0.136170  0.692020  0.099900  1.0  -0.6116
  O  O193  1  0.113940  0.405920  0.992040  1.0  -0.6732
  O  O194  1  0.199130  0.367300  0.093650  1.0  -0.611
  O  O195  1  0.591330  0.428000  0.436310  1.0  -0.6051
  O  O196  1  0.757170  0.798060  0.475490  1.0  -0.6135
  O  O197  1  0.896440  0.796040  0.571920  1.0  -0.5489
  O  O198  1  0.828650  0.322080  0.078060  1.0  -0.5972
  O  O199  1  0.911120  0.457020  0.095360  1.0  -0.5972
  O  O200  1  0.444150  0.307980  0.400100  1.0  -0.612
  O  O201  1  0.708020  0.594080  0.507960  1.0  -0.6717
  O  O202  1  0.831830  0.632700  0.406350  1.0  -0.6088
