# generated using pymatgen
data_Co3H40C40(NO8)2
_symmetry_space_group_name_H-M   'P 1'
_cell_length_a   9.83400000
_cell_length_b   17.36610000
_cell_length_c   18.29600000
_cell_angle_alpha   92.25380000
_cell_angle_beta   90.00000000
_cell_angle_gamma   106.44800000
_symmetry_Int_Tables_number   1
_chemical_formula_structural   Co3H40C40(NO8)2
_chemical_formula_sum   'Co6 H80 C80 N4 O32'
_cell_volume   2994.17218562
_cell_formula_units_Z   2
loop_
 _symmetry_equiv_pos_site_id
 _symmetry_equiv_pos_as_xyz
  1  'x, y, z'
loop_
 _atom_site_type_symbol
 _atom_site_label
 _atom_site_symmetry_multiplicity
 _atom_site_fract_x
 _atom_site_fract_y
 _atom_site_fract_z
 _atom_site_occupancy
 _atom_site_charge
  Co  Co1  1  0.145210  0.692340  0.001730  1.0  1.0303
  Co  Co2  1  0.452870  0.307660  0.498270  1.0  1.0307
  Co  Co3  1  0.854790  0.307660  0.998270  1.0  1.0279
  Co  Co4  1  0.547130  0.692340  0.501730  1.0  1.0277
  Co  Co5  1  0.000000  0.500000  0.000000  1.0  1.1578
  Co  Co6  1  0.500000  0.500000  0.500000  1.0  1.1578
  H  H7  1  0.583800  0.930400  0.086800  1.0  0.103
  H  H8  1  0.303400  0.935800  0.928500  1.0  0.0963
  H  H9  1  0.527400  0.566800  0.890900  1.0  0.0902
  H  H10  1  0.316200  0.505200  0.078700  1.0  0.0921
  H  H11  1  0.992900  0.734600  0.223700  1.0  0.1017
  H  H12  1  0.871400  0.728600  0.333100  1.0  0.1116
  H  H13  1  0.635000  0.504400  0.275200  1.0  0.0977
  H  H14  1  0.752600  0.512200  0.164300  1.0  0.0879
  H  H15  1  0.653400  0.069600  0.413200  1.0  0.1029
  H  H16  1  0.367600  0.064200  0.571500  1.0  0.0957
  H  H17  1  0.960600  0.433200  0.609100  1.0  0.0905
  H  H18  1  0.811000  0.494800  0.421300  1.0  0.0921
  H  H19  1  0.258300  0.265400  0.276300  1.0  0.1013
  H  H20  1  0.142800  0.271400  0.166900  1.0  0.111
  H  H21  1  0.130600  0.495600  0.224800  1.0  0.0982
  H  H22  1  0.240400  0.487800  0.335700  1.0  0.088
  H  H23  1  0.416200  0.069600  0.913200  1.0  0.1027
  H  H24  1  0.696600  0.064200  0.071500  1.0  0.0963
  H  H25  1  0.472600  0.433200  0.109100  1.0  0.0903
  H  H26  1  0.683800  0.494800  0.921300  1.0  0.0922
  H  H27  1  0.007100  0.265400  0.776300  1.0  0.1012
  H  H28  1  0.128600  0.271400  0.666900  1.0  0.1112
  H  H29  1  0.365000  0.495600  0.724800  1.0  0.0982
  H  H30  1  0.247400  0.487800  0.835700  1.0  0.0883
  H  H31  1  0.346600  0.930400  0.586800  1.0  0.1026
  H  H32  1  0.632400  0.935800  0.428500  1.0  0.0965
  H  H33  1  0.039400  0.566800  0.390900  1.0  0.09
  H  H34  1  0.189000  0.505200  0.578700  1.0  0.0925
  H  H35  1  0.741700  0.734600  0.723700  1.0  0.1023
  H  H36  1  0.857200  0.728600  0.833100  1.0  0.1118
  H  H37  1  0.869400  0.504400  0.775200  1.0  0.0981
  H  H38  1  0.759600  0.512200  0.664300  1.0  0.0881
  H  H39  1  0.423000  0.781600  0.830600  1.0  0.2175
  H  H40  1  0.297000  0.714600  0.837300  1.0  0.2411
  H  H41  1  0.454100  0.682400  0.756600  1.0  0.0804
  H  H42  1  0.436300  0.750800  0.707400  1.0  0.073
  H  H43  1  0.208900  0.680800  0.678300  1.0  0.0996
  H  H44  1  0.301200  0.621200  0.665800  1.0  0.0985
  H  H45  1  0.209200  0.616800  0.736300  1.0  0.1032
  H  H46  1  0.173800  0.777400  0.761000  1.0  0.0733
  H  H47  1  0.216300  0.821400  0.837800  1.0  0.0769
  H  H48  1  0.370100  0.865800  0.708300  1.0  0.1031
  H  H49  1  0.279400  0.915800  0.747700  1.0  0.1078
  H  H50  1  0.418500  0.908400  0.784900  1.0  0.1129
  H  H51  1  0.641400  0.218400  0.669400  1.0  0.2167
  H  H52  1  0.582400  0.285400  0.662700  1.0  0.2437
  H  H53  1  0.771700  0.317600  0.743400  1.0  0.0811
  H  H54  1  0.685500  0.249200  0.792600  1.0  0.0723
  H  H55  1  0.528100  0.319200  0.821700  1.0  0.0996
  H  H56  1  0.680000  0.378800  0.834200  1.0  0.1005
  H  H57  1  0.592400  0.383200  0.763700  1.0  0.1028
  H  H58  1  0.396400  0.222600  0.739000  1.0  0.0716
  H  H59  1  0.394900  0.178600  0.662200  1.0  0.0779
  H  H60  1  0.504300  0.134200  0.791700  1.0  0.1036
  H  H61  1  0.363600  0.084200  0.752300  1.0  0.1091
  H  H62  1  0.510100  0.091600  0.715100  1.0  0.1133
  H  H63  1  0.577000  0.218400  0.169400  1.0  0.2125
  H  H64  1  0.703000  0.285400  0.162700  1.0  0.2443
  H  H65  1  0.545900  0.317600  0.243400  1.0  0.0807
  H  H66  1  0.563700  0.249200  0.292600  1.0  0.0728
  H  H67  1  0.791100  0.319200  0.321700  1.0  0.1007
  H  H68  1  0.698800  0.378800  0.334200  1.0  0.1013
  H  H69  1  0.790800  0.383200  0.263700  1.0  0.1029
  H  H70  1  0.826200  0.222600  0.239000  1.0  0.0747
  H  H71  1  0.783700  0.178600  0.162200  1.0  0.0774
  H  H72  1  0.629900  0.134200  0.291700  1.0  0.1029
  H  H73  1  0.720600  0.084200  0.252300  1.0  0.1074
  H  H74  1  0.581500  0.091600  0.215100  1.0  0.1128
  H  H75  1  0.358600  0.781600  0.330600  1.0  0.2118
  H  H76  1  0.417600  0.714600  0.337300  1.0  0.241
  H  H77  1  0.228300  0.682400  0.256600  1.0  0.0806
  H  H78  1  0.314500  0.750800  0.207400  1.0  0.0737
  H  H79  1  0.471900  0.680800  0.178300  1.0  0.1018
  H  H80  1  0.320000  0.621200  0.165800  1.0  0.0997
  H  H81  1  0.407600  0.616800  0.236300  1.0  0.1036
  H  H82  1  0.603600  0.777400  0.261000  1.0  0.0755
  H  H83  1  0.605100  0.821400  0.337800  1.0  0.0774
  H  H84  1  0.495700  0.865800  0.208300  1.0  0.1028
  H  H85  1  0.636400  0.915800  0.247700  1.0  0.1085
  H  H86  1  0.489900  0.908400  0.284900  1.0  0.1122
  C  C87  1  0.357400  0.831200  0.020090  1.0  0.6851
  C  C88  1  0.431240  0.918080  0.009160  1.0  -0.1236
  C  C89  1  0.549940  0.958080  0.051930  1.0  -0.0585
  C  C90  1  0.382460  0.961520  0.957260  1.0  -0.0544
  C  C91  1  0.309110  0.592420  0.962920  1.0  0.651
  C  C92  1  0.406220  0.543640  0.981940  1.0  -0.1355
  C  C93  1  0.516640  0.540080  0.934560  1.0  -0.0356
  C  C94  1  0.389690  0.503180  0.047320  1.0  -0.0435
  C  C95  1  0.955170  0.629740  0.109640  1.0  0.6944
  C  C96  1  0.882360  0.624520  0.182280  1.0  -0.1361
  C  C97  1  0.919730  0.689060  0.233580  1.0  -0.0243
  C  C98  1  0.847770  0.685340  0.299440  1.0  -0.0367
  C  C99  1  0.739810  0.616220  0.314680  1.0  -0.14
  C  C100  1  0.705220  0.550840  0.264450  1.0  -0.0336
  C  C101  1  0.776330  0.555460  0.198050  1.0  0.0137
  C  C102  1  0.660130  0.611860  0.384930  1.0  0.6852
  C  C103  1  0.526200  0.168800  0.479910  1.0  0.6855
  C  C104  1  0.513160  0.081920  0.490840  1.0  -0.1225
  C  C105  1  0.591860  0.041920  0.448070  1.0  -0.0584
  C  C106  1  0.420940  0.038480  0.542740  1.0  -0.0543
  C  C107  1  0.716690  0.407580  0.537080  1.0  0.6514
  C  C108  1  0.862580  0.456360  0.518060  1.0  -0.1353
  C  C109  1  0.976560  0.459920  0.565440  1.0  -0.0363
  C  C110  1  0.886510  0.496820  0.452680  1.0  -0.0439
  C  C111  1  0.325430  0.370260  0.390360  1.0  0.6938
  C  C112  1  0.257840  0.375480  0.317720  1.0  -0.1351
  C  C113  1  0.230670  0.310940  0.266420  1.0  -0.0237
  C  C114  1  0.162430  0.314660  0.200560  1.0  -0.037
  C  C115  1  0.123590  0.383780  0.185320  1.0  -0.1402
  C  C116  1  0.154380  0.449160  0.235550  1.0  -0.0338
  C  C117  1  0.220870  0.444540  0.301950  1.0  0.0129
  C  C118  1  0.048270  0.388140  0.115070  1.0  0.6847
  C  C119  1  0.642600  0.168800  0.979910  1.0  0.686
  C  C120  1  0.568760  0.081920  0.990840  1.0  -0.1221
  C  C121  1  0.450060  0.041920  0.948070  1.0  -0.0546
  C  C122  1  0.617540  0.038480  0.042740  1.0  -0.0536
  C  C123  1  0.690890  0.407580  0.037080  1.0  0.6502
  C  C124  1  0.593780  0.456360  0.018060  1.0  -0.136
  C  C125  1  0.483360  0.459920  0.065440  1.0  -0.0356
  C  C126  1  0.610310  0.496820  0.952680  1.0  -0.0456
  C  C127  1  0.044830  0.370260  0.890360  1.0  0.6943
  C  C128  1  0.117640  0.375480  0.817720  1.0  -0.1349
  C  C129  1  0.080270  0.310940  0.766420  1.0  -0.0238
  C  C130  1  0.152230  0.314660  0.700560  1.0  -0.0356
  C  C131  1  0.260190  0.383780  0.685320  1.0  -0.1405
  C  C132  1  0.294780  0.449160  0.735550  1.0  -0.0342
  C  C133  1  0.223670  0.444540  0.801950  1.0  0.0129
  C  C134  1  0.339870  0.388140  0.615070  1.0  0.685
  C  C135  1  0.473800  0.831200  0.520090  1.0  0.6856
  C  C136  1  0.486840  0.918080  0.509160  1.0  -0.1235
  C  C137  1  0.408140  0.958080  0.551930  1.0  -0.0543
  C  C138  1  0.579060  0.961520  0.457260  1.0  -0.0534
  C  C139  1  0.283310  0.592420  0.462920  1.0  0.6498
  C  C140  1  0.137420  0.543640  0.481940  1.0  -0.1356
  C  C141  1  0.023440  0.540080  0.434560  1.0  -0.0351
  C  C142  1  0.113490  0.503180  0.547320  1.0  -0.0454
  C  C143  1  0.674570  0.629740  0.609640  1.0  0.6947
  C  C144  1  0.742160  0.624520  0.682280  1.0  -0.1363
  C  C145  1  0.769330  0.689060  0.733580  1.0  -0.0247
  C  C146  1  0.837570  0.685340  0.799440  1.0  -0.0363
  C  C147  1  0.876410  0.616220  0.814680  1.0  -0.1404
  C  C148  1  0.845620  0.550840  0.764450  1.0  -0.0342
  C  C149  1  0.779130  0.555460  0.698050  1.0  0.0139
  C  C150  1  0.951730  0.611860  0.884930  1.0  0.6851
  C  C151  1  0.387600  0.710600  0.741100  1.0  -0.0017
  C  C152  1  0.265850  0.652100  0.701900  1.0  -0.3102
  C  C153  1  0.253430  0.806060  0.792100  1.0  -0.0045
  C  C154  1  0.338160  0.880920  0.754800  1.0  -0.3462
  C  C155  1  0.677000  0.289400  0.758900  1.0  -0.0016
  C  C156  1  0.613750  0.347900  0.798100  1.0  -0.3103
  C  C157  1  0.447370  0.193940  0.707900  1.0  -0.0053
  C  C158  1  0.457240  0.119080  0.745200  1.0  -0.3476
  C  C159  1  0.612400  0.289400  0.258900  1.0  -0.0032
  C  C160  1  0.734150  0.347900  0.298100  1.0  -0.3102
  C  C161  1  0.746570  0.193940  0.207900  1.0  -0.004
  C  C162  1  0.661840  0.119080  0.245200  1.0  -0.3465
  C  C163  1  0.323000  0.710600  0.241100  1.0  -0.0024
  C  C164  1  0.386250  0.652100  0.201900  1.0  -0.3117
  C  C165  1  0.552630  0.806060  0.292100  1.0  -0.0043
  C  C166  1  0.542760  0.880920  0.254800  1.0  -0.3461
  N  N167  1  0.344030  0.752260  0.806900  1.0  -0.0992
  N  N168  1  0.591770  0.247740  0.693100  1.0  -0.0965
  N  N169  1  0.655970  0.247740  0.193100  1.0  -0.0965
  N  N170  1  0.408230  0.752260  0.306900  1.0  -0.099
  O  O171  1  0.254620  0.798640  0.974490  1.0  -0.6097
  O  O172  1  0.392430  0.794660  0.070060  1.0  -0.5863
  O  O173  1  0.207670  0.592940  0.008950  1.0  -0.6671
  O  O174  1  0.329230  0.632660  0.907170  1.0  -0.6326
  O  O175  1  0.055340  0.693280  0.098570  1.0  -0.601
  O  O176  1  0.910680  0.572760  0.063070  1.0  -0.6278
  O  O177  1  0.668540  0.678280  0.418890  1.0  -0.6015
  O  O178  1  0.590080  0.543160  0.403940  1.0  -0.5971
  O  O179  1  0.455980  0.201360  0.525510  1.0  -0.6107
  O  O180  1  0.597770  0.205340  0.429940  1.0  -0.5866
  O  O181  1  0.614730  0.407060  0.491050  1.0  -0.6685
  O  O182  1  0.696570  0.367340  0.592830  1.0  -0.634
  O  O183  1  0.362060  0.306720  0.401430  1.0  -0.5998
  O  O184  1  0.337920  0.427240  0.436930  1.0  -0.6278
  O  O185  1  0.990260  0.321720  0.081110  1.0  -0.6022
  O  O186  1  0.046920  0.456840  0.096060  1.0  -0.5976
  O  O187  1  0.745380  0.201360  0.025510  1.0  -0.6116
  O  O188  1  0.607570  0.205340  0.929940  1.0  -0.5872
  O  O189  1  0.792330  0.407060  0.991050  1.0  -0.6687
  O  O190  1  0.670770  0.367340  0.092830  1.0  -0.6338
  O  O191  1  0.944660  0.306720  0.901430  1.0  -0.6003
  O  O192  1  0.089320  0.427240  0.936930  1.0  -0.6278
  O  O193  1  0.331460  0.321720  0.581110  1.0  -0.6014
  O  O194  1  0.409920  0.456840  0.596060  1.0  -0.5977
  O  O195  1  0.544020  0.798640  0.474490  1.0  -0.6107
  O  O196  1  0.402230  0.794660  0.570060  1.0  -0.587
  O  O197  1  0.385270  0.592940  0.508950  1.0  -0.6677
  O  O198  1  0.303430  0.632660  0.407170  1.0  -0.6324
  O  O199  1  0.637940  0.693280  0.598570  1.0  -0.6002
  O  O200  1  0.662080  0.572760  0.563070  1.0  -0.6278
  O  O201  1  0.009740  0.678280  0.918890  1.0  -0.6018
  O  O202  1  0.953080  0.543160  0.903940  1.0  -0.5967
