# generated using pymatgen
data_Zn3H40C40(NO8)2
_symmetry_space_group_name_H-M   'P 1'
_cell_length_a   9.83170000
_cell_length_b   17.39530000
_cell_length_c   18.19670000
_cell_angle_alpha   92.35490000
_cell_angle_beta   90.00000000
_cell_angle_gamma   106.41500000
_symmetry_Int_Tables_number   1
_chemical_formula_structural   Zn3H40C40(NO8)2
_chemical_formula_sum   'Zn6 H80 C80 N4 O32'
_cell_volume   2982.50835854
_cell_formula_units_Z   2
loop_
 _symmetry_equiv_pos_site_id
 _symmetry_equiv_pos_as_xyz
  1  'x, y, z'
loop_
 _atom_site_type_symbol
 _atom_site_label
 _atom_site_symmetry_multiplicity
 _atom_site_fract_x
 _atom_site_fract_y
 _atom_site_fract_z
 _atom_site_occupancy
 _atom_site_charge
  Zn  Zn1  1  0.545400  0.693340  0.003460  1.0  0.9738
  Zn  Zn2  1  0.852060  0.306660  0.496540  1.0  0.9728
  Zn  Zn3  1  0.454600  0.306660  0.996540  1.0  0.9724
  Zn  Zn4  1  0.147940  0.693340  0.503460  1.0  0.9736
  Zn  Zn5  1  0.500000  0.500000  0.000000  1.0  1.1016
  Zn  Zn6  1  0.000000  0.500000  0.500000  1.0  1.1016
  H  H7  1  0.633700  0.505200  0.775300  1.0  0.1008
  H  H8  1  0.751700  0.512200  0.665200  1.0  0.0917
  H  H9  1  0.990500  0.733400  0.724200  1.0  0.1056
  H  H10  1  0.868500  0.728000  0.833100  1.0  0.1122
  H  H11  1  0.038200  0.567600  0.891500  1.0  0.097
  H  H12  1  0.188200  0.506400  0.079000  1.0  0.0946
  H  H13  1  0.635500  0.935800  0.931100  1.0  0.0977
  H  H14  1  0.344000  0.930600  0.085100  1.0  0.099
  H  H15  1  0.128500  0.494800  0.724700  1.0  0.1012
  H  H16  1  0.239500  0.487800  0.834800  1.0  0.0917
  H  H17  1  0.257100  0.266600  0.775800  1.0  0.105
  H  H18  1  0.140500  0.272000  0.666900  1.0  0.1115
  H  H19  1  0.470600  0.432400  0.608500  1.0  0.0971
  H  H20  1  0.681800  0.493600  0.421000  1.0  0.0947
  H  H21  1  0.699700  0.064200  0.568900  1.0  0.0975
  H  H22  1  0.413400  0.069400  0.414900  1.0  0.0991
  H  H23  1  0.366300  0.494800  0.224700  1.0  0.1011
  H  H24  1  0.248300  0.487800  0.334800  1.0  0.0917
  H  H25  1  0.009500  0.266600  0.275800  1.0  0.105
  H  H26  1  0.131500  0.272000  0.166900  1.0  0.1115
  H  H27  1  0.961800  0.432400  0.108500  1.0  0.0973
  H  H28  1  0.811800  0.493600  0.921000  1.0  0.0945
  H  H29  1  0.364500  0.064200  0.068900  1.0  0.0971
  H  H30  1  0.656000  0.069400  0.914900  1.0  0.0993
  H  H31  1  0.871500  0.505200  0.275300  1.0  0.101
  H  H32  1  0.760500  0.512200  0.165200  1.0  0.0917
  H  H33  1  0.742900  0.733400  0.224200  1.0  0.1059
  H  H34  1  0.859500  0.728000  0.333100  1.0  0.1122
  H  H35  1  0.529400  0.567600  0.391500  1.0  0.0972
  H  H36  1  0.318200  0.506400  0.579000  1.0  0.0942
  H  H37  1  0.300300  0.935800  0.431100  1.0  0.0974
  H  H38  1  0.586600  0.930600  0.585100  1.0  0.0991
  H  H39  1  0.416500  0.716000  0.838800  1.0  0.2352
  H  H40  1  0.355900  0.782200  0.830700  1.0  0.2139
  H  H41  1  0.602500  0.822400  0.839000  1.0  0.0785
  H  H42  1  0.601500  0.778800  0.761700  1.0  0.0763
  H  H43  1  0.634400  0.914800  0.746900  1.0  0.1071
  H  H44  1  0.488800  0.866400  0.710800  1.0  0.1034
  H  H45  1  0.492500  0.910400  0.788000  1.0  0.1122
  H  H46  1  0.317200  0.750200  0.707100  1.0  0.0871
  H  H47  1  0.229000  0.683000  0.757100  1.0  0.0802
  H  H48  1  0.329700  0.626800  0.662600  1.0  0.0955
  H  H49  1  0.481300  0.678400  0.688600  1.0  0.1063
  H  H50  1  0.391900  0.611200  0.738000  1.0  0.1014
  H  H51  1  0.700500  0.284000  0.661200  1.0  0.2368
  H  H52  1  0.573700  0.217800  0.669300  1.0  0.2148
  H  H53  1  0.780100  0.177600  0.661000  1.0  0.0777
  H  H54  1  0.822700  0.221200  0.738300  1.0  0.0757
  H  H55  1  0.719600  0.085200  0.753100  1.0  0.1066
  H  H56  1  0.622400  0.133600  0.789200  1.0  0.1049
  H  H57  1  0.582100  0.089600  0.712000  1.0  0.1132
  H  H58  1  0.567000  0.249800  0.792900  1.0  0.0855
  H  H59  1  0.546000  0.317000  0.742900  1.0  0.0808
  H  H60  1  0.702900  0.373200  0.837400  1.0  0.0962
  H  H61  1  0.802900  0.321600  0.811400  1.0  0.1052
  H  H62  1  0.780700  0.388800  0.762000  1.0  0.101
  H  H63  1  0.583500  0.284000  0.161200  1.0  0.236
  H  H64  1  0.644100  0.217800  0.169300  1.0  0.2174
  H  H65  1  0.397500  0.177600  0.161000  1.0  0.0786
  H  H66  1  0.398500  0.221200  0.238300  1.0  0.0718
  H  H67  1  0.365600  0.085200  0.253100  1.0  0.1078
  H  H68  1  0.511200  0.133600  0.289200  1.0  0.106
  H  H69  1  0.507500  0.089600  0.212000  1.0  0.1133
  H  H70  1  0.682800  0.249800  0.292900  1.0  0.085
  H  H71  1  0.771000  0.317000  0.242900  1.0  0.0817
  H  H72  1  0.670300  0.373200  0.337400  1.0  0.0966
  H  H73  1  0.518700  0.321600  0.311400  1.0  0.1064
  H  H74  1  0.608100  0.388800  0.262000  1.0  0.1012
  H  H75  1  0.299500  0.716000  0.338800  1.0  0.2347
  H  H76  1  0.426300  0.782200  0.330700  1.0  0.2176
  H  H77  1  0.219900  0.822400  0.339000  1.0  0.0781
  H  H78  1  0.177300  0.778800  0.261700  1.0  0.0738
  H  H79  1  0.280400  0.914800  0.246900  1.0  0.1072
  H  H80  1  0.377600  0.866400  0.210800  1.0  0.1047
  H  H81  1  0.417900  0.910400  0.288000  1.0  0.1123
  H  H82  1  0.433000  0.750200  0.207100  1.0  0.086
  H  H83  1  0.454000  0.683000  0.257100  1.0  0.0813
  H  H84  1  0.297100  0.626800  0.162600  1.0  0.0951
  H  H85  1  0.197100  0.678400  0.188600  1.0  0.1061
  H  H86  1  0.219300  0.611200  0.238000  1.0  0.1014
  C  C87  1  0.657970  0.612140  0.885900  1.0  0.6876
  C  C88  1  0.738100  0.616200  0.815190  1.0  -0.1499
  C  C89  1  0.704490  0.551580  0.764770  1.0  -0.0251
  C  C90  1  0.775320  0.555640  0.698970  1.0  -0.0047
  C  C91  1  0.881510  0.624020  0.682850  1.0  -0.1468
  C  C92  1  0.917470  0.687940  0.734020  1.0  -0.0393
  C  C93  1  0.845210  0.684420  0.799500  1.0  -0.0361
  C  C94  1  0.954080  0.628160  0.610190  1.0  0.6881
  C  C95  1  0.282110  0.594420  0.963230  1.0  0.65
  C  C96  1  0.136780  0.544360  0.981990  1.0  -0.139
  C  C97  1  0.023030  0.540460  0.935010  1.0  -0.0131
  C  C98  1  0.112810  0.503820  0.047210  1.0  -0.044
  C  C99  1  0.473850  0.832100  0.021110  1.0  0.6911
  C  C100  1  0.487160  0.918920  0.010090  1.0  -0.1333
  C  C101  1  0.580630  0.961460  0.959050  1.0  -0.0341
  C  C102  1  0.407150  0.958300  0.050650  1.0  -0.0364
  C  C103  1  0.045830  0.387860  0.614100  1.0  0.6882
  C  C104  1  0.121900  0.383800  0.684810  1.0  -0.151
  C  C105  1  0.152910  0.448420  0.735230  1.0  -0.0244
  C  C106  1  0.219680  0.444360  0.801030  1.0  -0.0053
  C  C107  1  0.257490  0.375980  0.817150  1.0  -0.1463
  C  C108  1  0.229530  0.312060  0.765980  1.0  -0.0374
  C  C109  1  0.160790  0.315580  0.700500  1.0  -0.0359
  C  C110  1  0.325920  0.371840  0.889810  1.0  0.6867
  C  C111  1  0.687690  0.405580  0.536770  1.0  0.6508
  C  C112  1  0.592420  0.455640  0.518010  1.0  -0.1392
  C  C113  1  0.482570  0.459540  0.564990  1.0  -0.014
  C  C114  1  0.608990  0.496180  0.452790  1.0  -0.0444
  C  C115  1  0.641750  0.167900  0.478890  1.0  0.6924
  C  C116  1  0.568240  0.081080  0.489910  1.0  -0.1329
  C  C117  1  0.619170  0.038540  0.540950  1.0  -0.0338
  C  C118  1  0.448850  0.041700  0.449350  1.0  -0.0371
  C  C119  1  0.342030  0.387860  0.114100  1.0  0.6885
  C  C120  1  0.261900  0.383800  0.184810  1.0  -0.1515
  C  C121  1  0.295510  0.448420  0.235230  1.0  -0.0247
  C  C122  1  0.224680  0.444360  0.301030  1.0  -0.0054
  C  C123  1  0.118490  0.375980  0.317150  1.0  -0.1453
  C  C124  1  0.082530  0.312060  0.265980  1.0  -0.0379
  C  C125  1  0.154790  0.315580  0.200500  1.0  -0.0352
  C  C126  1  0.045920  0.371840  0.389810  1.0  0.6873
  C  C127  1  0.717890  0.405580  0.036770  1.0  0.6516
  C  C128  1  0.863220  0.455640  0.018010  1.0  -0.1389
  C  C129  1  0.976970  0.459540  0.064990  1.0  -0.014
  C  C130  1  0.887190  0.496180  0.952790  1.0  -0.0423
  C  C131  1  0.526150  0.167900  0.978890  1.0  0.6918
  C  C132  1  0.512840  0.081080  0.989910  1.0  -0.1337
  C  C133  1  0.419370  0.038540  0.040950  1.0  -0.0346
  C  C134  1  0.592850  0.041700  0.949350  1.0  -0.0397
  C  C135  1  0.954170  0.612140  0.385900  1.0  0.6879
  C  C136  1  0.878100  0.616200  0.315190  1.0  -0.1505
  C  C137  1  0.847090  0.551580  0.264770  1.0  -0.0257
  C  C138  1  0.780320  0.555640  0.198970  1.0  -0.0047
  C  C139  1  0.742510  0.624020  0.182850  1.0  -0.1461
  C  C140  1  0.770470  0.687940  0.234020  1.0  -0.0404
  C  C141  1  0.839210  0.684420  0.299500  1.0  -0.0358
  C  C142  1  0.674080  0.628160  0.110190  1.0  0.6881
  C  C143  1  0.312310  0.594420  0.463230  1.0  0.6509
  C  C144  1  0.407580  0.544360  0.481990  1.0  -0.1388
  C  C145  1  0.517430  0.540460  0.435010  1.0  -0.0132
  C  C146  1  0.391010  0.503820  0.547210  1.0  -0.041
  C  C147  1  0.358250  0.832100  0.521110  1.0  0.6905
  C  C148  1  0.431760  0.918920  0.510090  1.0  -0.1342
  C  C149  1  0.380830  0.961460  0.459050  1.0  -0.0346
  C  C150  1  0.551150  0.958300  0.550650  1.0  -0.0396
  C  C151  1  0.550170  0.807140  0.793000  1.0  0.0021
  C  C152  1  0.540610  0.881420  0.756400  1.0  -0.3479
  C  C153  1  0.324330  0.710660  0.742000  1.0  -0.0071
  C  C154  1  0.387370  0.651540  0.704500  1.0  -0.325
  C  C155  1  0.743030  0.192860  0.707000  1.0  0.0015
  C  C156  1  0.659190  0.118580  0.743600  1.0  -0.3475
  C  C157  1  0.613670  0.289340  0.758000  1.0  -0.0068
  C  C158  1  0.735830  0.348460  0.795500  1.0  -0.3243
  C  C159  1  0.449830  0.192860  0.207000  1.0  -0.0002
  C  C160  1  0.459390  0.118580  0.243600  1.0  -0.3487
  C  C161  1  0.675670  0.289340  0.258000  1.0  -0.005
  C  C162  1  0.612630  0.348460  0.295500  1.0  -0.3246
  C  C163  1  0.256970  0.807140  0.293000  1.0  0.0
  C  C164  1  0.340810  0.881420  0.256400  1.0  -0.3481
  C  C165  1  0.386330  0.710660  0.242000  1.0  -0.0054
  C  C166  1  0.264170  0.651540  0.204500  1.0  -0.3236
  N  N167  1  0.406840  0.753080  0.807620  1.0  -0.1009
  N  N168  1  0.653760  0.246920  0.692380  1.0  -0.1004
  N  N169  1  0.593160  0.246920  0.192380  1.0  -0.1002
  N  N170  1  0.346240  0.753080  0.307620  1.0  -0.1012
  O  O171  1  0.665250  0.677700  0.920110  1.0  -0.6083
  O  O172  1  0.588880  0.543360  0.904590  1.0  -0.5895
  O  O173  1  0.054490  0.690980  0.599230  1.0  -0.606
  O  O174  1  0.909320  0.571240  0.563980  1.0  -0.6171
  O  O175  1  0.299670  0.634540  0.907770  1.0  -0.6142
  O  O176  1  0.384290  0.594580  0.008310  1.0  -0.6735
  O  O177  1  0.546100  0.799600  0.977240  1.0  -0.6105
  O  O178  1  0.399860  0.796120  0.070610  1.0  -0.5398
  O  O179  1  0.987550  0.322300  0.579890  1.0  -0.6076
  O  O180  1  0.045520  0.456640  0.595410  1.0  -0.589
  O  O181  1  0.363510  0.309020  0.900770  1.0  -0.6037
  O  O182  1  0.338080  0.428760  0.936020  1.0  -0.6178
  O  O183  1  0.665130  0.365460  0.592230  1.0  -0.6174
  O  O184  1  0.789710  0.405420  0.491690  1.0  -0.6742
  O  O185  1  0.746500  0.200400  0.522760  1.0  -0.61
  O  O186  1  0.603740  0.203880  0.429390  1.0  -0.5398
  O  O187  1  0.334750  0.322300  0.079890  1.0  -0.6075
  O  O188  1  0.411120  0.456640  0.095410  1.0  -0.5893
  O  O189  1  0.945510  0.309020  0.400770  1.0  -0.6047
  O  O190  1  0.090680  0.428760  0.436020  1.0  -0.6169
  O  O191  1  0.700330  0.365460  0.092230  1.0  -0.6167
  O  O192  1  0.615710  0.405420  0.991690  1.0  -0.6735
  O  O193  1  0.453900  0.200400  0.022760  1.0  -0.6109
  O  O194  1  0.600140  0.203880  0.929390  1.0  -0.5384
  O  O195  1  0.012450  0.677700  0.420110  1.0  -0.6084
  O  O196  1  0.954480  0.543360  0.404590  1.0  -0.5894
  O  O197  1  0.636490  0.690980  0.099230  1.0  -0.6051
  O  O198  1  0.661920  0.571240  0.063980  1.0  -0.6169
  O  O199  1  0.334870  0.634540  0.407770  1.0  -0.6138
  O  O200  1  0.210290  0.594580  0.508310  1.0  -0.6724
  O  O201  1  0.253500  0.799600  0.477240  1.0  -0.611
  O  O202  1  0.396260  0.796120  0.570610  1.0  -0.5381
