# generated using pymatgen
data_Zn3H40C40(NO8)2
_symmetry_space_group_name_H-M   'P 1'
_cell_length_a   9.87910000
_cell_length_b   17.49380000
_cell_length_c   18.18140000
_cell_angle_alpha   92.25430000
_cell_angle_beta   90.00000000
_cell_angle_gamma   106.40100000
_symmetry_Int_Tables_number   1
_chemical_formula_structural   Zn3H40C40(NO8)2
_chemical_formula_sum   'Zn6 H80 C80 N4 O32'
_cell_volume   3011.77143771
_cell_formula_units_Z   2
loop_
 _symmetry_equiv_pos_site_id
 _symmetry_equiv_pos_as_xyz
  1  'x, y, z'
loop_
 _atom_site_type_symbol
 _atom_site_label
 _atom_site_symmetry_multiplicity
 _atom_site_fract_x
 _atom_site_fract_y
 _atom_site_fract_z
 _atom_site_occupancy
 _atom_site_charge
  Zn  Zn1  1  0.149990  0.693540  0.003470  1.0  0.9561
  Zn  Zn2  1  0.456450  0.306460  0.496530  1.0  0.956
  Zn  Zn3  1  0.850010  0.306460  0.996530  1.0  0.9564
  Zn  Zn4  1  0.543550  0.693540  0.503470  1.0  0.9567
  Zn  Zn5  1  0.000000  0.500000  0.000000  1.0  1.104
  Zn  Zn6  1  0.500000  0.500000  0.500000  1.0  1.104
  H  H7  1  0.587700  0.931800  0.085200  1.0  0.1017
  H  H8  1  0.299100  0.935800  0.933500  1.0  0.1012
  H  H9  1  0.527400  0.567200  0.891300  1.0  0.0972
  H  H10  1  0.321300  0.507800  0.080300  1.0  0.094
  H  H11  1  0.015300  0.266600  0.777500  1.0  0.1036
  H  H12  1  0.866200  0.728600  0.831000  1.0  0.1096
  H  H13  1  0.871600  0.506600  0.775400  1.0  0.0916
  H  H14  1  0.246700  0.487600  0.833800  1.0  0.0934
  H  H15  1  0.655900  0.068200  0.414800  1.0  0.102
  H  H16  1  0.363300  0.064200  0.566500  1.0  0.1008
  H  H17  1  0.960200  0.432800  0.608700  1.0  0.097
  H  H18  1  0.813500  0.492200  0.419700  1.0  0.0935
  H  H19  1  0.748700  0.733400  0.722500  1.0  0.1046
  H  H20  1  0.137600  0.271400  0.669000  1.0  0.1087
  H  H21  1  0.365000  0.493400  0.724600  1.0  0.0919
  H  H22  1  0.759100  0.512400  0.666200  1.0  0.0935
  H  H23  1  0.412300  0.068200  0.914800  1.0  0.1018
  H  H24  1  0.700900  0.064200  0.066500  1.0  0.1008
  H  H25  1  0.472600  0.432800  0.108700  1.0  0.0971
  H  H26  1  0.678700  0.492200  0.919700  1.0  0.0937
  H  H27  1  0.984700  0.733400  0.222500  1.0  0.1038
  H  H28  1  0.133800  0.271400  0.169000  1.0  0.1087
  H  H29  1  0.128400  0.493400  0.224600  1.0  0.0919
  H  H30  1  0.753300  0.512400  0.166200  1.0  0.0933
  H  H31  1  0.344100  0.931800  0.585200  1.0  0.1018
  H  H32  1  0.636700  0.935800  0.433500  1.0  0.1015
  H  H33  1  0.039800  0.567200  0.391300  1.0  0.097
  H  H34  1  0.186500  0.507800  0.580300  1.0  0.0943
  H  H35  1  0.251300  0.266600  0.277500  1.0  0.1037
  H  H36  1  0.862400  0.728600  0.331000  1.0  0.1095
  H  H37  1  0.635000  0.506600  0.275400  1.0  0.0913
  H  H38  1  0.240900  0.487600  0.333800  1.0  0.0934
  H  H39  1  0.427800  0.782200  0.829800  1.0  0.2164
  H  H40  1  0.300300  0.717600  0.838500  1.0  0.2374
  H  H41  1  0.454900  0.684000  0.757000  1.0  0.0821
  H  H42  1  0.430000  0.748800  0.705900  1.0  0.0814
  H  H43  1  0.197800  0.675600  0.690400  1.0  0.1042
  H  H44  1  0.299800  0.626000  0.664300  1.0  0.0973
  H  H45  1  0.224800  0.610400  0.740500  1.0  0.1026
  H  H46  1  0.221800  0.822000  0.837500  1.0  0.0787
  H  H47  1  0.183900  0.780800  0.759000  1.0  0.0804
  H  H48  1  0.378000  0.868800  0.711200  1.0  0.1062
  H  H49  1  0.285200  0.916400  0.751600  1.0  0.1021
  H  H50  1  0.422500  0.908200  0.789600  1.0  0.1133
  H  H51  1  0.645600  0.217800  0.670200  1.0  0.2169
  H  H52  1  0.582700  0.282400  0.661500  1.0  0.2404
  H  H53  1  0.770900  0.316000  0.743000  1.0  0.082
  H  H54  1  0.681200  0.251200  0.794100  1.0  0.0805
  H  H55  1  0.522200  0.324400  0.809600  1.0  0.1042
  H  H56  1  0.673800  0.374000  0.835700  1.0  0.0978
  H  H57  1  0.614400  0.389600  0.759500  1.0  0.1018
  H  H58  1  0.399800  0.178000  0.662500  1.0  0.08
  H  H59  1  0.403100  0.219200  0.741000  1.0  0.0779
  H  H60  1  0.509200  0.131200  0.788800  1.0  0.108
  H  H61  1  0.368800  0.083600  0.748400  1.0  0.103
  H  H62  1  0.514300  0.091800  0.710400  1.0  0.1139
  H  H63  1  0.572200  0.217800  0.170200  1.0  0.2154
  H  H64  1  0.699700  0.282400  0.161500  1.0  0.2406
  H  H65  1  0.545100  0.316000  0.243000  1.0  0.083
  H  H66  1  0.570000  0.251200  0.294100  1.0  0.0811
  H  H67  1  0.802200  0.324400  0.309600  1.0  0.1029
  H  H68  1  0.700200  0.374000  0.335700  1.0  0.0978
  H  H69  1  0.775200  0.389600  0.259500  1.0  0.1016
  H  H70  1  0.778200  0.178000  0.162500  1.0  0.0795
  H  H71  1  0.816100  0.219200  0.241000  1.0  0.0777
  H  H72  1  0.622000  0.131200  0.288800  1.0  0.1073
  H  H73  1  0.714800  0.083600  0.248400  1.0  0.1033
  H  H74  1  0.577500  0.091800  0.210400  1.0  0.1149
  H  H75  1  0.354400  0.782200  0.329800  1.0  0.2146
  H  H76  1  0.417300  0.717600  0.338500  1.0  0.2378
  H  H77  1  0.229100  0.684000  0.257000  1.0  0.0826
  H  H78  1  0.318800  0.748800  0.205900  1.0  0.0829
  H  H79  1  0.477800  0.675600  0.190400  1.0  0.1046
  H  H80  1  0.326200  0.626000  0.164300  1.0  0.0977
  H  H81  1  0.385600  0.610400  0.240500  1.0  0.1027
  H  H82  1  0.600200  0.822000  0.337500  1.0  0.0796
  H  H83  1  0.596900  0.780800  0.259000  1.0  0.079
  H  H84  1  0.490800  0.868800  0.211200  1.0  0.1054
  H  H85  1  0.631200  0.916400  0.251600  1.0  0.1034
  H  H86  1  0.485700  0.908200  0.289600  1.0  0.1137
  C  C87  1  0.356800  0.833200  0.023600  1.0  0.6951
  C  C88  1  0.430970  0.919740  0.011120  1.0  -0.1322
  C  C89  1  0.551680  0.958960  0.050700  1.0  -0.0523
  C  C90  1  0.380300  0.961400  0.960600  1.0  -0.0241
  C  C91  1  0.313820  0.594640  0.964270  1.0  0.6562
  C  C92  1  0.407860  0.544520  0.982960  1.0  -0.1453
  C  C93  1  0.516130  0.540060  0.934900  1.0  -0.0197
  C  C94  1  0.392540  0.504680  0.047960  1.0  -0.0134
  C  C95  1  0.046120  0.372040  0.890120  1.0  0.6852
  C  C96  1  0.120480  0.375960  0.817850  1.0  -0.1413
  C  C97  1  0.087190  0.312180  0.767390  1.0  -0.0465
  C  C98  1  0.844470  0.684740  0.797990  1.0  -0.0432
  C  C99  1  0.881930  0.616660  0.814750  1.0  -0.1707
  C  C100  1  0.848230  0.552860  0.764700  1.0  -0.0335
  C  C101  1  0.224390  0.443780  0.800790  1.0  -0.0248
  C  C102  1  0.957620  0.612440  0.885390  1.0  0.7152
  C  C103  1  0.523600  0.166800  0.476400  1.0  0.6954
  C  C104  1  0.511230  0.080260  0.488880  1.0  -0.1317
  C  C105  1  0.592720  0.041040  0.449300  1.0  -0.0524
  C  C106  1  0.418900  0.038600  0.539400  1.0  -0.0242
  C  C107  1  0.719180  0.405360  0.535730  1.0  0.6562
  C  C108  1  0.863340  0.455480  0.517040  1.0  -0.1456
  C  C109  1  0.976070  0.459940  0.565100  1.0  -0.0205
  C  C110  1  0.887860  0.495320  0.452040  1.0  -0.0132
  C  C111  1  0.674080  0.627960  0.609880  1.0  0.6865
  C  C112  1  0.744520  0.624040  0.682150  1.0  -0.1412
  C  C113  1  0.775010  0.687820  0.732610  1.0  -0.0493
  C  C114  1  0.159730  0.315260  0.702010  1.0  -0.0443
  C  C115  1  0.265270  0.383340  0.685250  1.0  -0.17
  C  C116  1  0.295370  0.447140  0.735300  1.0  -0.028
  C  C117  1  0.780610  0.556220  0.699210  1.0  -0.0245
  C  C118  1  0.345180  0.387560  0.614610  1.0  0.7148
  C  C119  1  0.643200  0.166800  0.976400  1.0  0.6959
  C  C120  1  0.569030  0.080260  0.988880  1.0  -0.1307
  C  C121  1  0.448320  0.041040  0.949300  1.0  -0.0494
  C  C122  1  0.619700  0.038600  0.039400  1.0  -0.0244
  C  C123  1  0.686180  0.405360  0.035730  1.0  0.6553
  C  C124  1  0.592140  0.455480  0.017040  1.0  -0.1459
  C  C125  1  0.483870  0.459940  0.065100  1.0  -0.0202
  C  C126  1  0.607460  0.495320  0.952040  1.0  -0.0156
  C  C127  1  0.953880  0.627960  0.109880  1.0  0.6857
  C  C128  1  0.879520  0.624040  0.182150  1.0  -0.142
  C  C129  1  0.912810  0.687820  0.232610  1.0  -0.0491
  C  C130  1  0.155530  0.315260  0.202010  1.0  -0.0449
  C  C131  1  0.118070  0.383340  0.185250  1.0  -0.1693
  C  C132  1  0.151770  0.447140  0.235300  1.0  -0.0324
  C  C133  1  0.775610  0.556220  0.199210  1.0  -0.0246
  C  C134  1  0.042380  0.387560  0.114610  1.0  0.7137
  C  C135  1  0.476400  0.833200  0.523600  1.0  0.6955
  C  C136  1  0.488770  0.919740  0.511120  1.0  -0.1319
  C  C137  1  0.407280  0.958960  0.550700  1.0  -0.0486
  C  C138  1  0.581100  0.961400  0.460600  1.0  -0.0246
  C  C139  1  0.280820  0.594640  0.464270  1.0  0.6548
  C  C140  1  0.136660  0.544520  0.482960  1.0  -0.1456
  C  C141  1  0.023930  0.540060  0.434900  1.0  -0.0195
  C  C142  1  0.112140  0.504680  0.547960  1.0  -0.0157
  C  C143  1  0.325920  0.372040  0.390120  1.0  0.6842
  C  C144  1  0.255480  0.375960  0.317850  1.0  -0.1424
  C  C145  1  0.224990  0.312180  0.267390  1.0  -0.0463
  C  C146  1  0.840270  0.684740  0.297990  1.0  -0.0434
  C  C147  1  0.734730  0.616660  0.314750  1.0  -0.1701
  C  C148  1  0.704630  0.552860  0.264700  1.0  -0.0278
  C  C149  1  0.219390  0.443780  0.300790  1.0  -0.0249
  C  C150  1  0.654820  0.612440  0.385390  1.0  0.7147
  C  C151  1  0.385900  0.710400  0.741800  1.0  -0.0003
  C  C152  1  0.266820  0.650440  0.706200  1.0  -0.3121
  C  C153  1  0.261490  0.808180  0.791800  1.0  0.0053
  C  C154  1  0.343970  0.881740  0.758100  1.0  -0.3434
  C  C155  1  0.675500  0.289600  0.758200  1.0  1e-04
  C  C156  1  0.616380  0.349560  0.793800  1.0  -0.3133
  C  C157  1  0.453310  0.191820  0.708200  1.0  0.0058
  C  C158  1  0.462230  0.118260  0.741900  1.0  -0.3441
  C  C159  1  0.614100  0.289600  0.258200  1.0  -0.0014
  C  C160  1  0.733180  0.349560  0.293800  1.0  -0.3129
  C  C161  1  0.738510  0.191820  0.208200  1.0  0.0078
  C  C162  1  0.656030  0.118260  0.241900  1.0  -0.3439
  C  C163  1  0.324500  0.710400  0.241800  1.0  -0.0019
  C  C164  1  0.383620  0.650440  0.206200  1.0  -0.3133
  C  C165  1  0.546690  0.808180  0.291800  1.0  0.0076
  C  C166  1  0.537770  0.881740  0.258100  1.0  -0.3435
  N  N167  1  0.347680  0.753760  0.807000  1.0  -0.0919
  N  N168  1  0.593920  0.246240  0.693000  1.0  -0.0899
  N  N169  1  0.652320  0.246240  0.193000  1.0  -0.0904
  N  N170  1  0.406080  0.753760  0.307000  1.0  -0.0919
  O  O171  1  0.254410  0.800020  0.979420  1.0  -0.6078
  O  O172  1  0.393390  0.798780  0.073860  1.0  -0.5602
  O  O173  1  0.212020  0.594840  0.009140  1.0  -0.6673
  O  O174  1  0.338130  0.635860  0.909660  1.0  -0.6036
  O  O175  1  0.947340  0.309880  0.901610  1.0  -0.6053
  O  O176  1  0.089580  0.429560  0.935390  1.0  -0.619
  O  O177  1  0.017960  0.677920  0.918480  1.0  -0.6145
  O  O178  1  0.954580  0.544560  0.904730  1.0  -0.5897
  O  O179  1  0.454390  0.199980  0.520580  1.0  -0.6077
  O  O180  1  0.594610  0.201220  0.426140  1.0  -0.5612
  O  O181  1  0.617180  0.405160  0.490860  1.0  -0.668
  O  O182  1  0.702270  0.364140  0.590340  1.0  -0.606
  O  O183  1  0.637460  0.690120  0.598390  1.0  -0.605
  O  O184  1  0.660020  0.570440  0.564610  1.0  -0.6176
  O  O185  1  0.340040  0.322080  0.581520  1.0  -0.6145
  O  O186  1  0.410020  0.455440  0.595270  1.0  -0.5898
  O  O187  1  0.745590  0.199980  0.020580  1.0  -0.6067
  O  O188  1  0.606610  0.201220  0.926140  1.0  -0.5617
  O  O189  1  0.787980  0.405160  0.990860  1.0  -0.6685
  O  O190  1  0.661870  0.364140  0.090340  1.0  -0.6072
  O  O191  1  0.052660  0.690120  0.098390  1.0  -0.6053
  O  O192  1  0.910420  0.570440  0.064610  1.0  -0.6179
  O  O193  1  0.982040  0.322080  0.081520  1.0  -0.6144
  O  O194  1  0.045420  0.455440  0.095270  1.0  -0.5884
  O  O195  1  0.545610  0.800020  0.479420  1.0  -0.6073
  O  O196  1  0.405390  0.798780  0.573860  1.0  -0.5609
  O  O197  1  0.382820  0.594840  0.509140  1.0  -0.6682
  O  O198  1  0.297730  0.635860  0.409660  1.0  -0.604
  O  O199  1  0.362540  0.309880  0.401610  1.0  -0.6037
  O  O200  1  0.339980  0.429560  0.435390  1.0  -0.6194
  O  O201  1  0.659960  0.677920  0.418480  1.0  -0.614
  O  O202  1  0.589980  0.544560  0.404730  1.0  -0.5889
