# generated using pymatgen
data_Zn3H40C40(NO8)2
_symmetry_space_group_name_H-M   'P 1'
_cell_length_a   9.81050000
_cell_length_b   17.37230000
_cell_length_c   18.19880000
_cell_angle_alpha   92.44810000
_cell_angle_beta   90.00000000
_cell_angle_gamma   106.40100000
_symmetry_Int_Tables_number   1
_chemical_formula_structural   Zn3H40C40(NO8)2
_chemical_formula_sum   'Zn6 H80 C80 N4 O32'
_cell_volume   2972.47913540
_cell_formula_units_Z   2
loop_
 _symmetry_equiv_pos_site_id
 _symmetry_equiv_pos_as_xyz
  1  'x, y, z'
loop_
 _atom_site_type_symbol
 _atom_site_label
 _atom_site_symmetry_multiplicity
 _atom_site_fract_x
 _atom_site_fract_y
 _atom_site_fract_z
 _atom_site_occupancy
 _atom_site_charge
  Zn  Zn1  1  0.147480  0.693140  0.003320  1.0  0.9924
  Zn  Zn2  1  0.454340  0.306860  0.496680  1.0  0.9923
  Zn  Zn3  1  0.852520  0.306860  0.996680  1.0  0.9932
  Zn  Zn4  1  0.545660  0.693140  0.503320  1.0  0.9938
  Zn  Zn5  1  0.000000  0.500000  0.000000  1.0  1.109
  Zn  Zn6  1  0.500000  0.500000  0.500000  1.0  1.109
  H  H7  1  0.587400  0.931600  0.086400  1.0  0.0993
  H  H8  1  0.303100  0.933600  0.928800  1.0  0.101
  H  H9  1  0.529200  0.567400  0.891000  1.0  0.0941
  H  H10  1  0.316700  0.506000  0.078700  1.0  0.0887
  H  H11  1  0.993600  0.733600  0.224900  1.0  0.104
  H  H12  1  0.871600  0.728400  0.334300  1.0  0.1111
  H  H13  1  0.633600  0.506000  0.275600  1.0  0.093
  H  H14  1  0.751300  0.511800  0.165200  1.0  0.0932
  H  H15  1  0.655800  0.068400  0.413600  1.0  0.0995
  H  H16  1  0.369500  0.066400  0.571200  1.0  0.1004
  H  H17  1  0.961800  0.432600  0.609000  1.0  0.0943
  H  H18  1  0.810700  0.494000  0.421300  1.0  0.0887
  H  H19  1  0.260000  0.266400  0.275100  1.0  0.1033
  H  H20  1  0.143200  0.271600  0.165700  1.0  0.1107
  H  H21  1  0.127600  0.494000  0.224400  1.0  0.0934
  H  H22  1  0.239500  0.488200  0.334800  1.0  0.0936
  H  H23  1  0.412600  0.068400  0.913600  1.0  0.0993
  H  H24  1  0.696900  0.066400  0.071200  1.0  0.1006
  H  H25  1  0.470800  0.432600  0.109000  1.0  0.0942
  H  H26  1  0.683300  0.494000  0.921300  1.0  0.0889
  H  H27  1  0.006400  0.266400  0.775100  1.0  0.1033
  H  H28  1  0.128400  0.271600  0.665700  1.0  0.1108
  H  H29  1  0.366400  0.494000  0.724400  1.0  0.0935
  H  H30  1  0.248700  0.488200  0.834800  1.0  0.0937
  H  H31  1  0.344200  0.931600  0.586400  1.0  0.0992
  H  H32  1  0.630500  0.933600  0.428800  1.0  0.1015
  H  H33  1  0.038200  0.567400  0.391000  1.0  0.0937
  H  H34  1  0.189300  0.506000  0.578700  1.0  0.0892
  H  H35  1  0.740000  0.733600  0.724900  1.0  0.1046
  H  H36  1  0.856800  0.728400  0.834300  1.0  0.1114
  H  H37  1  0.872400  0.506000  0.775600  1.0  0.0933
  H  H38  1  0.760500  0.511800  0.665200  1.0  0.0933
  H  H39  1  0.423900  0.781400  0.830900  1.0  0.2205
  H  H40  1  0.297700  0.714400  0.837600  1.0  0.2296
  H  H41  1  0.436100  0.750400  0.707100  1.0  0.0761
  H  H42  1  0.455100  0.682400  0.756600  1.0  0.0808
  H  H43  1  0.205100  0.679600  0.680400  1.0  0.0987
  H  H44  1  0.300400  0.622200  0.663900  1.0  0.0986
  H  H45  1  0.211800  0.614600  0.736300  1.0  0.1029
  H  H46  1  0.174500  0.776800  0.761200  1.0  0.0717
  H  H47  1  0.216500  0.820400  0.838600  1.0  0.0741
  H  H48  1  0.373700  0.866400  0.709800  1.0  0.1038
  H  H49  1  0.276000  0.914000  0.746800  1.0  0.1056
  H  H50  1  0.415000  0.910200  0.787200  1.0  0.1115
  H  H51  1  0.642500  0.218600  0.669100  1.0  0.2204
  H  H52  1  0.583300  0.285600  0.662400  1.0  0.2313
  H  H53  1  0.685700  0.249600  0.792900  1.0  0.0762
  H  H54  1  0.772700  0.317600  0.743400  1.0  0.0817
  H  H55  1  0.525500  0.320400  0.819600  1.0  0.0995
  H  H56  1  0.678200  0.377800  0.836100  1.0  0.1
  H  H57  1  0.597200  0.385400  0.763700  1.0  0.1034
  H  H58  1  0.397700  0.223200  0.738800  1.0  0.0699
  H  H59  1  0.396100  0.179600  0.661400  1.0  0.0742
  H  H60  1  0.507300  0.133600  0.790200  1.0  0.1043
  H  H61  1  0.362000  0.086000  0.753200  1.0  0.1059
  H  H62  1  0.504800  0.089800  0.712800  1.0  0.1118
  H  H63  1  0.576100  0.218600  0.169100  1.0  0.2186
  H  H64  1  0.702300  0.285600  0.162400  1.0  0.2317
  H  H65  1  0.563900  0.249600  0.292900  1.0  0.0769
  H  H66  1  0.544900  0.317600  0.243400  1.0  0.0803
  H  H67  1  0.794900  0.320400  0.319600  1.0  0.1001
  H  H68  1  0.699600  0.377800  0.336100  1.0  0.1004
  H  H69  1  0.788200  0.385400  0.263700  1.0  0.1033
  H  H70  1  0.825500  0.223200  0.238800  1.0  0.0746
  H  H71  1  0.783500  0.179600  0.161400  1.0  0.0734
  H  H72  1  0.626300  0.133600  0.290200  1.0  0.1034
  H  H73  1  0.724000  0.086000  0.253200  1.0  0.1055
  H  H74  1  0.585000  0.089800  0.212800  1.0  0.1109
  H  H75  1  0.357500  0.781400  0.330900  1.0  0.2181
  H  H76  1  0.416700  0.714400  0.337600  1.0  0.2306
  H  H77  1  0.314300  0.750400  0.207100  1.0  0.0776
  H  H78  1  0.227300  0.682400  0.256600  1.0  0.0802
  H  H79  1  0.474500  0.679600  0.180400  1.0  0.1023
  H  H80  1  0.321800  0.622200  0.163900  1.0  0.0995
  H  H81  1  0.402800  0.614600  0.236300  1.0  0.1032
  H  H82  1  0.602300  0.776800  0.261200  1.0  0.0754
  H  H83  1  0.603900  0.820400  0.338600  1.0  0.0745
  H  H84  1  0.492700  0.866400  0.209800  1.0  0.1031
  H  H85  1  0.638000  0.914000  0.246800  1.0  0.1051
  H  H86  1  0.495200  0.910200  0.287200  1.0  0.1108
  C  C87  1  0.359970  0.831340  0.021070  1.0  0.6819
  C  C88  1  0.432990  0.918780  0.009950  1.0  -0.1295
  C  C89  1  0.551810  0.959020  0.051790  1.0  -0.0396
  C  C90  1  0.382020  0.960240  0.957600  1.0  -0.0403
  C  C91  1  0.310580  0.592960  0.962270  1.0  0.6479
  C  C92  1  0.406850  0.543900  0.981850  1.0  -0.142
  C  C93  1  0.517590  0.540380  0.934560  1.0  -0.03
  C  C94  1  0.390070  0.503540  0.047180  1.0  -0.0204
  C  C95  1  0.954300  0.629000  0.109840  1.0  0.6846
  C  C96  1  0.882180  0.624360  0.183050  1.0  -0.1427
  C  C97  1  0.919900  0.688400  0.234650  1.0  -0.0288
  C  C98  1  0.847890  0.684980  0.300470  1.0  -0.0252
  C  C99  1  0.739590  0.616180  0.315770  1.0  -0.1498
  C  C100  1  0.705020  0.552040  0.265140  1.0  -0.0324
  C  C101  1  0.775330  0.555460  0.198950  1.0  -0.014
  C  C102  1  0.659230  0.611860  0.386420  1.0  0.6889
  C  C103  1  0.528630  0.168660  0.478930  1.0  0.6824
  C  C104  1  0.514210  0.081220  0.490050  1.0  -0.1294
  C  C105  1  0.592790  0.040980  0.448210  1.0  -0.0391
  C  C106  1  0.421780  0.039760  0.542400  1.0  -0.0415
  C  C107  1  0.717620  0.407040  0.537730  1.0  0.6488
  C  C108  1  0.862950  0.456100  0.518150  1.0  -0.1426
  C  C109  1  0.977210  0.459620  0.565440  1.0  -0.0333
  C  C110  1  0.886530  0.496460  0.452820  1.0  -0.0209
  C  C111  1  0.325300  0.371000  0.390160  1.0  0.684
  C  C112  1  0.257820  0.375640  0.316950  1.0  -0.1416
  C  C113  1  0.231500  0.311600  0.265350  1.0  -0.0277
  C  C114  1  0.162910  0.315020  0.199530  1.0  -0.024
  C  C115  1  0.123410  0.383820  0.184230  1.0  -0.1502
  C  C116  1  0.152980  0.447960  0.234860  1.0  -0.0321
  C  C117  1  0.219870  0.444540  0.301050  1.0  -0.0153
  C  C118  1  0.047370  0.388140  0.113580  1.0  0.6888
  C  C119  1  0.640030  0.168660  0.978930  1.0  0.683
  C  C120  1  0.567010  0.081220  0.990050  1.0  -0.1294
  C  C121  1  0.448190  0.040980  0.948210  1.0  -0.0334
  C  C122  1  0.617980  0.039760  0.042400  1.0  -0.0403
  C  C123  1  0.689420  0.407040  0.037730  1.0  0.6481
  C  C124  1  0.593150  0.456100  0.018150  1.0  -0.1425
  C  C125  1  0.482410  0.459620  0.065440  1.0  -0.0329
  C  C126  1  0.609930  0.496460  0.952820  1.0  -0.022
  C  C127  1  0.045700  0.371000  0.890160  1.0  0.6843
  C  C128  1  0.117820  0.375640  0.816950  1.0  -0.141
  C  C129  1  0.080100  0.311600  0.765350  1.0  -0.0276
  C  C130  1  0.152110  0.315020  0.699530  1.0  -0.0235
  C  C131  1  0.260410  0.383820  0.684230  1.0  -0.151
  C  C132  1  0.294980  0.447960  0.734860  1.0  -0.0324
  C  C133  1  0.224670  0.444540  0.801050  1.0  -0.0154
  C  C134  1  0.340770  0.388140  0.613580  1.0  0.6894
  C  C135  1  0.471370  0.831340  0.521070  1.0  0.6827
  C  C136  1  0.485790  0.918780  0.509950  1.0  -0.1294
  C  C137  1  0.407210  0.959020  0.551790  1.0  -0.0333
  C  C138  1  0.578220  0.960240  0.457600  1.0  -0.0398
  C  C139  1  0.282380  0.592960  0.462270  1.0  0.647
  C  C140  1  0.137050  0.543900  0.481850  1.0  -0.1421
  C  C141  1  0.022790  0.540380  0.434560  1.0  -0.0298
  C  C142  1  0.113470  0.503540  0.547180  1.0  -0.0217
  C  C143  1  0.674700  0.629000  0.609840  1.0  0.6848
  C  C144  1  0.742180  0.624360  0.683050  1.0  -0.1421
  C  C145  1  0.768500  0.688400  0.734650  1.0  -0.0295
  C  C146  1  0.837090  0.684980  0.800470  1.0  -0.025
  C  C147  1  0.876590  0.616180  0.815770  1.0  -0.1508
  C  C148  1  0.847020  0.552040  0.765140  1.0  -0.0331
  C  C149  1  0.780130  0.555460  0.698950  1.0  -0.0141
  C  C150  1  0.952630  0.611860  0.886420  1.0  0.6894
  C  C151  1  0.388020  0.710440  0.741170  1.0  -0.017
  C  C152  1  0.265290  0.651380  0.701910  1.0  -0.3118
  C  C153  1  0.254190  0.805580  0.792560  1.0  -0.0
  C  C154  1  0.337410  0.881020  0.755710  1.0  -0.347
  C  C155  1  0.677580  0.289560  0.758830  1.0  -0.0163
  C  C156  1  0.613910  0.348620  0.798090  1.0  -0.3132
  C  C157  1  0.448610  0.194420  0.707440  1.0  -1e-04
  C  C158  1  0.456390  0.118980  0.744290  1.0  -0.3479
  C  C159  1  0.611980  0.289560  0.258830  1.0  -0.0179
  C  C160  1  0.734710  0.348620  0.298090  1.0  -0.3133
  C  C161  1  0.745810  0.194420  0.207440  1.0  0.0018
  C  C162  1  0.662590  0.118980  0.244290  1.0  -0.3467
  C  C163  1  0.322420  0.710440  0.241170  1.0  -0.0177
  C  C164  1  0.386090  0.651380  0.201910  1.0  -0.3131
  C  C165  1  0.551390  0.805580  0.292560  1.0  0.0022
  C  C166  1  0.543610  0.881020  0.255710  1.0  -0.3464
  N  N167  1  0.344740  0.752080  0.807070  1.0  -0.0955
  N  N168  1  0.592660  0.247920  0.692930  1.0  -0.0932
  N  N169  1  0.655260  0.247920  0.192930  1.0  -0.0931
  N  N170  1  0.407340  0.752080  0.307070  1.0  -0.0949
  O  O171  1  0.256610  0.798420  0.975750  1.0  -0.6117
  O  O172  1  0.396600  0.796000  0.071440  1.0  -0.5417
  O  O173  1  0.209280  0.593960  0.007990  1.0  -0.6752
  O  O174  1  0.333510  0.633020  0.906640  1.0  -0.6218
  O  O175  1  0.056220  0.691840  0.099580  1.0  -0.6033
  O  O176  1  0.090620  0.427840  0.936290  1.0  -0.6081
  O  O177  1  0.668980  0.677760  0.421180  1.0  -0.5921
  O  O178  1  0.588700  0.543320  0.404310  1.0  -0.5952
  O  O179  1  0.458190  0.201580  0.524250  1.0  -0.6125
  O  O180  1  0.600600  0.204000  0.428560  1.0  -0.5413
  O  O181  1  0.615320  0.406040  0.492010  1.0  -0.6766
  O  O182  1  0.700490  0.366980  0.593360  1.0  -0.6245
  O  O183  1  0.364380  0.308160  0.400420  1.0  -0.6014
  O  O184  1  0.662780  0.572160  0.563710  1.0  -0.6071
  O  O185  1  0.991220  0.322240  0.078820  1.0  -0.592
  O  O186  1  0.045380  0.456680  0.095690  1.0  -0.595
  O  O187  1  0.743390  0.201580  0.024250  1.0  -0.6129
  O  O188  1  0.603400  0.204000  0.928560  1.0  -0.5415
  O  O189  1  0.790720  0.406040  0.992010  1.0  -0.6774
  O  O190  1  0.666490  0.366980  0.093360  1.0  -0.6251
  O  O191  1  0.943780  0.308160  0.900420  1.0  -0.6019
  O  O192  1  0.909380  0.572160  0.063710  1.0  -0.6072
  O  O193  1  0.331020  0.322240  0.578820  1.0  -0.5921
  O  O194  1  0.411300  0.456680  0.595690  1.0  -0.5946
  O  O195  1  0.541810  0.798420  0.475750  1.0  -0.6117
  O  O196  1  0.399400  0.796000  0.571440  1.0  -0.5417
  O  O197  1  0.384680  0.593960  0.507990  1.0  -0.6762
  O  O198  1  0.299510  0.633020  0.406640  1.0  -0.6223
  O  O199  1  0.635620  0.691840  0.599580  1.0  -0.6021
  O  O200  1  0.337220  0.427840  0.436290  1.0  -0.6086
  O  O201  1  0.008780  0.677760  0.921180  1.0  -0.5917
  O  O202  1  0.954620  0.543320  0.904310  1.0  -0.5945
