# generated using pymatgen
data_Zn3H40C40(NO8)2
_symmetry_space_group_name_H-M   'P 1'
_cell_length_a   9.84550000
_cell_length_b   17.41970000
_cell_length_c   18.19080000
_cell_angle_alpha   92.39320000
_cell_angle_beta   90.00000000
_cell_angle_gamma   106.41500000
_symmetry_Int_Tables_number   1
_chemical_formula_structural   Zn3H40C40(NO8)2
_chemical_formula_sum   'Zn6 H80 C80 N4 O32'
_cell_volume   2989.82423311
_cell_formula_units_Z   2
loop_
 _symmetry_equiv_pos_site_id
 _symmetry_equiv_pos_as_xyz
  1  'x, y, z'
loop_
 _atom_site_type_symbol
 _atom_site_label
 _atom_site_symmetry_multiplicity
 _atom_site_fract_x
 _atom_site_fract_y
 _atom_site_fract_z
 _atom_site_occupancy
 _atom_site_charge
  Zn  Zn1  1  0.148480  0.693340  0.003520  1.0  0.973
  Zn  Zn2  1  0.455140  0.306660  0.496480  1.0  0.9721
  Zn  Zn3  1  0.851520  0.306660  0.996480  1.0  0.9724
  Zn  Zn4  1  0.544860  0.693340  0.503520  1.0  0.9732
  Zn  Zn5  1  0.000000  0.500000  0.000000  1.0  1.0921
  Zn  Zn6  1  0.500000  0.500000  0.500000  1.0  1.0921
  H  H7  1  0.586900  0.930600  0.085300  1.0  0.1042
  H  H8  1  0.300400  0.935600  0.931300  1.0  0.0983
  H  H9  1  0.529000  0.568000  0.891600  1.0  0.0967
  H  H10  1  0.317700  0.506200  0.078900  1.0  0.0926
  H  H11  1  0.991300  0.733000  0.224100  1.0  0.1067
  H  H12  1  0.868100  0.727800  0.333400  1.0  0.1098
  H  H13  1  0.633300  0.506000  0.275200  1.0  0.0931
  H  H14  1  0.752800  0.512200  0.165100  1.0  0.0964
  H  H15  1  0.656300  0.069400  0.414700  1.0  0.1047
  H  H16  1  0.364800  0.064400  0.568700  1.0  0.0977
  H  H17  1  0.961000  0.432000  0.608400  1.0  0.0966
  H  H18  1  0.811500  0.493800  0.421100  1.0  0.0927
  H  H19  1  0.258300  0.267000  0.275900  1.0  0.1065
  H  H20  1  0.140300  0.272200  0.166600  1.0  0.1095
  H  H21  1  0.127300  0.494000  0.224800  1.0  0.0934
  H  H22  1  0.240600  0.487800  0.334900  1.0  0.0965
  H  H23  1  0.413100  0.069400  0.914700  1.0  0.1046
  H  H24  1  0.699600  0.064400  0.068700  1.0  0.0982
  H  H25  1  0.471000  0.432000  0.108400  1.0  0.0968
  H  H26  1  0.682300  0.493800  0.921100  1.0  0.0929
  H  H27  1  0.008700  0.267000  0.775900  1.0  0.1063
  H  H28  1  0.131900  0.272200  0.666667  1.0  0.1092
  H  H29  1  0.366700  0.494000  0.724800  1.0  0.0937
  H  H30  1  0.247200  0.487800  0.834900  1.0  0.0965
  H  H31  1  0.343700  0.930600  0.585300  1.0  0.1041
  H  H32  1  0.635200  0.935600  0.431300  1.0  0.0989
  H  H33  1  0.039000  0.568000  0.391600  1.0  0.0961
  H  H34  1  0.188500  0.506200  0.578900  1.0  0.0929
  H  H35  1  0.741700  0.733000  0.724100  1.0  0.1073
  H  H36  1  0.859700  0.727800  0.833400  1.0  0.1101
  H  H37  1  0.872700  0.506000  0.775200  1.0  0.0935
  H  H38  1  0.759400  0.512200  0.665100  1.0  0.0964
  H  H39  1  0.298800  0.715800  0.838300  1.0  0.2274
  H  H40  1  0.426400  0.781200  0.830800  1.0  0.2137
  H  H41  1  0.433700  0.748800  0.707000  1.0  0.0797
  H  H42  1  0.454200  0.682200  0.757500  1.0  0.0822
  H  H43  1  0.204400  0.678200  0.682300  1.0  0.0992
  H  H44  1  0.298200  0.620000  0.667300  1.0  0.0988
  H  H45  1  0.211200  0.615000  0.740000  1.0  0.1052
  H  H46  1  0.178800  0.779800  0.761300  1.0  0.0769
  H  H47  1  0.221600  0.822800  0.838800  1.0  0.0779
  H  H48  1  0.373900  0.867200  0.709300  1.0  0.1053
  H  H49  1  0.284800  0.917000  0.750400  1.0  0.1055
  H  H50  1  0.423700  0.908400  0.786800  1.0  0.1114
  H  H51  1  0.583000  0.284200  0.661700  1.0  0.2288
  H  H52  1  0.645200  0.218800  0.669200  1.0  0.2133
  H  H53  1  0.684900  0.251200  0.793000  1.0  0.0798
  H  H54  1  0.772000  0.317800  0.742500  1.0  0.0832
  H  H55  1  0.526200  0.321800  0.817700  1.0  0.1
  H  H56  1  0.678200  0.380000  0.832700  1.0  0.1003
  H  H57  1  0.596200  0.385000  0.760000  1.0  0.1051
  H  H58  1  0.399000  0.220200  0.738700  1.0  0.0753
  H  H59  1  0.398800  0.177200  0.661200  1.0  0.0785
  H  H60  1  0.506700  0.132800  0.790700  1.0  0.1059
  H  H61  1  0.367800  0.083000  0.749600  1.0  0.1065
  H  H62  1  0.515300  0.091600  0.713200  1.0  0.1115
  H  H63  1  0.701200  0.284200  0.161700  1.0  0.2286
  H  H64  1  0.573600  0.218800  0.169200  1.0  0.2101
  H  H65  1  0.566300  0.251200  0.293000  1.0  0.0805
  H  H66  1  0.545800  0.317800  0.242500  1.0  0.082
  H  H67  1  0.795600  0.321800  0.317700  1.0  0.1008
  H  H68  1  0.701800  0.380000  0.332700  1.0  0.1009
  H  H69  1  0.788800  0.385000  0.260000  1.0  0.1052
  H  H70  1  0.821200  0.220200  0.238700  1.0  0.0778
  H  H71  1  0.778400  0.177200  0.161200  1.0  0.0777
  H  H72  1  0.626100  0.132800  0.290700  1.0  0.1051
  H  H73  1  0.715200  0.083000  0.249600  1.0  0.1047
  H  H74  1  0.576300  0.091600  0.213200  1.0  0.1114
  H  H75  1  0.417000  0.715800  0.338300  1.0  0.2272
  H  H76  1  0.354800  0.781200  0.330800  1.0  0.2092
  H  H77  1  0.315100  0.748800  0.207000  1.0  0.081
  H  H78  1  0.228000  0.682200  0.257500  1.0  0.0818
  H  H79  1  0.473800  0.678200  0.182300  1.0  0.1026
  H  H80  1  0.321800  0.620000  0.167300  1.0  0.0995
  H  H81  1  0.403800  0.615000  0.240000  1.0  0.1053
  H  H82  1  0.601000  0.779800  0.261300  1.0  0.0787
  H  H83  1  0.601200  0.822800  0.338800  1.0  0.0783
  H  H84  1  0.493300  0.867200  0.209300  1.0  0.1048
  H  H85  1  0.632200  0.917000  0.250400  1.0  0.1056
  H  H86  1  0.484700  0.908400  0.286800  1.0  0.1111
  C  C87  1  0.358350  0.831900  0.021330  1.0  0.6839
  C  C88  1  0.432180  0.919160  0.009870  1.0  -0.1359
  C  C89  1  0.551510  0.958220  0.050890  1.0  -0.0504
  C  C90  1  0.380940  0.961280  0.959080  1.0  -0.0398
  C  C91  1  0.312260  0.593720  0.963430  1.0  0.6624
  C  C92  1  0.407790  0.544380  0.982340  1.0  -0.1435
  C  C93  1  0.517280  0.540760  0.935040  1.0  -0.0196
  C  C94  1  0.390700  0.503800  0.047200  1.0  -0.0389
  C  C95  1  0.954870  0.628740  0.110050  1.0  0.6836
  C  C96  1  0.881270  0.623940  0.183240  1.0  -0.13
  C  C97  1  0.917840  0.687680  0.233940  1.0  -0.0293
  C  C98  1  0.844870  0.684340  0.299780  1.0  -0.0328
  C  C99  1  0.737670  0.616340  0.315380  1.0  -0.1518
  C  C100  1  0.704310  0.552020  0.264780  1.0  -0.0174
  C  C101  1  0.775810  0.555620  0.198770  1.0  -0.0074
  C  C102  1  0.656780  0.611760  0.385710  1.0  0.6899
  C  C103  1  0.526450  0.168100  0.478670  1.0  0.6847
  C  C104  1  0.513020  0.080840  0.490130  1.0  -0.1356
  C  C105  1  0.593290  0.041780  0.449110  1.0  -0.0502
  C  C106  1  0.419660  0.038720  0.540920  1.0  -0.0402
  C  C107  1  0.718540  0.406280  0.536570  1.0  0.663
  C  C108  1  0.863410  0.455620  0.517660  1.0  -0.1435
  C  C109  1  0.976520  0.459240  0.564960  1.0  -0.0198
  C  C110  1  0.886900  0.496200  0.452800  1.0  -0.0393
  C  C111  1  0.326130  0.371260  0.389950  1.0  0.6818
  C  C112  1  0.257330  0.376060  0.316760  1.0  -0.13
  C  C113  1  0.230160  0.312320  0.266060  1.0  -0.0279
  C  C114  1  0.160530  0.315660  0.200220  1.0  -0.0319
  C  C115  1  0.121330  0.383660  0.184620  1.0  -0.1525
  C  C116  1  0.152290  0.447980  0.235220  1.0  -0.0173
  C  C117  1  0.220190  0.444380  0.301230  1.0  -0.0079
  C  C118  1  0.045020  0.388240  0.114290  1.0  0.6893
  C  C119  1  0.641650  0.168100  0.978670  1.0  0.6849
  C  C120  1  0.567820  0.080840  0.990130  1.0  -0.1347
  C  C121  1  0.448490  0.041780  0.949110  1.0  -0.0461
  C  C122  1  0.619060  0.038720  0.040920  1.0  -0.0395
  C  C123  1  0.687740  0.406280  0.036570  1.0  0.6625
  C  C124  1  0.592210  0.455620  0.017660  1.0  -0.1438
  C  C125  1  0.482720  0.459240  0.064960  1.0  -0.0195
  C  C126  1  0.609300  0.496200  0.952800  1.0  -0.0414
  C  C127  1  0.045130  0.371260  0.889950  1.0  0.6827
  C  C128  1  0.118730  0.376060  0.816760  1.0  -0.1296
  C  C129  1  0.082160  0.312320  0.766060  1.0  -0.0279
  C  C130  1  0.155130  0.315660  0.700220  1.0  -0.0282
  C  C131  1  0.262330  0.383660  0.684620  1.0  -0.1535
  C  C132  1  0.295690  0.447980  0.735220  1.0  -0.0179
  C  C133  1  0.224190  0.444380  0.801230  1.0  -0.0077
  C  C134  1  0.343220  0.388240  0.614290  1.0  0.6898
  C  C135  1  0.473550  0.831900  0.521330  1.0  0.6841
  C  C136  1  0.486980  0.919160  0.509870  1.0  -0.1353
  C  C137  1  0.406710  0.958220  0.550890  1.0  -0.0457
  C  C138  1  0.580340  0.961280  0.459080  1.0  -0.0392
  C  C139  1  0.281460  0.593720  0.463430  1.0  0.6617
  C  C140  1  0.136590  0.544380  0.482340  1.0  -0.1437
  C  C141  1  0.023480  0.540760  0.435040  1.0  -0.0194
  C  C142  1  0.113100  0.503800  0.547200  1.0  -0.041
  C  C143  1  0.673870  0.628740  0.610050  1.0  0.6837
  C  C144  1  0.742670  0.623940  0.683240  1.0  -0.1296
  C  C145  1  0.769840  0.687680  0.733940  1.0  -0.0297
  C  C146  1  0.839470  0.684340  0.799780  1.0  -0.0327
  C  C147  1  0.878670  0.616340  0.815380  1.0  -0.1525
  C  C148  1  0.847710  0.552020  0.764780  1.0  -0.0181
  C  C149  1  0.779810  0.555620  0.698770  1.0  -0.007
  C  C150  1  0.954980  0.611760  0.885710  1.0  0.6902
  C  C151  1  0.386900  0.709800  0.742000  1.0  -0.0061
  C  C152  1  0.264210  0.650420  0.704500  1.0  -0.3107
  C  C153  1  0.258650  0.807700  0.792800  1.0  0.0002
  C  C154  1  0.342880  0.881760  0.756500  1.0  -0.3478
  C  C155  1  0.677100  0.290200  0.758000  1.0  -0.0061
  C  C156  1  0.613790  0.349580  0.795500  1.0  -0.3106
  C  C157  1  0.450950  0.192300  0.707200  1.0  0.0004
  C  C158  1  0.461120  0.118240  0.743500  1.0  -0.3491
  C  C159  1  0.613100  0.290200  0.258000  1.0  -0.0077
  C  C160  1  0.735790  0.349580  0.295500  1.0  -0.311
  C  C161  1  0.741350  0.192300  0.207200  1.0  0.0019
  C  C162  1  0.657120  0.118240  0.243500  1.0  -0.3481
  C  C163  1  0.322900  0.709800  0.242000  1.0  -0.0077
  C  C164  1  0.386210  0.650420  0.204500  1.0  -0.3124
  C  C165  1  0.549050  0.807700  0.292800  1.0  0.0017
  C  C166  1  0.538880  0.881760  0.256500  1.0  -0.3475
  N  N167  1  0.346430  0.752660  0.807350  1.0  -0.0968
  N  N168  1  0.593770  0.247340  0.692650  1.0  -0.0945
  N  N169  1  0.653570  0.247340  0.192650  1.0  -0.0946
  N  N170  1  0.406230  0.752660  0.307350  1.0  -0.0961
  O  O171  1  0.253960  0.799320  0.977050  1.0  -0.612
  O  O172  1  0.395640  0.796280  0.071120  1.0  -0.5354
  O  O173  1  0.209950  0.594500  0.008570  1.0  -0.672
  O  O174  1  0.335390  0.634380  0.908150  1.0  -0.6207
  O  O175  1  0.054940  0.690880  0.099400  1.0  -0.6043
  O  O176  1  0.090430  0.428660  0.935980  1.0  -0.6136
  O  O177  1  0.664670  0.677540  0.419970  1.0  -0.6137
  O  O178  1  0.588640  0.543480  0.404250  1.0  -0.5934
  O  O179  1  0.454640  0.200680  0.522950  1.0  -0.6121
  O  O180  1  0.599360  0.203720  0.428880  1.0  -0.5351
  O  O181  1  0.615450  0.405500  0.491430  1.0  -0.6733
  O  O182  1  0.701010  0.365620  0.591850  1.0  -0.6235
  O  O183  1  0.364060  0.309120  0.400600  1.0  -0.6033
  O  O184  1  0.661770  0.571340  0.564020  1.0  -0.6132
  O  O185  1  0.987130  0.322460  0.080030  1.0  -0.614
  O  O186  1  0.045160  0.456520  0.095750  1.0  -0.5932
  O  O187  1  0.746040  0.200680  0.022950  1.0  -0.6113
  O  O188  1  0.604360  0.203720  0.928880  1.0  -0.5365
  O  O189  1  0.790050  0.405500  0.991430  1.0  -0.6738
  O  O190  1  0.664610  0.365620  0.091850  1.0  -0.6246
  O  O191  1  0.945060  0.309120  0.900600  1.0  -0.6044
  O  O192  1  0.909570  0.571340  0.064020  1.0  -0.6133
  O  O193  1  0.335330  0.322460  0.580030  1.0  -0.6131
  O  O194  1  0.411360  0.456520  0.595750  1.0  -0.5928
  O  O195  1  0.545360  0.799320  0.477050  1.0  -0.6114
  O  O196  1  0.400640  0.796280  0.571120  1.0  -0.5367
  O  O197  1  0.384550  0.594500  0.508570  1.0  -0.673
  O  O198  1  0.298990  0.634380  0.408150  1.0  -0.6214
  O  O199  1  0.635940  0.690880  0.599400  1.0  -0.6035
  O  O200  1  0.338230  0.428660  0.435980  1.0  -0.6143
  O  O201  1  0.012870  0.677540  0.919970  1.0  -0.6128
  O  O202  1  0.954840  0.543480  0.904250  1.0  -0.5928
