# generated using pymatgen
data_Ni3H18C34(O5F6)2
_symmetry_space_group_name_H-M   'P 1'
_cell_length_a   7.08500000
_cell_length_b   16.40400000
_cell_length_c   31.76600000
_cell_angle_alpha   90.00000000
_cell_angle_beta   90.00000000
_cell_angle_gamma   99.78000000
_symmetry_Int_Tables_number   1
_chemical_formula_structural   Ni3H18C34(O5F6)2
_chemical_formula_sum   'Ni12 H72 C136 O40 F48'
_cell_volume   3638.26512897
_cell_formula_units_Z   4
loop_
 _symmetry_equiv_pos_site_id
 _symmetry_equiv_pos_as_xyz
  1  'x, y, z'
loop_
 _atom_site_type_symbol
 _atom_site_label
 _atom_site_symmetry_multiplicity
 _atom_site_fract_x
 _atom_site_fract_y
 _atom_site_fract_z
 _atom_site_occupancy
 _atom_site_charge
  Ni  Ni1  1  0.252370  0.398540  0.929320  1.0  1.0341
  Ni  Ni2  1  0.273540  0.625140  0.073650  1.0  1.0721
  Ni  Ni3  1  0.747630  0.101460  0.429320  1.0  1.0364
  Ni  Ni4  1  0.726460  0.874860  0.573650  1.0  1.0727
  Ni  Ni5  1  0.747630  0.601460  0.070680  1.0  1.0373
  Ni  Ni6  1  0.726460  0.374860  0.926350  1.0  1.0735
  Ni  Ni7  1  0.252370  0.898540  0.570680  1.0  1.0373
  Ni  Ni8  1  0.273540  0.125140  0.426350  1.0  1.0733
  Ni  Ni9  1  0.000000  0.500000  0.000000  1.0  1.1739
  Ni  Ni10  1  0.000000  0.000000  0.500000  1.0  1.1739
  Ni  Ni11  1  0.500000  0.500000  0.000000  1.0  1.029
  Ni  Ni12  1  0.500000  0.000000  0.500000  1.0  1.029
  H  H13  1  0.150100  0.767900  0.003000  1.0  0.1093
  H  H14  1  0.058100  0.875100  0.966700  1.0  0.1087
  H  H15  1  0.205600  0.781500  0.858100  1.0  0.0969
  H  H16  1  0.327200  0.681200  0.895000  1.0  0.1074
  H  H17  1  0.561000  0.496000  0.922500  1.0  0.4507
  H  H18  1  0.790000  0.614000  0.997200  1.0  0.4647
  H  H19  1  0.894800  0.047300  0.908200  1.0  0.0983
  H  H20  1  0.045000  0.174900  0.931300  1.0  0.1028
  H  H21  1  0.534200  0.094700  0.927900  1.0  0.0938
  H  H22  1  0.382900  0.965500  0.907300  1.0  0.1028
  H  H23  1  0.226000  0.389700  0.098900  1.0  0.1121
  H  H24  1  0.398000  0.342400  0.151800  1.0  0.1103
  H  H25  1  0.104100  0.444800  0.237900  1.0  0.1147
  H  H26  1  0.926100  0.488100  0.185100  1.0  0.1027
  H  H27  1  0.062300  0.268200  0.236200  1.0  0.1036
  H  H28  1  0.878100  0.199000  0.289100  1.0  0.1122
  H  H29  1  0.260300  0.297200  0.374500  1.0  0.1066
  H  H30  1  0.436000  0.370400  0.322100  1.0  0.0971
  H  H31  1  0.849900  0.732100  0.503000  1.0  0.1094
  H  H32  1  0.941900  0.624900  0.466700  1.0  0.1089
  H  H33  1  0.794400  0.718500  0.358100  1.0  0.0967
  H  H34  1  0.672800  0.818800  0.395000  1.0  0.1075
  H  H35  1  0.439000  0.004000  0.422500  1.0  0.4503
  H  H36  1  0.210000  0.886000  0.497200  1.0  0.4638
  H  H37  1  0.105200  0.452700  0.408200  1.0  0.0985
  H  H38  1  0.955000  0.325100  0.431300  1.0  0.1031
  H  H39  1  0.465800  0.405300  0.427900  1.0  0.0949
  H  H40  1  0.617100  0.534500  0.407300  1.0  0.1018
  H  H41  1  0.774000  0.110300  0.598900  1.0  0.1119
  H  H42  1  0.602000  0.157600  0.651800  1.0  0.1099
  H  H43  1  0.895900  0.055200  0.737900  1.0  0.1151
  H  H44  1  0.073900  0.011900  0.685100  1.0  0.1029
  H  H45  1  0.937700  0.231800  0.736200  1.0  0.1032
  H  H46  1  0.121900  0.301000  0.789100  1.0  0.1124
  H  H47  1  0.739700  0.202800  0.874500  1.0  0.1064
  H  H48  1  0.564000  0.129600  0.822100  1.0  0.0975
  H  H49  1  0.849900  0.232100  0.997000  1.0  0.1088
  H  H50  1  0.941900  0.124900  0.033300  1.0  0.1097
  H  H51  1  0.794400  0.218500  0.141900  1.0  0.0967
  H  H52  1  0.672800  0.318800  0.105000  1.0  0.1076
  H  H53  1  0.439000  0.504000  0.077500  1.0  0.4512
  H  H54  1  0.210000  0.386000  0.002800  1.0  0.4643
  H  H55  1  0.105200  0.952700  0.091800  1.0  0.0983
  H  H56  1  0.955000  0.825100  0.068700  1.0  0.103
  H  H57  1  0.465800  0.905300  0.072100  1.0  0.0954
  H  H58  1  0.617100  0.034500  0.092700  1.0  0.102
  H  H59  1  0.774000  0.610300  0.901100  1.0  0.1116
  H  H60  1  0.602000  0.657600  0.848200  1.0  0.1104
  H  H61  1  0.895900  0.555200  0.762100  1.0  0.1155
  H  H62  1  0.073900  0.511900  0.814900  1.0  0.1026
  H  H63  1  0.937700  0.731800  0.763800  1.0  0.1037
  H  H64  1  0.121900  0.801000  0.710900  1.0  0.112
  H  H65  1  0.739700  0.702800  0.625500  1.0  0.1068
  H  H66  1  0.564000  0.629600  0.677900  1.0  0.0974
  H  H67  1  0.150100  0.267900  0.497000  1.0  0.1096
  H  H68  1  0.058100  0.375100  0.533300  1.0  0.1095
  H  H69  1  0.205600  0.281500  0.641900  1.0  0.0971
  H  H70  1  0.327200  0.181200  0.605000  1.0  0.1076
  H  H71  1  0.561000  0.996000  0.577500  1.0  0.4511
  H  H72  1  0.790000  0.114000  0.502800  1.0  0.465
  H  H73  1  0.894800  0.547300  0.591800  1.0  0.0983
  H  H74  1  0.045000  0.674900  0.568700  1.0  0.1028
  H  H75  1  0.534200  0.594700  0.572100  1.0  0.0936
  H  H76  1  0.382900  0.465500  0.592700  1.0  0.1026
  H  H77  1  0.226000  0.889700  0.401100  1.0  0.1118
  H  H78  1  0.398000  0.842400  0.348200  1.0  0.1115
  H  H79  1  0.104100  0.944800  0.262100  1.0  0.1156
  H  H80  1  0.926100  0.988100  0.314900  1.0  0.1031
  H  H81  1  0.062300  0.768200  0.263800  1.0  0.1036
  H  H82  1  0.878100  0.699000  0.210900  1.0  0.112
  H  H83  1  0.260300  0.797200  0.125500  1.0  0.1067
  H  H84  1  0.436000  0.870400  0.177900  1.0  0.0973
  C  C85  1  0.306300  0.643200  0.976160  1.0  0.7121
  C  C86  1  0.249000  0.713600  0.952700  1.0  -0.1428
  C  C87  1  0.165700  0.771600  0.974040  1.0  -0.0172
  C  C88  1  0.106400  0.834600  0.952100  1.0  -0.1442
  C  C89  1  0.117500  0.838700  0.908300  1.0  0.0888
  C  C90  1  0.198100  0.780000  0.887260  1.0  -0.144
  C  C91  1  0.268000  0.718700  0.909290  1.0  -0.0245
  C  C92  1  0.034200  0.908000  0.886790  1.0  -0.2935
  C  C93  1  0.071000  0.913300  0.838830  1.0  0.6846
  C  C94  1  0.819200  0.888200  0.893120  1.0  0.6981
  C  C95  1  0.122000  0.993300  0.904820  1.0  0.0883
  C  C96  1  0.023300  0.056500  0.912250  1.0  -0.1447
  C  C97  1  0.113500  0.133400  0.925710  1.0  -0.0173
  C  C98  1  0.306800  0.148600  0.930820  1.0  -0.141
  C  C99  1  0.405600  0.085300  0.924000  1.0  -0.0479
  C  C100  1  0.315100  0.007900  0.911390  1.0  -0.1348
  C  C101  1  0.401500  0.235400  0.941260  1.0  0.7125
  C  C102  1  0.960300  0.482500  0.102660  1.0  0.6863
  C  C103  1  0.061600  0.445700  0.136450  1.0  -0.16
  C  C104  1  0.201800  0.400800  0.126770  1.0  -0.024
  C  C105  1  0.305200  0.372600  0.158470  1.0  -0.1271
  C  C106  1  0.270900  0.389400  0.200340  1.0  0.0803
  C  C107  1  0.128300  0.433400  0.209980  1.0  -0.135
  C  C108  1  0.023000  0.460300  0.178330  1.0  -0.0068
  C  C109  1  0.391200  0.365900  0.236790  1.0  -0.2919
  C  C110  1  0.511100  0.300800  0.223900  1.0  0.6926
  C  C111  1  0.524400  0.446200  0.250100  1.0  0.6786
  C  C112  1  0.269100  0.326900  0.273580  1.0  0.0796
  C  C113  1  0.101300  0.274600  0.264040  1.0  -0.1323
  C  C114  1  0.991700  0.232000  0.295650  1.0  -0.0183
  C  C115  1  0.053500  0.239200  0.337020  1.0  -0.1516
  C  C116  1  0.220000  0.291500  0.346770  1.0  -0.0275
  C  C117  1  0.325800  0.335200  0.315300  1.0  -0.1321
  C  C118  1  0.943500  0.189400  0.370600  1.0  0.6827
  C  C119  1  0.693700  0.856800  0.476160  1.0  0.7127
  C  C120  1  0.751000  0.786400  0.452700  1.0  -0.1434
  C  C121  1  0.834300  0.728400  0.474040  1.0  -0.0167
  C  C122  1  0.893600  0.665400  0.452100  1.0  -0.1436
  C  C123  1  0.882500  0.661300  0.408300  1.0  0.0887
  C  C124  1  0.801900  0.720000  0.387260  1.0  -0.144
  C  C125  1  0.732000  0.781300  0.409290  1.0  -0.0227
  C  C126  1  0.965800  0.592000  0.386790  1.0  -0.2945
  C  C127  1  0.929000  0.586700  0.338830  1.0  0.6846
  C  C128  1  0.180800  0.611800  0.393120  1.0  0.6971
  C  C129  1  0.878000  0.506700  0.404820  1.0  0.0889
  C  C130  1  0.976700  0.443500  0.412250  1.0  -0.1445
  C  C131  1  0.886500  0.366600  0.425710  1.0  -0.0181
  C  C132  1  0.693200  0.351400  0.430820  1.0  -0.1395
  C  C133  1  0.594400  0.414700  0.424000  1.0  -0.0488
  C  C134  1  0.684900  0.492100  0.411390  1.0  -0.1331
  C  C135  1  0.598500  0.264600  0.441260  1.0  0.713
  C  C136  1  0.039700  0.017500  0.602660  1.0  0.6875
  C  C137  1  0.938400  0.054300  0.636450  1.0  -0.161
  C  C138  1  0.798200  0.099200  0.626770  1.0  -0.0222
  C  C139  1  0.694800  0.127400  0.658470  1.0  -0.1252
  C  C140  1  0.729100  0.110600  0.700340  1.0  0.0791
  C  C141  1  0.871700  0.066600  0.709980  1.0  -0.1346
  C  C142  1  0.977000  0.039700  0.678330  1.0  -0.0078
  C  C143  1  0.608800  0.134100  0.736790  1.0  -0.2916
  C  C144  1  0.488900  0.199200  0.723900  1.0  0.6941
  C  C145  1  0.475600  0.053800  0.750100  1.0  0.6833
  C  C146  1  0.730900  0.173100  0.773580  1.0  0.0793
  C  C147  1  0.898700  0.225400  0.764040  1.0  -0.1345
  C  C148  1  0.008300  0.268000  0.795650  1.0  -0.0204
  C  C149  1  0.946500  0.260800  0.837020  1.0  -0.1511
  C  C150  1  0.780000  0.208500  0.846770  1.0  -0.0263
  C  C151  1  0.674200  0.164800  0.815300  1.0  -0.1325
  C  C152  1  0.056500  0.310600  0.870600  1.0  0.6823
  C  C153  1  0.693700  0.356800  0.023840  1.0  0.7129
  C  C154  1  0.751000  0.286400  0.047300  1.0  -0.1438
  C  C155  1  0.834300  0.228400  0.025960  1.0  -0.018
  C  C156  1  0.893600  0.165400  0.047900  1.0  -0.1435
  C  C157  1  0.882500  0.161300  0.091700  1.0  0.0884
  C  C158  1  0.801900  0.220000  0.112740  1.0  -0.1442
  C  C159  1  0.732000  0.281300  0.090710  1.0  -0.0224
  C  C160  1  0.965800  0.092000  0.113210  1.0  -0.2945
  C  C161  1  0.929000  0.086700  0.161170  1.0  0.6827
  C  C162  1  0.180800  0.111800  0.106880  1.0  0.697
  C  C163  1  0.878000  0.006700  0.095180  1.0  0.0888
  C  C164  1  0.976700  0.943500  0.087750  1.0  -0.144
  C  C165  1  0.886500  0.866600  0.074290  1.0  -0.0182
  C  C166  1  0.693200  0.851400  0.069180  1.0  -0.1409
  C  C167  1  0.594400  0.914700  0.076000  1.0  -0.0482
  C  C168  1  0.684900  0.992100  0.088610  1.0  -0.1332
  C  C169  1  0.598500  0.764600  0.058740  1.0  0.7129
  C  C170  1  0.039700  0.517500  0.897340  1.0  0.6878
  C  C171  1  0.938400  0.554300  0.863550  1.0  -0.1612
  C  C172  1  0.798200  0.599200  0.873230  1.0  -0.021
  C  C173  1  0.694800  0.627400  0.841530  1.0  -0.1257
  C  C174  1  0.729100  0.610600  0.799660  1.0  0.0801
  C  C175  1  0.871700  0.566600  0.790020  1.0  -0.1334
  C  C176  1  0.977000  0.539700  0.821670  1.0  -0.0072
  C  C177  1  0.608800  0.634100  0.763210  1.0  -0.2923
  C  C178  1  0.488900  0.699200  0.776100  1.0  0.6935
  C  C179  1  0.475600  0.553800  0.749900  1.0  0.6827
  C  C180  1  0.730900  0.673100  0.726420  1.0  0.0796
  C  C181  1  0.898700  0.725400  0.735960  1.0  -0.1362
  C  C182  1  0.008300  0.768000  0.704350  1.0  -0.0198
  C  C183  1  0.946500  0.760800  0.662980  1.0  -0.1509
  C  C184  1  0.780000  0.708500  0.653230  1.0  -0.0259
  C  C185  1  0.674200  0.664800  0.684700  1.0  -0.133
  C  C186  1  0.056500  0.810600  0.629400  1.0  0.6826
  C  C187  1  0.306300  0.143200  0.523840  1.0  0.7122
  C  C188  1  0.249000  0.213600  0.547300  1.0  -0.1433
  C  C189  1  0.165700  0.271600  0.525960  1.0  -0.0192
  C  C190  1  0.106400  0.334600  0.547900  1.0  -0.144
  C  C191  1  0.117500  0.338700  0.591700  1.0  0.0885
  C  C192  1  0.198100  0.280000  0.612740  1.0  -0.1438
  C  C193  1  0.268000  0.218700  0.590710  1.0  -0.0241
  C  C194  1  0.034200  0.408000  0.613210  1.0  -0.2935
  C  C195  1  0.071000  0.413300  0.661170  1.0  0.6826
  C  C196  1  0.819200  0.388200  0.606880  1.0  0.6982
  C  C197  1  0.122000  0.493300  0.595180  1.0  0.0882
  C  C198  1  0.023300  0.556500  0.587750  1.0  -0.1446
  C  C199  1  0.113500  0.633400  0.574290  1.0  -0.0178
  C  C200  1  0.306800  0.648600  0.569180  1.0  -0.1404
  C  C201  1  0.405600  0.585300  0.576000  1.0  -0.0486
  C  C202  1  0.315100  0.507900  0.588610  1.0  -0.1344
  C  C203  1  0.401500  0.735400  0.558740  1.0  0.7127
  C  C204  1  0.960300  0.982500  0.397340  1.0  0.6863
  C  C205  1  0.061600  0.945700  0.363550  1.0  -0.1603
  C  C206  1  0.201800  0.900800  0.373230  1.0  -0.0228
  C  C207  1  0.305200  0.872600  0.341530  1.0  -0.1278
  C  C208  1  0.270900  0.889400  0.299660  1.0  0.081
  C  C209  1  0.128300  0.933400  0.290020  1.0  -0.1345
  C  C210  1  0.023000  0.960300  0.321670  1.0  -0.0058
  C  C211  1  0.391200  0.865900  0.263210  1.0  -0.2925
  C  C212  1  0.511100  0.800800  0.276100  1.0  0.6922
  C  C213  1  0.524400  0.946200  0.249900  1.0  0.678
  C  C214  1  0.269100  0.826900  0.226420  1.0  0.0797
  C  C215  1  0.101300  0.774600  0.235960  1.0  -0.1347
  C  C216  1  0.991700  0.732000  0.204350  1.0  -0.0176
  C  C217  1  0.053500  0.739200  0.162980  1.0  -0.1514
  C  C218  1  0.220000  0.791500  0.153230  1.0  -0.0268
  C  C219  1  0.325800  0.835200  0.184700  1.0  -0.1335
  C  C220  1  0.943500  0.689400  0.129400  1.0  0.6823
  O  O221  1  0.439600  0.611390  0.964650  1.0  -0.5327
  O  O222  1  0.200500  0.616560  0.007600  1.0  -0.7026
  O  O223  1  0.302400  0.284640  0.954660  1.0  -0.6188
  O  O224  1  0.576300  0.252720  0.934570  1.0  -0.5932
  O  O225  1  0.052400  0.502760  0.068660  1.0  -0.7099
  O  O226  1  0.799600  0.496430  0.108880  1.0  -0.5305
  O  O227  1  0.770500  0.167800  0.366160  1.0  -0.5492
  O  O228  1  0.026300  0.169130  0.403130  1.0  -0.6612
  O  O229  1  0.532800  0.453480  0.935870  1.0  -0.9994
  O  O230  1  0.780800  0.565600  0.007670  1.0  -0.9827
  O  O231  1  0.560400  0.888610  0.464650  1.0  -0.5326
  O  O232  1  0.799500  0.883440  0.507600  1.0  -0.7025
  O  O233  1  0.697600  0.215360  0.454660  1.0  -0.6191
  O  O234  1  0.423700  0.247280  0.434570  1.0  -0.5925
  O  O235  1  0.947600  0.997240  0.568660  1.0  -0.7114
  O  O236  1  0.200400  0.003570  0.608880  1.0  -0.5314
  O  O237  1  0.229500  0.332200  0.866160  1.0  -0.55
  O  O238  1  0.973700  0.330870  0.903130  1.0  -0.662
  O  O239  1  0.467200  0.046520  0.435870  1.0  -0.9988
  O  O240  1  0.219200  0.934400  0.507670  1.0  -0.9834
  O  O241  1  0.560400  0.388610  0.035350  1.0  -0.5325
  O  O242  1  0.799500  0.383440  0.992400  1.0  -0.7034
  O  O243  1  0.697600  0.715360  0.045340  1.0  -0.6194
  O  O244  1  0.423700  0.747280  0.065430  1.0  -0.5928
  O  O245  1  0.947600  0.497240  0.931340  1.0  -0.7099
  O  O246  1  0.200400  0.503570  0.891120  1.0  -0.5316
  O  O247  1  0.229500  0.832200  0.633840  1.0  -0.5513
  O  O248  1  0.973700  0.830870  0.596870  1.0  -0.662
  O  O249  1  0.467200  0.546520  0.064130  1.0  -0.9995
  O  O250  1  0.219200  0.434400  0.992330  1.0  -0.9828
  O  O251  1  0.439600  0.111390  0.535350  1.0  -0.5332
  O  O252  1  0.200500  0.116560  0.492400  1.0  -0.7034
  O  O253  1  0.302400  0.784640  0.545340  1.0  -0.6191
  O  O254  1  0.576300  0.752720  0.565430  1.0  -0.5933
  O  O255  1  0.052400  0.002760  0.431340  1.0  -0.7088
  O  O256  1  0.799600  0.996430  0.391120  1.0  -0.5305
  O  O257  1  0.770500  0.667800  0.133840  1.0  -0.5497
  O  O258  1  0.026300  0.669130  0.096870  1.0  -0.6628
  O  O259  1  0.532800  0.953480  0.564130  1.0  -1.0002
  O  O260  1  0.780800  0.065600  0.492330  1.0  -0.9827
  F  F261  1  0.982200  0.846140  0.818480  1.0  -0.1995
  F  F262  1  0.253700  0.918980  0.830670  1.0  -0.1889
  F  F263  1  0.016800  0.978780  0.821810  1.0  -0.1974
  F  F264  1  0.753600  0.808330  0.884840  1.0  -0.2113
  F  F265  1  0.725100  0.932380  0.868440  1.0  -0.1886
  F  F266  1  0.770900  0.901630  0.932570  1.0  -0.1917
  F  F267  1  0.649500  0.331340  0.197080  1.0  -0.1918
  F  F268  1  0.408300  0.236050  0.205340  1.0  -0.1906
  F  F269  1  0.593600  0.272090  0.256980  1.0  -0.1993
  F  F270  1  0.666667  0.432030  0.273550  1.0  -0.1911
  F  F271  1  0.431700  0.495700  0.271660  1.0  -0.1955
  F  F272  1  0.597200  0.488860  0.216480  1.0  -0.2046
  F  F273  1  0.017800  0.653860  0.318480  1.0  -0.2003
  F  F274  1  0.746300  0.581020  0.330670  1.0  -0.1894
  F  F275  1  0.983200  0.521220  0.321810  1.0  -0.1981
  F  F276  1  0.246400  0.691670  0.384840  1.0  -0.2106
  F  F277  1  0.274900  0.567620  0.368440  1.0  -0.189
  F  F278  1  0.229100  0.598370  0.432570  1.0  -0.1913
  F  F279  1  0.350500  0.168660  0.697080  1.0  -0.1921
  F  F280  1  0.591700  0.263950  0.705340  1.0  -0.1918
  F  F281  1  0.406400  0.227910  0.756980  1.0  -0.1992
  F  F282  1  0.333400  0.067970  0.773550  1.0  -0.1905
  F  F283  1  0.568300  0.004300  0.771660  1.0  -0.1955
  F  F284  1  0.402800  0.011140  0.716480  1.0  -0.2046
  F  F285  1  0.017800  0.153860  0.181520  1.0  -0.2005
  F  F286  1  0.746300  0.081020  0.169330  1.0  -0.1898
  F  F287  1  0.983200  0.021220  0.178190  1.0  -0.1973
  F  F288  1  0.246400  0.191670  0.115160  1.0  -0.2107
  F  F289  1  0.274900  0.067620  0.131560  1.0  -0.1892
  F  F290  1  0.229100  0.098370  0.067430  1.0  -0.1922
  F  F291  1  0.350500  0.668660  0.802920  1.0  -0.1924
  F  F292  1  0.591700  0.763950  0.794660  1.0  -0.191
  F  F293  1  0.406400  0.727910  0.743020  1.0  -0.1995
  F  F294  1  0.333400  0.567970  0.726450  1.0  -0.1907
  F  F295  1  0.568300  0.504300  0.728340  1.0  -0.1957
  F  F296  1  0.402800  0.511140  0.783520  1.0  -0.2045
  F  F297  1  0.982200  0.346140  0.681520  1.0  -0.2002
  F  F298  1  0.253700  0.418980  0.669330  1.0  -0.1888
  F  F299  1  0.016800  0.478780  0.678190  1.0  -0.1982
  F  F300  1  0.753600  0.308330  0.615160  1.0  -0.2113
  F  F301  1  0.725100  0.432380  0.631560  1.0  -0.1885
  F  F302  1  0.770900  0.401630  0.567430  1.0  -0.1917
  F  F303  1  0.649500  0.831340  0.302920  1.0  -0.1921
  F  F304  1  0.408300  0.736050  0.294660  1.0  -0.1895
  F  F305  1  0.593600  0.772090  0.243020  1.0  -0.2
  F  F306  1  0.666667  0.932030  0.226450  1.0  -0.191
  F  F307  1  0.431700  0.995700  0.228340  1.0  -0.1953
  F  F308  1  0.597200  0.988860  0.283520  1.0  -0.2044
