# generated using pymatgen
data_Mn3H18C34(O5F6)2
_symmetry_space_group_name_H-M   'P 1'
_cell_length_a   7.27700000
_cell_length_b   16.43400000
_cell_length_c   31.83700000
_cell_angle_alpha   90.00000000
_cell_angle_beta   90.00000000
_cell_angle_gamma   99.98000000
_symmetry_Int_Tables_number   1
_chemical_formula_structural   Mn3H18C34(O5F6)2
_chemical_formula_sum   'Mn12 H72 C136 O40 F48'
_cell_volume   3749.78145932
_cell_formula_units_Z   4
loop_
 _symmetry_equiv_pos_site_id
 _symmetry_equiv_pos_as_xyz
  1  'x, y, z'
loop_
 _atom_site_type_symbol
 _atom_site_label
 _atom_site_symmetry_multiplicity
 _atom_site_fract_x
 _atom_site_fract_y
 _atom_site_fract_z
 _atom_site_occupancy
 _atom_site_charge
  Mn  Mn1  1  0.747640  0.601470  0.070680  1.0  1.1348
  Mn  Mn2  1  0.726460  0.374860  0.926350  1.0  1.2006
  Mn  Mn3  1  0.252360  0.898530  0.570680  1.0  1.135
  Mn  Mn4  1  0.273540  0.125140  0.426350  1.0  1.2003
  Mn  Mn5  1  0.252360  0.398530  0.929320  1.0  1.1342
  Mn  Mn6  1  0.273540  0.625140  0.073650  1.0  1.1995
  Mn  Mn7  1  0.747640  0.101470  0.429320  1.0  1.134
  Mn  Mn8  1  0.726460  0.874860  0.573650  1.0  1.2002
  Mn  Mn9  1  0.000000  0.500000  0.000000  1.0  1.2916
  Mn  Mn10  1  0.000000  0.000000  0.500000  1.0  1.2916
  Mn  Mn11  1  0.500000  0.500000  0.000000  1.0  1.217
  Mn  Mn12  1  0.500000  0.000000  0.500000  1.0  1.217
  H  H13  1  0.849700  0.232200  0.997000  1.0  0.1086
  H  H14  1  0.878200  0.199000  0.289100  1.0  0.1075
  H  H15  1  0.941900  0.124900  0.033300  1.0  0.1081
  H  H16  1  0.794400  0.218500  0.141900  1.0  0.0948
  H  H17  1  0.672800  0.318800  0.105000  1.0  0.1045
  H  H18  1  0.105200  0.952600  0.091900  1.0  0.0987
  H  H19  1  0.955000  0.825100  0.068600  1.0  0.0951
  H  H20  1  0.617100  0.034500  0.092700  1.0  0.1053
  H  H21  1  0.226000  0.389700  0.098900  1.0  0.1038
  H  H22  1  0.398000  0.342400  0.151800  1.0  0.0985
  H  H23  1  0.104100  0.444800  0.237900  1.0  0.1086
  H  H24  1  0.260300  0.297200  0.374500  1.0  0.1006
  H  H25  1  0.926000  0.488100  0.185100  1.0  0.1028
  H  H26  1  0.436000  0.370400  0.322200  1.0  0.1016
  H  H27  1  0.062300  0.268200  0.236200  1.0  0.1024
  H  H28  1  0.459000  0.904000  0.074000  1.0  0.1034
  H  H29  1  0.790000  0.613000  0.997300  1.0  0.4678
  H  H30  1  0.439000  0.504000  0.077400  1.0  0.4501
  H  H31  1  0.150300  0.267800  0.497000  1.0  0.1093
  H  H32  1  0.121800  0.301000  0.789100  1.0  0.1077
  H  H33  1  0.058100  0.375100  0.533300  1.0  0.1077
  H  H34  1  0.205600  0.281500  0.641900  1.0  0.0946
  H  H35  1  0.327200  0.181200  0.605000  1.0  0.1048
  H  H36  1  0.894800  0.547400  0.591900  1.0  0.0982
  H  H37  1  0.045000  0.674900  0.568600  1.0  0.0949
  H  H38  1  0.382900  0.465500  0.592700  1.0  0.1053
  H  H39  1  0.774000  0.110300  0.598900  1.0  0.1037
  H  H40  1  0.602000  0.157600  0.651800  1.0  0.099
  H  H41  1  0.895900  0.055200  0.737900  1.0  0.109
  H  H42  1  0.739700  0.202800  0.874500  1.0  0.101
  H  H43  1  0.074000  0.011900  0.685100  1.0  0.1032
  H  H44  1  0.564000  0.129600  0.822200  1.0  0.1011
  H  H45  1  0.937700  0.231800  0.736200  1.0  0.1023
  H  H46  1  0.541000  0.596000  0.574000  1.0  0.103
  H  H47  1  0.210000  0.887000  0.497300  1.0  0.4671
  H  H48  1  0.561000  0.996000  0.577400  1.0  0.4495
  H  H49  1  0.150300  0.767800  0.003000  1.0  0.1093
  H  H50  1  0.121800  0.801000  0.710900  1.0  0.1074
  H  H51  1  0.058100  0.875100  0.966700  1.0  0.1074
  H  H52  1  0.205600  0.781500  0.858100  1.0  0.0951
  H  H53  1  0.327200  0.681200  0.895000  1.0  0.1044
  H  H54  1  0.894800  0.047400  0.908100  1.0  0.0982
  H  H55  1  0.045000  0.174900  0.931400  1.0  0.095
  H  H56  1  0.382900  0.965500  0.907300  1.0  0.1055
  H  H57  1  0.774000  0.610300  0.901100  1.0  0.1037
  H  H58  1  0.602000  0.657600  0.848200  1.0  0.0988
  H  H59  1  0.895900  0.555200  0.762100  1.0  0.1094
  H  H60  1  0.739700  0.702800  0.625500  1.0  0.1017
  H  H61  1  0.074000  0.511900  0.814900  1.0  0.1025
  H  H62  1  0.564000  0.629600  0.677800  1.0  0.1008
  H  H63  1  0.937700  0.731800  0.763800  1.0  0.1024
  H  H64  1  0.541000  0.096000  0.926000  1.0  0.1029
  H  H65  1  0.210000  0.387000  0.002700  1.0  0.4688
  H  H66  1  0.561000  0.496000  0.922600  1.0  0.4494
  H  H67  1  0.849700  0.732200  0.503000  1.0  0.1095
  H  H68  1  0.878200  0.699000  0.210900  1.0  0.1077
  H  H69  1  0.941900  0.624900  0.466700  1.0  0.108
  H  H70  1  0.794400  0.718500  0.358100  1.0  0.0953
  H  H71  1  0.672800  0.818800  0.395000  1.0  0.1044
  H  H72  1  0.105200  0.452600  0.408100  1.0  0.0989
  H  H73  1  0.955000  0.325100  0.431400  1.0  0.0954
  H  H74  1  0.617100  0.534500  0.407300  1.0  0.1053
  H  H75  1  0.226000  0.889700  0.401100  1.0  0.1038
  H  H76  1  0.398000  0.842400  0.348200  1.0  0.0991
  H  H77  1  0.104100  0.944800  0.262100  1.0  0.1095
  H  H78  1  0.260300  0.797200  0.125500  1.0  0.1012
  H  H79  1  0.926000  0.988100  0.314900  1.0  0.103
  H  H80  1  0.436000  0.870400  0.177800  1.0  0.1014
  H  H81  1  0.062300  0.768200  0.263800  1.0  0.1023
  H  H82  1  0.459000  0.404000  0.426000  1.0  0.1031
  H  H83  1  0.790000  0.113000  0.502700  1.0  0.4691
  H  H84  1  0.439000  0.004000  0.422600  1.0  0.449
  C  C85  1  0.693700  0.356700  0.023840  1.0  0.6961
  C  C86  1  0.751000  0.286400  0.047300  1.0  -0.1522
  C  C87  1  0.834200  0.228400  0.025970  1.0  -0.0238
  C  C88  1  0.893600  0.165400  0.047900  1.0  -0.1388
  C  C89  1  0.882500  0.161300  0.091710  1.0  0.0907
  C  C90  1  0.801900  0.220000  0.112740  1.0  -0.1379
  C  C91  1  0.732000  0.281300  0.090710  1.0  -0.0196
  C  C92  1  0.965800  0.092000  0.113210  1.0  -0.2957
  C  C93  1  0.929000  0.086700  0.161160  1.0  0.6875
  C  C94  1  0.180900  0.111800  0.106880  1.0  0.6887
  C  C95  1  0.878000  0.006700  0.095180  1.0  0.081
  C  C96  1  0.976700  0.943500  0.087770  1.0  -0.1438
  C  C97  1  0.886500  0.866600  0.074290  1.0  -0.0108
  C  C98  1  0.693200  0.851400  0.069180  1.0  -0.1385
  C  C99  1  0.594400  0.914700  0.075980  1.0  -0.0451
  C  C100  1  0.684900  0.992100  0.088610  1.0  -0.144
  C  C101  1  0.598500  0.764600  0.058740  1.0  0.7013
  C  C102  1  0.960300  0.482500  0.102650  1.0  0.6701
  C  C103  1  0.061600  0.445700  0.136450  1.0  -0.1683
  C  C104  1  0.201800  0.400800  0.126770  1.0  -0.0393
  C  C105  1  0.305200  0.372600  0.158470  1.0  -0.1356
  C  C106  1  0.270800  0.389400  0.200340  1.0  0.0832
  C  C107  1  0.128300  0.433400  0.209980  1.0  -0.1356
  C  C108  1  0.023000  0.460200  0.178330  1.0  -0.0181
  C  C109  1  0.391200  0.365900  0.236790  1.0  -0.299
  C  C110  1  0.511100  0.300800  0.223900  1.0  0.6853
  C  C111  1  0.524400  0.446200  0.250100  1.0  0.6897
  C  C112  1  0.269100  0.326900  0.273580  1.0  0.0778
  C  C113  1  0.325800  0.335200  0.315300  1.0  -0.1291
  C  C114  1  0.220100  0.291500  0.346760  1.0  -0.035
  C  C115  1  0.053500  0.239200  0.337020  1.0  -0.1621
  C  C116  1  0.991600  0.232000  0.295670  1.0  -0.0156
  C  C117  1  0.101300  0.274600  0.264040  1.0  -0.1324
  C  C118  1  0.943500  0.189400  0.370600  1.0  0.6748
  C  C119  1  0.306300  0.143300  0.523840  1.0  0.6958
  C  C120  1  0.249000  0.213600  0.547300  1.0  -0.1518
  C  C121  1  0.165800  0.271600  0.525970  1.0  -0.025
  C  C122  1  0.106400  0.334600  0.547900  1.0  -0.1389
  C  C123  1  0.117500  0.338700  0.591710  1.0  0.0903
  C  C124  1  0.198100  0.280000  0.612740  1.0  -0.1385
  C  C125  1  0.268000  0.218700  0.590710  1.0  -0.0213
  C  C126  1  0.034200  0.408000  0.613210  1.0  -0.2956
  C  C127  1  0.071000  0.413300  0.661160  1.0  0.6876
  C  C128  1  0.819100  0.388200  0.606880  1.0  0.6892
  C  C129  1  0.122000  0.493300  0.595180  1.0  0.0808
  C  C130  1  0.023300  0.556500  0.587770  1.0  -0.1433
  C  C131  1  0.113500  0.633400  0.574290  1.0  -0.0108
  C  C132  1  0.306800  0.648600  0.569180  1.0  -0.1377
  C  C133  1  0.405600  0.585300  0.575980  1.0  -0.0449
  C  C134  1  0.315100  0.507900  0.588610  1.0  -0.143
  C  C135  1  0.401500  0.735400  0.558740  1.0  0.7016
  C  C136  1  0.039700  0.017500  0.602650  1.0  0.6706
  C  C137  1  0.938400  0.054300  0.636450  1.0  -0.1694
  C  C138  1  0.798200  0.099200  0.626770  1.0  -0.0364
  C  C139  1  0.694800  0.127400  0.658470  1.0  -0.1345
  C  C140  1  0.729200  0.110600  0.700340  1.0  0.0828
  C  C141  1  0.871700  0.066600  0.709980  1.0  -0.1361
  C  C142  1  0.977000  0.039800  0.678330  1.0  -0.019
  C  C143  1  0.608800  0.134100  0.736790  1.0  -0.2995
  C  C144  1  0.488900  0.199200  0.723900  1.0  0.6849
  C  C145  1  0.475600  0.053800  0.750100  1.0  0.6899
  C  C146  1  0.730900  0.173100  0.773580  1.0  0.0773
  C  C147  1  0.674200  0.164800  0.815300  1.0  -0.1291
  C  C148  1  0.779900  0.208500  0.846760  1.0  -0.0347
  C  C149  1  0.946500  0.260800  0.837020  1.0  -0.162
  C  C150  1  0.008400  0.268000  0.795670  1.0  -0.0172
  C  C151  1  0.898700  0.225400  0.764040  1.0  -0.1349
  C  C152  1  0.056500  0.310600  0.870600  1.0  0.6747
  C  C153  1  0.306300  0.643300  0.976160  1.0  0.6958
  C  C154  1  0.249000  0.713600  0.952700  1.0  -0.1511
  C  C155  1  0.165800  0.771600  0.974030  1.0  -0.0226
  C  C156  1  0.106400  0.834600  0.952100  1.0  -0.1394
  C  C157  1  0.117500  0.838700  0.908290  1.0  0.0901
  C  C158  1  0.198100  0.780000  0.887260  1.0  -0.1389
  C  C159  1  0.268000  0.718700  0.909290  1.0  -0.0215
  C  C160  1  0.034200  0.908000  0.886790  1.0  -0.2959
  C  C161  1  0.071000  0.913300  0.838840  1.0  0.6878
  C  C162  1  0.819100  0.888200  0.893120  1.0  0.6894
  C  C163  1  0.122000  0.993300  0.904820  1.0  0.0811
  C  C164  1  0.023300  0.056500  0.912230  1.0  -0.1432
  C  C165  1  0.113500  0.133400  0.925710  1.0  -0.0107
  C  C166  1  0.306800  0.148600  0.930820  1.0  -0.1384
  C  C167  1  0.405600  0.085300  0.924020  1.0  -0.0451
  C  C168  1  0.315100  0.007900  0.911390  1.0  -0.1424
  C  C169  1  0.401500  0.235400  0.941260  1.0  0.7017
  C  C170  1  0.039700  0.517500  0.897350  1.0  0.6707
  C  C171  1  0.938400  0.554300  0.863550  1.0  -0.1697
  C  C172  1  0.798200  0.599200  0.873230  1.0  -0.0366
  C  C173  1  0.694800  0.627400  0.841530  1.0  -0.134
  C  C174  1  0.729200  0.610600  0.799660  1.0  0.0829
  C  C175  1  0.871700  0.566600  0.790020  1.0  -0.1342
  C  C176  1  0.977000  0.539800  0.821670  1.0  -0.0196
  C  C177  1  0.608800  0.634100  0.763210  1.0  -0.2999
  C  C178  1  0.488900  0.699200  0.776100  1.0  0.6847
  C  C179  1  0.475600  0.553800  0.749900  1.0  0.6894
  C  C180  1  0.730900  0.673100  0.726420  1.0  0.0771
  C  C181  1  0.674200  0.664800  0.684700  1.0  -0.1285
  C  C182  1  0.779900  0.708500  0.653240  1.0  -0.0355
  C  C183  1  0.946500  0.760800  0.662980  1.0  -0.1619
  C  C184  1  0.008400  0.768000  0.704330  1.0  -0.0171
  C  C185  1  0.898700  0.725400  0.735960  1.0  -0.1361
  C  C186  1  0.056500  0.810600  0.629400  1.0  0.6746
  C  C187  1  0.693700  0.856700  0.476160  1.0  0.696
  C  C188  1  0.751000  0.786400  0.452700  1.0  -0.1517
  C  C189  1  0.834200  0.728400  0.474030  1.0  -0.0221
  C  C190  1  0.893600  0.665400  0.452100  1.0  -0.1388
  C  C191  1  0.882500  0.661300  0.408290  1.0  0.0905
  C  C192  1  0.801900  0.720000  0.387260  1.0  -0.1381
  C  C193  1  0.732000  0.781300  0.409290  1.0  -0.0197
  C  C194  1  0.965800  0.592000  0.386790  1.0  -0.296
  C  C195  1  0.929000  0.586700  0.338840  1.0  0.6871
  C  C196  1  0.180900  0.611800  0.393120  1.0  0.6887
  C  C197  1  0.878000  0.506700  0.404820  1.0  0.0813
  C  C198  1  0.976700  0.443500  0.412230  1.0  -0.1438
  C  C199  1  0.886500  0.366600  0.425710  1.0  -0.011
  C  C200  1  0.693200  0.351400  0.430820  1.0  -0.1378
  C  C201  1  0.594400  0.414700  0.424020  1.0  -0.045
  C  C202  1  0.684900  0.492100  0.411390  1.0  -0.1427
  C  C203  1  0.598500  0.264600  0.441260  1.0  0.7016
  C  C204  1  0.960300  0.982500  0.397350  1.0  0.6702
  C  C205  1  0.061600  0.945700  0.363550  1.0  -0.1684
  C  C206  1  0.201800  0.900800  0.373230  1.0  -0.0388
  C  C207  1  0.305200  0.872600  0.341530  1.0  -0.1352
  C  C208  1  0.270800  0.889400  0.299660  1.0  0.0831
  C  C209  1  0.128300  0.933400  0.290020  1.0  -0.1342
  C  C210  1  0.023000  0.960200  0.321670  1.0  -0.0182
  C  C211  1  0.391200  0.865900  0.263210  1.0  -0.2993
  C  C212  1  0.511100  0.800800  0.276100  1.0  0.6852
  C  C213  1  0.524400  0.946200  0.249900  1.0  0.6895
  C  C214  1  0.269100  0.826900  0.226420  1.0  0.0774
  C  C215  1  0.325800  0.835200  0.184700  1.0  -0.1294
  C  C216  1  0.220100  0.791500  0.153240  1.0  -0.0367
  C  C217  1  0.053500  0.739200  0.162980  1.0  -0.162
  C  C218  1  0.991600  0.732000  0.204330  1.0  -0.0156
  C  C219  1  0.101300  0.774600  0.235960  1.0  -0.1348
  C  C220  1  0.943500  0.689400  0.129400  1.0  0.6745
  O  O221  1  0.799500  0.383440  0.992400  1.0  -0.716
  O  O222  1  0.560400  0.388620  0.035350  1.0  -0.5625
  O  O223  1  0.697600  0.715360  0.045340  1.0  -0.6258
  O  O224  1  0.423800  0.747290  0.065430  1.0  -0.6235
  O  O225  1  0.052400  0.502750  0.068660  1.0  -0.7142
  O  O226  1  0.799600  0.496430  0.108880  1.0  -0.557
  O  O227  1  0.026300  0.169130  0.403130  1.0  -0.6723
  O  O228  1  0.770500  0.167800  0.366160  1.0  -0.5658
  O  O229  1  0.780800  0.565590  0.007670  1.0  -1.0236
  O  O230  1  0.467200  0.546520  0.064130  1.0  -1.0149
  O  O231  1  0.200500  0.116560  0.492400  1.0  -0.716
  O  O232  1  0.439600  0.111380  0.535350  1.0  -0.5632
  O  O233  1  0.302400  0.784640  0.545340  1.0  -0.6255
  O  O234  1  0.576200  0.752710  0.565430  1.0  -0.6231
  O  O235  1  0.947600  0.997250  0.568660  1.0  -0.7165
  O  O236  1  0.200400  0.003570  0.608880  1.0  -0.5572
  O  O237  1  0.973700  0.330870  0.903130  1.0  -0.6733
  O  O238  1  0.229500  0.332200  0.866160  1.0  -0.5649
  O  O239  1  0.219200  0.934410  0.507670  1.0  -1.0252
  O  O240  1  0.532800  0.953480  0.564130  1.0  -1.0162
  O  O241  1  0.200500  0.616560  0.007600  1.0  -0.7153
  O  O242  1  0.439600  0.611380  0.964650  1.0  -0.5629
  O  O243  1  0.302400  0.284640  0.954660  1.0  -0.6252
  O  O244  1  0.576200  0.252710  0.934570  1.0  -0.6228
  O  O245  1  0.947600  0.497250  0.931340  1.0  -0.7151
  O  O246  1  0.200400  0.503570  0.891120  1.0  -0.5573
  O  O247  1  0.973700  0.830870  0.596870  1.0  -0.6745
  O  O248  1  0.229500  0.832200  0.633840  1.0  -0.5664
  O  O249  1  0.219200  0.434410  0.992330  1.0  -1.0254
  O  O250  1  0.532800  0.453480  0.935870  1.0  -1.0155
  O  O251  1  0.799500  0.883440  0.507600  1.0  -0.7152
  O  O252  1  0.560400  0.888620  0.464650  1.0  -0.5628
  O  O253  1  0.697600  0.215360  0.454660  1.0  -0.6252
  O  O254  1  0.423800  0.247290  0.434570  1.0  -0.623
  O  O255  1  0.052400  0.002750  0.431340  1.0  -0.7131
  O  O256  1  0.799600  0.996430  0.391120  1.0  -0.5568
  O  O257  1  0.026300  0.669130  0.096870  1.0  -0.6745
  O  O258  1  0.770500  0.667800  0.133840  1.0  -0.5663
  O  O259  1  0.780800  0.065590  0.492330  1.0  -1.0242
  O  O260  1  0.467200  0.046520  0.435870  1.0  -1.0144
  F  F261  1  0.246400  0.191670  0.115160  1.0  -0.2085
  F  F262  1  0.229100  0.098370  0.067430  1.0  -0.193
  F  F263  1  0.274900  0.067620  0.131550  1.0  -0.1978
  F  F264  1  0.983200  0.021220  0.178190  1.0  -0.1934
  F  F265  1  0.017800  0.153860  0.181520  1.0  -0.1998
  F  F266  1  0.746300  0.081020  0.169330  1.0  -0.1981
  F  F267  1  0.597300  0.488860  0.216480  1.0  -0.2005
  F  F268  1  0.431700  0.495700  0.271660  1.0  -0.1971
  F  F269  1  0.666667  0.432020  0.273550  1.0  -0.2015
  F  F270  1  0.408300  0.236050  0.205340  1.0  -0.1911
  F  F271  1  0.649500  0.331340  0.197080  1.0  -0.1975
  F  F272  1  0.593600  0.272080  0.256980  1.0  -0.2007
  F  F273  1  0.753600  0.308330  0.615160  1.0  -0.2089
  F  F274  1  0.770900  0.401630  0.567430  1.0  -0.1927
  F  F275  1  0.725100  0.432380  0.631550  1.0  -0.1974
  F  F276  1  0.016800  0.478780  0.678190  1.0  -0.1939
  F  F277  1  0.982200  0.346140  0.681520  1.0  -0.1994
  F  F278  1  0.253700  0.418980  0.669330  1.0  -0.1972
  F  F279  1  0.402700  0.011140  0.716480  1.0  -0.2013
  F  F280  1  0.568300  0.004300  0.771660  1.0  -0.1969
  F  F281  1  0.333400  0.067980  0.773550  1.0  -0.2006
  F  F282  1  0.591700  0.263950  0.705340  1.0  -0.1912
  F  F283  1  0.350500  0.168660  0.697080  1.0  -0.1971
  F  F284  1  0.406400  0.227920  0.756980  1.0  -0.2011
  F  F285  1  0.753600  0.808330  0.884840  1.0  -0.209
  F  F286  1  0.770900  0.901630  0.932570  1.0  -0.1929
  F  F287  1  0.725100  0.932380  0.868450  1.0  -0.1972
  F  F288  1  0.016800  0.978780  0.821810  1.0  -0.193
  F  F289  1  0.982200  0.846140  0.818480  1.0  -0.1992
  F  F290  1  0.253700  0.918980  0.830670  1.0  -0.1976
  F  F291  1  0.402700  0.511140  0.783520  1.0  -0.2007
  F  F292  1  0.568300  0.504300  0.728340  1.0  -0.1969
  F  F293  1  0.333400  0.567980  0.726450  1.0  -0.2007
  F  F294  1  0.591700  0.763950  0.794660  1.0  -0.1912
  F  F295  1  0.350500  0.668660  0.802920  1.0  -0.1974
  F  F296  1  0.406400  0.727920  0.743020  1.0  -0.2007
  F  F297  1  0.246400  0.691670  0.384840  1.0  -0.2085
  F  F298  1  0.229100  0.598370  0.432570  1.0  -0.1921
  F  F299  1  0.274900  0.567620  0.368450  1.0  -0.198
  F  F300  1  0.983200  0.521220  0.321810  1.0  -0.1936
  F  F301  1  0.017800  0.653860  0.318480  1.0  -0.1998
  F  F302  1  0.746300  0.581020  0.330670  1.0  -0.1981
  F  F303  1  0.597300  0.988860  0.283520  1.0  -0.2009
  F  F304  1  0.431700  0.995700  0.228340  1.0  -0.1971
  F  F305  1  0.666667  0.932020  0.226450  1.0  -0.201
  F  F306  1  0.408300  0.736050  0.294660  1.0  -0.1913
  F  F307  1  0.649500  0.831340  0.302920  1.0  -0.1977
  F  F308  1  0.593600  0.772080  0.243020  1.0  -0.2008
