# generated using pymatgen
data_Zn11H18(C3O2)18
_symmetry_space_group_name_H-M   'P 1'
_cell_length_a   20.61550000
_cell_length_b   20.61550000
_cell_length_c   20.61550000
_cell_angle_alpha   90.00000000
_cell_angle_beta   90.00000000
_cell_angle_gamma   90.00000000
_symmetry_Int_Tables_number   1
_chemical_formula_structural   Zn11H18(C3O2)18
_chemical_formula_sum   'Zn22 H36 C108 O72'
_cell_volume   8761.56359117
_cell_formula_units_Z   2
loop_
 _symmetry_equiv_pos_site_id
 _symmetry_equiv_pos_as_xyz
  1  'x, y, z'
loop_
 _atom_site_type_symbol
 _atom_site_label
 _atom_site_symmetry_multiplicity
 _atom_site_fract_x
 _atom_site_fract_y
 _atom_site_fract_z
 _atom_site_occupancy
 _atom_site_charge
  Zn  Zn1  1  0.000000  0.572240  0.000000  1.0  1.1354
  Zn  Zn2  1  0.000000  0.427760  0.000000  1.0  1.134
  Zn  Zn3  1  0.000000  0.000000  0.572240  1.0  1.1296
  Zn  Zn4  1  0.000000  0.000000  0.427760  1.0  1.1288
  Zn  Zn5  1  0.572240  0.000000  0.000000  1.0  1.1347
  Zn  Zn6  1  0.427760  0.000000  0.000000  1.0  1.1339
  Zn  Zn7  1  0.761120  0.761120  0.761120  1.0  0.7998
  Zn  Zn8  1  0.664510  0.664510  0.664510  1.0  0.8895
  Zn  Zn9  1  0.238880  0.238880  0.761120  1.0  0.7971
  Zn  Zn10  1  0.335490  0.335490  0.664510  1.0  0.8893
  Zn  Zn11  1  0.238880  0.761120  0.238880  1.0  0.7983
  Zn  Zn12  1  0.335490  0.664510  0.335490  1.0  0.8882
  Zn  Zn13  1  0.761120  0.238880  0.238880  1.0  0.8004
  Zn  Zn14  1  0.664510  0.335490  0.335490  1.0  0.887
  Zn  Zn15  1  0.761120  0.761120  0.238880  1.0  0.7999
  Zn  Zn16  1  0.664510  0.664510  0.335490  1.0  0.8864
  Zn  Zn17  1  0.238880  0.238880  0.238880  1.0  0.7986
  Zn  Zn18  1  0.335490  0.335490  0.335490  1.0  0.8884
  Zn  Zn19  1  0.761120  0.238880  0.761120  1.0  0.7987
  Zn  Zn20  1  0.664510  0.335490  0.664510  1.0  0.8878
  Zn  Zn21  1  0.238880  0.761120  0.761120  1.0  0.7984
  Zn  Zn22  1  0.335490  0.664510  0.664510  1.0  0.8911
  H  H23  1  0.851900  0.597800  0.851900  1.0  0.1148
  H  H24  1  0.148100  0.402200  0.851900  1.0  0.1149
  H  H25  1  0.148100  0.597800  0.148100  1.0  0.1152
  H  H26  1  0.851900  0.402200  0.148100  1.0  0.115
  H  H27  1  0.851900  0.851900  0.597800  1.0  0.1151
  H  H28  1  0.851900  0.148100  0.402200  1.0  0.1149
  H  H29  1  0.148100  0.148100  0.597800  1.0  0.1151
  H  H30  1  0.148100  0.851900  0.402200  1.0  0.1152
  H  H31  1  0.597800  0.851900  0.851900  1.0  0.1152
  H  H32  1  0.402200  0.851900  0.148100  1.0  0.1155
  H  H33  1  0.597800  0.148100  0.148100  1.0  0.1153
  H  H34  1  0.402200  0.148100  0.851900  1.0  0.1152
  H  H35  1  0.597800  0.851900  0.148100  1.0  0.1159
  H  H36  1  0.402200  0.148100  0.148100  1.0  0.1151
  H  H37  1  0.597800  0.148100  0.851900  1.0  0.1151
  H  H38  1  0.402200  0.851900  0.851900  1.0  0.115
  H  H39  1  0.851900  0.851900  0.402200  1.0  0.1154
  H  H40  1  0.148100  0.851900  0.597800  1.0  0.1153
  H  H41  1  0.148100  0.148100  0.402200  1.0  0.1147
  H  H42  1  0.851900  0.148100  0.597800  1.0  0.1149
  H  H43  1  0.851900  0.597800  0.148100  1.0  0.1153
  H  H44  1  0.851900  0.402200  0.851900  1.0  0.1149
  H  H45  1  0.148100  0.597800  0.851900  1.0  0.1148
  H  H46  1  0.148100  0.402200  0.148100  1.0  0.1148
  H  H47  1  0.734200  0.500000  0.734200  1.0  0.1147
  H  H48  1  0.265800  0.500000  0.734200  1.0  0.114
  H  H49  1  0.265800  0.500000  0.265800  1.0  0.1145
  H  H50  1  0.734200  0.500000  0.265800  1.0  0.1147
  H  H51  1  0.734200  0.734200  0.500000  1.0  0.1134
  H  H52  1  0.734200  0.265800  0.500000  1.0  0.1134
  H  H53  1  0.265800  0.265800  0.500000  1.0  0.113
  H  H54  1  0.265800  0.734200  0.500000  1.0  0.1128
  H  H55  1  0.500000  0.734200  0.734200  1.0  0.1139
  H  H56  1  0.500000  0.734200  0.265800  1.0  0.1141
  H  H57  1  0.500000  0.265800  0.265800  1.0  0.114
  H  H58  1  0.500000  0.265800  0.734200  1.0  0.1137
  C  C59  1  0.836200  0.558500  0.836200  1.0  0.0015
  C  C60  1  0.789700  0.557300  0.789700  1.0  -0.1111
  C  C61  1  0.760600  0.619900  0.760600  1.0  0.6888
  C  C62  1  0.163800  0.441500  0.836200  1.0  0.0018
  C  C63  1  0.210300  0.442700  0.789700  1.0  -0.1099
  C  C64  1  0.239400  0.380100  0.760600  1.0  0.6889
  C  C65  1  0.163800  0.558500  0.163800  1.0  0.0022
  C  C66  1  0.210300  0.557300  0.210300  1.0  -0.1108
  C  C67  1  0.239400  0.619900  0.239400  1.0  0.689
  C  C68  1  0.836200  0.441500  0.163800  1.0  0.0008
  C  C69  1  0.789700  0.442700  0.210300  1.0  -0.1105
  C  C70  1  0.760600  0.380100  0.239400  1.0  0.689
  C  C71  1  0.836200  0.836200  0.558500  1.0  0.0008
  C  C72  1  0.789700  0.789700  0.557300  1.0  -0.1128
  C  C73  1  0.760600  0.760600  0.619900  1.0  0.6908
  C  C74  1  0.836200  0.163800  0.441500  1.0  0.0
  C  C75  1  0.789700  0.210300  0.442700  1.0  -0.1108
  C  C76  1  0.760600  0.239400  0.380100  1.0  0.6897
  C  C77  1  0.163800  0.163800  0.558500  1.0  0.0005
  C  C78  1  0.210300  0.210300  0.557300  1.0  -0.1129
  C  C79  1  0.239400  0.239400  0.619900  1.0  0.691
  C  C80  1  0.163800  0.836200  0.441500  1.0  0.0014
  C  C81  1  0.210300  0.789700  0.442700  1.0  -0.1107
  C  C82  1  0.239400  0.760600  0.380100  1.0  0.69
  C  C83  1  0.558500  0.836200  0.836200  1.0  0.0005
  C  C84  1  0.557300  0.789700  0.789700  1.0  -0.1089
  C  C85  1  0.619900  0.760600  0.760600  1.0  0.689
  C  C86  1  0.441500  0.836200  0.163800  1.0  0.0026
  C  C87  1  0.442700  0.789700  0.210300  1.0  -0.1101
  C  C88  1  0.380100  0.760600  0.239400  1.0  0.6888
  C  C89  1  0.558500  0.163800  0.163800  1.0  0.0009
  C  C90  1  0.557300  0.210300  0.210300  1.0  -0.1095
  C  C91  1  0.619900  0.239400  0.239400  1.0  0.6891
  C  C92  1  0.441500  0.163800  0.836200  1.0  0.0029
  C  C93  1  0.442700  0.210300  0.789700  1.0  -0.1103
  C  C94  1  0.380100  0.239400  0.760600  1.0  0.6888
  C  C95  1  0.558500  0.836200  0.163800  1.0  0.0009
  C  C96  1  0.557300  0.789700  0.210300  1.0  -0.1091
  C  C97  1  0.619900  0.760600  0.239400  1.0  0.6892
  C  C98  1  0.441500  0.163800  0.163800  1.0  0.0026
  C  C99  1  0.442700  0.210300  0.210300  1.0  -0.1099
  C  C100  1  0.380100  0.239400  0.239400  1.0  0.6888
  C  C101  1  0.558500  0.163800  0.836200  1.0  0.0008
  C  C102  1  0.557300  0.210300  0.789700  1.0  -0.109
  C  C103  1  0.619900  0.239400  0.760600  1.0  0.689
  C  C104  1  0.441500  0.836200  0.836200  1.0  0.0025
  C  C105  1  0.442700  0.789700  0.789700  1.0  -0.1102
  C  C106  1  0.380100  0.760600  0.760600  1.0  0.6888
  C  C107  1  0.836200  0.836200  0.441500  1.0  0.0004
  C  C108  1  0.789700  0.789700  0.442700  1.0  -0.1112
  C  C109  1  0.760600  0.760600  0.380100  1.0  0.6899
  C  C110  1  0.163800  0.836200  0.558500  1.0  0.0003
  C  C111  1  0.210300  0.789700  0.557300  1.0  -0.1125
  C  C112  1  0.239400  0.760600  0.619900  1.0  0.6914
  C  C113  1  0.163800  0.163800  0.441500  1.0  0.001
  C  C114  1  0.210300  0.210300  0.442700  1.0  -0.1102
  C  C115  1  0.239400  0.239400  0.380100  1.0  0.6898
  C  C116  1  0.836200  0.163800  0.558500  1.0  0.0008
  C  C117  1  0.789700  0.210300  0.557300  1.0  -0.1126
  C  C118  1  0.760600  0.239400  0.619900  1.0  0.6905
  C  C119  1  0.836200  0.558500  0.163800  1.0  0.0018
  C  C120  1  0.789700  0.557300  0.210300  1.0  -0.1109
  C  C121  1  0.760600  0.619900  0.239400  1.0  0.6889
  C  C122  1  0.836200  0.441500  0.836200  1.0  0.0011
  C  C123  1  0.789700  0.442700  0.789700  1.0  -0.1105
  C  C124  1  0.760600  0.380100  0.760600  1.0  0.6888
  C  C125  1  0.163800  0.558500  0.836200  1.0  0.0016
  C  C126  1  0.210300  0.557300  0.789700  1.0  -0.1105
  C  C127  1  0.239400  0.619900  0.760600  1.0  0.689
  C  C128  1  0.163800  0.441500  0.163800  1.0  0.0017
  C  C129  1  0.210300  0.442700  0.210300  1.0  -0.1096
  C  C130  1  0.239400  0.380100  0.239400  1.0  0.6891
  C  C131  1  0.910600  0.500000  0.910600  1.0  0.6998
  C  C132  1  0.860000  0.500000  0.860000  1.0  -0.1804
  C  C133  1  0.766100  0.500000  0.766100  1.0  -0.0115
  C  C134  1  0.089400  0.500000  0.910600  1.0  0.6992
  C  C135  1  0.140000  0.500000  0.860000  1.0  -0.1808
  C  C136  1  0.233900  0.500000  0.766100  1.0  -0.0112
  C  C137  1  0.089400  0.500000  0.089400  1.0  0.6993
  C  C138  1  0.140000  0.500000  0.140000  1.0  -0.1804
  C  C139  1  0.233900  0.500000  0.233900  1.0  -0.0113
  C  C140  1  0.910600  0.500000  0.089400  1.0  0.6996
  C  C141  1  0.860000  0.500000  0.140000  1.0  -0.18
  C  C142  1  0.766100  0.500000  0.233900  1.0  -0.0113
  C  C143  1  0.910600  0.910600  0.500000  1.0  0.6995
  C  C144  1  0.860000  0.860000  0.500000  1.0  -0.1802
  C  C145  1  0.766100  0.766100  0.500000  1.0  -0.0106
  C  C146  1  0.910600  0.089400  0.500000  1.0  0.6988
  C  C147  1  0.860000  0.140000  0.500000  1.0  -0.1803
  C  C148  1  0.766100  0.233900  0.500000  1.0  -0.0109
  C  C149  1  0.089400  0.089400  0.500000  1.0  0.6983
  C  C150  1  0.140000  0.140000  0.500000  1.0  -0.1808
  C  C151  1  0.233900  0.233900  0.500000  1.0  -0.0113
  C  C152  1  0.089400  0.910600  0.500000  1.0  0.6989
  C  C153  1  0.140000  0.860000  0.500000  1.0  -0.1802
  C  C154  1  0.233900  0.766100  0.500000  1.0  -0.0106
  C  C155  1  0.500000  0.910600  0.910600  1.0  0.6995
  C  C156  1  0.500000  0.860000  0.860000  1.0  -0.1803
  C  C157  1  0.500000  0.766100  0.766100  1.0  -0.0119
  C  C158  1  0.500000  0.910600  0.089400  1.0  0.6995
  C  C159  1  0.500000  0.860000  0.140000  1.0  -0.18
  C  C160  1  0.500000  0.766100  0.233900  1.0  -0.0114
  C  C161  1  0.500000  0.089400  0.089400  1.0  0.6987
  C  C162  1  0.500000  0.140000  0.140000  1.0  -0.1804
  C  C163  1  0.500000  0.233900  0.233900  1.0  -0.0121
  C  C164  1  0.500000  0.089400  0.910600  1.0  0.6989
  C  C165  1  0.500000  0.140000  0.860000  1.0  -0.1804
  C  C166  1  0.500000  0.233900  0.766100  1.0  -0.0116
  O  O167  1  0.931100  0.554200  0.931100  1.0  -0.626
  O  O168  1  0.784300  0.672100  0.784300  1.0  -0.6183
  O  O169  1  0.716800  0.613200  0.716800  1.0  -0.6035
  O  O170  1  0.068900  0.445800  0.931100  1.0  -0.6273
  O  O171  1  0.215700  0.327900  0.784300  1.0  -0.6198
  O  O172  1  0.283200  0.386800  0.716800  1.0  -0.6038
  O  O173  1  0.068900  0.554200  0.068900  1.0  -0.6262
  O  O174  1  0.215700  0.672100  0.215700  1.0  -0.6199
  O  O175  1  0.283200  0.613200  0.283200  1.0  -0.6041
  O  O176  1  0.931100  0.445800  0.068900  1.0  -0.6274
  O  O177  1  0.784300  0.327900  0.215700  1.0  -0.6183
  O  O178  1  0.716800  0.386800  0.283200  1.0  -0.6044
  O  O179  1  0.931100  0.931100  0.554200  1.0  -0.6264
  O  O180  1  0.784300  0.784300  0.672100  1.0  -0.6184
  O  O181  1  0.716800  0.716800  0.613200  1.0  -0.605
  O  O182  1  0.931100  0.068900  0.445800  1.0  -0.6281
  O  O183  1  0.784300  0.215700  0.327900  1.0  -0.6181
  O  O184  1  0.716800  0.283200  0.386800  1.0  -0.6062
  O  O185  1  0.068900  0.068900  0.554200  1.0  -0.6266
  O  O186  1  0.215700  0.215700  0.672100  1.0  -0.6195
  O  O187  1  0.283200  0.283200  0.613200  1.0  -0.6061
  O  O188  1  0.068900  0.931100  0.445800  1.0  -0.6279
  O  O189  1  0.215700  0.784300  0.327900  1.0  -0.6204
  O  O190  1  0.283200  0.716800  0.386800  1.0  -0.6049
  O  O191  1  0.554200  0.931100  0.931100  1.0  -0.629
  O  O192  1  0.672100  0.784300  0.784300  1.0  -0.6181
  O  O193  1  0.613200  0.716800  0.716800  1.0  -0.605
  O  O194  1  0.445800  0.931100  0.068900  1.0  -0.6289
  O  O195  1  0.327900  0.784300  0.215700  1.0  -0.6189
  O  O196  1  0.386800  0.716800  0.283200  1.0  -0.6051
  O  O197  1  0.554200  0.068900  0.068900  1.0  -0.6288
  O  O198  1  0.672100  0.215700  0.215700  1.0  -0.6178
  O  O199  1  0.613200  0.283200  0.283200  1.0  -0.607
  O  O200  1  0.445800  0.068900  0.931100  1.0  -0.6289
  O  O201  1  0.327900  0.215700  0.784300  1.0  -0.6185
  O  O202  1  0.386800  0.283200  0.716800  1.0  -0.6059
  O  O203  1  0.554200  0.931100  0.068900  1.0  -0.6286
  O  O204  1  0.672100  0.784300  0.215700  1.0  -0.6183
  O  O205  1  0.613200  0.716800  0.283200  1.0  -0.6047
  O  O206  1  0.445800  0.068900  0.068900  1.0  -0.6288
  O  O207  1  0.327900  0.215700  0.215700  1.0  -0.6183
  O  O208  1  0.386800  0.283200  0.283200  1.0  -0.6056
  O  O209  1  0.554200  0.068900  0.931100  1.0  -0.629
  O  O210  1  0.672100  0.215700  0.784300  1.0  -0.6184
  O  O211  1  0.613200  0.283200  0.716800  1.0  -0.6064
  O  O212  1  0.445800  0.931100  0.931100  1.0  -0.6291
  O  O213  1  0.327900  0.784300  0.784300  1.0  -0.6191
  O  O214  1  0.386800  0.716800  0.716800  1.0  -0.6037
  O  O215  1  0.931100  0.931100  0.445800  1.0  -0.6278
  O  O216  1  0.784300  0.784300  0.327900  1.0  -0.619
  O  O217  1  0.716800  0.716800  0.386800  1.0  -0.6046
  O  O218  1  0.068900  0.931100  0.554200  1.0  -0.6264
  O  O219  1  0.215700  0.784300  0.672100  1.0  -0.6198
  O  O220  1  0.283200  0.716800  0.613200  1.0  -0.605
  O  O221  1  0.068900  0.068900  0.445800  1.0  -0.6283
  O  O222  1  0.215700  0.215700  0.327900  1.0  -0.6191
  O  O223  1  0.283200  0.283200  0.386800  1.0  -0.6062
  O  O224  1  0.931100  0.068900  0.554200  1.0  -0.6267
  O  O225  1  0.784300  0.215700  0.672100  1.0  -0.6183
  O  O226  1  0.716800  0.283200  0.613200  1.0  -0.6064
  O  O227  1  0.931100  0.554200  0.068900  1.0  -0.6259
  O  O228  1  0.784300  0.672100  0.215700  1.0  -0.6179
  O  O229  1  0.716800  0.613200  0.283200  1.0  -0.6048
  O  O230  1  0.931100  0.445800  0.931100  1.0  -0.627
  O  O231  1  0.784300  0.327900  0.784300  1.0  -0.6186
  O  O232  1  0.716800  0.386800  0.716800  1.0  -0.6047
  O  O233  1  0.068900  0.554200  0.931100  1.0  -0.6263
  O  O234  1  0.215700  0.672100  0.784300  1.0  -0.6195
  O  O235  1  0.283200  0.613200  0.716800  1.0  -0.6044
  O  O236  1  0.068900  0.445800  0.068900  1.0  -0.6277
  O  O237  1  0.215700  0.327900  0.215700  1.0  -0.6194
  O  O238  1  0.283200  0.386800  0.283200  1.0  -0.6049
