# generated using pymatgen
data_Zn2H3(C3O2)3
_symmetry_space_group_name_H-M   'P 1'
_cell_length_a   12.95950000
_cell_length_b   14.73410000
_cell_length_c   15.35710000
_cell_angle_alpha   90.00000000
_cell_angle_beta   90.00000000
_cell_angle_gamma   90.00000000
_symmetry_Int_Tables_number   1
_chemical_formula_structural   Zn2H3(C3O2)3
_chemical_formula_sum   'Zn8 H12 C36 O24'
_cell_volume   2932.38555402
_cell_formula_units_Z   4
loop_
 _symmetry_equiv_pos_site_id
 _symmetry_equiv_pos_as_xyz
  1  'x, y, z'
loop_
 _atom_site_type_symbol
 _atom_site_label
 _atom_site_symmetry_multiplicity
 _atom_site_fract_x
 _atom_site_fract_y
 _atom_site_fract_z
 _atom_site_occupancy
 _atom_site_charge
  Zn  Zn1  1  0.298140  0.171440  0.165450  1.0  0.622
  Zn  Zn2  1  0.798140  0.328560  0.834550  1.0  0.6236
  Zn  Zn3  1  0.701860  0.671440  0.334550  1.0  0.6141
  Zn  Zn4  1  0.482120  0.027530  0.047000  1.0  1.1022
  Zn  Zn5  1  0.517880  0.527530  0.453000  1.0  1.0983
  Zn  Zn6  1  0.982120  0.472470  0.953000  1.0  1.1013
  Zn  Zn7  1  0.201860  0.828560  0.665450  1.0  0.6233
  Zn  Zn8  1  0.017880  0.972470  0.547000  1.0  1.0997
  H  H9  1  0.462300  0.818500  0.238500  1.0  0.1047
  H  H10  1  0.185400  0.246200  0.961000  1.0  0.0941
  H  H11  1  0.314600  0.753800  0.461000  1.0  0.094
  H  H12  1  0.737700  0.520700  0.673900  1.0  0.093
  H  H13  1  0.962300  0.681500  0.761500  1.0  0.1049
  H  H14  1  0.685400  0.253800  0.039000  1.0  0.0938
  H  H15  1  0.237700  0.979300  0.326100  1.0  0.0936
  H  H16  1  0.037700  0.181500  0.738500  1.0  0.1053
  H  H17  1  0.262300  0.020700  0.826100  1.0  0.0939
  H  H18  1  0.762300  0.479300  0.173900  1.0  0.0942
  H  H19  1  0.814600  0.746200  0.539000  1.0  0.0938
  H  H20  1  0.537700  0.318500  0.261500  1.0  0.1052
  C  C21  1  0.134200  0.030400  0.694500  1.0  0.7337
  C  C22  1  0.397800  0.772300  0.352100  1.0  -0.1368
  C  C23  1  0.676100  0.292400  0.086300  1.0  0.0227
  C  C24  1  0.035100  0.309800  0.861700  1.0  0.7025
  C  C25  1  0.277600  0.927300  0.332600  1.0  0.0394
  C  C26  1  0.897800  0.727700  0.647900  1.0  -0.1366
  C  C27  1  0.817500  0.391400  0.027300  1.0  0.7025
  C  C28  1  0.535100  0.190200  0.138300  1.0  0.7017
  C  C29  1  0.411900  0.830900  0.279900  1.0  0.0289
  C  C30  1  0.317500  0.108600  0.972700  1.0  0.7028
  C  C31  1  0.865800  0.530400  0.805500  1.0  0.7335
  C  C32  1  0.634200  0.469600  0.305500  1.0  0.7347
  C  C33  1  0.088100  0.169100  0.779900  1.0  0.0283
  C  C34  1  0.102200  0.227700  0.852100  1.0  -0.1364
  C  C35  1  0.588100  0.330900  0.220100  1.0  0.029
  C  C36  1  0.464900  0.690200  0.361700  1.0  0.7029
  C  C37  1  0.238000  0.129100  0.905700  1.0  -0.1906
  C  C38  1  0.762000  0.629100  0.594300  1.0  -0.1896
  C  C39  1  0.650000  0.406800  0.228500  1.0  -0.1791
  C  C40  1  0.602200  0.272300  0.147900  1.0  -0.1373
  C  C41  1  0.777600  0.572700  0.667400  1.0  0.0399
  C  C42  1  0.222400  0.072700  0.832600  1.0  0.0404
  C  C43  1  0.150000  0.093200  0.771500  1.0  -0.1788
  C  C44  1  0.738000  0.370900  0.094300  1.0  -0.1899
  C  C45  1  0.262000  0.870900  0.405700  1.0  -0.1897
  C  C46  1  0.911900  0.669100  0.720100  1.0  0.0299
  C  C47  1  0.176100  0.207600  0.913700  1.0  0.0226
  C  C48  1  0.682500  0.608600  0.527300  1.0  0.7012
  C  C49  1  0.182500  0.891400  0.472700  1.0  0.7014
  C  C50  1  0.823900  0.707600  0.586300  1.0  0.0227
  C  C51  1  0.350000  0.906800  0.271500  1.0  -0.1784
  C  C52  1  0.850000  0.593200  0.728500  1.0  -0.1787
  C  C53  1  0.722400  0.427300  0.167400  1.0  0.0399
  C  C54  1  0.365800  0.969600  0.194500  1.0  0.733
  C  C55  1  0.964900  0.809800  0.638300  1.0  0.7028
  C  C56  1  0.323900  0.792400  0.413700  1.0  0.0238
  O  O57  1  0.331600  0.164200  0.032300  1.0  -0.6033
  O  O58  1  0.561600  0.133500  0.080200  1.0  -0.6414
  O  O59  1  0.630100  0.536500  0.538000  1.0  -0.6363
  O  O60  1  0.061600  0.366500  0.919800  1.0  -0.64
  O  O61  1  0.195700  0.968400  0.684100  1.0  -0.6078
  O  O62  1  0.168400  0.835800  0.532300  1.0  -0.6024
  O  O63  1  0.304300  0.031600  0.184100  1.0  -0.6081
  O  O64  1  0.457900  0.182300  0.187500  1.0  -0.6098
  O  O65  1  0.804300  0.468400  0.815900  1.0  -0.6136
  O  O66  1  0.057500  0.046000  0.646400  1.0  -0.6396
  O  O67  1  0.957900  0.317700  0.812500  1.0  -0.6084
  O  O68  1  0.369900  0.036500  0.962000  1.0  -0.6347
  O  O69  1  0.442500  0.954000  0.146400  1.0  -0.6407
  O  O70  1  0.668400  0.664200  0.467700  1.0  -0.6021
  O  O71  1  0.130100  0.963500  0.462000  1.0  -0.6358
  O  O72  1  0.557500  0.454000  0.353600  1.0  -0.6389
  O  O73  1  0.542100  0.682300  0.312500  1.0  -0.6089
  O  O74  1  0.831600  0.335800  0.967700  1.0  -0.6036
  O  O75  1  0.438400  0.633500  0.419800  1.0  -0.6391
  O  O76  1  0.042100  0.817700  0.687500  1.0  -0.6081
  O  O77  1  0.938400  0.866500  0.580200  1.0  -0.6412
  O  O78  1  0.695700  0.531600  0.315900  1.0  -0.615
  O  O79  1  0.942500  0.546000  0.853600  1.0  -0.639
  O  O80  1  0.869900  0.463500  0.038000  1.0  -0.6355
