# generated using pymatgen
data_Zn11H18(C3O2)18
_symmetry_space_group_name_H-M   'P 1'
_cell_length_a   20.57300000
_cell_length_b   20.57300000
_cell_length_c   20.57300000
_cell_angle_alpha   90.00000000
_cell_angle_beta   90.00000000
_cell_angle_gamma   90.00000000
_symmetry_Int_Tables_number   1
_chemical_formula_structural   Zn11H18(C3O2)18
_chemical_formula_sum   'Zn22 H36 C108 O72'
_cell_volume   8707.48787252
_cell_formula_units_Z   2
loop_
 _symmetry_equiv_pos_site_id
 _symmetry_equiv_pos_as_xyz
  1  'x, y, z'
loop_
 _atom_site_type_symbol
 _atom_site_label
 _atom_site_symmetry_multiplicity
 _atom_site_fract_x
 _atom_site_fract_y
 _atom_site_fract_z
 _atom_site_occupancy
 _atom_site_charge
  Zn  Zn1  1  0.500000  0.927570  0.500000  1.0  1.1459
  Zn  Zn2  1  0.500000  0.072430  0.500000  1.0  1.1458
  Zn  Zn3  1  0.500000  0.500000  0.927570  1.0  1.1375
  Zn  Zn4  1  0.500000  0.500000  0.072430  1.0  1.1384
  Zn  Zn5  1  0.927570  0.500000  0.500000  1.0  1.1436
  Zn  Zn6  1  0.072430  0.500000  0.500000  1.0  1.1441
  Zn  Zn7  1  0.736810  0.263190  0.736810  1.0  0.7015
  Zn  Zn8  1  0.834760  0.165240  0.834760  1.0  0.8822
  Zn  Zn9  1  0.263190  0.736810  0.736810  1.0  0.7031
  Zn  Zn10  1  0.165240  0.834760  0.834760  1.0  0.8809
  Zn  Zn11  1  0.263190  0.263190  0.263190  1.0  0.7027
  Zn  Zn12  1  0.165240  0.165240  0.165240  1.0  0.8834
  Zn  Zn13  1  0.736810  0.736810  0.263190  1.0  0.7004
  Zn  Zn14  1  0.834760  0.834760  0.165240  1.0  0.8834
  Zn  Zn15  1  0.263190  0.736810  0.263190  1.0  0.7019
  Zn  Zn16  1  0.165240  0.834760  0.165240  1.0  0.8819
  Zn  Zn17  1  0.736810  0.263190  0.263190  1.0  0.7015
  Zn  Zn18  1  0.834760  0.165240  0.165240  1.0  0.8852
  Zn  Zn19  1  0.263190  0.263190  0.736810  1.0  0.7023
  Zn  Zn20  1  0.165240  0.165240  0.834760  1.0  0.8804
  Zn  Zn21  1  0.736810  0.736810  0.736810  1.0  0.7017
  Zn  Zn22  1  0.834760  0.834760  0.834760  1.0  0.8827
  H  H23  1  0.766900  0.000000  0.766900  1.0  0.1187
  H  H24  1  0.233100  0.000000  0.766900  1.0  0.1192
  H  H25  1  0.233100  0.000000  0.233100  1.0  0.1188
  H  H26  1  0.766900  0.000000  0.233100  1.0  0.1182
  H  H27  1  0.766900  0.766900  0.000000  1.0  0.1172
  H  H28  1  0.766900  0.233100  0.000000  1.0  0.1172
  H  H29  1  0.233100  0.233100  0.000000  1.0  0.1179
  H  H30  1  0.233100  0.766900  0.000000  1.0  0.118
  H  H31  1  0.000000  0.766900  0.766900  1.0  0.1195
  H  H32  1  0.000000  0.766900  0.233100  1.0  0.1188
  H  H33  1  0.000000  0.233100  0.233100  1.0  0.1189
  H  H34  1  0.000000  0.233100  0.766900  1.0  0.1194
  H  H35  1  0.650900  0.098900  0.650900  1.0  0.113
  H  H36  1  0.349100  0.901100  0.650900  1.0  0.1129
  H  H37  1  0.349100  0.098900  0.349100  1.0  0.1121
  H  H38  1  0.650900  0.901100  0.349100  1.0  0.1129
  H  H39  1  0.650900  0.650900  0.098900  1.0  0.112
  H  H40  1  0.650900  0.349100  0.901100  1.0  0.1126
  H  H41  1  0.349100  0.349100  0.098900  1.0  0.1115
  H  H42  1  0.349100  0.650900  0.901100  1.0  0.1125
  H  H43  1  0.098900  0.650900  0.650900  1.0  0.1122
  H  H44  1  0.901100  0.650900  0.349100  1.0  0.1117
  H  H45  1  0.098900  0.349100  0.349100  1.0  0.112
  H  H46  1  0.901100  0.349100  0.650900  1.0  0.1119
  H  H47  1  0.098900  0.650900  0.349100  1.0  0.112
  H  H48  1  0.901100  0.349100  0.349100  1.0  0.1115
  H  H49  1  0.098900  0.349100  0.650900  1.0  0.1126
  H  H50  1  0.901100  0.650900  0.650900  1.0  0.1116
  H  H51  1  0.650900  0.650900  0.901100  1.0  0.1123
  H  H52  1  0.349100  0.650900  0.098900  1.0  0.1113
  H  H53  1  0.349100  0.349100  0.901100  1.0  0.1125
  H  H54  1  0.650900  0.349100  0.098900  1.0  0.1122
  H  H55  1  0.650900  0.098900  0.349100  1.0  0.1126
  H  H56  1  0.650900  0.901100  0.650900  1.0  0.113
  H  H57  1  0.349100  0.098900  0.650900  1.0  0.1124
  H  H58  1  0.349100  0.901100  0.349100  1.0  0.1126
  C  C59  1  0.640000  0.000000  0.640000  1.0  -0.1396
  C  C60  1  0.734900  0.000000  0.734900  1.0  -0.0622
  C  C61  1  0.586700  0.000000  0.586700  1.0  0.7457
  C  C62  1  0.360000  0.000000  0.640000  1.0  -0.1395
  C  C63  1  0.265100  0.000000  0.734900  1.0  -0.0622
  C  C64  1  0.413300  0.000000  0.586700  1.0  0.7458
  C  C65  1  0.360000  0.000000  0.360000  1.0  -0.14
  C  C66  1  0.265100  0.000000  0.265100  1.0  -0.0617
  C  C67  1  0.413300  0.000000  0.413300  1.0  0.7463
  C  C68  1  0.640000  0.000000  0.360000  1.0  -0.1398
  C  C69  1  0.734900  0.000000  0.265100  1.0  -0.0613
  C  C70  1  0.586700  0.000000  0.413300  1.0  0.7462
  C  C71  1  0.640000  0.640000  0.000000  1.0  -0.1384
  C  C72  1  0.734900  0.734900  0.000000  1.0  -0.0632
  C  C73  1  0.586700  0.586700  0.000000  1.0  0.7453
  C  C74  1  0.640000  0.360000  0.000000  1.0  -0.1382
  C  C75  1  0.734900  0.265100  0.000000  1.0  -0.0613
  C  C76  1  0.586700  0.413300  0.000000  1.0  0.7455
  C  C77  1  0.360000  0.360000  0.000000  1.0  -0.1383
  C  C78  1  0.265100  0.265100  0.000000  1.0  -0.0617
  C  C79  1  0.413300  0.413300  0.000000  1.0  0.7459
  C  C80  1  0.360000  0.640000  0.000000  1.0  -0.1384
  C  C81  1  0.265100  0.734900  0.000000  1.0  -0.0629
  C  C82  1  0.413300  0.586700  0.000000  1.0  0.7454
  C  C83  1  0.000000  0.640000  0.640000  1.0  -0.1397
  C  C84  1  0.000000  0.734900  0.734900  1.0  -0.0652
  C  C85  1  0.000000  0.586700  0.586700  1.0  0.7457
  C  C86  1  0.000000  0.640000  0.360000  1.0  -0.1397
  C  C87  1  0.000000  0.734900  0.265100  1.0  -0.0635
  C  C88  1  0.000000  0.586700  0.413300  1.0  0.7462
  C  C89  1  0.000000  0.360000  0.360000  1.0  -0.1396
  C  C90  1  0.000000  0.265100  0.265100  1.0  -0.0626
  C  C91  1  0.000000  0.413300  0.413300  1.0  0.7467
  C  C92  1  0.000000  0.360000  0.640000  1.0  -0.1394
  C  C93  1  0.000000  0.265100  0.734900  1.0  -0.0627
  C  C94  1  0.000000  0.413300  0.586700  1.0  0.7462
  C  C95  1  0.665900  0.059000  0.665900  1.0  -0.048
  C  C96  1  0.711800  0.057000  0.711800  1.0  -0.0969
  C  C97  1  0.739000  0.118800  0.739000  1.0  0.7296
  C  C98  1  0.334100  0.941000  0.665900  1.0  -0.0482
  C  C99  1  0.288200  0.943000  0.711800  1.0  -0.0975
  C  C100  1  0.261000  0.881200  0.739000  1.0  0.7308
  C  C101  1  0.334100  0.059000  0.334100  1.0  -0.0488
  C  C102  1  0.288200  0.057000  0.288200  1.0  -0.0968
  C  C103  1  0.261000  0.118800  0.261000  1.0  0.7302
  C  C104  1  0.665900  0.941000  0.334100  1.0  -0.0495
  C  C105  1  0.711800  0.943000  0.288200  1.0  -0.097
  C  C106  1  0.739000  0.881200  0.261000  1.0  0.7307
  C  C107  1  0.665900  0.665900  0.059000  1.0  -0.0472
  C  C108  1  0.711800  0.711800  0.057000  1.0  -0.0968
  C  C109  1  0.739000  0.739000  0.118800  1.0  0.7345
  C  C110  1  0.665900  0.334100  0.941000  1.0  -0.0477
  C  C111  1  0.711800  0.288200  0.943000  1.0  -0.0968
  C  C112  1  0.739000  0.261000  0.881200  1.0  0.7321
  C  C113  1  0.334100  0.334100  0.059000  1.0  -0.0468
  C  C114  1  0.288200  0.288200  0.057000  1.0  -0.0967
  C  C115  1  0.261000  0.261000  0.118800  1.0  0.735
  C  C116  1  0.334100  0.665900  0.941000  1.0  -0.0482
  C  C117  1  0.288200  0.711800  0.943000  1.0  -0.0965
  C  C118  1  0.261000  0.739000  0.881200  1.0  0.7332
  C  C119  1  0.059000  0.665900  0.665900  1.0  -0.0457
  C  C120  1  0.057000  0.711800  0.711800  1.0  -0.0981
  C  C121  1  0.118800  0.739000  0.739000  1.0  0.7311
  C  C122  1  0.941000  0.665900  0.334100  1.0  -0.0467
  C  C123  1  0.943000  0.711800  0.288200  1.0  -0.0993
  C  C124  1  0.881200  0.739000  0.261000  1.0  0.7317
  C  C125  1  0.059000  0.334100  0.334100  1.0  -0.0467
  C  C126  1  0.057000  0.288200  0.288200  1.0  -0.0974
  C  C127  1  0.118800  0.261000  0.261000  1.0  0.7312
  C  C128  1  0.941000  0.334100  0.665900  1.0  -0.0465
  C  C129  1  0.943000  0.288200  0.711800  1.0  -0.0993
  C  C130  1  0.881200  0.261000  0.739000  1.0  0.7317
  C  C131  1  0.059000  0.665900  0.334100  1.0  -0.0466
  C  C132  1  0.057000  0.711800  0.288200  1.0  -0.0978
  C  C133  1  0.118800  0.739000  0.261000  1.0  0.7312
  C  C134  1  0.941000  0.334100  0.334100  1.0  -0.0474
  C  C135  1  0.943000  0.288200  0.288200  1.0  -0.0994
  C  C136  1  0.881200  0.261000  0.261000  1.0  0.7318
  C  C137  1  0.059000  0.334100  0.665900  1.0  -0.0459
  C  C138  1  0.057000  0.288200  0.711800  1.0  -0.0976
  C  C139  1  0.118800  0.261000  0.739000  1.0  0.731
  C  C140  1  0.941000  0.665900  0.665900  1.0  -0.0463
  C  C141  1  0.943000  0.711800  0.711800  1.0  -0.0993
  C  C142  1  0.881200  0.739000  0.739000  1.0  0.7317
  C  C143  1  0.665900  0.665900  0.941000  1.0  -0.0473
  C  C144  1  0.711800  0.711800  0.943000  1.0  -0.0967
  C  C145  1  0.739000  0.739000  0.881200  1.0  0.7319
  C  C146  1  0.334100  0.665900  0.059000  1.0  -0.0467
  C  C147  1  0.288200  0.711800  0.057000  1.0  -0.0967
  C  C148  1  0.261000  0.739000  0.118800  1.0  0.7349
  C  C149  1  0.334100  0.334100  0.941000  1.0  -0.0484
  C  C150  1  0.288200  0.288200  0.943000  1.0  -0.0969
  C  C151  1  0.261000  0.261000  0.881200  1.0  0.7334
  C  C152  1  0.665900  0.334100  0.059000  1.0  -0.0476
  C  C153  1  0.711800  0.288200  0.057000  1.0  -0.0967
  C  C154  1  0.739000  0.261000  0.118800  1.0  0.7347
  C  C155  1  0.665900  0.059000  0.334100  1.0  -0.0493
  C  C156  1  0.711800  0.057000  0.288200  1.0  -0.0969
  C  C157  1  0.739000  0.118800  0.261000  1.0  0.7296
  C  C158  1  0.665900  0.941000  0.665900  1.0  -0.0488
  C  C159  1  0.711800  0.943000  0.711800  1.0  -0.0972
  C  C160  1  0.739000  0.881200  0.739000  1.0  0.7306
  C  C161  1  0.334100  0.059000  0.665900  1.0  -0.0477
  C  C162  1  0.288200  0.057000  0.711800  1.0  -0.0968
  C  C163  1  0.261000  0.118800  0.739000  1.0  0.7301
  C  C164  1  0.334100  0.941000  0.334100  1.0  -0.0489
  C  C165  1  0.288200  0.943000  0.288200  1.0  -0.0973
  C  C166  1  0.261000  0.881200  0.261000  1.0  0.7309
  O  O167  1  0.568200  0.946100  0.568200  1.0  -0.6013
  O  O168  1  0.716900  0.171700  0.716900  1.0  -0.6345
  O  O169  1  0.781400  0.112300  0.781400  1.0  -0.607
  O  O170  1  0.431800  0.053900  0.568200  1.0  -0.6006
  O  O171  1  0.283100  0.828300  0.716900  1.0  -0.6336
  O  O172  1  0.218600  0.887700  0.781400  1.0  -0.6059
  O  O173  1  0.431800  0.946100  0.431800  1.0  -0.601
  O  O174  1  0.283100  0.171700  0.283100  1.0  -0.6342
  O  O175  1  0.218600  0.112300  0.218600  1.0  -0.6063
  O  O176  1  0.568200  0.053900  0.431800  1.0  -0.6009
  O  O177  1  0.716900  0.828300  0.283100  1.0  -0.6343
  O  O178  1  0.781400  0.887700  0.218600  1.0  -0.6065
  O  O179  1  0.568200  0.568200  0.946100  1.0  -0.6009
  O  O180  1  0.716900  0.716900  0.171700  1.0  -0.6368
  O  O181  1  0.781400  0.781400  0.112300  1.0  -0.6104
  O  O182  1  0.568200  0.431800  0.053900  1.0  -0.6004
  O  O183  1  0.716900  0.283100  0.828300  1.0  -0.6369
  O  O184  1  0.781400  0.218600  0.887700  1.0  -0.6086
  O  O185  1  0.431800  0.431800  0.946100  1.0  -0.6002
  O  O186  1  0.283100  0.283100  0.171700  1.0  -0.636
  O  O187  1  0.218600  0.218600  0.112300  1.0  -0.6094
  O  O188  1  0.431800  0.568200  0.053900  1.0  -0.5998
  O  O189  1  0.283100  0.716900  0.828300  1.0  -0.6356
  O  O190  1  0.218600  0.781400  0.887700  1.0  -0.6088
  O  O191  1  0.946100  0.568200  0.568200  1.0  -0.6017
  O  O192  1  0.171700  0.716900  0.716900  1.0  -0.6344
  O  O193  1  0.112300  0.781400  0.781400  1.0  -0.6092
  O  O194  1  0.053900  0.568200  0.431800  1.0  -0.6023
  O  O195  1  0.828300  0.716900  0.283100  1.0  -0.6352
  O  O196  1  0.887700  0.781400  0.218600  1.0  -0.6084
  O  O197  1  0.946100  0.431800  0.431800  1.0  -0.6018
  O  O198  1  0.171700  0.283100  0.283100  1.0  -0.6353
  O  O199  1  0.112300  0.218600  0.218600  1.0  -0.6076
  O  O200  1  0.053900  0.431800  0.568200  1.0  -0.6017
  O  O201  1  0.828300  0.283100  0.716900  1.0  -0.6348
  O  O202  1  0.887700  0.218600  0.781400  1.0  -0.6074
  O  O203  1  0.946100  0.568200  0.431800  1.0  -0.6018
  O  O204  1  0.171700  0.716900  0.283100  1.0  -0.6337
  O  O205  1  0.112300  0.781400  0.218600  1.0  -0.6096
  O  O206  1  0.053900  0.431800  0.431800  1.0  -0.6022
  O  O207  1  0.828300  0.283100  0.283100  1.0  -0.6332
  O  O208  1  0.887700  0.218600  0.218600  1.0  -0.6071
  O  O209  1  0.946100  0.431800  0.568200  1.0  -0.6016
  O  O210  1  0.171700  0.283100  0.716900  1.0  -0.6332
  O  O211  1  0.112300  0.218600  0.781400  1.0  -0.6072
  O  O212  1  0.053900  0.568200  0.568200  1.0  -0.6023
  O  O213  1  0.828300  0.716900  0.716900  1.0  -0.6329
  O  O214  1  0.887700  0.781400  0.781400  1.0  -0.6084
  O  O215  1  0.568200  0.568200  0.053900  1.0  -0.6006
  O  O216  1  0.716900  0.716900  0.828300  1.0  -0.636
  O  O217  1  0.781400  0.781400  0.887700  1.0  -0.6093
  O  O218  1  0.431800  0.568200  0.946100  1.0  -0.6004
  O  O219  1  0.283100  0.716900  0.171700  1.0  -0.6357
  O  O220  1  0.218600  0.781400  0.112300  1.0  -0.6097
  O  O221  1  0.431800  0.431800  0.053900  1.0  -0.5998
  O  O222  1  0.283100  0.283100  0.828300  1.0  -0.6366
  O  O223  1  0.218600  0.218600  0.887700  1.0  -0.6084
  O  O224  1  0.568200  0.431800  0.946100  1.0  -0.6006
  O  O225  1  0.716900  0.283100  0.171700  1.0  -0.6369
  O  O226  1  0.781400  0.218600  0.112300  1.0  -0.6096
  O  O227  1  0.568200  0.946100  0.431800  1.0  -0.6011
  O  O228  1  0.716900  0.171700  0.283100  1.0  -0.6363
  O  O229  1  0.781400  0.112300  0.218600  1.0  -0.6073
  O  O230  1  0.568200  0.053900  0.568200  1.0  -0.6013
  O  O231  1  0.716900  0.828300  0.716900  1.0  -0.6356
  O  O232  1  0.781400  0.887700  0.781400  1.0  -0.6069
  O  O233  1  0.431800  0.946100  0.568200  1.0  -0.6012
  O  O234  1  0.283100  0.171700  0.716900  1.0  -0.6356
  O  O235  1  0.218600  0.112300  0.781400  1.0  -0.6067
  O  O236  1  0.431800  0.053900  0.431800  1.0  -0.6004
  O  O237  1  0.283100  0.828300  0.283100  1.0  -0.6352
  O  O238  1  0.218600  0.887700  0.218600  1.0  -0.6063
