# generated using pymatgen
data_Zn9H39C55(NO19)2
_symmetry_space_group_name_H-M   'P 1'
_cell_length_a   17.39800000
_cell_length_b   17.44100000
_cell_length_c   35.18800000
_cell_angle_alpha   90.00000000
_cell_angle_beta   90.00000000
_cell_angle_gamma   90.00000000
_symmetry_Int_Tables_number   1
_chemical_formula_structural   Zn9H39C55(NO19)2
_chemical_formula_sum   'Zn36 H156 C220 N8 O152'
_cell_volume   10677.39457138
_cell_formula_units_Z   4
loop_
 _symmetry_equiv_pos_site_id
 _symmetry_equiv_pos_as_xyz
  1  'x, y, z'
loop_
 _atom_site_type_symbol
 _atom_site_label
 _atom_site_symmetry_multiplicity
 _atom_site_fract_x
 _atom_site_fract_y
 _atom_site_fract_z
 _atom_site_occupancy
 _atom_site_charge
  Zn  Zn1  1  0.418860  0.200510  0.796460  1.0  1.0953
  Zn  Zn2  1  0.820940  0.197390  0.913270  1.0  1.093
  Zn  Zn3  1  0.987250  0.185320  0.871340  1.0  1.0894
  Zn  Zn4  1  0.973590  0.134890  0.963920  1.0  1.05
  Zn  Zn5  1  0.918860  0.299490  0.203540  1.0  1.0955
  Zn  Zn6  1  0.320940  0.302610  0.086730  1.0  1.0924
  Zn  Zn7  1  0.487250  0.314680  0.128660  1.0  1.089
  Zn  Zn8  1  0.473590  0.365110  0.036080  1.0  1.0501
  Zn  Zn9  1  0.581140  0.799490  0.296460  1.0  1.0943
  Zn  Zn10  1  0.179060  0.802610  0.413270  1.0  1.0935
  Zn  Zn11  1  0.012750  0.814680  0.371340  1.0  1.0895
  Zn  Zn12  1  0.026410  0.865110  0.463920  1.0  1.0499
  Zn  Zn13  1  0.081140  0.700510  0.703540  1.0  1.0935
  Zn  Zn14  1  0.679060  0.697390  0.586730  1.0  1.0929
  Zn  Zn15  1  0.512750  0.685320  0.628660  1.0  1.0886
  Zn  Zn16  1  0.526410  0.634890  0.536080  1.0  1.0505
  Zn  Zn17  1  0.581140  0.799490  0.203540  1.0  1.0947
  Zn  Zn18  1  0.179060  0.802610  0.086730  1.0  1.094
  Zn  Zn19  1  0.012750  0.814680  0.128660  1.0  1.0889
  Zn  Zn20  1  0.026410  0.865110  0.036080  1.0  1.0503
  Zn  Zn21  1  0.081140  0.700510  0.796460  1.0  1.0952
  Zn  Zn22  1  0.679060  0.697390  0.913270  1.0  1.0928
  Zn  Zn23  1  0.512750  0.685320  0.871340  1.0  1.0893
  Zn  Zn24  1  0.526410  0.634890  0.963920  1.0  1.0501
  Zn  Zn25  1  0.418860  0.200510  0.703540  1.0  1.0941
  Zn  Zn26  1  0.820940  0.197390  0.586730  1.0  1.0934
  Zn  Zn27  1  0.987250  0.185320  0.628660  1.0  1.0888
  Zn  Zn28  1  0.973590  0.134890  0.536080  1.0  1.0502
  Zn  Zn29  1  0.918860  0.299490  0.296460  1.0  1.0945
  Zn  Zn30  1  0.320940  0.302610  0.413270  1.0  1.0925
  Zn  Zn31  1  0.487250  0.314680  0.371340  1.0  1.0897
  Zn  Zn32  1  0.473590  0.365110  0.463920  1.0  1.0499
  Zn  Zn33  1  0.380310  0.042600  0.750000  1.0  1.0181
  Zn  Zn34  1  0.880310  0.457400  0.250000  1.0  1.0179
  Zn  Zn35  1  0.619690  0.957400  0.250000  1.0  1.0213
  Zn  Zn36  1  0.119690  0.542600  0.750000  1.0  1.0212
  H  H37  1  0.512200  0.919500  0.834200  1.0  0.1188
  H  H38  1  0.710100  0.930500  0.893400  1.0  0.1013
  H  H39  1  0.620500  0.119300  0.847400  1.0  0.0995
  H  H40  1  0.009900  0.928000  0.806500  1.0  0.1009
  H  H41  1  0.403100  0.266300  0.941600  1.0  0.0909
  H  H42  1  0.195300  0.235900  0.986700  1.0  0.0946
  H  H43  1  0.226400  0.204700  0.875100  1.0  0.1144
  H  H44  1  0.012200  0.580500  0.165800  1.0  0.1189
  H  H45  1  0.210100  0.569500  0.106600  1.0  0.1004
  H  H46  1  0.120500  0.380700  0.152600  1.0  0.1
  H  H47  1  0.509900  0.572000  0.193500  1.0  0.1015
  H  H48  1  0.903100  0.233700  0.058400  1.0  0.0911
  H  H49  1  0.695300  0.264100  0.013300  1.0  0.0956
  H  H50  1  0.726400  0.295300  0.124900  1.0  0.114
  H  H51  1  0.487800  0.080500  0.334200  1.0  0.1195
  H  H52  1  0.289900  0.069500  0.393400  1.0  0.1015
  H  H53  1  0.379500  0.880700  0.347400  1.0  0.1001
  H  H54  1  0.990100  0.072000  0.306500  1.0  0.1018
  H  H55  1  0.596900  0.733700  0.441600  1.0  0.0919
  H  H56  1  0.804700  0.764100  0.486700  1.0  0.0946
  H  H57  1  0.773600  0.795300  0.375100  1.0  0.1144
  H  H58  1  0.987800  0.419500  0.665800  1.0  0.1195
  H  H59  1  0.789900  0.430500  0.606600  1.0  0.1013
  H  H60  1  0.879500  0.619300  0.652600  1.0  0.0998
  H  H61  1  0.490100  0.428000  0.693500  1.0  0.102
  H  H62  1  0.096900  0.766300  0.558400  1.0  0.092
  H  H63  1  0.304700  0.735900  0.513300  1.0  0.0954
  H  H64  1  0.273600  0.704700  0.624900  1.0  0.1142
  H  H65  1  0.487800  0.080500  0.165800  1.0  0.1196
  H  H66  1  0.289900  0.069500  0.106600  1.0  0.1012
  H  H67  1  0.379500  0.880700  0.152600  1.0  0.0999
  H  H68  1  0.990100  0.072000  0.193500  1.0  0.1023
  H  H69  1  0.596900  0.733700  0.058400  1.0  0.092
  H  H70  1  0.804700  0.764100  0.013300  1.0  0.0953
  H  H71  1  0.773600  0.795300  0.124900  1.0  0.1141
  H  H72  1  0.987800  0.419500  0.834200  1.0  0.1193
  H  H73  1  0.789900  0.430500  0.893400  1.0  0.1016
  H  H74  1  0.879500  0.619300  0.847400  1.0  0.0999
  H  H75  1  0.490100  0.428000  0.806500  1.0  0.1014
  H  H76  1  0.096900  0.766300  0.941600  1.0  0.0921
  H  H77  1  0.304700  0.735900  0.986700  1.0  0.0946
  H  H78  1  0.273600  0.704700  0.875100  1.0  0.1145
  H  H79  1  0.512200  0.919500  0.665800  1.0  0.119
  H  H80  1  0.710100  0.930500  0.606600  1.0  0.1007
  H  H81  1  0.620500  0.119300  0.652600  1.0  0.0996
  H  H82  1  0.009900  0.928000  0.693500  1.0  0.1013
  H  H83  1  0.403100  0.266300  0.558400  1.0  0.0909
  H  H84  1  0.195300  0.235900  0.513300  1.0  0.0956
  H  H85  1  0.226400  0.204700  0.624900  1.0  0.1142
  H  H86  1  0.012200  0.580500  0.334200  1.0  0.1189
  H  H87  1  0.210100  0.569500  0.393400  1.0  0.1009
  H  H88  1  0.120500  0.380700  0.347400  1.0  0.1001
  H  H89  1  0.509900  0.572000  0.306500  1.0  0.1013
  H  H90  1  0.903100  0.233700  0.441600  1.0  0.0912
  H  H91  1  0.695300  0.264100  0.486700  1.0  0.0946
  H  H92  1  0.726400  0.295300  0.375100  1.0  0.1143
  H  H93  1  0.977800  0.125600  0.750000  1.0  0.1244
  H  H94  1  0.477800  0.374400  0.250000  1.0  0.1244
  H  H95  1  0.022200  0.874400  0.250000  1.0  0.1242
  H  H96  1  0.522200  0.625600  0.750000  1.0  0.1243
  H  H97  1  0.641000  0.251000  0.904900  1.0  0.099
  H  H98  1  0.655400  0.300000  0.941600  1.0  0.0772
  H  H99  1  0.551900  0.172400  0.935800  1.0  0.1142
  H  H100  1  0.616600  0.182300  0.966400  1.0  0.116
  H  H101  1  0.541100  0.231000  0.969100  1.0  0.1129
  H  H102  1  0.554400  0.427800  0.883000  1.0  0.0801
  H  H103  1  0.633800  0.414800  0.903200  1.0  0.0773
  H  H104  1  0.588300  0.316200  0.843900  1.0  0.1171
  H  H105  1  0.632300  0.392400  0.834500  1.0  0.1192
  H  H106  1  0.672300  0.328400  0.858800  1.0  0.1086
  H  H107  1  0.536000  0.353300  0.934200  1.0  0.2849
  H  H108  1  0.520600  0.306300  0.900800  1.0  0.2459
  H  H109  1  0.141000  0.249000  0.095100  1.0  0.0987
  H  H110  1  0.155400  0.200000  0.058400  1.0  0.077
  H  H111  1  0.051900  0.327600  0.064200  1.0  0.1139
  H  H112  1  0.116600  0.317700  0.033600  1.0  0.1161
  H  H113  1  0.041100  0.269000  0.030900  1.0  0.1138
  H  H114  1  0.054400  0.072200  0.117000  1.0  0.0814
  H  H115  1  0.133800  0.085200  0.096800  1.0  0.0766
  H  H116  1  0.088300  0.183800  0.156100  1.0  0.1171
  H  H117  1  0.132300  0.107600  0.165500  1.0  0.1188
  H  H118  1  0.172300  0.171600  0.141200  1.0  0.1058
  H  H119  1  0.036000  0.146700  0.065800  1.0  0.2866
  H  H120  1  0.020600  0.193700  0.099200  1.0  0.2462
  H  H121  1  0.359000  0.749000  0.404900  1.0  0.0995
  H  H122  1  0.344600  0.700000  0.441600  1.0  0.077
  H  H123  1  0.448100  0.827600  0.435800  1.0  0.1146
  H  H124  1  0.383400  0.817700  0.466400  1.0  0.1154
  H  H125  1  0.458900  0.769000  0.469100  1.0  0.1134
  H  H126  1  0.445600  0.572200  0.383000  1.0  0.0802
  H  H127  1  0.366200  0.585200  0.403200  1.0  0.0778
  H  H128  1  0.411700  0.683800  0.343900  1.0  0.1168
  H  H129  1  0.367700  0.607600  0.334500  1.0  0.1187
  H  H130  1  0.327700  0.671600  0.358800  1.0  0.1051
  H  H131  1  0.464000  0.646700  0.434200  1.0  0.2852
  H  H132  1  0.479400  0.693700  0.400800  1.0  0.2487
  H  H133  1  0.859000  0.751000  0.595100  1.0  0.0996
  H  H134  1  0.844600  0.800000  0.558400  1.0  0.0766
  H  H135  1  0.948100  0.672400  0.564200  1.0  0.1151
  H  H136  1  0.883400  0.682300  0.533600  1.0  0.1157
  H  H137  1  0.958900  0.731000  0.530900  1.0  0.1137
  H  H138  1  0.945600  0.927800  0.617000  1.0  0.0803
  H  H139  1  0.866200  0.914800  0.596800  1.0  0.0774
  H  H140  1  0.911700  0.816200  0.656100  1.0  0.1179
  H  H141  1  0.867700  0.892400  0.665500  1.0  0.1197
  H  H142  1  0.827700  0.828400  0.641200  1.0  0.1076
  H  H143  1  0.964000  0.853300  0.565800  1.0  0.2865
  H  H144  1  0.979400  0.806300  0.599200  1.0  0.2477
  H  H145  1  0.359000  0.749000  0.095100  1.0  0.0985
  H  H146  1  0.344600  0.700000  0.058400  1.0  0.0762
  H  H147  1  0.448100  0.827600  0.064200  1.0  0.1142
  H  H148  1  0.383400  0.817700  0.033600  1.0  0.1165
  H  H149  1  0.458900  0.769000  0.030900  1.0  0.114
  H  H150  1  0.445600  0.572200  0.117000  1.0  0.0808
  H  H151  1  0.366200  0.585200  0.096800  1.0  0.077
  H  H152  1  0.411700  0.683800  0.156100  1.0  0.1172
  H  H153  1  0.367700  0.607600  0.165500  1.0  0.1195
  H  H154  1  0.327700  0.671600  0.141200  1.0  0.1064
  H  H155  1  0.464000  0.646700  0.065800  1.0  0.286
  H  H156  1  0.479400  0.693700  0.099200  1.0  0.2485
  H  H157  1  0.859000  0.751000  0.904900  1.0  0.0992
  H  H158  1  0.844600  0.800000  0.941600  1.0  0.0763
  H  H159  1  0.948100  0.672400  0.935800  1.0  0.1145
  H  H160  1  0.883400  0.682300  0.966400  1.0  0.1163
  H  H161  1  0.958900  0.731000  0.969100  1.0  0.1131
  H  H162  1  0.945600  0.927800  0.883000  1.0  0.0802
  H  H163  1  0.866200  0.914800  0.903200  1.0  0.0774
  H  H164  1  0.911700  0.816200  0.843900  1.0  0.1165
  H  H165  1  0.867700  0.892400  0.834500  1.0  0.1189
  H  H166  1  0.827700  0.828400  0.858800  1.0  0.1061
  H  H167  1  0.964000  0.853300  0.934200  1.0  0.2846
  H  H168  1  0.979400  0.806300  0.900800  1.0  0.2476
  H  H169  1  0.641000  0.251000  0.595100  1.0  0.0993
  H  H170  1  0.655400  0.300000  0.558400  1.0  0.077
  H  H171  1  0.551900  0.172400  0.564200  1.0  0.1146
  H  H172  1  0.616600  0.182300  0.533600  1.0  0.115
  H  H173  1  0.541100  0.231000  0.530900  1.0  0.1133
  H  H174  1  0.554400  0.427800  0.617000  1.0  0.0805
  H  H175  1  0.633800  0.414800  0.596800  1.0  0.0773
  H  H176  1  0.588300  0.316200  0.656100  1.0  0.1178
  H  H177  1  0.632300  0.392400  0.665500  1.0  0.1192
  H  H178  1  0.672300  0.328400  0.641200  1.0  0.1067
  H  H179  1  0.536000  0.353300  0.565800  1.0  0.287
  H  H180  1  0.520600  0.306300  0.599200  1.0  0.2452
  H  H181  1  0.141000  0.249000  0.404900  1.0  0.0997
  H  H182  1  0.155400  0.200000  0.441600  1.0  0.0779
  H  H183  1  0.051900  0.327600  0.435800  1.0  0.1149
  H  H184  1  0.116600  0.317700  0.466400  1.0  0.1153
  H  H185  1  0.041100  0.269000  0.469100  1.0  0.1133
  H  H186  1  0.054400  0.072200  0.383000  1.0  0.0803
  H  H187  1  0.133800  0.085200  0.403200  1.0  0.077
  H  H188  1  0.088300  0.183800  0.343900  1.0  0.1176
  H  H189  1  0.132300  0.107600  0.334500  1.0  0.1189
  H  H190  1  0.172300  0.171600  0.358800  1.0  0.1084
  H  H191  1  0.036000  0.146700  0.434200  1.0  0.2858
  H  H192  1  0.020600  0.193700  0.400800  1.0  0.2474
  C  C193  1  0.498700  0.063000  0.812200  1.0  0.734
  C  C194  1  0.606000  0.827300  0.874210  1.0  0.7484
  C  C195  1  0.739000  0.077800  0.890150  1.0  0.6989
  C  C196  1  0.559500  0.025100  0.836100  1.0  -0.1684
  C  C197  1  0.553700  0.947200  0.843600  1.0  0.0264
  C  C198  1  0.610000  0.910000  0.865180  1.0  -0.1896
  C  C199  1  0.671200  0.954100  0.879650  1.0  0.0341
  C  C200  1  0.673800  0.032400  0.873530  1.0  -0.1488
  C  C201  1  0.618200  0.066800  0.851690  1.0  0.0318
  C  C202  1  0.989800  0.075900  0.821170  1.0  0.6894
  C  C203  1  0.995300  0.033100  0.784370  1.0  -0.1418
  C  C204  1  0.007600  0.954900  0.783700  1.0  -0.0177
  C  C205  1  0.113000  0.197700  0.924200  1.0  0.7518
  C  C206  1  0.334800  0.275300  0.008320  1.0  0.7096
  C  C207  1  0.376400  0.233300  0.869340  1.0  0.7014
  C  C208  1  0.323700  0.233300  0.902470  1.0  -0.1674
  C  C209  1  0.351500  0.253500  0.938600  1.0  0.0067
  C  C210  1  0.302800  0.254600  0.969980  1.0  -0.1668
  C  C211  1  0.227400  0.235800  0.965570  1.0  0.0216
  C  C212  1  0.197100  0.216400  0.930130  1.0  -0.1675
  C  C213  1  0.246100  0.216400  0.899020  1.0  0.015
  C  C214  1  0.990600  0.979300  0.981020  1.0  0.6219
  C  C215  1  0.998700  0.437000  0.187800  1.0  0.7344
  C  C216  1  0.106000  0.672700  0.125790  1.0  0.7487
  C  C217  1  0.239000  0.422200  0.109850  1.0  0.6978
  C  C218  1  0.059500  0.474900  0.163900  1.0  -0.1673
  C  C219  1  0.053700  0.552800  0.156400  1.0  0.0269
  C  C220  1  0.110000  0.590000  0.134820  1.0  -0.1893
  C  C221  1  0.171200  0.545900  0.120350  1.0  0.0342
  C  C222  1  0.173800  0.467600  0.126470  1.0  -0.1488
  C  C223  1  0.118200  0.433200  0.148310  1.0  0.0314
  C  C224  1  0.489800  0.424100  0.178830  1.0  0.691
  C  C225  1  0.495300  0.466900  0.215630  1.0  -0.1418
  C  C226  1  0.507600  0.545100  0.216300  1.0  -0.0188
  C  C227  1  0.613000  0.302300  0.075800  1.0  0.7513
  C  C228  1  0.834800  0.224700  0.991680  1.0  0.7098
  C  C229  1  0.876400  0.266700  0.130660  1.0  0.7015
  C  C230  1  0.823700  0.266700  0.097530  1.0  -0.1674
  C  C231  1  0.851500  0.246500  0.061400  1.0  0.0066
  C  C232  1  0.802800  0.245400  0.030020  1.0  -0.1665
  C  C233  1  0.727400  0.264200  0.034430  1.0  0.0214
  C  C234  1  0.697100  0.283600  0.069870  1.0  -0.1663
  C  C235  1  0.746100  0.283600  0.100980  1.0  0.0129
  C  C236  1  0.490600  0.520700  0.018980  1.0  0.6225
  C  C237  1  0.501300  0.937000  0.312200  1.0  0.7342
  C  C238  1  0.394000  0.172700  0.374210  1.0  0.7497
  C  C239  1  0.261000  0.922200  0.390150  1.0  0.6976
  C  C240  1  0.440500  0.974900  0.336100  1.0  -0.1691
  C  C241  1  0.446300  0.052800  0.343600  1.0  0.0273
  C  C242  1  0.390000  0.090000  0.365180  1.0  -0.1891
  C  C243  1  0.328800  0.045900  0.379650  1.0  0.0332
  C  C244  1  0.326200  0.967600  0.373530  1.0  -0.1483
  C  C245  1  0.381800  0.933200  0.351690  1.0  0.0325
  C  C246  1  0.010200  0.924100  0.321170  1.0  0.6902
  C  C247  1  0.004700  0.966900  0.284370  1.0  -0.1413
  C  C248  1  0.992400  0.045100  0.283700  1.0  -0.018
  C  C249  1  0.887000  0.802300  0.424200  1.0  0.7507
  C  C250  1  0.665200  0.724700  0.508320  1.0  0.7097
  C  C251  1  0.623600  0.766700  0.369340  1.0  0.7036
  C  C252  1  0.676300  0.766700  0.402470  1.0  -0.1672
  C  C253  1  0.648500  0.746500  0.438600  1.0  0.0069
  C  C254  1  0.697200  0.745400  0.469980  1.0  -0.1679
  C  C255  1  0.772600  0.764200  0.465570  1.0  0.0212
  C  C256  1  0.802900  0.783600  0.430130  1.0  -0.1669
  C  C257  1  0.753900  0.783600  0.399020  1.0  0.0137
  C  C258  1  0.009400  0.020700  0.481020  1.0  0.6226
  C  C259  1  0.001300  0.563000  0.687800  1.0  0.7342
  C  C260  1  0.894000  0.327300  0.625790  1.0  0.7517
  C  C261  1  0.761000  0.577800  0.609850  1.0  0.6975
  C  C262  1  0.940500  0.525100  0.663900  1.0  -0.1687
  C  C263  1  0.946300  0.447200  0.656400  1.0  0.0271
  C  C264  1  0.890000  0.410000  0.634820  1.0  -0.1893
  C  C265  1  0.828800  0.454100  0.620350  1.0  0.0338
  C  C266  1  0.826200  0.532400  0.626470  1.0  -0.1483
  C  C267  1  0.881800  0.566800  0.648310  1.0  0.0302
  C  C268  1  0.510200  0.575900  0.678830  1.0  0.6905
  C  C269  1  0.504700  0.533100  0.715630  1.0  -0.1414
  C  C270  1  0.492400  0.454900  0.716300  1.0  -0.0189
  C  C271  1  0.387000  0.697700  0.575800  1.0  0.7513
  C  C272  1  0.165200  0.775300  0.491680  1.0  0.7107
  C  C273  1  0.123600  0.733300  0.630660  1.0  0.7032
  C  C274  1  0.176300  0.733300  0.597530  1.0  -0.1676
  C  C275  1  0.148500  0.753500  0.561400  1.0  0.0069
  C  C276  1  0.197200  0.754600  0.530020  1.0  -0.167
  C  C277  1  0.272600  0.735800  0.534430  1.0  0.022
  C  C278  1  0.302900  0.716400  0.569870  1.0  -0.167
  C  C279  1  0.253900  0.716400  0.600980  1.0  0.0141
  C  C280  1  0.509400  0.479300  0.518980  1.0  0.6225
  C  C281  1  0.501300  0.937000  0.187800  1.0  0.7344
  C  C282  1  0.394000  0.172700  0.125790  1.0  0.7508
  C  C283  1  0.261000  0.922200  0.109850  1.0  0.6972
  C  C284  1  0.440500  0.974900  0.163900  1.0  -0.1687
  C  C285  1  0.446300  0.052800  0.156400  1.0  0.0265
  C  C286  1  0.390000  0.090000  0.134820  1.0  -0.1893
  C  C287  1  0.328800  0.045900  0.120350  1.0  0.0336
  C  C288  1  0.326200  0.967600  0.126470  1.0  -0.1483
  C  C289  1  0.381800  0.933200  0.148310  1.0  0.0312
  C  C290  1  0.010200  0.924100  0.178830  1.0  0.6912
  C  C291  1  0.004700  0.966900  0.215630  1.0  -0.1419
  C  C292  1  0.992400  0.045100  0.216300  1.0  -0.0187
  C  C293  1  0.887000  0.802300  0.075800  1.0  0.7513
  C  C294  1  0.665200  0.724700  0.991680  1.0  0.7106
  C  C295  1  0.623600  0.766700  0.130660  1.0  0.7034
  C  C296  1  0.676300  0.766700  0.097530  1.0  -0.1673
  C  C297  1  0.648500  0.746500  0.061400  1.0  0.0068
  C  C298  1  0.697200  0.745400  0.030020  1.0  -0.1673
  C  C299  1  0.772600  0.764200  0.034430  1.0  0.0219
  C  C300  1  0.802900  0.783600  0.069870  1.0  -0.1668
  C  C301  1  0.753900  0.783600  0.100980  1.0  0.0137
  C  C302  1  0.009400  0.020700  0.018980  1.0  0.624
  C  C303  1  0.001300  0.563000  0.812200  1.0  0.7337
  C  C304  1  0.894000  0.327300  0.874210  1.0  0.7508
  C  C305  1  0.761000  0.577800  0.890150  1.0  0.6979
  C  C306  1  0.940500  0.525100  0.836100  1.0  -0.1688
  C  C307  1  0.946300  0.447200  0.843600  1.0  0.0268
  C  C308  1  0.890000  0.410000  0.865180  1.0  -0.1889
  C  C309  1  0.828800  0.454100  0.879650  1.0  0.0336
  C  C310  1  0.826200  0.532400  0.873530  1.0  -0.1483
  C  C311  1  0.881800  0.566800  0.851690  1.0  0.0315
  C  C312  1  0.510200  0.575900  0.821170  1.0  0.6897
  C  C313  1  0.504700  0.533100  0.784370  1.0  -0.1413
  C  C314  1  0.492400  0.454900  0.783700  1.0  -0.0177
  C  C315  1  0.387000  0.697700  0.924200  1.0  0.7508
  C  C316  1  0.165200  0.775300  0.008320  1.0  0.7096
  C  C317  1  0.123600  0.733300  0.869340  1.0  0.7028
  C  C318  1  0.176300  0.733300  0.902470  1.0  -0.1679
  C  C319  1  0.148500  0.753500  0.938600  1.0  0.0069
  C  C320  1  0.197200  0.754600  0.969980  1.0  -0.1677
  C  C321  1  0.272600  0.735800  0.965570  1.0  0.0214
  C  C322  1  0.302900  0.716400  0.930130  1.0  -0.1672
  C  C323  1  0.253900  0.716400  0.899020  1.0  0.0141
  C  C324  1  0.509400  0.479300  0.981020  1.0  0.6236
  C  C325  1  0.498700  0.063000  0.687800  1.0  0.7342
  C  C326  1  0.606000  0.827300  0.625790  1.0  0.7492
  C  C327  1  0.739000  0.077800  0.609850  1.0  0.6983
  C  C328  1  0.559500  0.025100  0.663900  1.0  -0.1673
  C  C329  1  0.553700  0.947200  0.656400  1.0  0.0272
  C  C330  1  0.610000  0.910000  0.634820  1.0  -0.19
  C  C331  1  0.671200  0.954100  0.620350  1.0  0.034
  C  C332  1  0.673800  0.032400  0.626470  1.0  -0.1487
  C  C333  1  0.618200  0.066800  0.648310  1.0  0.0305
  C  C334  1  0.989800  0.075900  0.678830  1.0  0.6901
  C  C335  1  0.995300  0.033100  0.715630  1.0  -0.1414
  C  C336  1  0.007600  0.954900  0.716300  1.0  -0.0187
  C  C337  1  0.113000  0.197700  0.575800  1.0  0.7515
  C  C338  1  0.334800  0.275300  0.491680  1.0  0.7099
  C  C339  1  0.376400  0.233300  0.630660  1.0  0.7015
  C  C340  1  0.323700  0.233300  0.597530  1.0  -0.1675
  C  C341  1  0.351500  0.253500  0.561400  1.0  0.0069
  C  C342  1  0.302800  0.254600  0.530020  1.0  -0.1662
  C  C343  1  0.227400  0.235800  0.534430  1.0  0.0215
  C  C344  1  0.197100  0.216400  0.569870  1.0  -0.1666
  C  C345  1  0.246100  0.216400  0.600980  1.0  0.0135
  C  C346  1  0.990600  0.979300  0.518980  1.0  0.6233
  C  C347  1  0.998700  0.437000  0.312200  1.0  0.7347
  C  C348  1  0.106000  0.672700  0.374210  1.0  0.7477
  C  C349  1  0.239000  0.422200  0.390150  1.0  0.6983
  C  C350  1  0.059500  0.474900  0.336100  1.0  -0.1686
  C  C351  1  0.053700  0.552800  0.343600  1.0  0.0271
  C  C352  1  0.110000  0.590000  0.365180  1.0  -0.1891
  C  C353  1  0.171200  0.545900  0.379650  1.0  0.0339
  C  C354  1  0.173800  0.467600  0.373530  1.0  -0.1488
  C  C355  1  0.118200  0.433200  0.351690  1.0  0.0327
  C  C356  1  0.489800  0.424100  0.321170  1.0  0.6901
  C  C357  1  0.495300  0.466900  0.284370  1.0  -0.1416
  C  C358  1  0.507600  0.545100  0.283700  1.0  -0.0182
  C  C359  1  0.613000  0.302300  0.424200  1.0  0.7515
  C  C360  1  0.834800  0.224700  0.508320  1.0  0.7097
  C  C361  1  0.876400  0.266700  0.369340  1.0  0.702
  C  C362  1  0.823700  0.266700  0.402470  1.0  -0.167
  C  C363  1  0.851500  0.246500  0.438600  1.0  0.0066
  C  C364  1  0.802800  0.245400  0.469980  1.0  -0.1669
  C  C365  1  0.727400  0.264200  0.465570  1.0  0.0215
  C  C366  1  0.697100  0.283600  0.430130  1.0  -0.1671
  C  C367  1  0.746100  0.283600  0.399020  1.0  0.0147
  C  C368  1  0.490600  0.520700  0.481020  1.0  0.6234
  C  C369  1  0.035100  0.832100  0.750000  1.0  0.7562
  C  C370  1  0.987700  0.073200  0.750000  1.0  0.0372
  C  C371  1  0.016500  0.916000  0.750000  1.0  -0.1439
  C  C372  1  0.535100  0.667900  0.250000  1.0  0.7561
  C  C373  1  0.487700  0.426800  0.250000  1.0  0.0383
  C  C374  1  0.516500  0.584000  0.250000  1.0  -0.1438
  C  C375  1  0.964900  0.167900  0.250000  1.0  0.7549
  C  C376  1  0.012300  0.926800  0.250000  1.0  0.0386
  C  C377  1  0.983500  0.084000  0.250000  1.0  -0.143
  C  C378  1  0.464900  0.332100  0.750000  1.0  0.7548
  C  C379  1  0.512300  0.573200  0.750000  1.0  0.0378
  C  C380  1  0.483500  0.416000  0.750000  1.0  -0.1437
  C  C381  1  0.616300  0.274000  0.926800  1.0  -0.0017
  C  C382  1  0.577600  0.208400  0.952100  1.0  -0.3393
  C  C383  1  0.592600  0.389500  0.889600  1.0  0.0058
  C  C384  1  0.624300  0.353300  0.853300  1.0  -0.3394
  C  C385  1  0.116300  0.226000  0.073200  1.0  -0.0026
  C  C386  1  0.077600  0.291600  0.047900  1.0  -0.3387
  C  C387  1  0.092600  0.110500  0.110400  1.0  0.0045
  C  C388  1  0.124300  0.146700  0.146700  1.0  -0.3391
  C  C389  1  0.383700  0.726000  0.426800  1.0  -0.004
  C  C390  1  0.422400  0.791600  0.452100  1.0  -0.3386
  C  C391  1  0.407400  0.610500  0.389600  1.0  0.0049
  C  C392  1  0.375700  0.646700  0.353300  1.0  -0.3383
  C  C393  1  0.883700  0.774000  0.573200  1.0  -0.0044
  C  C394  1  0.922400  0.708400  0.547900  1.0  -0.3389
  C  C395  1  0.907400  0.889500  0.610400  1.0  0.0054
  C  C396  1  0.875700  0.853300  0.646700  1.0  -0.3396
  C  C397  1  0.383700  0.726000  0.073200  1.0  -0.0041
  C  C398  1  0.422400  0.791600  0.047900  1.0  -0.3391
  C  C399  1  0.407400  0.610500  0.110400  1.0  0.0043
  C  C400  1  0.375700  0.646700  0.146700  1.0  -0.3393
  C  C401  1  0.883700  0.774000  0.926800  1.0  -0.0035
  C  C402  1  0.922400  0.708400  0.952100  1.0  -0.3393
  C  C403  1  0.907400  0.889500  0.889600  1.0  0.0056
  C  C404  1  0.875700  0.853300  0.853300  1.0  -0.3383
  C  C405  1  0.616300  0.274000  0.573200  1.0  -0.0025
  C  C406  1  0.577600  0.208400  0.547900  1.0  -0.3376
  C  C407  1  0.592600  0.389500  0.610400  1.0  0.0056
  C  C408  1  0.624300  0.353300  0.646700  1.0  -0.3395
  C  C409  1  0.116300  0.226000  0.426800  1.0  -0.0024
  C  C410  1  0.077600  0.291600  0.452100  1.0  -0.34
  C  C411  1  0.092600  0.110500  0.389600  1.0  0.0049
  C  C412  1  0.124300  0.146700  0.353300  1.0  -0.3395
  N  N413  1  0.557800  0.330700  0.913830  1.0  -0.0899
  N  N414  1  0.057800  0.169300  0.086170  1.0  -0.0903
  N  N415  1  0.442200  0.669300  0.413830  1.0  -0.0869
  N  N416  1  0.942200  0.830700  0.586170  1.0  -0.0869
  N  N417  1  0.442200  0.669300  0.086170  1.0  -0.0871
  N  N418  1  0.942200  0.830700  0.913830  1.0  -0.0869
  N  N419  1  0.557800  0.330700  0.586170  1.0  -0.0901
  N  N420  1  0.057800  0.169300  0.413830  1.0  -0.0898
  O  O421  1  0.446600  0.025300  0.798900  1.0  -0.5782
  O  O422  1  0.505200  0.133600  0.807580  1.0  -0.5762
  O  O423  1  0.544600  0.793000  0.865270  1.0  -0.6128
  O  O424  1  0.662200  0.797700  0.889970  1.0  -0.6004
  O  O425  1  0.790900  0.043600  0.907300  1.0  -0.5519
  O  O426  1  0.737400  0.149400  0.886120  1.0  -0.5819
  O  O427  1  0.984000  0.148000  0.819930  1.0  -0.5904
  O  O428  1  0.993100  0.041900  0.851190  1.0  -0.568
  O  O429  1  0.040900  0.800600  0.718640  1.0  -0.5864
  O  O430  1  0.091200  0.192500  0.891310  1.0  -0.5685
  O  O431  1  0.073300  0.185700  0.954290  1.0  -0.6222
  O  O432  1  0.405700  0.287000  0.010340  1.0  -0.6151
  O  O433  1  0.288700  0.279000  0.035320  1.0  -0.5827
  O  O434  1  0.444100  0.254100  0.872380  1.0  -0.6119
  O  O435  1  0.346500  0.210100  0.838310  1.0  -0.5853
  O  O436  1  0.977800  0.019500  0.952750  1.0  -0.5437
  O  O437  1  0.993600  0.906800  0.982160  1.0  -0.5688
  O  O438  1  0.920200  0.143000  0.911210  1.0  -0.7579
  O  O439  1  0.946600  0.474700  0.201100  1.0  -0.5783
  O  O440  1  0.005200  0.366400  0.192420  1.0  -0.5761
  O  O441  1  0.044600  0.707000  0.134730  1.0  -0.6137
  O  O442  1  0.162200  0.702300  0.110030  1.0  -0.6006
  O  O443  1  0.290900  0.456400  0.092700  1.0  -0.5524
  O  O444  1  0.237400  0.350600  0.113880  1.0  -0.5823
  O  O445  1  0.484000  0.352000  0.180070  1.0  -0.592
  O  O446  1  0.493100  0.458100  0.148810  1.0  -0.5672
  O  O447  1  0.540900  0.699400  0.281360  1.0  -0.5867
  O  O448  1  0.591200  0.307500  0.108690  1.0  -0.5686
  O  O449  1  0.573300  0.314300  0.045710  1.0  -0.6222
  O  O450  1  0.905700  0.213000  0.989660  1.0  -0.6147
  O  O451  1  0.788700  0.221000  0.964680  1.0  -0.5829
  O  O452  1  0.944100  0.245900  0.127620  1.0  -0.6126
  O  O453  1  0.846500  0.289900  0.161690  1.0  -0.5844
  O  O454  1  0.477800  0.480500  0.047250  1.0  -0.5431
  O  O455  1  0.493600  0.593200  0.017840  1.0  -0.5676
  O  O456  1  0.420200  0.357000  0.088790  1.0  -0.759
  O  O457  1  0.553400  0.974700  0.298900  1.0  -0.5791
  O  O458  1  0.494800  0.866400  0.307580  1.0  -0.575
  O  O459  1  0.455400  0.207000  0.365270  1.0  -0.613
  O  O460  1  0.337800  0.202300  0.389970  1.0  -0.5999
  O  O461  1  0.209100  0.956400  0.407300  1.0  -0.5523
  O  O462  1  0.262600  0.850600  0.386120  1.0  -0.5832
  O  O463  1  0.016000  0.852000  0.319930  1.0  -0.5911
  O  O464  1  0.006900  0.958100  0.351190  1.0  -0.5674
  O  O465  1  0.959100  0.199400  0.218640  1.0  -0.5871
  O  O466  1  0.908800  0.807500  0.391310  1.0  -0.5678
  O  O467  1  0.926700  0.814300  0.454290  1.0  -0.6223
  O  O468  1  0.594300  0.713000  0.510340  1.0  -0.6146
  O  O469  1  0.711300  0.721000  0.535320  1.0  -0.583
  O  O470  1  0.555900  0.745900  0.372380  1.0  -0.608
  O  O471  1  0.653500  0.789900  0.338310  1.0  -0.5868
  O  O472  1  0.022200  0.980500  0.452750  1.0  -0.5445
  O  O473  1  0.006400  0.093200  0.482160  1.0  -0.5675
  O  O474  1  0.079800  0.857000  0.411210  1.0  -0.7592
  O  O475  1  0.053400  0.525300  0.701100  1.0  -0.5786
  O  O476  1  0.994800  0.633600  0.692420  1.0  -0.5762
  O  O477  1  0.955400  0.293000  0.634730  1.0  -0.6138
  O  O478  1  0.837800  0.297700  0.610030  1.0  -0.5999
  O  O479  1  0.709100  0.543600  0.592700  1.0  -0.553
  O  O480  1  0.762600  0.649400  0.613880  1.0  -0.582
  O  O481  1  0.516000  0.648000  0.680070  1.0  -0.5903
  O  O482  1  0.506900  0.541900  0.648810  1.0  -0.5675
  O  O483  1  0.459100  0.300600  0.781360  1.0  -0.5876
  O  O484  1  0.408800  0.692500  0.608690  1.0  -0.5689
  O  O485  1  0.426700  0.685700  0.545710  1.0  -0.6219
  O  O486  1  0.094300  0.787000  0.489660  1.0  -0.6146
  O  O487  1  0.211300  0.779000  0.464680  1.0  -0.5831
  O  O488  1  0.055900  0.754100  0.627620  1.0  -0.609
  O  O489  1  0.153500  0.710100  0.661690  1.0  -0.5864
  O  O490  1  0.522200  0.519500  0.547250  1.0  -0.5442
  O  O491  1  0.506400  0.406800  0.517840  1.0  -0.5688
  O  O492  1  0.579800  0.643000  0.588790  1.0  -0.7576
  O  O493  1  0.553400  0.974700  0.201100  1.0  -0.5791
  O  O494  1  0.494800  0.866400  0.192420  1.0  -0.5754
  O  O495  1  0.455400  0.207000  0.134730  1.0  -0.6136
  O  O496  1  0.337800  0.202300  0.110030  1.0  -0.5997
  O  O497  1  0.209100  0.956400  0.092700  1.0  -0.5527
  O  O498  1  0.262600  0.850600  0.113880  1.0  -0.5831
  O  O499  1  0.016000  0.852000  0.180070  1.0  -0.591
  O  O500  1  0.006900  0.958100  0.148810  1.0  -0.5674
  O  O501  1  0.959100  0.199400  0.281360  1.0  -0.5876
  O  O502  1  0.908800  0.807500  0.108690  1.0  -0.5688
  O  O503  1  0.926700  0.814300  0.045710  1.0  -0.6219
  O  O504  1  0.594300  0.713000  0.989660  1.0  -0.6141
  O  O505  1  0.711300  0.721000  0.964680  1.0  -0.5833
  O  O506  1  0.555900  0.745900  0.127620  1.0  -0.6089
  O  O507  1  0.653500  0.789900  0.161690  1.0  -0.5864
  O  O508  1  0.022200  0.980500  0.047250  1.0  -0.5443
  O  O509  1  0.006400  0.093200  0.017840  1.0  -0.5666
  O  O510  1  0.079800  0.857000  0.088790  1.0  -0.7589
  O  O511  1  0.053400  0.525300  0.798900  1.0  -0.5787
  O  O512  1  0.994800  0.633600  0.807580  1.0  -0.5759
  O  O513  1  0.955400  0.293000  0.865270  1.0  -0.6133
  O  O514  1  0.837800  0.297700  0.889970  1.0  -0.5999
  O  O515  1  0.709100  0.543600  0.907300  1.0  -0.5524
  O  O516  1  0.762600  0.649400  0.886120  1.0  -0.5826
  O  O517  1  0.516000  0.648000  0.819930  1.0  -0.5904
  O  O518  1  0.506900  0.541900  0.851190  1.0  -0.5676
  O  O519  1  0.459100  0.300600  0.718640  1.0  -0.5871
  O  O520  1  0.408800  0.692500  0.891310  1.0  -0.5681
  O  O521  1  0.426700  0.685700  0.954290  1.0  -0.6221
  O  O522  1  0.094300  0.787000  0.010340  1.0  -0.6146
  O  O523  1  0.211300  0.779000  0.035320  1.0  -0.583
  O  O524  1  0.055900  0.754100  0.872380  1.0  -0.6085
  O  O525  1  0.153500  0.710100  0.838310  1.0  -0.587
  O  O526  1  0.522200  0.519500  0.952750  1.0  -0.5449
  O  O527  1  0.506400  0.406800  0.982160  1.0  -0.5676
  O  O528  1  0.579800  0.643000  0.911210  1.0  -0.7578
  O  O529  1  0.446600  0.025300  0.701100  1.0  -0.578
  O  O530  1  0.505200  0.133600  0.692420  1.0  -0.5766
  O  O531  1  0.544600  0.793000  0.634730  1.0  -0.614
  O  O532  1  0.662200  0.797700  0.610030  1.0  -0.6009
  O  O533  1  0.790900  0.043600  0.592700  1.0  -0.5525
  O  O534  1  0.737400  0.149400  0.613880  1.0  -0.5812
  O  O535  1  0.984000  0.148000  0.680070  1.0  -0.5903
  O  O536  1  0.993100  0.041900  0.648810  1.0  -0.5675
  O  O537  1  0.040900  0.800600  0.781360  1.0  -0.5867
  O  O538  1  0.091200  0.192500  0.608690  1.0  -0.5688
  O  O539  1  0.073300  0.185700  0.545710  1.0  -0.622
  O  O540  1  0.405700  0.287000  0.489660  1.0  -0.6148
  O  O541  1  0.288700  0.279000  0.464680  1.0  -0.5827
  O  O542  1  0.444100  0.254100  0.627620  1.0  -0.6123
  O  O543  1  0.346500  0.210100  0.661690  1.0  -0.5843
  O  O544  1  0.977800  0.019500  0.547250  1.0  -0.5434
  O  O545  1  0.993600  0.906800  0.517840  1.0  -0.5671
  O  O546  1  0.920200  0.143000  0.588790  1.0  -0.7577
  O  O547  1  0.946600  0.474700  0.298900  1.0  -0.5785
  O  O548  1  0.005200  0.366400  0.307580  1.0  -0.5757
  O  O549  1  0.044600  0.707000  0.365270  1.0  -0.6128
  O  O550  1  0.162200  0.702300  0.389970  1.0  -0.6003
  O  O551  1  0.290900  0.456400  0.407300  1.0  -0.5521
  O  O552  1  0.237400  0.350600  0.386120  1.0  -0.5825
  O  O553  1  0.484000  0.352000  0.319930  1.0  -0.5922
  O  O554  1  0.493100  0.458100  0.351190  1.0  -0.5677
  O  O555  1  0.540900  0.699400  0.218640  1.0  -0.5864
  O  O556  1  0.591200  0.307500  0.391310  1.0  -0.5683
  O  O557  1  0.573300  0.314300  0.454290  1.0  -0.6224
  O  O558  1  0.905700  0.213000  0.510340  1.0  -0.6154
  O  O559  1  0.788700  0.221000  0.535320  1.0  -0.5827
  O  O560  1  0.944100  0.245900  0.372380  1.0  -0.6118
  O  O561  1  0.846500  0.289900  0.338310  1.0  -0.5845
  O  O562  1  0.477800  0.480500  0.452750  1.0  -0.5438
  O  O563  1  0.493600  0.593200  0.482160  1.0  -0.566
  O  O564  1  0.420200  0.357000  0.411210  1.0  -0.7592
  O  O565  1  0.366700  0.162200  0.750000  1.0  -0.8144
  O  O566  1  0.317000  0.963000  0.750000  1.0  -0.5042
  O  O567  1  0.866700  0.337800  0.250000  1.0  -0.8144
  O  O568  1  0.817000  0.537000  0.250000  1.0  -0.5041
  O  O569  1  0.633300  0.837800  0.250000  1.0  -0.8141
  O  O570  1  0.683000  0.037000  0.250000  1.0  -0.5025
  O  O571  1  0.133300  0.662200  0.750000  1.0  -0.814
  O  O572  1  0.183000  0.463000  0.750000  1.0  -0.5025
