# generated using pymatgen
data_Zn9H20(C27O19)2
_symmetry_space_group_name_H-M   'P 1'
_cell_length_a   20.31790000
_cell_length_b   20.31790000
_cell_length_c   20.31790000
_cell_angle_alpha   109.47120000
_cell_angle_beta   109.47120000
_cell_angle_gamma   109.47120000
_symmetry_Int_Tables_number   1
_chemical_formula_structural   Zn9H20(C27O19)2
_chemical_formula_sum   'Zn18 H40 C108 O76'
_cell_volume   6456.76375690
_cell_formula_units_Z   2
loop_
 _symmetry_equiv_pos_site_id
 _symmetry_equiv_pos_as_xyz
  1  'x, y, z'
loop_
 _atom_site_type_symbol
 _atom_site_label
 _atom_site_symmetry_multiplicity
 _atom_site_fract_x
 _atom_site_fract_y
 _atom_site_fract_z
 _atom_site_occupancy
 _atom_site_charge
  Zn  Zn1  1  0.520790  0.056200  0.946130  1.0  1.0851
  Zn  Zn2  1  0.110070  0.574660  0.053870  1.0  1.0852
  Zn  Zn3  1  0.889930  0.943800  0.464590  1.0  1.0845
  Zn  Zn4  1  0.479210  0.425340  0.535410  1.0  1.0876
  Zn  Zn5  1  0.946130  0.520790  0.056200  1.0  1.0859
  Zn  Zn6  1  0.053870  0.110070  0.574660  1.0  1.0858
  Zn  Zn7  1  0.464590  0.889930  0.943800  1.0  1.0859
  Zn  Zn8  1  0.535410  0.479210  0.425340  1.0  1.0847
  Zn  Zn9  1  0.056200  0.946130  0.520790  1.0  1.0848
  Zn  Zn10  1  0.574660  0.053870  0.110070  1.0  1.0863
  Zn  Zn11  1  0.943800  0.464590  0.889930  1.0  1.085
  Zn  Zn12  1  0.425340  0.535410  0.479210  1.0  1.0842
  Zn  Zn13  1  0.936580  0.436580  0.500000  1.0  1.1459
  Zn  Zn14  1  0.063420  0.563420  0.500000  1.0  1.1459
  Zn  Zn15  1  0.500000  0.936580  0.436580  1.0  1.1453
  Zn  Zn16  1  0.500000  0.063420  0.563420  1.0  1.1463
  Zn  Zn17  1  0.436580  0.500000  0.936580  1.0  1.1485
  Zn  Zn18  1  0.563420  0.500000  0.063420  1.0  1.1493
  H  H19  1  0.789800  0.275800  0.245400  1.0  0.1045
  H  H20  1  0.747400  0.258300  0.032300  1.0  0.105
  H  H21  1  0.935100  0.458900  0.237600  1.0  0.1071
  H  H22  1  0.030400  0.544400  0.754600  1.0  0.103
  H  H23  1  0.226000  0.715100  0.967700  1.0  0.1052
  H  H24  1  0.221300  0.697500  0.762400  1.0  0.1079
  H  H25  1  0.969600  0.724200  0.514000  1.0  0.1034
  H  H26  1  0.774000  0.741700  0.489100  1.0  0.1047
  H  H27  1  0.778700  0.541100  0.476200  1.0  0.1088
  H  H28  1  0.210200  0.455600  0.486000  1.0  0.1036
  H  H29  1  0.252600  0.284900  0.510900  1.0  0.1043
  H  H30  1  0.064900  0.302500  0.523800  1.0  0.1073
  H  H31  1  0.245400  0.789800  0.275800  1.0  0.1038
  H  H32  1  0.032300  0.747400  0.258300  1.0  0.1049
  H  H33  1  0.237600  0.935100  0.458900  1.0  0.1087
  H  H34  1  0.754600  0.030400  0.544400  1.0  0.1039
  H  H35  1  0.967700  0.226000  0.715100  1.0  0.1046
  H  H36  1  0.762400  0.221300  0.697500  1.0  0.1076
  H  H37  1  0.514000  0.969600  0.724200  1.0  0.1042
  H  H38  1  0.489100  0.774000  0.741700  1.0  0.1056
  H  H39  1  0.476200  0.778700  0.541100  1.0  0.108
  H  H40  1  0.486000  0.210200  0.455600  1.0  0.1042
  H  H41  1  0.510900  0.252600  0.284900  1.0  0.104
  H  H42  1  0.523800  0.064900  0.302500  1.0  0.107
  H  H43  1  0.275800  0.245400  0.789800  1.0  0.1033
  H  H44  1  0.258300  0.032300  0.747400  1.0  0.1062
  H  H45  1  0.458900  0.237600  0.935100  1.0  0.1083
  H  H46  1  0.544400  0.754600  0.030400  1.0  0.1038
  H  H47  1  0.715100  0.967700  0.226000  1.0  0.1048
  H  H48  1  0.697500  0.762400  0.221300  1.0  0.1075
  H  H49  1  0.724200  0.514000  0.969600  1.0  0.1041
  H  H50  1  0.741700  0.489100  0.774000  1.0  0.1046
  H  H51  1  0.541100  0.476200  0.778700  1.0  0.1062
  H  H52  1  0.455600  0.486000  0.210200  1.0  0.1033
  H  H53  1  0.284900  0.510900  0.252600  1.0  0.1047
  H  H54  1  0.302500  0.523800  0.064900  1.0  0.108
  H  H55  1  0.440880  0.000000  0.000000  1.0  0.3891
  H  H56  1  0.000000  0.440880  0.000000  1.0  0.3923
  H  H57  1  0.000000  0.000000  0.440880  1.0  0.3922
  H  H58  1  0.559120  0.559120  0.559120  1.0  0.3922
  C  C59  1  0.804020  0.298390  0.215830  1.0  0.0274
  C  C60  1  0.757410  0.254890  0.131940  1.0  -0.1576
  C  C61  1  0.778090  0.287540  0.088290  1.0  0.0292
  C  C62  1  0.844710  0.364340  0.126350  1.0  -0.1802
  C  C63  1  0.890780  0.407500  0.211240  1.0  0.0154
  C  C64  1  0.870650  0.374030  0.256020  1.0  -0.1914
  C  C65  1  0.681270  0.174880  0.091510  1.0  0.7242
  C  C66  1  0.920140  0.421140  0.345080  1.0  0.7013
  C  C67  1  0.864600  0.401200  0.077400  1.0  0.6792
  C  C68  1  0.082560  0.588190  0.784170  1.0  0.0293
  C  C69  1  0.122950  0.625470  0.868060  1.0  -0.1585
  C  C70  1  0.199250  0.689800  0.911710  1.0  0.031
  C  C71  1  0.237990  0.718360  0.873650  1.0  -0.1825
  C  C72  1  0.196260  0.679540  0.788760  1.0  0.0149
  C  C73  1  0.118010  0.614630  0.743980  1.0  -0.1915
  C  C74  1  0.083370  0.589760  0.908490  1.0  0.7274
  C  C75  1  0.076060  0.575060  0.654920  1.0  0.7022
  C  C76  1  0.323800  0.787200  0.922600  1.0  0.6756
  C  C77  1  0.917440  0.701610  0.505630  1.0  0.0286
  C  C78  1  0.877050  0.745110  0.502520  1.0  -0.1572
  C  C79  1  0.800750  0.712460  0.490550  1.0  0.0311
  C  C80  1  0.762010  0.635660  0.480370  1.0  -0.183
  C  C81  1  0.803740  0.592500  0.483280  1.0  0.016
  C  C82  1  0.881990  0.625970  0.496620  1.0  -0.1899
  C  C83  1  0.916630  0.825120  0.506390  1.0  0.7254
  C  C84  1  0.923940  0.578860  0.499000  1.0  0.6999
  C  C85  1  0.676200  0.598800  0.463400  1.0  0.6786
  C  C86  1  0.195980  0.411810  0.494370  1.0  0.0297
  C  C87  1  0.242590  0.374530  0.497480  1.0  -0.1576
  C  C88  1  0.221910  0.310200  0.509450  1.0  0.0311
  C  C89  1  0.155290  0.281640  0.519630  1.0  -0.1814
  C  C90  1  0.109220  0.320460  0.516720  1.0  0.0162
  C  C91  1  0.129350  0.385370  0.503380  1.0  -0.19
  C  C92  1  0.318730  0.410240  0.493610  1.0  0.723
  C  C93  1  0.079860  0.424940  0.501000  1.0  0.7012
  C  C94  1  0.135400  0.212800  0.536600  1.0  0.6778
  C  C95  1  0.215830  0.804020  0.298390  1.0  0.0289
  C  C96  1  0.131940  0.757410  0.254890  1.0  -0.1574
  C  C97  1  0.088290  0.778090  0.287540  1.0  0.032
  C  C98  1  0.126350  0.844710  0.364340  1.0  -0.1827
  C  C99  1  0.211240  0.890780  0.407500  1.0  0.0159
  C  C100  1  0.256020  0.870650  0.374030  1.0  -0.1901
  C  C101  1  0.091510  0.681270  0.174880  1.0  0.7241
  C  C102  1  0.345080  0.920140  0.421140  1.0  0.7002
  C  C103  1  0.077400  0.864600  0.401200  1.0  0.6783
  C  C104  1  0.784170  0.082560  0.588190  1.0  0.0295
  C  C105  1  0.868060  0.122950  0.625470  1.0  -0.1586
  C  C106  1  0.911710  0.199250  0.689800  1.0  0.0308
  C  C107  1  0.873650  0.237990  0.718360  1.0  -0.1818
  C  C108  1  0.788760  0.196260  0.679540  1.0  0.0154
  C  C109  1  0.743980  0.118010  0.614630  1.0  -0.1901
  C  C110  1  0.908490  0.083370  0.589760  1.0  0.7255
  C  C111  1  0.654920  0.076060  0.575060  1.0  0.7006
  C  C112  1  0.922600  0.323800  0.787200  1.0  0.6777
  C  C113  1  0.505630  0.917440  0.701610  1.0  0.0291
  C  C114  1  0.502520  0.877050  0.745110  1.0  -0.1586
  C  C115  1  0.490550  0.800750  0.712460  1.0  0.0317
  C  C116  1  0.480370  0.762010  0.635660  1.0  -0.1832
  C  C117  1  0.483280  0.803740  0.592500  1.0  0.0154
  C  C118  1  0.496620  0.881990  0.625970  1.0  -0.1907
  C  C119  1  0.506390  0.916630  0.825120  1.0  0.7268
  C  C120  1  0.499000  0.923940  0.578860  1.0  0.7021
  C  C121  1  0.463400  0.676200  0.598800  1.0  0.6774
  C  C122  1  0.494370  0.195980  0.411810  1.0  0.0261
  C  C123  1  0.497480  0.242590  0.374530  1.0  -0.1576
  C  C124  1  0.509450  0.221910  0.310200  1.0  0.0295
  C  C125  1  0.519630  0.155290  0.281640  1.0  -0.1809
  C  C126  1  0.516720  0.109220  0.320460  1.0  0.0163
  C  C127  1  0.503380  0.129350  0.385370  1.0  -0.1905
  C  C128  1  0.493610  0.318730  0.410240  1.0  0.7246
  C  C129  1  0.501000  0.079860  0.424940  1.0  0.7012
  C  C130  1  0.536600  0.135400  0.212800  1.0  0.6782
  C  C131  1  0.298390  0.215830  0.804020  1.0  0.0281
  C  C132  1  0.254890  0.131940  0.757410  1.0  -0.1587
  C  C133  1  0.287540  0.088290  0.778090  1.0  0.0317
  C  C134  1  0.364340  0.126350  0.844710  1.0  -0.1841
  C  C135  1  0.407500  0.211240  0.890780  1.0  0.0161
  C  C136  1  0.374030  0.256020  0.870650  1.0  -0.1893
  C  C137  1  0.174880  0.091510  0.681270  1.0  0.7235
  C  C138  1  0.421140  0.345080  0.920140  1.0  0.7015
  C  C139  1  0.401200  0.077400  0.864600  1.0  0.6768
  C  C140  1  0.588190  0.784170  0.082560  1.0  0.0291
  C  C141  1  0.625470  0.868060  0.122950  1.0  -0.1582
  C  C142  1  0.689800  0.911710  0.199250  1.0  0.0293
  C  C143  1  0.718360  0.873650  0.237990  1.0  -0.1837
  C  C144  1  0.679540  0.788760  0.196260  1.0  0.0165
  C  C145  1  0.614630  0.743980  0.118010  1.0  -0.1893
  C  C146  1  0.589760  0.908490  0.083370  1.0  0.7256
  C  C147  1  0.575060  0.654920  0.076060  1.0  0.7017
  C  C148  1  0.787200  0.922600  0.323800  1.0  0.6778
  C  C149  1  0.701610  0.505630  0.917440  1.0  0.0276
  C  C150  1  0.745110  0.502520  0.877050  1.0  -0.1578
  C  C151  1  0.712460  0.490550  0.800750  1.0  0.0294
  C  C152  1  0.635660  0.480370  0.762010  1.0  -0.1807
  C  C153  1  0.592500  0.483280  0.803740  1.0  0.0146
  C  C154  1  0.625970  0.496620  0.881990  1.0  -0.1901
  C  C155  1  0.825120  0.506390  0.916630  1.0  0.726
  C  C156  1  0.578860  0.499000  0.923940  1.0  0.7012
  C  C157  1  0.598800  0.463400  0.676200  1.0  0.6784
  C  C158  1  0.411810  0.494370  0.195980  1.0  0.0296
  C  C159  1  0.374530  0.497480  0.242590  1.0  -0.1578
  C  C160  1  0.310200  0.509450  0.221910  1.0  0.0299
  C  C161  1  0.281640  0.519630  0.155290  1.0  -0.1825
  C  C162  1  0.320460  0.516720  0.109220  1.0  0.0149
  C  C163  1  0.385370  0.503380  0.129350  1.0  -0.1911
  C  C164  1  0.410240  0.493610  0.318730  1.0  0.7256
  C  C165  1  0.424940  0.501000  0.079860  1.0  0.7018
  C  C166  1  0.212800  0.536600  0.135400  1.0  0.6773
  O  O167  1  0.636160  0.143660  0.018040  1.0  -0.6137
  O  O168  1  0.671160  0.145070  0.135090  1.0  -0.5994
  O  O169  1  0.979360  0.488770  0.377210  1.0  -0.6038
  O  O170  1  0.896020  0.387370  0.381070  1.0  -0.6262
  O  O171  1  0.924210  0.471680  0.117590  1.0  -0.5925
  O  O172  1  0.826460  0.363520  0.005040  1.0  -0.4378
  O  O173  1  0.125620  0.618120  0.981960  1.0  -0.6102
  O  O174  1  0.009980  0.536070  0.864910  1.0  -0.5997
  O  O175  1  0.111560  0.602150  0.622790  1.0  -0.604
  O  O176  1  0.006300  0.514950  0.618930  1.0  -0.6245
  O  O177  1  0.354090  0.806620  0.882410  1.0  -0.5929
  O  O178  1  0.358480  0.821420  0.994960  1.0  -0.436
  O  O179  1  0.874380  0.856340  0.492500  1.0  -0.6095
  O  O180  1  0.990020  0.854930  0.526090  1.0  -0.5999
  O  O181  1  0.888440  0.511230  0.490590  1.0  -0.6047
  O  O182  1  0.993700  0.612630  0.508650  1.0  -0.6268
  O  O183  1  0.645910  0.528320  0.452530  1.0  -0.593
  O  O184  1  0.641520  0.636480  0.462940  1.0  -0.4399
  O  O185  1  0.363840  0.381880  0.507500  1.0  -0.6088
  O  O186  1  0.328840  0.463930  0.473910  1.0  -0.5981
  O  O187  1  0.020640  0.397850  0.509410  1.0  -0.6047
  O  O188  1  0.103980  0.485050  0.491350  1.0  -0.6266
  O  O189  1  0.075790  0.193380  0.547470  1.0  -0.593
  O  O190  1  0.173540  0.178580  0.537060  1.0  -0.4391
  O  O191  1  0.018040  0.636160  0.143660  1.0  -0.6136
  O  O192  1  0.135090  0.671160  0.145070  1.0  -0.5971
  O  O193  1  0.377210  0.979360  0.488770  1.0  -0.6044
  O  O194  1  0.381070  0.896020  0.387370  1.0  -0.625
  O  O195  1  0.117590  0.924210  0.471680  1.0  -0.5931
  O  O196  1  0.005040  0.826460  0.363520  1.0  -0.4401
  O  O197  1  0.981960  0.125620  0.618120  1.0  -0.6094
  O  O198  1  0.864910  0.009980  0.536070  1.0  -0.5997
  O  O199  1  0.622790  0.111560  0.602150  1.0  -0.6042
  O  O200  1  0.618930  0.006300  0.514950  1.0  -0.6265
  O  O201  1  0.882410  0.354090  0.806620  1.0  -0.5926
  O  O202  1  0.994960  0.358480  0.821420  1.0  -0.4404
  O  O203  1  0.492500  0.874380  0.856340  1.0  -0.6098
  O  O204  1  0.526090  0.990020  0.854930  1.0  -0.6002
  O  O205  1  0.490590  0.888440  0.511230  1.0  -0.6049
  O  O206  1  0.508650  0.993700  0.612630  1.0  -0.6258
  O  O207  1  0.452530  0.645910  0.528320  1.0  -0.5927
  O  O208  1  0.462940  0.641520  0.636480  1.0  -0.434
  O  O209  1  0.507500  0.363840  0.381880  1.0  -0.6081
  O  O210  1  0.473910  0.328840  0.463930  1.0  -0.5997
  O  O211  1  0.509410  0.020640  0.397850  1.0  -0.6045
  O  O212  1  0.491350  0.103980  0.485050  1.0  -0.6255
  O  O213  1  0.547470  0.075790  0.193380  1.0  -0.5928
  O  O214  1  0.537060  0.173540  0.178580  1.0  -0.4391
  O  O215  1  0.143660  0.018040  0.636160  1.0  -0.6138
  O  O216  1  0.145070  0.135090  0.671160  1.0  -0.5992
  O  O217  1  0.488770  0.377210  0.979360  1.0  -0.6041
  O  O218  1  0.387370  0.381070  0.896020  1.0  -0.6256
  O  O219  1  0.471680  0.117590  0.924210  1.0  -0.5939
  O  O220  1  0.363520  0.005040  0.826460  1.0  -0.4348
  O  O221  1  0.618120  0.981960  0.125620  1.0  -0.6101
  O  O222  1  0.536070  0.864910  0.009980  1.0  -0.5986
  O  O223  1  0.602150  0.622790  0.111560  1.0  -0.604
  O  O224  1  0.514950  0.618930  0.006300  1.0  -0.6251
  O  O225  1  0.806620  0.882410  0.354090  1.0  -0.5928
  O  O226  1  0.821420  0.994960  0.358480  1.0  -0.4332
  O  O227  1  0.856340  0.492500  0.874380  1.0  -0.6098
  O  O228  1  0.854930  0.526090  0.990020  1.0  -0.6019
  O  O229  1  0.511230  0.490590  0.888440  1.0  -0.6042
  O  O230  1  0.612630  0.508650  0.993700  1.0  -0.6262
  O  O231  1  0.528320  0.452530  0.645910  1.0  -0.5938
  O  O232  1  0.636480  0.462940  0.641520  1.0  -0.4376
  O  O233  1  0.381880  0.507500  0.363840  1.0  -0.6096
  O  O234  1  0.463930  0.473910  0.328840  1.0  -0.5996
  O  O235  1  0.397850  0.509410  0.020640  1.0  -0.6043
  O  O236  1  0.485050  0.491350  0.103980  1.0  -0.6258
  O  O237  1  0.193380  0.547470  0.075790  1.0  -0.5936
  O  O238  1  0.178580  0.537060  0.173540  1.0  -0.4345
  O  O239  1  0.489080  0.000000  0.000000  1.0  -0.8535
  O  O240  1  0.000000  0.489080  0.000000  1.0  -0.8517
  O  O241  1  0.000000  0.000000  0.489080  1.0  -0.85
  O  O242  1  0.510920  0.510920  0.510920  1.0  -0.8493
