# generated using pymatgen
data_ZnH11C11NO6
_symmetry_space_group_name_H-M   'P 1'
_cell_length_a   9.32000000
_cell_length_b   12.60800000
_cell_length_c   16.10700000
_cell_angle_alpha   90.00000000
_cell_angle_beta   90.00000000
_cell_angle_gamma   100.94200000
_symmetry_Int_Tables_number   1
_chemical_formula_structural   ZnH11C11NO6
_chemical_formula_sum   'Zn4 H44 C44 N4 O24'
_cell_volume   1858.26896005
_cell_formula_units_Z   4
loop_
 _symmetry_equiv_pos_site_id
 _symmetry_equiv_pos_as_xyz
  1  'x, y, z'
loop_
 _atom_site_type_symbol
 _atom_site_label
 _atom_site_symmetry_multiplicity
 _atom_site_fract_x
 _atom_site_fract_y
 _atom_site_fract_z
 _atom_site_occupancy
 _atom_site_charge
  Zn  Zn1  1  0.367290  0.023260  0.912580  1.0  1.0537
  Zn  Zn2  1  0.132710  0.476740  0.412580  1.0  1.0542
  Zn  Zn3  1  0.632710  0.976740  0.087420  1.0  1.0544
  Zn  Zn4  1  0.867290  0.523260  0.587420  1.0  1.0539
  H  H5  1  0.958000  0.090600  0.917900  1.0  0.0903
  H  H6  1  0.084500  0.295800  0.730900  1.0  0.0944
  H  H7  1  0.667600  0.240300  0.806800  1.0  0.0936
  H  H8  1  0.542000  0.409400  0.417900  1.0  0.0902
  H  H9  1  0.415500  0.204200  0.230900  1.0  0.0941
  H  H10  1  0.832400  0.259700  0.306800  1.0  0.0947
  H  H11  1  0.042000  0.909400  0.082100  1.0  0.0905
  H  H12  1  0.915500  0.704200  0.269100  1.0  0.0941
  H  H13  1  0.332400  0.759700  0.193200  1.0  0.0948
  H  H14  1  0.458000  0.590600  0.582100  1.0  0.0904
  H  H15  1  0.584500  0.795800  0.769100  1.0  0.0941
  H  H16  1  0.167600  0.740300  0.693200  1.0  0.0939
  H  H17  1  0.060000  0.714900  0.953000  1.0  0.1222
  H  H18  1  0.990800  0.614100  0.899700  1.0  0.1228
  H  H19  1  0.901500  0.652500  0.972600  1.0  0.112
  H  H20  1  0.806500  0.824300  0.952800  1.0  0.1215
  H  H21  1  0.823800  0.874800  0.863500  1.0  0.1224
  H  H22  1  0.957500  0.891600  0.924300  1.0  0.1236
  H  H23  1  0.834600  0.703100  0.850400  1.0  0.2706
  H  H24  1  0.980500  0.762600  0.834200  1.0  0.2839
  H  H25  1  0.440000  0.785100  0.453000  1.0  0.1222
  H  H26  1  0.509200  0.885900  0.399700  1.0  0.1232
  H  H27  1  0.598500  0.847500  0.472600  1.0  0.1119
  H  H28  1  0.693500  0.675700  0.452800  1.0  0.1207
  H  H29  1  0.676200  0.625200  0.363500  1.0  0.1233
  H  H30  1  0.542500  0.608400  0.424300  1.0  0.1254
  H  H31  1  0.665400  0.796900  0.350400  1.0  0.2659
  H  H32  1  0.519500  0.737400  0.334200  1.0  0.2857
  H  H33  1  0.940000  0.285100  0.047000  1.0  0.1219
  H  H34  1  0.009200  0.385900  0.100300  1.0  0.123
  H  H35  1  0.098500  0.347500  0.027400  1.0  0.1118
  H  H36  1  0.193500  0.175700  0.047200  1.0  0.1212
  H  H37  1  0.176200  0.125200  0.136500  1.0  0.1215
  H  H38  1  0.042500  0.108400  0.075700  1.0  0.125
  H  H39  1  0.165400  0.296900  0.149600  1.0  0.2627
  H  H40  1  0.019500  0.237400  0.165800  1.0  0.2802
  H  H41  1  0.560000  0.214900  0.547000  1.0  0.1221
  H  H42  1  0.490800  0.114100  0.600300  1.0  0.1231
  H  H43  1  0.401500  0.152500  0.527400  1.0  0.1108
  H  H44  1  0.306500  0.324300  0.547200  1.0  0.1193
  H  H45  1  0.323800  0.374800  0.636500  1.0  0.1213
  H  H46  1  0.457500  0.391600  0.575700  1.0  0.1219
  H  H47  1  0.334600  0.203100  0.649600  1.0  0.2697
  H  H48  1  0.480500  0.262600  0.665800  1.0  0.2775
  C  C49  1  0.793900  0.158000  0.872400  1.0  -0.185
  C  C50  1  0.935700  0.138100  0.877800  1.0  -0.0014
  C  C51  1  0.044000  0.188200  0.824000  1.0  -0.1743
  C  C52  1  0.011300  0.260200  0.765700  1.0  0.0103
  C  C53  1  0.869800  0.280100  0.758500  1.0  -0.1597
  C  C54  1  0.762500  0.228000  0.811800  1.0  0.0253
  C  C55  1  0.679100  0.103000  0.932000  1.0  0.714
  C  C56  1  0.196600  0.162300  0.830500  1.0  0.7168
  C  C57  1  0.832700  0.356900  0.693800  1.0  0.6935
  C  C58  1  0.706100  0.342000  0.372400  1.0  -0.1859
  C  C59  1  0.564300  0.361900  0.377800  1.0  -0.0021
  C  C60  1  0.456000  0.311800  0.324000  1.0  -0.1743
  C  C61  1  0.488700  0.239800  0.265700  1.0  0.0094
  C  C62  1  0.630200  0.219900  0.258500  1.0  -0.1603
  C  C63  1  0.737500  0.272000  0.311800  1.0  0.0257
  C  C64  1  0.820900  0.397000  0.432000  1.0  0.7138
  C  C65  1  0.303400  0.337700  0.330500  1.0  0.7173
  C  C66  1  0.667300  0.143100  0.193800  1.0  0.6933
  C  C67  1  0.206100  0.842000  0.127600  1.0  -0.1857
  C  C68  1  0.064300  0.861900  0.122200  1.0  -0.0033
  C  C69  1  0.956000  0.811800  0.176000  1.0  -0.1735
  C  C70  1  0.988700  0.739800  0.234300  1.0  0.0092
  C  C71  1  0.130200  0.719900  0.241500  1.0  -0.1602
  C  C72  1  0.237500  0.772000  0.188200  1.0  0.026
  C  C73  1  0.320900  0.897000  0.068000  1.0  0.7135
  C  C74  1  0.803400  0.837700  0.169500  1.0  0.7177
  C  C75  1  0.167300  0.643100  0.306200  1.0  0.6935
  C  C76  1  0.293900  0.658000  0.627600  1.0  -0.1854
  C  C77  1  0.435700  0.638100  0.622200  1.0  -0.0024
  C  C78  1  0.544000  0.688200  0.676000  1.0  -0.174
  C  C79  1  0.511300  0.760200  0.734300  1.0  0.0102
  C  C80  1  0.369800  0.780100  0.741500  1.0  -0.1601
  C  C81  1  0.262500  0.728000  0.688200  1.0  0.0255
  C  C82  1  0.179100  0.603000  0.568000  1.0  0.7141
  C  C83  1  0.696600  0.662300  0.669500  1.0  0.7171
  C  C84  1  0.332700  0.856900  0.806200  1.0  0.6935
  C  C85  1  0.971000  0.675900  0.929200  1.0  -0.2122
  C  C86  1  0.871800  0.842000  0.906600  1.0  -0.2146
  C  C87  1  0.529000  0.824100  0.429200  1.0  -0.2157
  C  C88  1  0.628200  0.658000  0.406600  1.0  -0.2141
  C  C89  1  0.029000  0.324100  0.070800  1.0  -0.2155
  C  C90  1  0.128200  0.158000  0.093400  1.0  -0.2139
  C  C91  1  0.471000  0.175900  0.570800  1.0  -0.213
  C  C92  1  0.371800  0.342000  0.593400  1.0  -0.2137
  N  N93  1  0.914000  0.743000  0.874500  1.0  -0.0369
  N  N94  1  0.586000  0.757000  0.374500  1.0  -0.0371
  N  N95  1  0.086000  0.257000  0.125500  1.0  -0.0367
  N  N96  1  0.414000  0.243000  0.625500  1.0  -0.0375
  O  O97  1  0.553700  0.125000  0.925700  1.0  -0.636
  O  O98  1  0.716500  0.039100  0.982900  1.0  -0.6092
  O  O99  1  0.214100  0.102000  0.891200  1.0  -0.6375
  O  O100  1  0.290200  0.198400  0.780000  1.0  -0.636
  O  O101  1  0.936700  0.424500  0.664000  1.0  -0.6186
  O  O102  1  0.703000  0.351600  0.673300  1.0  -0.6401
  O  O103  1  0.946300  0.375000  0.425700  1.0  -0.6358
  O  O104  1  0.783500  0.460900  0.482900  1.0  -0.6093
  O  O105  1  0.285900  0.398000  0.391200  1.0  -0.6373
  O  O106  1  0.209800  0.301600  0.280000  1.0  -0.6366
  O  O107  1  0.563300  0.075500  0.164000  1.0  -0.6193
  O  O108  1  0.797000  0.148400  0.173300  1.0  -0.6414
  O  O109  1  0.446300  0.875000  0.074300  1.0  -0.6361
  O  O110  1  0.283500  0.960900  0.017100  1.0  -0.6093
  O  O111  1  0.785900  0.898000  0.108800  1.0  -0.638
  O  O112  1  0.709800  0.801600  0.220000  1.0  -0.6359
  O  O113  1  0.063300  0.575500  0.336000  1.0  -0.6191
  O  O114  1  0.297000  0.648400  0.326700  1.0  -0.6406
  O  O115  1  0.053700  0.625000  0.574300  1.0  -0.6364
  O  O116  1  0.216500  0.539100  0.517100  1.0  -0.6098
  O  O117  1  0.714100  0.602000  0.608800  1.0  -0.6376
  O  O118  1  0.790200  0.698400  0.720000  1.0  -0.6348
  O  O119  1  0.436700  0.924500  0.836000  1.0  -0.6183
  O  O120  1  0.203000  0.851600  0.826700  1.0  -0.6398
