# generated using pymatgen
data_Zn3P4(HO3)4
_symmetry_space_group_name_H-M   'P 1'
_cell_length_a   15.78300000
_cell_length_b   8.37800000
_cell_length_c   15.95500000
_cell_angle_alpha   90.00000000
_cell_angle_beta   111.50000000
_cell_angle_gamma   90.00000000
_symmetry_Int_Tables_number   1
_chemical_formula_structural   Zn3P4(HO3)4
_chemical_formula_sum   'Zn12 P16 H16 O48'
_cell_volume   1962.92914409
_cell_formula_units_Z   4
loop_
 _symmetry_equiv_pos_site_id
 _symmetry_equiv_pos_as_xyz
  1  'x, y, z'
loop_
 _atom_site_type_symbol
 _atom_site_label
 _atom_site_symmetry_multiplicity
 _atom_site_fract_x
 _atom_site_fract_y
 _atom_site_fract_z
 _atom_site_occupancy
 _atom_site_charge
  Zn  Zn1  1  0.363280  0.638950  0.474520  1.0  1.1584
  Zn  Zn2  1  0.863280  0.138950  0.474520  1.0  1.1584
  Zn  Zn3  1  0.636720  0.638950  0.025480  1.0  1.159
  Zn  Zn4  1  0.136720  0.138950  0.025480  1.0  1.159
  Zn  Zn5  1  0.636720  0.361050  0.525480  1.0  1.1587
  Zn  Zn6  1  0.136720  0.861050  0.525480  1.0  1.1587
  Zn  Zn7  1  0.363280  0.361050  0.974520  1.0  1.158
  Zn  Zn8  1  0.863280  0.861050  0.974520  1.0  1.158
  Zn  Zn9  1  0.000000  0.869080  0.250000  1.0  1.1563
  Zn  Zn10  1  0.500000  0.369080  0.250000  1.0  1.1563
  Zn  Zn11  1  0.000000  0.130920  0.750000  1.0  1.1566
  Zn  Zn12  1  0.500000  0.630920  0.750000  1.0  1.1566
  P  P13  1  0.154720  0.633620  0.364530  1.0  1.5206
  P  P14  1  0.021150  0.126980  0.400410  1.0  1.5916
  P  P15  1  0.654720  0.133620  0.364530  1.0  1.5206
  P  P16  1  0.521150  0.626980  0.400410  1.0  1.5916
  P  P17  1  0.845280  0.633620  0.135470  1.0  1.5204
  P  P18  1  0.978850  0.126980  0.099590  1.0  1.5893
  P  P19  1  0.345280  0.133620  0.135470  1.0  1.5204
  P  P20  1  0.478850  0.626980  0.099590  1.0  1.5893
  P  P21  1  0.845280  0.366380  0.635470  1.0  1.5187
  P  P22  1  0.978850  0.873020  0.599590  1.0  1.591
  P  P23  1  0.345280  0.866380  0.635470  1.0  1.5187
  P  P24  1  0.478850  0.373020  0.599590  1.0  1.591
  P  P25  1  0.154720  0.366380  0.864530  1.0  1.5184
  P  P26  1  0.021150  0.873020  0.900410  1.0  1.5922
  P  P27  1  0.654720  0.866380  0.864530  1.0  1.5184
  P  P28  1  0.521150  0.373020  0.900410  1.0  1.5922
  H  H29  1  0.110400  0.498000  0.341600  1.0  -0.0628
  H  H30  1  0.048100  0.225000  0.352600  1.0  -0.0929
  H  H31  1  0.610400  0.998000  0.341600  1.0  -0.0628
  H  H32  1  0.548100  0.725000  0.352600  1.0  -0.0929
  H  H33  1  0.889600  0.498000  0.158400  1.0  -0.0609
  H  H34  1  0.951900  0.225000  0.147400  1.0  -0.0986
  H  H35  1  0.389600  0.998000  0.158400  1.0  -0.0609
  H  H36  1  0.451900  0.725000  0.147400  1.0  -0.0986
  H  H37  1  0.889600  0.502000  0.658400  1.0  -0.061
  H  H38  1  0.951900  0.775000  0.647400  1.0  -0.0985
  H  H39  1  0.389600  0.002000  0.658400  1.0  -0.061
  H  H40  1  0.451900  0.275000  0.647400  1.0  -0.0985
  H  H41  1  0.110400  0.502000  0.841600  1.0  -0.0622
  H  H42  1  0.048100  0.775000  0.852600  1.0  -0.0926
  H  H43  1  0.610400  0.002000  0.841600  1.0  -0.0622
  H  H44  1  0.548100  0.275000  0.852600  1.0  -0.0926
  O  O45  1  0.251080  0.595700  0.373400  1.0  -0.7273
  O  O46  1  0.143900  0.685900  0.450380  1.0  -0.8754
  O  O47  1  0.111710  0.747200  0.286350  1.0  -0.7738
  O  O48  1  0.957610  0.218000  0.434000  1.0  -0.7567
  O  O49  1  0.975070  0.985400  0.342290  1.0  -0.8055
  O  O50  1  0.109370  0.078300  0.476540  1.0  -0.7545
  O  O51  1  0.751080  0.095700  0.373400  1.0  -0.727
  O  O52  1  0.643900  0.185900  0.450380  1.0  -0.8754
  O  O53  1  0.611710  0.247200  0.286350  1.0  -0.7738
  O  O54  1  0.457610  0.718000  0.434000  1.0  -0.7567
  O  O55  1  0.475070  0.485400  0.342290  1.0  -0.8055
  O  O56  1  0.609370  0.578300  0.476540  1.0  -0.7545
  O  O57  1  0.748920  0.595700  0.126600  1.0  -0.7266
  O  O58  1  0.856100  0.685900  0.049620  1.0  -0.8732
  O  O59  1  0.888290  0.747200  0.213650  1.0  -0.7737
  O  O60  1  0.042390  0.218000  0.066000  1.0  -0.7538
  O  O61  1  0.024930  0.985400  0.157710  1.0  -0.8056
  O  O62  1  0.890630  0.078300  0.023460  1.0  -0.7533
  O  O63  1  0.248920  0.095700  0.126600  1.0  -0.7264
  O  O64  1  0.356100  0.185900  0.049620  1.0  -0.8732
  O  O65  1  0.388290  0.247200  0.213650  1.0  -0.7737
  O  O66  1  0.542390  0.718000  0.066000  1.0  -0.7538
  O  O67  1  0.524930  0.485400  0.157710  1.0  -0.8056
  O  O68  1  0.390630  0.578300  0.023460  1.0  -0.7533
  O  O69  1  0.748920  0.404300  0.626600  1.0  -0.7267
  O  O70  1  0.856100  0.314100  0.549620  1.0  -0.873
  O  O71  1  0.888290  0.252800  0.713650  1.0  -0.7743
  O  O72  1  0.042390  0.782000  0.566000  1.0  -0.7545
  O  O73  1  0.024930  0.014600  0.657710  1.0  -0.8052
  O  O74  1  0.890630  0.921700  0.523460  1.0  -0.7534
  O  O75  1  0.248920  0.904300  0.626600  1.0  -0.7267
  O  O76  1  0.356100  0.814100  0.549620  1.0  -0.873
  O  O77  1  0.388290  0.752800  0.713650  1.0  -0.7743
  O  O78  1  0.542390  0.282000  0.566000  1.0  -0.7545
  O  O79  1  0.524930  0.514600  0.657710  1.0  -0.8052
  O  O80  1  0.390630  0.421700  0.523460  1.0  -0.7534
  O  O81  1  0.251080  0.404300  0.873400  1.0  -0.7269
  O  O82  1  0.143900  0.314100  0.950380  1.0  -0.8754
  O  O83  1  0.111710  0.252800  0.786350  1.0  -0.7741
  O  O84  1  0.957610  0.782000  0.934000  1.0  -0.757
  O  O85  1  0.975070  0.014600  0.842290  1.0  -0.8054
  O  O86  1  0.109370  0.921700  0.976540  1.0  -0.7551
  O  O87  1  0.751080  0.904300  0.873400  1.0  -0.7269
  O  O88  1  0.643900  0.814100  0.950380  1.0  -0.8754
  O  O89  1  0.611710  0.752800  0.786350  1.0  -0.7741
  O  O90  1  0.457610  0.282000  0.934000  1.0  -0.757
  O  O91  1  0.475070  0.514600  0.842290  1.0  -0.8054
  O  O92  1  0.609370  0.421700  0.976540  1.0  -0.7551
