# generated using pymatgen
data_Zn3P4(HO3)4
_symmetry_space_group_name_H-M   'P 1'
_cell_length_a   15.78910000
_cell_length_b   8.43060000
_cell_length_c   16.13580000
_cell_angle_alpha   90.00000000
_cell_angle_beta   112.35700000
_cell_angle_gamma   90.00000000
_symmetry_Int_Tables_number   1
_chemical_formula_structural   Zn3P4(HO3)4
_chemical_formula_sum   'Zn12 P16 H16 O48'
_cell_volume   1986.41094239
_cell_formula_units_Z   4
loop_
 _symmetry_equiv_pos_site_id
 _symmetry_equiv_pos_as_xyz
  1  'x, y, z'
loop_
 _atom_site_type_symbol
 _atom_site_label
 _atom_site_symmetry_multiplicity
 _atom_site_fract_x
 _atom_site_fract_y
 _atom_site_fract_z
 _atom_site_occupancy
 _atom_site_charge
  Zn  Zn1  1  0.636440  0.637540  0.524470  1.0  1.1525
  Zn  Zn2  1  0.136440  0.137540  0.524470  1.0  1.1525
  Zn  Zn3  1  0.363560  0.637540  0.975530  1.0  1.1529
  Zn  Zn4  1  0.863560  0.137540  0.975530  1.0  1.1529
  Zn  Zn5  1  0.363560  0.362460  0.475530  1.0  1.1525
  Zn  Zn6  1  0.863560  0.862460  0.475530  1.0  1.1525
  Zn  Zn7  1  0.636440  0.362460  0.024470  1.0  1.1523
  Zn  Zn8  1  0.136440  0.862460  0.024470  1.0  1.1523
  Zn  Zn9  1  0.500000  0.627220  0.250000  1.0  1.156
  Zn  Zn10  1  0.000000  0.127220  0.250000  1.0  1.156
  Zn  Zn11  1  0.500000  0.372780  0.750000  1.0  1.1561
  Zn  Zn12  1  0.000000  0.872780  0.750000  1.0  1.1561
  P  P13  1  0.520400  0.372610  0.400480  1.0  1.5893
  P  P14  1  0.652520  0.862600  0.364920  1.0  1.4845
  P  P15  1  0.020400  0.872610  0.400480  1.0  1.5893
  P  P16  1  0.152520  0.362600  0.364920  1.0  1.4845
  P  P17  1  0.479600  0.372610  0.099520  1.0  1.5911
  P  P18  1  0.347480  0.862600  0.135080  1.0  1.4839
  P  P19  1  0.979600  0.872610  0.099520  1.0  1.5911
  P  P20  1  0.847480  0.362600  0.135080  1.0  1.4839
  P  P21  1  0.479600  0.627390  0.599520  1.0  1.5904
  P  P22  1  0.347480  0.137400  0.635080  1.0  1.4859
  P  P23  1  0.979600  0.127390  0.599520  1.0  1.5904
  P  P24  1  0.847480  0.637400  0.635080  1.0  1.4859
  P  P25  1  0.520400  0.627390  0.900480  1.0  1.5897
  P  P26  1  0.652520  0.137400  0.864920  1.0  1.4867
  P  P27  1  0.020400  0.127390  0.900480  1.0  1.5897
  P  P28  1  0.152520  0.637400  0.864920  1.0  1.4867
  H  H29  1  0.548000  0.262000  0.353000  1.0  -0.0706
  H  H30  1  0.614000  0.001000  0.344000  1.0  -0.0617
  H  H31  1  0.048000  0.762000  0.353000  1.0  -0.0706
  H  H32  1  0.114000  0.501000  0.344000  1.0  -0.0617
  H  H33  1  0.452000  0.262000  0.147000  1.0  -0.0721
  H  H34  1  0.386000  0.001000  0.156000  1.0  -0.0619
  H  H35  1  0.952000  0.762000  0.147000  1.0  -0.0721
  H  H36  1  0.886000  0.501000  0.156000  1.0  -0.0619
  H  H37  1  0.452000  0.738000  0.647000  1.0  -0.0717
  H  H38  1  0.386000  0.999000  0.656000  1.0  -0.0619
  H  H39  1  0.952000  0.238000  0.647000  1.0  -0.0717
  H  H40  1  0.886000  0.499000  0.656000  1.0  -0.0619
  H  H41  1  0.548000  0.738000  0.853000  1.0  -0.07
  H  H42  1  0.614000  0.999000  0.844000  1.0  -0.0625
  H  H43  1  0.048000  0.238000  0.853000  1.0  -0.07
  H  H44  1  0.114000  0.499000  0.844000  1.0  -0.0625
  O  O45  1  0.607700  0.422000  0.476200  1.0  -0.7523
  O  O46  1  0.455700  0.286600  0.432500  1.0  -0.74
  O  O47  1  0.474800  0.511000  0.340600  1.0  -0.8021
  O  O48  1  0.749300  0.900200  0.376100  1.0  -0.7173
  O  O49  1  0.639700  0.808800  0.448100  1.0  -0.8855
  O  O50  1  0.610200  0.752900  0.286300  1.0  -0.7798
  O  O51  1  0.107700  0.922000  0.476200  1.0  -0.7523
  O  O52  1  0.955700  0.786600  0.432500  1.0  -0.74
  O  O53  1  0.974800  0.011000  0.340600  1.0  -0.8021
  O  O54  1  0.249300  0.400200  0.376100  1.0  -0.7166
  O  O55  1  0.139700  0.308800  0.448100  1.0  -0.8856
  O  O56  1  0.110200  0.252900  0.286300  1.0  -0.7798
  O  O57  1  0.392300  0.422000  0.023800  1.0  -0.7521
  O  O58  1  0.544300  0.286600  0.067500  1.0  -0.738
  O  O59  1  0.525200  0.511000  0.159400  1.0  -0.8016
  O  O60  1  0.250700  0.900200  0.123900  1.0  -0.7162
  O  O61  1  0.360300  0.808800  0.051900  1.0  -0.8831
  O  O62  1  0.389800  0.752900  0.213700  1.0  -0.7794
  O  O63  1  0.892300  0.922000  0.023800  1.0  -0.7521
  O  O64  1  0.044300  0.786600  0.067500  1.0  -0.738
  O  O65  1  0.025200  0.011000  0.159400  1.0  -0.8016
  O  O66  1  0.750700  0.400200  0.123900  1.0  -0.7156
  O  O67  1  0.860300  0.308800  0.051900  1.0  -0.8833
  O  O68  1  0.889800  0.252900  0.213700  1.0  -0.7794
  O  O69  1  0.392300  0.578000  0.523800  1.0  -0.752
  O  O70  1  0.544300  0.713400  0.567500  1.0  -0.737
  O  O71  1  0.525200  0.489000  0.659400  1.0  -0.8019
  O  O72  1  0.250700  0.099800  0.623900  1.0  -0.7165
  O  O73  1  0.360300  0.191200  0.551900  1.0  -0.8812
  O  O74  1  0.389800  0.247100  0.713700  1.0  -0.7793
  O  O75  1  0.892300  0.078000  0.523800  1.0  -0.752
  O  O76  1  0.044300  0.213400  0.567500  1.0  -0.737
  O  O77  1  0.025200  0.989000  0.659400  1.0  -0.8019
  O  O78  1  0.750700  0.599800  0.623900  1.0  -0.7165
  O  O79  1  0.860300  0.691200  0.551900  1.0  -0.8828
  O  O80  1  0.889800  0.747100  0.713700  1.0  -0.7793
  O  O81  1  0.607700  0.578000  0.976200  1.0  -0.7524
  O  O82  1  0.455700  0.713400  0.932500  1.0  -0.7392
  O  O83  1  0.474800  0.489000  0.840600  1.0  -0.8021
  O  O84  1  0.749300  0.099800  0.876100  1.0  -0.7177
  O  O85  1  0.639700  0.191200  0.948100  1.0  -0.8832
  O  O86  1  0.610200  0.247100  0.786300  1.0  -0.7801
  O  O87  1  0.107700  0.078000  0.976200  1.0  -0.7524
  O  O88  1  0.955700  0.213400  0.932500  1.0  -0.7392
  O  O89  1  0.974800  0.989000  0.840600  1.0  -0.8021
  O  O90  1  0.249300  0.599800  0.876100  1.0  -0.7177
  O  O91  1  0.139700  0.691200  0.948100  1.0  -0.8848
  O  O92  1  0.110200  0.747100  0.786300  1.0  -0.7801
