# generated using pymatgen
data_Zn3P4(HO3)4
_symmetry_space_group_name_H-M   'P 1'
_cell_length_a   16.17490000
_cell_length_b   8.32470000
_cell_length_c   17.06730000
_cell_angle_alpha   90.00000000
_cell_angle_beta   114.78100000
_cell_angle_gamma   90.00000000
_symmetry_Int_Tables_number   1
_chemical_formula_structural   Zn3P4(HO3)4
_chemical_formula_sum   'Zn12 P16 H16 O48'
_cell_volume   2086.51224965
_cell_formula_units_Z   4
loop_
 _symmetry_equiv_pos_site_id
 _symmetry_equiv_pos_as_xyz
  1  'x, y, z'
loop_
 _atom_site_type_symbol
 _atom_site_label
 _atom_site_symmetry_multiplicity
 _atom_site_fract_x
 _atom_site_fract_y
 _atom_site_fract_z
 _atom_site_occupancy
 _atom_site_charge
  Zn  Zn1  1  0.864680  0.618890  0.978180  1.0  1.1347
  Zn  Zn2  1  0.364680  0.118890  0.978180  1.0  1.1347
  Zn  Zn3  1  0.135320  0.618890  0.521820  1.0  1.1338
  Zn  Zn4  1  0.635320  0.118890  0.521820  1.0  1.1338
  Zn  Zn5  1  0.135320  0.381110  0.021820  1.0  1.1292
  Zn  Zn6  1  0.635320  0.881110  0.021820  1.0  1.1292
  Zn  Zn7  1  0.864680  0.381110  0.478180  1.0  1.1301
  Zn  Zn8  1  0.364680  0.881110  0.478180  1.0  1.1301
  Zn  Zn9  1  0.000000  0.661370  0.250000  1.0  1.1513
  Zn  Zn10  1  0.500000  0.161370  0.250000  1.0  1.1513
  Zn  Zn11  1  0.000000  0.338630  0.750000  1.0  1.1507
  Zn  Zn12  1  0.500000  0.838630  0.750000  1.0  1.1507
  P  P13  1  0.007520  0.396870  0.123750  1.0  1.5358
  P  P14  1  0.853360  0.894150  0.106160  1.0  1.4467
  P  P15  1  0.507520  0.896870  0.123750  1.0  1.5358
  P  P16  1  0.353360  0.394150  0.106160  1.0  1.4467
  P  P17  1  0.992480  0.396870  0.376250  1.0  1.537
  P  P18  1  0.146640  0.894150  0.393840  1.0  1.4418
  P  P19  1  0.492480  0.896870  0.376250  1.0  1.537
  P  P20  1  0.646640  0.394150  0.393840  1.0  1.4418
  P  P21  1  0.992480  0.603130  0.876250  1.0  1.5358
  P  P22  1  0.146640  0.105850  0.893840  1.0  1.4476
  P  P23  1  0.492480  0.103130  0.876250  1.0  1.5358
  P  P24  1  0.646640  0.605850  0.893840  1.0  1.4476
  P  P25  1  0.007520  0.603130  0.623750  1.0  1.5344
  P  P26  1  0.853360  0.105850  0.606160  1.0  1.4525
  P  P27  1  0.507520  0.103130  0.623750  1.0  1.5344
  P  P28  1  0.353360  0.605850  0.606160  1.0  1.4525
  H  H29  1  0.895000  0.018000  0.128000  1.0  0.0623
  H  H30  1  0.990000  0.281000  0.168000  1.0  -0.0667
  H  H31  1  0.395000  0.518000  0.128000  1.0  0.0623
  H  H32  1  0.490000  0.781000  0.168000  1.0  -0.0667
  H  H33  1  0.105000  0.018000  0.372000  1.0  0.0636
  H  H34  1  0.010000  0.281000  0.332000  1.0  -0.0646
  H  H35  1  0.605000  0.518000  0.372000  1.0  0.0636
  H  H36  1  0.510000  0.781000  0.332000  1.0  -0.0646
  H  H37  1  0.105000  0.982000  0.872000  1.0  0.0613
  H  H38  1  0.010000  0.719000  0.832000  1.0  -0.0626
  H  H39  1  0.605000  0.482000  0.872000  1.0  0.0613
  H  H40  1  0.510000  0.219000  0.832000  1.0  -0.0626
  H  H41  1  0.895000  0.982000  0.628000  1.0  0.0603
  H  H42  1  0.990000  0.719000  0.668000  1.0  -0.0649
  H  H43  1  0.395000  0.482000  0.628000  1.0  0.0603
  H  H44  1  0.490000  0.219000  0.668000  1.0  -0.0649
  O  O45  1  0.861200  0.833200  0.025400  1.0  -0.7723
  O  O46  1  0.894500  0.784200  0.180700  1.0  -0.8235
  O  O47  1  0.916500  0.437800  0.051600  1.0  -0.8129
  O  O48  1  0.048900  0.534200  0.184800  1.0  -0.7547
  O  O49  1  0.073400  0.321100  0.093300  1.0  -0.7657
  O  O50  1  0.759900  0.942700  0.091800  1.0  -0.7594
  O  O51  1  0.361200  0.333200  0.025400  1.0  -0.7723
  O  O52  1  0.394500  0.284200  0.180700  1.0  -0.8235
  O  O53  1  0.416500  0.937800  0.051600  1.0  -0.8128
  O  O54  1  0.548900  0.034200  0.184800  1.0  -0.7547
  O  O55  1  0.573400  0.821100  0.093300  1.0  -0.7657
  O  O56  1  0.259900  0.442700  0.091800  1.0  -0.7589
  O  O57  1  0.138800  0.833200  0.474600  1.0  -0.7735
  O  O58  1  0.105500  0.784200  0.319300  1.0  -0.822
  O  O59  1  0.083500  0.437800  0.448400  1.0  -0.8132
  O  O60  1  0.951100  0.534200  0.315200  1.0  -0.7532
  O  O61  1  0.926600  0.321100  0.406700  1.0  -0.7672
  O  O62  1  0.240100  0.942700  0.408200  1.0  -0.758
  O  O63  1  0.638800  0.333200  0.474600  1.0  -0.7735
  O  O64  1  0.605500  0.284200  0.319300  1.0  -0.822
  O  O65  1  0.583500  0.937800  0.448400  1.0  -0.813
  O  O66  1  0.451100  0.034200  0.315200  1.0  -0.7532
  O  O67  1  0.426600  0.821100  0.406700  1.0  -0.7672
  O  O68  1  0.740100  0.442700  0.408200  1.0  -0.7572
  O  O69  1  0.138800  0.166800  0.974600  1.0  -0.7742
  O  O70  1  0.105500  0.215800  0.819300  1.0  -0.8219
  O  O71  1  0.083500  0.562200  0.948400  1.0  -0.8132
  O  O72  1  0.951100  0.465800  0.815200  1.0  -0.7545
  O  O73  1  0.926600  0.678900  0.906700  1.0  -0.7675
  O  O74  1  0.240100  0.057300  0.908200  1.0  -0.7577
  O  O75  1  0.638800  0.666800  0.974600  1.0  -0.7742
  O  O76  1  0.605500  0.715800  0.819300  1.0  -0.8219
  O  O77  1  0.583500  0.062200  0.948400  1.0  -0.8126
  O  O78  1  0.451100  0.965800  0.815200  1.0  -0.7545
  O  O79  1  0.426600  0.178900  0.906700  1.0  -0.7675
  O  O80  1  0.740100  0.557300  0.908200  1.0  -0.7577
  O  O81  1  0.861200  0.166800  0.525400  1.0  -0.7724
  O  O82  1  0.894500  0.215800  0.680700  1.0  -0.8234
  O  O83  1  0.916500  0.562200  0.551600  1.0  -0.8133
  O  O84  1  0.048900  0.465800  0.684800  1.0  -0.7538
  O  O85  1  0.073400  0.678900  0.593300  1.0  -0.7656
  O  O86  1  0.759900  0.057300  0.591800  1.0  -0.7587
  O  O87  1  0.361200  0.666800  0.525400  1.0  -0.7724
  O  O88  1  0.394500  0.715800  0.680700  1.0  -0.8234
  O  O89  1  0.416500  0.062200  0.551600  1.0  -0.8128
  O  O90  1  0.548900  0.965800  0.684800  1.0  -0.7538
  O  O91  1  0.573400  0.178900  0.593300  1.0  -0.7656
  O  O92  1  0.259900  0.557300  0.591800  1.0  -0.7587
