# generated using pymatgen
data_Zn3P4(HO3)4
_symmetry_space_group_name_H-M   'P 1'
_cell_length_a   9.06060000
_cell_length_b   15.75870000
_cell_length_c   32.04530000
_cell_angle_alpha   90.00000000
_cell_angle_beta   90.00000000
_cell_angle_gamma   90.00000000
_symmetry_Int_Tables_number   1
_chemical_formula_structural   Zn3P4(HO3)4
_chemical_formula_sum   'Zn24 P32 H32 O96'
_cell_volume   4575.53295350
_cell_formula_units_Z   8
loop_
 _symmetry_equiv_pos_site_id
 _symmetry_equiv_pos_as_xyz
  1  'x, y, z'
loop_
 _atom_site_type_symbol
 _atom_site_label
 _atom_site_symmetry_multiplicity
 _atom_site_fract_x
 _atom_site_fract_y
 _atom_site_fract_z
 _atom_site_occupancy
 _atom_site_charge
  Zn  Zn1  1  0.375000  0.375000  0.010830  1.0  1.1104
  Zn  Zn2  1  0.375000  0.875000  0.510830  1.0  1.1104
  Zn  Zn3  1  0.875000  0.375000  0.510830  1.0  1.1104
  Zn  Zn4  1  0.875000  0.875000  0.010830  1.0  1.1104
  Zn  Zn5  1  0.375000  0.375000  0.739170  1.0  1.1097
  Zn  Zn6  1  0.375000  0.875000  0.239170  1.0  1.1097
  Zn  Zn7  1  0.875000  0.375000  0.239170  1.0  1.1097
  Zn  Zn8  1  0.875000  0.875000  0.739170  1.0  1.1097
  Zn  Zn9  1  0.625000  0.625000  0.989170  1.0  1.1092
  Zn  Zn10  1  0.625000  0.125000  0.489170  1.0  1.1092
  Zn  Zn11  1  0.125000  0.625000  0.489170  1.0  1.1092
  Zn  Zn12  1  0.125000  0.125000  0.989170  1.0  1.1092
  Zn  Zn13  1  0.625000  0.625000  0.260830  1.0  1.1099
  Zn  Zn14  1  0.625000  0.125000  0.760830  1.0  1.1099
  Zn  Zn15  1  0.125000  0.625000  0.760830  1.0  1.1099
  Zn  Zn16  1  0.125000  0.125000  0.260830  1.0  1.1099
  Zn  Zn17  1  0.125000  0.125000  0.125000  1.0  1.1359
  Zn  Zn18  1  0.125000  0.625000  0.625000  1.0  1.1359
  Zn  Zn19  1  0.625000  0.125000  0.625000  1.0  1.1359
  Zn  Zn20  1  0.625000  0.625000  0.125000  1.0  1.1359
  Zn  Zn21  1  0.875000  0.875000  0.875000  1.0  1.1359
  Zn  Zn22  1  0.875000  0.375000  0.375000  1.0  1.1359
  Zn  Zn23  1  0.375000  0.875000  0.375000  1.0  1.1359
  Zn  Zn24  1  0.375000  0.375000  0.875000  1.0  1.1359
  P  P25  1  0.355200  0.194370  0.058040  1.0  1.4715
  P  P26  1  0.355200  0.694370  0.558040  1.0  1.4715
  P  P27  1  0.855200  0.194370  0.558040  1.0  1.4715
  P  P28  1  0.855200  0.694370  0.058040  1.0  1.4715
  P  P29  1  0.394800  0.555630  0.058040  1.0  1.4647
  P  P30  1  0.394800  0.055630  0.558040  1.0  1.4647
  P  P31  1  0.894800  0.555630  0.558040  1.0  1.4647
  P  P32  1  0.894800  0.055630  0.058040  1.0  1.4647
  P  P33  1  0.394800  0.194370  0.691960  1.0  1.4658
  P  P34  1  0.394800  0.694370  0.191960  1.0  1.4658
  P  P35  1  0.894800  0.194370  0.191960  1.0  1.4658
  P  P36  1  0.894800  0.694370  0.691960  1.0  1.4658
  P  P37  1  0.355200  0.555630  0.691960  1.0  1.473
  P  P38  1  0.355200  0.055630  0.191960  1.0  1.473
  P  P39  1  0.855200  0.555630  0.191960  1.0  1.473
  P  P40  1  0.855200  0.055630  0.691960  1.0  1.473
  P  P41  1  0.644800  0.805630  0.941960  1.0  1.4657
  P  P42  1  0.644800  0.305630  0.441960  1.0  1.4657
  P  P43  1  0.144800  0.805630  0.441960  1.0  1.4657
  P  P44  1  0.144800  0.305630  0.941960  1.0  1.4657
  P  P45  1  0.605200  0.444370  0.941960  1.0  1.4722
  P  P46  1  0.605200  0.944370  0.441960  1.0  1.4722
  P  P47  1  0.105200  0.444370  0.441960  1.0  1.4722
  P  P48  1  0.105200  0.944370  0.941960  1.0  1.4722
  P  P49  1  0.605200  0.805630  0.308040  1.0  1.4723
  P  P50  1  0.605200  0.305630  0.808040  1.0  1.4723
  P  P51  1  0.105200  0.805630  0.808040  1.0  1.4723
  P  P52  1  0.105200  0.305630  0.308040  1.0  1.4723
  P  P53  1  0.644800  0.444370  0.308040  1.0  1.4648
  P  P54  1  0.644800  0.944370  0.808040  1.0  1.4648
  P  P55  1  0.144800  0.444370  0.808040  1.0  1.4648
  P  P56  1  0.144800  0.944370  0.308040  1.0  1.4648
  H  H57  1  0.474500  0.152200  0.071900  1.0  -0.0356
  H  H58  1  0.474500  0.652200  0.571900  1.0  -0.0356
  H  H59  1  0.974500  0.152200  0.571900  1.0  -0.0356
  H  H60  1  0.974500  0.652200  0.071900  1.0  -0.0356
  H  H61  1  0.275500  0.597800  0.071900  1.0  -0.0361
  H  H62  1  0.275500  0.097800  0.571900  1.0  -0.0361
  H  H63  1  0.775500  0.597800  0.571900  1.0  -0.0361
  H  H64  1  0.775500  0.097800  0.071900  1.0  -0.0361
  H  H65  1  0.275500  0.152200  0.678100  1.0  -0.0367
  H  H66  1  0.275500  0.652200  0.178100  1.0  -0.0367
  H  H67  1  0.775500  0.152200  0.178100  1.0  -0.0367
  H  H68  1  0.775500  0.652200  0.678100  1.0  -0.0367
  H  H69  1  0.474500  0.597800  0.678100  1.0  -0.0337
  H  H70  1  0.474500  0.097800  0.178100  1.0  -0.0337
  H  H71  1  0.974500  0.597800  0.178100  1.0  -0.0337
  H  H72  1  0.974500  0.097800  0.678100  1.0  -0.0337
  H  H73  1  0.525500  0.847800  0.928100  1.0  -0.0359
  H  H74  1  0.525500  0.347800  0.428100  1.0  -0.0359
  H  H75  1  0.025500  0.847800  0.428100  1.0  -0.0359
  H  H76  1  0.025500  0.347800  0.928100  1.0  -0.0359
  H  H77  1  0.724500  0.402200  0.928100  1.0  -0.0349
  H  H78  1  0.724500  0.902200  0.428100  1.0  -0.0349
  H  H79  1  0.224500  0.402200  0.428100  1.0  -0.0349
  H  H80  1  0.224500  0.902200  0.928100  1.0  -0.0349
  H  H81  1  0.724500  0.847800  0.321900  1.0  -0.0344
  H  H82  1  0.724500  0.347800  0.821900  1.0  -0.0344
  H  H83  1  0.224500  0.847800  0.821900  1.0  -0.0344
  H  H84  1  0.224500  0.347800  0.321900  1.0  -0.0344
  H  H85  1  0.525500  0.402200  0.321900  1.0  -0.0369
  H  H86  1  0.525500  0.902200  0.821900  1.0  -0.0369
  H  H87  1  0.025500  0.402200  0.821900  1.0  -0.0369
  H  H88  1  0.025500  0.902200  0.321900  1.0  -0.0369
  O  O89  1  0.418700  0.278800  0.046640  1.0  -0.7325
  O  O90  1  0.302500  0.143000  0.021550  1.0  -0.7791
  O  O91  1  0.243200  0.201500  0.092490  1.0  -0.7616
  O  O92  1  0.418700  0.778800  0.546640  1.0  -0.7325
  O  O93  1  0.302500  0.643000  0.521550  1.0  -0.7791
  O  O94  1  0.243200  0.701500  0.592490  1.0  -0.7616
  O  O95  1  0.918700  0.278800  0.546640  1.0  -0.7325
  O  O96  1  0.802500  0.143000  0.521550  1.0  -0.7791
  O  O97  1  0.743200  0.201500  0.592490  1.0  -0.7616
  O  O98  1  0.918700  0.778800  0.046640  1.0  -0.7325
  O  O99  1  0.802500  0.643000  0.021550  1.0  -0.7791
  O  O100  1  0.743200  0.701500  0.092490  1.0  -0.7616
  O  O101  1  0.331300  0.471200  0.046640  1.0  -0.7325
  O  O102  1  0.447500  0.607000  0.021550  1.0  -0.7788
  O  O103  1  0.506800  0.548500  0.092490  1.0  -0.7604
  O  O104  1  0.331300  0.971200  0.546640  1.0  -0.7325
  O  O105  1  0.447500  0.107000  0.521550  1.0  -0.7788
  O  O106  1  0.506800  0.048500  0.592490  1.0  -0.7604
  O  O107  1  0.831300  0.471200  0.546640  1.0  -0.7325
  O  O108  1  0.947500  0.607000  0.521550  1.0  -0.7788
  O  O109  1  0.006800  0.548500  0.592490  1.0  -0.7604
  O  O110  1  0.831300  0.971200  0.046640  1.0  -0.7325
  O  O111  1  0.947500  0.107000  0.021550  1.0  -0.7788
  O  O112  1  0.006800  0.048500  0.092490  1.0  -0.7604
  O  O113  1  0.331300  0.278800  0.703360  1.0  -0.7322
  O  O114  1  0.447500  0.143000  0.728450  1.0  -0.7812
  O  O115  1  0.506800  0.201500  0.657510  1.0  -0.7588
  O  O116  1  0.331300  0.778800  0.203360  1.0  -0.7322
  O  O117  1  0.447500  0.643000  0.228450  1.0  -0.7812
  O  O118  1  0.506800  0.701500  0.157510  1.0  -0.7588
  O  O119  1  0.831300  0.278800  0.203360  1.0  -0.7322
  O  O120  1  0.947500  0.143000  0.228450  1.0  -0.7812
  O  O121  1  0.006800  0.201500  0.157510  1.0  -0.7588
  O  O122  1  0.831300  0.778800  0.703360  1.0  -0.7322
  O  O123  1  0.947500  0.643000  0.728450  1.0  -0.7812
  O  O124  1  0.006800  0.701500  0.657510  1.0  -0.7588
  O  O125  1  0.418700  0.471200  0.703360  1.0  -0.7327
  O  O126  1  0.302500  0.607000  0.728450  1.0  -0.7797
  O  O127  1  0.243200  0.548500  0.657510  1.0  -0.7602
  O  O128  1  0.418700  0.971200  0.203360  1.0  -0.7327
  O  O129  1  0.302500  0.107000  0.228450  1.0  -0.7797
  O  O130  1  0.243200  0.048500  0.157510  1.0  -0.7602
  O  O131  1  0.918700  0.471200  0.203360  1.0  -0.7327
  O  O132  1  0.802500  0.607000  0.228450  1.0  -0.7797
  O  O133  1  0.743200  0.548500  0.157510  1.0  -0.7602
  O  O134  1  0.918700  0.971200  0.703360  1.0  -0.7327
  O  O135  1  0.802500  0.107000  0.728450  1.0  -0.7797
  O  O136  1  0.743200  0.048500  0.657510  1.0  -0.7602
  O  O137  1  0.581300  0.721200  0.953360  1.0  -0.7326
  O  O138  1  0.697500  0.857000  0.978450  1.0  -0.7804
  O  O139  1  0.756800  0.798500  0.907510  1.0  -0.7587
  O  O140  1  0.581300  0.221200  0.453360  1.0  -0.7326
  O  O141  1  0.697500  0.357000  0.478450  1.0  -0.7804
  O  O142  1  0.756800  0.298500  0.407510  1.0  -0.7587
  O  O143  1  0.081300  0.721200  0.453360  1.0  -0.7326
  O  O144  1  0.197500  0.857000  0.478450  1.0  -0.7804
  O  O145  1  0.256800  0.798500  0.407510  1.0  -0.7587
  O  O146  1  0.081300  0.221200  0.953360  1.0  -0.7326
  O  O147  1  0.197500  0.357000  0.978450  1.0  -0.7804
  O  O148  1  0.256800  0.298500  0.907510  1.0  -0.7587
  O  O149  1  0.668700  0.528800  0.953360  1.0  -0.7315
  O  O150  1  0.552500  0.393000  0.978450  1.0  -0.7802
  O  O151  1  0.493200  0.451500  0.907510  1.0  -0.7603
  O  O152  1  0.668700  0.028800  0.453360  1.0  -0.7315
  O  O153  1  0.552500  0.893000  0.478450  1.0  -0.7802
  O  O154  1  0.493200  0.951500  0.407510  1.0  -0.7603
  O  O155  1  0.168700  0.528800  0.453360  1.0  -0.7315
  O  O156  1  0.052500  0.393000  0.478450  1.0  -0.7802
  O  O157  1  0.993200  0.451500  0.407510  1.0  -0.7603
  O  O158  1  0.168700  0.028800  0.953360  1.0  -0.7315
  O  O159  1  0.052500  0.893000  0.978450  1.0  -0.7802
  O  O160  1  0.993200  0.951500  0.907510  1.0  -0.7603
  O  O161  1  0.668700  0.721200  0.296640  1.0  -0.7323
  O  O162  1  0.552500  0.857000  0.271550  1.0  -0.7773
  O  O163  1  0.493200  0.798500  0.342490  1.0  -0.7617
  O  O164  1  0.668700  0.221200  0.796640  1.0  -0.7323
  O  O165  1  0.552500  0.357000  0.771550  1.0  -0.7773
  O  O166  1  0.493200  0.298500  0.842490  1.0  -0.7617
  O  O167  1  0.168700  0.721200  0.796640  1.0  -0.7323
  O  O168  1  0.052500  0.857000  0.771550  1.0  -0.7773
  O  O169  1  0.993200  0.798500  0.842490  1.0  -0.7617
  O  O170  1  0.168700  0.221200  0.296640  1.0  -0.7323
  O  O171  1  0.052500  0.357000  0.271550  1.0  -0.7773
  O  O172  1  0.993200  0.298500  0.342490  1.0  -0.7617
  O  O173  1  0.581300  0.528800  0.296640  1.0  -0.7319
  O  O174  1  0.697500  0.393000  0.271550  1.0  -0.7797
  O  O175  1  0.756800  0.451500  0.342490  1.0  -0.7604
  O  O176  1  0.581300  0.028800  0.796640  1.0  -0.7319
  O  O177  1  0.697500  0.893000  0.771550  1.0  -0.7797
  O  O178  1  0.756800  0.951500  0.842490  1.0  -0.7604
  O  O179  1  0.081300  0.528800  0.796640  1.0  -0.7319
  O  O180  1  0.197500  0.393000  0.771550  1.0  -0.7797
  O  O181  1  0.256800  0.451500  0.842490  1.0  -0.7604
  O  O182  1  0.081300  0.028800  0.296640  1.0  -0.7319
  O  O183  1  0.197500  0.893000  0.271550  1.0  -0.7797
  O  O184  1  0.256800  0.951500  0.342490  1.0  -0.7604
