# generated using pymatgen
data_Zn3P4(HO3)4
_symmetry_space_group_name_H-M   'P 1'
_cell_length_a   25.80330000
_cell_length_b   8.67420000
_cell_length_c   8.45570000
_cell_angle_alpha   90.00000000
_cell_angle_beta   90.00000000
_cell_angle_gamma   90.00000000
_symmetry_Int_Tables_number   1
_chemical_formula_structural   Zn3P4(HO3)4
_chemical_formula_sum   'Zn12 P16 H16 O48'
_cell_volume   1892.58001308
_cell_formula_units_Z   4
loop_
 _symmetry_equiv_pos_site_id
 _symmetry_equiv_pos_as_xyz
  1  'x, y, z'
loop_
 _atom_site_type_symbol
 _atom_site_label
 _atom_site_symmetry_multiplicity
 _atom_site_fract_x
 _atom_site_fract_y
 _atom_site_fract_z
 _atom_site_occupancy
 _atom_site_charge
  Zn  Zn1  1  0.687450  0.725020  0.380220  1.0  1.0909
  Zn  Zn2  1  0.187450  0.225020  0.880220  1.0  1.0909
  Zn  Zn3  1  0.312550  0.274980  0.380220  1.0  1.0904
  Zn  Zn4  1  0.812550  0.774980  0.880220  1.0  1.0904
  Zn  Zn5  1  0.187450  0.774980  0.380220  1.0  1.0907
  Zn  Zn6  1  0.687450  0.274980  0.880220  1.0  1.0907
  Zn  Zn7  1  0.812550  0.225020  0.380220  1.0  1.0906
  Zn  Zn8  1  0.312550  0.725020  0.880220  1.0  1.0906
  Zn  Zn9  1  0.500000  0.000000  0.107140  1.0  1.1132
  Zn  Zn10  1  0.000000  0.500000  0.607140  1.0  1.1132
  Zn  Zn11  1  0.000000  0.500000  0.107140  1.0  1.1132
  Zn  Zn12  1  0.500000  0.000000  0.607140  1.0  1.1132
  P  P13  1  0.766720  0.941680  0.180560  1.0  1.5987
  P  P14  1  0.561850  0.808570  0.355000  1.0  1.3949
  P  P15  1  0.266720  0.441680  0.680560  1.0  1.5987
  P  P16  1  0.061850  0.308570  0.855000  1.0  1.3949
  P  P17  1  0.233280  0.058320  0.180560  1.0  1.6044
  P  P18  1  0.438150  0.191430  0.355000  1.0  1.3892
  P  P19  1  0.733280  0.558320  0.680560  1.0  1.6044
  P  P20  1  0.938150  0.691430  0.855000  1.0  1.3892
  P  P21  1  0.266720  0.558320  0.180560  1.0  1.6025
  P  P22  1  0.061850  0.691430  0.355000  1.0  1.3905
  P  P23  1  0.766720  0.058320  0.680560  1.0  1.6025
  P  P24  1  0.561850  0.191430  0.855000  1.0  1.3905
  P  P25  1  0.733280  0.441680  0.180560  1.0  1.6021
  P  P26  1  0.938150  0.308570  0.355000  1.0  1.3945
  P  P27  1  0.233280  0.941680  0.680560  1.0  1.6021
  P  P28  1  0.438150  0.808570  0.855000  1.0  1.3945
  H  H29  1  0.751000  0.007000  0.072000  1.0  0.0747
  H  H30  1  0.552000  0.708000  0.273000  1.0  0.1338
  H  H31  1  0.251000  0.507000  0.572000  1.0  0.0747
  H  H32  1  0.052000  0.208000  0.773000  1.0  0.1338
  H  H33  1  0.249000  0.993000  0.072000  1.0  0.074
  H  H34  1  0.448000  0.292000  0.273000  1.0  0.1345
  H  H35  1  0.749000  0.493000  0.572000  1.0  0.074
  H  H36  1  0.948000  0.792000  0.773000  1.0  0.1345
  H  H37  1  0.251000  0.493000  0.072000  1.0  0.0748
  H  H38  1  0.052000  0.792000  0.273000  1.0  0.1347
  H  H39  1  0.751000  0.993000  0.572000  1.0  0.0748
  H  H40  1  0.552000  0.292000  0.773000  1.0  0.1347
  H  H41  1  0.749000  0.507000  0.072000  1.0  0.074
  H  H42  1  0.948000  0.208000  0.273000  1.0  0.134
  H  H43  1  0.249000  0.007000  0.572000  1.0  0.074
  H  H44  1  0.448000  0.708000  0.773000  1.0  0.134
  O  O45  1  0.721690  0.896100  0.281100  1.0  -0.824
  O  O46  1  0.807790  0.032000  0.270600  1.0  -0.8393
  O  O47  1  0.792590  0.802300  0.103000  1.0  -0.7819
  O  O48  1  0.615330  0.782900  0.417000  1.0  -0.8531
  O  O49  1  0.559620  0.942800  0.238200  1.0  -0.7811
  O  O50  1  0.522120  0.823600  0.487600  1.0  -0.773
  O  O51  1  0.221690  0.396100  0.781100  1.0  -0.824
  O  O52  1  0.307790  0.532000  0.770600  1.0  -0.8393
  O  O53  1  0.292590  0.302300  0.603000  1.0  -0.7819
  O  O54  1  0.115330  0.282900  0.917000  1.0  -0.8531
  O  O55  1  0.059620  0.442800  0.738200  1.0  -0.7811
  O  O56  1  0.022120  0.323600  0.987600  1.0  -0.773
  O  O57  1  0.278310  0.103900  0.281100  1.0  -0.8237
  O  O58  1  0.192210  0.968000  0.270600  1.0  -0.8384
  O  O59  1  0.207410  0.197700  0.103000  1.0  -0.7812
  O  O60  1  0.384670  0.217100  0.417000  1.0  -0.8509
  O  O61  1  0.440380  0.057200  0.238200  1.0  -0.7801
  O  O62  1  0.477880  0.176400  0.487600  1.0  -0.7733
  O  O63  1  0.778310  0.603900  0.781100  1.0  -0.8237
  O  O64  1  0.692210  0.468000  0.770600  1.0  -0.8384
  O  O65  1  0.707410  0.697700  0.603000  1.0  -0.7812
  O  O66  1  0.884670  0.717100  0.917000  1.0  -0.8509
  O  O67  1  0.940380  0.557200  0.738200  1.0  -0.7801
  O  O68  1  0.977880  0.676400  0.987600  1.0  -0.7733
  O  O69  1  0.221690  0.603900  0.281100  1.0  -0.8238
  O  O70  1  0.307790  0.468000  0.270600  1.0  -0.8393
  O  O71  1  0.292590  0.697700  0.103000  1.0  -0.7818
  O  O72  1  0.115330  0.717100  0.417000  1.0  -0.8531
  O  O73  1  0.059620  0.557200  0.238200  1.0  -0.78
  O  O74  1  0.022120  0.676400  0.487600  1.0  -0.7724
  O  O75  1  0.721690  0.103900  0.781100  1.0  -0.8238
  O  O76  1  0.807790  0.968000  0.770600  1.0  -0.8393
  O  O77  1  0.792590  0.197700  0.603000  1.0  -0.7818
  O  O78  1  0.615330  0.217100  0.917000  1.0  -0.8531
  O  O79  1  0.559620  0.057200  0.738200  1.0  -0.78
  O  O80  1  0.522120  0.176400  0.987600  1.0  -0.7724
  O  O81  1  0.778310  0.396100  0.281100  1.0  -0.8239
  O  O82  1  0.692210  0.532000  0.270600  1.0  -0.8392
  O  O83  1  0.707410  0.302300  0.103000  1.0  -0.7812
  O  O84  1  0.884670  0.282900  0.417000  1.0  -0.8511
  O  O85  1  0.940380  0.442800  0.238200  1.0  -0.7809
  O  O86  1  0.977880  0.323600  0.487600  1.0  -0.7737
  O  O87  1  0.278310  0.896100  0.781100  1.0  -0.8239
  O  O88  1  0.192210  0.032000  0.770600  1.0  -0.8392
  O  O89  1  0.207410  0.802300  0.603000  1.0  -0.7812
  O  O90  1  0.384670  0.782900  0.917000  1.0  -0.8511
  O  O91  1  0.440380  0.942800  0.738200  1.0  -0.7809
  O  O92  1  0.477880  0.823600  0.987600  1.0  -0.7737
