# generated using pymatgen
data_Na6NiH6C15N3O10
_symmetry_space_group_name_H-M   'P 1'
_cell_length_a   12.60600000
_cell_length_b   12.60600000
_cell_length_c   19.66800000
_cell_angle_alpha   90.00000000
_cell_angle_beta   90.00000000
_cell_angle_gamma   120.00000000
_symmetry_Int_Tables_number   1
_chemical_formula_structural   Na6NiH6C15N3O10
_chemical_formula_sum   'Na24 Ni4 H24 C60 N12 O40'
_cell_volume   2706.73311890
_cell_formula_units_Z   4
loop_
 _symmetry_equiv_pos_site_id
 _symmetry_equiv_pos_as_xyz
  1  'x, y, z'
loop_
 _atom_site_type_symbol
 _atom_site_label
 _atom_site_symmetry_multiplicity
 _atom_site_fract_x
 _atom_site_fract_y
 _atom_site_fract_z
 _atom_site_occupancy
 _atom_site_charge
  Na  Na1  1  0.688300  0.178000  0.567470  1.0  0.8991
  Na  Na2  1  0.199400  0.026200  0.534800  1.0  0.7215
  Na  Na3  1  0.489700  0.311700  0.567470  1.0  0.899
  Na  Na4  1  0.826800  0.800600  0.534800  1.0  0.7218
  Na  Na5  1  0.822000  0.510300  0.567470  1.0  0.8968
  Na  Na6  1  0.973800  0.173200  0.534800  1.0  0.7222
  Na  Na7  1  0.311700  0.822000  0.067470  1.0  0.896
  Na  Na8  1  0.800600  0.973800  0.034800  1.0  0.7207
  Na  Na9  1  0.510300  0.688300  0.067470  1.0  0.8992
  Na  Na10  1  0.173200  0.199400  0.034800  1.0  0.7221
  Na  Na11  1  0.178000  0.489700  0.067470  1.0  0.8992
  Na  Na12  1  0.026200  0.826800  0.034800  1.0  0.7223
  Na  Na13  1  0.311700  0.822000  0.432530  1.0  0.8969
  Na  Na14  1  0.800600  0.973800  0.465200  1.0  0.7203
  Na  Na15  1  0.510300  0.688300  0.432530  1.0  0.898
  Na  Na16  1  0.173200  0.199400  0.465200  1.0  0.7214
  Na  Na17  1  0.178000  0.489700  0.432530  1.0  0.8978
  Na  Na18  1  0.026200  0.826800  0.465200  1.0  0.7215
  Na  Na19  1  0.688300  0.178000  0.932530  1.0  0.8972
  Na  Na20  1  0.199400  0.026200  0.965200  1.0  0.7209
  Na  Na21  1  0.489700  0.311700  0.932530  1.0  0.8982
  Na  Na22  1  0.826800  0.800600  0.965200  1.0  0.7215
  Na  Na23  1  0.822000  0.510300  0.932530  1.0  0.8971
  Na  Na24  1  0.973800  0.173200  0.965200  1.0  0.7219
  Ni  Ni25  1  0.666667  0.333333  0.423430  1.0  0.6838
  Ni  Ni26  1  0.333333  0.666667  0.923430  1.0  0.6838
  Ni  Ni27  1  0.333333  0.666667  0.576570  1.0  0.6847
  Ni  Ni28  1  0.666667  0.333333  0.076570  1.0  0.6847
  H  H29  1  0.827200  0.170700  0.351900  1.0  0.0701
  H  H30  1  0.343500  0.172800  0.351900  1.0  0.0701
  H  H31  1  0.829300  0.656500  0.351900  1.0  0.0698
  H  H32  1  0.172800  0.829300  0.851900  1.0  0.0701
  H  H33  1  0.656500  0.827200  0.851900  1.0  0.0698
  H  H34  1  0.170700  0.343500  0.851900  1.0  0.0707
  H  H35  1  0.172800  0.829300  0.648100  1.0  0.0694
  H  H36  1  0.656500  0.827200  0.648100  1.0  0.0697
  H  H37  1  0.170700  0.343500  0.648100  1.0  0.0698
  H  H38  1  0.827200  0.170700  0.148100  1.0  0.07
  H  H39  1  0.343500  0.172800  0.148100  1.0  0.0696
  H  H40  1  0.829300  0.656500  0.148100  1.0  0.0701
  H  H41  1  0.545500  0.152100  0.250000  1.0  0.044
  H  H42  1  0.920300  0.177700  0.250000  1.0  0.0556
  H  H43  1  0.606600  0.454500  0.250000  1.0  0.0442
  H  H44  1  0.257400  0.079700  0.250000  1.0  0.0541
  H  H45  1  0.847900  0.393400  0.250000  1.0  0.0435
  H  H46  1  0.822300  0.742600  0.250000  1.0  0.0562
  H  H47  1  0.454500  0.847900  0.750000  1.0  0.0444
  H  H48  1  0.079700  0.822300  0.750000  1.0  0.0567
  H  H49  1  0.393400  0.545500  0.750000  1.0  0.0452
  H  H50  1  0.742600  0.920300  0.750000  1.0  0.0546
  H  H51  1  0.152100  0.606600  0.750000  1.0  0.0442
  H  H52  1  0.177700  0.257400  0.750000  1.0  0.0548
  C  C53  1  0.471100  0.098300  0.460300  1.0  0.557
  C  C54  1  0.530000  0.077200  0.395500  1.0  0.5482
  C  C55  1  0.678200  0.164700  0.311200  1.0  0.1643
  C  C56  1  0.789300  0.169600  0.311100  1.0  -0.2154
  C  C57  1  0.627200  0.528900  0.460300  1.0  0.5574
  C  C58  1  0.547200  0.470000  0.395500  1.0  0.5481
  C  C59  1  0.486500  0.321800  0.311200  1.0  0.1635
  C  C60  1  0.380300  0.210700  0.311100  1.0  -0.2179
  C  C61  1  0.901700  0.372800  0.460300  1.0  0.5591
  C  C62  1  0.922800  0.452800  0.395500  1.0  0.5477
  C  C63  1  0.835300  0.513500  0.311200  1.0  0.1637
  C  C64  1  0.830400  0.619700  0.311100  1.0  -0.2182
  C  C65  1  0.528900  0.901700  0.960300  1.0  0.5559
  C  C66  1  0.470000  0.922800  0.895500  1.0  0.5476
  C  C67  1  0.321800  0.835300  0.811200  1.0  0.1644
  C  C68  1  0.210700  0.830400  0.811100  1.0  -0.2188
  C  C69  1  0.372800  0.471100  0.960300  1.0  0.5575
  C  C70  1  0.452800  0.530000  0.895500  1.0  0.5478
  C  C71  1  0.513500  0.678200  0.811200  1.0  0.163
  C  C72  1  0.619700  0.789300  0.811100  1.0  -0.2176
  C  C73  1  0.098300  0.627200  0.960300  1.0  0.5596
  C  C74  1  0.077200  0.547200  0.895500  1.0  0.5474
  C  C75  1  0.164700  0.486500  0.811200  1.0  0.1633
  C  C76  1  0.169600  0.380300  0.811100  1.0  -0.2185
  C  C77  1  0.528900  0.901700  0.539700  1.0  0.5558
  C  C78  1  0.470000  0.922800  0.604500  1.0  0.5474
  C  C79  1  0.321800  0.835300  0.688800  1.0  0.1647
  C  C80  1  0.210700  0.830400  0.688900  1.0  -0.2176
  C  C81  1  0.372800  0.471100  0.539700  1.0  0.5563
  C  C82  1  0.452800  0.530000  0.604500  1.0  0.5483
  C  C83  1  0.513500  0.678200  0.688800  1.0  0.1635
  C  C84  1  0.619700  0.789300  0.688900  1.0  -0.2172
  C  C85  1  0.098300  0.627200  0.539700  1.0  0.5601
  C  C86  1  0.077200  0.547200  0.604500  1.0  0.5474
  C  C87  1  0.164700  0.486500  0.688800  1.0  0.1638
  C  C88  1  0.169600  0.380300  0.688900  1.0  -0.2176
  C  C89  1  0.471100  0.098300  0.039700  1.0  0.5566
  C  C90  1  0.530000  0.077200  0.104500  1.0  0.5487
  C  C91  1  0.678200  0.164700  0.188800  1.0  0.1647
  C  C92  1  0.789300  0.169600  0.188900  1.0  -0.2157
  C  C93  1  0.627200  0.528900  0.039700  1.0  0.5585
  C  C94  1  0.547200  0.470000  0.104500  1.0  0.5481
  C  C95  1  0.486500  0.321800  0.188800  1.0  0.1648
  C  C96  1  0.380300  0.210700  0.188900  1.0  -0.2183
  C  C97  1  0.901700  0.372800  0.039700  1.0  0.5582
  C  C98  1  0.922800  0.452800  0.104500  1.0  0.548
  C  C99  1  0.835300  0.513500  0.188800  1.0  0.1643
  C  C100  1  0.830400  0.619700  0.188900  1.0  -0.217
  C  C101  1  0.622700  0.159500  0.250000  1.0  -0.1578
  C  C102  1  0.844300  0.173000  0.250000  1.0  -0.1935
  C  C103  1  0.536800  0.377300  0.250000  1.0  -0.1536
  C  C104  1  0.328700  0.155700  0.250000  1.0  -0.197
  C  C105  1  0.840500  0.463200  0.250000  1.0  -0.1556
  C  C106  1  0.827000  0.671300  0.250000  1.0  -0.1876
  C  C107  1  0.377300  0.840500  0.750000  1.0  -0.1601
  C  C108  1  0.155700  0.827000  0.750000  1.0  -0.1926
  C  C109  1  0.463200  0.622700  0.750000  1.0  -0.1558
  C  C110  1  0.671300  0.844300  0.750000  1.0  -0.1934
  C  C111  1  0.159500  0.536800  0.750000  1.0  -0.1559
  C  C112  1  0.173000  0.328700  0.750000  1.0  -0.1933
  N  N113  1  0.624900  0.173500  0.373400  1.0  -0.4782
  N  N114  1  0.548600  0.375100  0.373400  1.0  -0.478
  N  N115  1  0.826500  0.451400  0.373400  1.0  -0.4776
  N  N116  1  0.375100  0.826500  0.873400  1.0  -0.4794
  N  N117  1  0.451400  0.624900  0.873400  1.0  -0.4777
  N  N118  1  0.173500  0.548600  0.873400  1.0  -0.4781
  N  N119  1  0.375100  0.826500  0.626600  1.0  -0.4786
  N  N120  1  0.451400  0.624900  0.626600  1.0  -0.4764
  N  N121  1  0.173500  0.548600  0.626600  1.0  -0.4774
  N  N122  1  0.624900  0.173500  0.126600  1.0  -0.4774
  N  N123  1  0.548600  0.375100  0.126600  1.0  -0.4776
  N  N124  1  0.826500  0.451400  0.126600  1.0  -0.4764
  O  O125  1  0.528900  0.203200  0.487100  1.0  -0.8127
  O  O126  1  0.372500  0.013100  0.480400  1.0  -0.6832
  O  O127  1  0.477300  0.967300  0.372500  1.0  -0.636
  O  O128  1  0.674300  0.471100  0.487100  1.0  -0.8102
  O  O129  1  0.640600  0.627500  0.480400  1.0  -0.6826
  O  O130  1  0.490000  0.522700  0.372500  1.0  -0.639
  O  O131  1  0.796800  0.325700  0.487100  1.0  -0.8114
  O  O132  1  0.986900  0.359400  0.480400  1.0  -0.6839
  O  O133  1  0.032700  0.510000  0.372500  1.0  -0.6416
  O  O134  1  0.471100  0.796800  0.987100  1.0  -0.8106
  O  O135  1  0.627500  0.986900  0.980400  1.0  -0.6846
  O  O136  1  0.522700  0.032700  0.872500  1.0  -0.6393
  O  O137  1  0.325700  0.528900  0.987100  1.0  -0.8098
  O  O138  1  0.359400  0.372500  0.980400  1.0  -0.6815
  O  O139  1  0.510000  0.477300  0.872500  1.0  -0.6412
  O  O140  1  0.203200  0.674300  0.987100  1.0  -0.8126
  O  O141  1  0.013100  0.640600  0.980400  1.0  -0.6848
  O  O142  1  0.967300  0.490000  0.872500  1.0  -0.639
  O  O143  1  0.471100  0.796800  0.512900  1.0  -0.8112
  O  O144  1  0.627500  0.986900  0.519600  1.0  -0.6831
  O  O145  1  0.522700  0.032700  0.627500  1.0  -0.638
  O  O146  1  0.325700  0.528900  0.512900  1.0  -0.8094
  O  O147  1  0.359400  0.372500  0.519600  1.0  -0.6804
  O  O148  1  0.510000  0.477300  0.627500  1.0  -0.6415
  O  O149  1  0.203200  0.674300  0.512900  1.0  -0.8118
  O  O150  1  0.013100  0.640600  0.519600  1.0  -0.6837
  O  O151  1  0.967300  0.490000  0.627500  1.0  -0.6374
  O  O152  1  0.528900  0.203200  0.012900  1.0  -0.8116
  O  O153  1  0.372500  0.013100  0.019600  1.0  -0.6829
  O  O154  1  0.477300  0.967300  0.127500  1.0  -0.6361
  O  O155  1  0.674300  0.471100  0.012900  1.0  -0.8108
  O  O156  1  0.640600  0.627500  0.019600  1.0  -0.6818
  O  O157  1  0.490000  0.522700  0.127500  1.0  -0.6379
  O  O158  1  0.796800  0.325700  0.012900  1.0  -0.8121
  O  O159  1  0.986900  0.359400  0.019600  1.0  -0.6826
  O  O160  1  0.032700  0.510000  0.127500  1.0  -0.6417
  O  O161  1  0.666667  0.333333  0.645500  1.0  -0.703
  O  O162  1  0.333333  0.666667  0.145500  1.0  -0.703
  O  O163  1  0.333333  0.666667  0.354500  1.0  -0.6992
  O  O164  1  0.666667  0.333333  0.854500  1.0  -0.6992
