# generated using pymatgen
data_Co3H33C38N12ClO7
_symmetry_space_group_name_H-M   'P 1'
_cell_length_a   22.23570000
_cell_length_b   22.23570000
_cell_length_c   23.14240000
_cell_angle_alpha   118.71200000
_cell_angle_beta   118.71200000
_cell_angle_gamma   90.00000000
_symmetry_Int_Tables_number   1
_chemical_formula_structural   Co3H33C38N12ClO7
_chemical_formula_sum   'Co12 H132 C152 N48 Cl4 O28'
_cell_volume   8395.94786893
_cell_formula_units_Z   4
loop_
 _symmetry_equiv_pos_site_id
 _symmetry_equiv_pos_as_xyz
  1  'x, y, z'
loop_
 _atom_site_type_symbol
 _atom_site_label
 _atom_site_symmetry_multiplicity
 _atom_site_fract_x
 _atom_site_fract_y
 _atom_site_fract_z
 _atom_site_occupancy
 _atom_site_charge
  Co  Co1  1  0.789700  0.806180  0.754000  1.0  1.0587
  Co  Co2  1  0.964300  0.947820  0.754000  1.0  1.0573
  Co  Co3  1  0.964300  0.806180  0.754000  1.0  1.0597
  Co  Co4  1  0.789700  0.947820  0.754000  1.0  1.0567
  Co  Co5  1  0.881870  0.076830  0.763740  1.0  0.9514
  Co  Co6  1  0.881870  0.686910  0.763740  1.0  0.9482
  Co  Co7  1  0.056180  0.714300  0.254000  1.0  1.0571
  Co  Co8  1  0.197820  0.539700  0.254000  1.0  1.0582
  Co  Co9  1  0.197820  0.714300  0.254000  1.0  1.0575
  Co  Co10  1  0.056180  0.539700  0.254000  1.0  1.0578
  Co  Co11  1  0.326830  0.631870  0.263740  1.0  0.9516
  Co  Co12  1  0.936910  0.631870  0.263740  1.0  0.9518
  H  H13  1  0.766800  0.831900  0.900200  1.0  0.0991
  H  H14  1  0.898100  0.716000  0.932800  1.0  0.1017
  H  H15  1  0.950400  0.814300  0.077000  1.0  0.137
  H  H16  1  0.957800  0.840200  0.192000  1.0  0.1054
  H  H17  1  0.745900  0.810800  0.085800  1.0  0.116
  H  H18  1  0.739400  0.795600  0.978400  1.0  0.11
  H  H19  1  0.912500  0.873500  0.271000  1.0  0.1115
  H  H20  1  0.861900  0.795800  0.223600  1.0  0.1069
  H  H21  1  0.803000  0.908800  0.235800  1.0  0.0798
  H  H22  1  0.767800  0.834500  0.216200  1.0  0.0742
  H  H23  1  0.833200  0.808300  0.315400  1.0  0.0999
  H  H24  1  0.854500  0.838600  0.435200  1.0  0.1236
  H  H25  1  0.895400  0.044600  0.504600  1.0  0.13
  H  H26  1  0.869000  0.008200  0.380400  1.0  0.1167
  H  H27  1  0.863600  0.057300  0.596200  1.0  0.1035
  H  H28  1  0.930400  0.888300  0.575400  1.0  0.0988
  H  H29  1  0.133400  0.068300  0.900200  1.0  0.0975
  H  H30  1  0.034700  0.216800  0.932800  1.0  0.0997
  H  H31  1  0.126600  0.262700  0.077000  1.0  0.1341
  H  H32  1  0.234200  0.351800  0.192000  1.0  0.1083
  H  H33  1  0.339900  0.275000  0.085800  1.0  0.1178
  H  H34  1  0.239000  0.182800  0.978400  1.0  0.109
  H  H35  1  0.358500  0.397500  0.271000  1.0  0.1091
  H  H36  1  0.361700  0.427800  0.223600  1.0  0.1109
  H  H37  1  0.432800  0.327000  0.235800  1.0  0.0806
  H  H38  1  0.448400  0.381700  0.216200  1.0  0.0784
  H  H39  1  0.482200  0.507100  0.315400  1.0  0.1042
  H  H40  1  0.580700  0.596600  0.435200  1.0  0.1253
  H  H41  1  0.609200  0.460000  0.504600  1.0  0.1344
  H  H42  1  0.511400  0.372200  0.380400  1.0  0.1168
  H  H43  1  0.732600  0.538900  0.596200  1.0  0.1024
  H  H44  1  0.645000  0.687100  0.575400  1.0  0.0997
  H  H45  1  0.133400  0.831900  0.900200  1.0  0.0982
  H  H46  1  0.034700  0.716000  0.932800  1.0  0.1003
  H  H47  1  0.126600  0.814300  0.077000  1.0  0.1352
  H  H48  1  0.234200  0.840200  0.192000  1.0  0.1067
  H  H49  1  0.339900  0.810800  0.085800  1.0  0.1156
  H  H50  1  0.239000  0.795600  0.978400  1.0  0.1116
  H  H51  1  0.358500  0.873500  0.271000  1.0  0.1124
  H  H52  1  0.361700  0.795800  0.223600  1.0  0.1075
  H  H53  1  0.432800  0.908800  0.235800  1.0  0.0798
  H  H54  1  0.448400  0.834500  0.216200  1.0  0.0761
  H  H55  1  0.482200  0.808300  0.315400  1.0  0.1006
  H  H56  1  0.580700  0.838600  0.435200  1.0  0.1238
  H  H57  1  0.609200  0.044600  0.504600  1.0  0.1302
  H  H58  1  0.511400  0.008200  0.380400  1.0  0.1192
  H  H59  1  0.732600  0.057300  0.596200  1.0  0.1022
  H  H60  1  0.645000  0.888300  0.575400  1.0  0.0985
  H  H61  1  0.766800  0.068300  0.900200  1.0  0.0995
  H  H62  1  0.898100  0.216800  0.932800  1.0  0.1006
  H  H63  1  0.950400  0.262700  0.077000  1.0  0.1358
  H  H64  1  0.957800  0.351800  0.192000  1.0  0.1067
  H  H65  1  0.745900  0.275000  0.085800  1.0  0.1168
  H  H66  1  0.739400  0.182800  0.978400  1.0  0.1102
  H  H67  1  0.912500  0.397500  0.271000  1.0  0.1112
  H  H68  1  0.861900  0.427800  0.223600  1.0  0.1099
  H  H69  1  0.803000  0.327000  0.235800  1.0  0.0801
  H  H70  1  0.767800  0.381700  0.216200  1.0  0.0713
  H  H71  1  0.833200  0.507100  0.315400  1.0  0.1019
  H  H72  1  0.854500  0.596600  0.435200  1.0  0.1269
  H  H73  1  0.895400  0.460000  0.504600  1.0  0.1317
  H  H74  1  0.869000  0.372200  0.380400  1.0  0.1164
  H  H75  1  0.863600  0.538900  0.596200  1.0  0.1046
  H  H76  1  0.930400  0.687100  0.575400  1.0  0.0995
  H  H77  1  0.620800  0.862400  0.724800  1.0  0.0222
  H  H78  1  0.104000  0.862400  0.724800  1.0  0.0224
  H  H79  1  0.081900  0.883400  0.400200  1.0  0.098
  H  H80  1  0.966000  0.784700  0.432800  1.0  0.0995
  H  H81  1  0.064300  0.876600  0.577000  1.0  0.1361
  H  H82  1  0.090200  0.984200  0.692000  1.0  0.1052
  H  H83  1  0.060800  0.089900  0.585800  1.0  0.1159
  H  H84  1  0.045600  0.989000  0.478400  1.0  0.1096
  H  H85  1  0.123500  0.108500  0.771000  1.0  0.1121
  H  H86  1  0.045800  0.111700  0.723600  1.0  0.1068
  H  H87  1  0.158800  0.182800  0.735800  1.0  0.0797
  H  H88  1  0.084500  0.198400  0.716200  1.0  0.0729
  H  H89  1  0.058300  0.232200  0.815400  1.0  0.1012
  H  H90  1  0.088600  0.330700  0.935200  1.0  0.1234
  H  H91  1  0.294600  0.359200  0.004600  1.0  0.1316
  H  H92  1  0.258200  0.261400  0.880400  1.0  0.1172
  H  H93  1  0.307300  0.482600  0.096200  1.0  0.1024
  H  H94  1  0.138300  0.395000  0.075400  1.0  0.0998
  H  H95  1  0.318300  0.516800  0.400200  1.0  0.099
  H  H96  1  0.466800  0.648100  0.432800  1.0  0.1001
  H  H97  1  0.512700  0.700400  0.577000  1.0  0.1381
  H  H98  1  0.601800  0.707800  0.692000  1.0  0.1085
  H  H99  1  0.525000  0.495900  0.585800  1.0  0.1162
  H  H100  1  0.432800  0.489400  0.478400  1.0  0.1099
  H  H101  1  0.647500  0.662500  0.771000  1.0  0.1119
  H  H102  1  0.677800  0.611900  0.723600  1.0  0.1093
  H  H103  1  0.577000  0.553000  0.735800  1.0  0.0771
  H  H104  1  0.631700  0.517800  0.716200  1.0  0.0734
  H  H105  1  0.757100  0.583200  0.815400  1.0  0.1028
  H  H106  1  0.846600  0.604500  0.935200  1.0  0.1284
  H  H107  1  0.710000  0.645400  0.004600  1.0  0.1315
  H  H108  1  0.622200  0.619000  0.880400  1.0  0.1183
  H  H109  1  0.788900  0.613600  0.096200  1.0  0.1036
  H  H110  1  0.937100  0.680400  0.075400  1.0  0.0988
  H  H111  1  0.318300  0.883400  0.400200  1.0  0.0986
  H  H112  1  0.466800  0.784700  0.432800  1.0  0.0991
  H  H113  1  0.512700  0.876600  0.577000  1.0  0.1356
  H  H114  1  0.601800  0.984200  0.692000  1.0  0.1092
  H  H115  1  0.525000  0.089900  0.585800  1.0  0.1185
  H  H116  1  0.432800  0.989000  0.478400  1.0  0.1109
  H  H117  1  0.647500  0.108500  0.771000  1.0  0.1133
  H  H118  1  0.677800  0.111700  0.723600  1.0  0.1093
  H  H119  1  0.577000  0.182800  0.735800  1.0  0.0746
  H  H120  1  0.631700  0.198400  0.716200  1.0  0.0759
  H  H121  1  0.757100  0.232200  0.815400  1.0  0.102
  H  H122  1  0.846600  0.330700  0.935200  1.0  0.126
  H  H123  1  0.710000  0.359200  0.004600  1.0  0.1349
  H  H124  1  0.622200  0.261400  0.880400  1.0  0.118
  H  H125  1  0.788900  0.482600  0.096200  1.0  0.1042
  H  H126  1  0.937100  0.395000  0.075400  1.0  0.0986
  H  H127  1  0.081900  0.516800  0.400200  1.0  0.0976
  H  H128  1  0.966000  0.648100  0.432800  1.0  0.1
  H  H129  1  0.064300  0.700400  0.577000  1.0  0.137
  H  H130  1  0.090200  0.707800  0.692000  1.0  0.1051
  H  H131  1  0.060800  0.495900  0.585800  1.0  0.1157
  H  H132  1  0.045600  0.489400  0.478400  1.0  0.1102
  H  H133  1  0.123500  0.662500  0.771000  1.0  0.1111
  H  H134  1  0.045800  0.611900  0.723600  1.0  0.108
  H  H135  1  0.158800  0.553000  0.735800  1.0  0.0769
  H  H136  1  0.084500  0.517800  0.716200  1.0  0.0752
  H  H137  1  0.058300  0.583200  0.815400  1.0  0.1015
  H  H138  1  0.088600  0.604500  0.935200  1.0  0.1279
  H  H139  1  0.294600  0.645400  0.004600  1.0  0.1311
  H  H140  1  0.258200  0.619000  0.880400  1.0  0.1149
  H  H141  1  0.307300  0.613600  0.096200  1.0  0.1029
  H  H142  1  0.138300  0.680400  0.075400  1.0  0.0998
  H  H143  1  0.112400  0.854000  0.224800  1.0  0.0216
  H  H144  1  0.112400  0.370800  0.224800  1.0  0.0246
  C  C145  1  0.797000  0.803800  0.894400  1.0  0.1575
  C  C146  1  0.868990  0.739590  0.912180  1.0  0.1413
  C  C147  1  0.840600  0.800000  0.015400  1.0  0.1918
  C  C148  1  0.910100  0.814600  0.079800  1.0  -0.2084
  C  C149  1  0.913700  0.829600  0.148000  1.0  -0.0824
  C  C150  1  0.853200  0.828900  0.151000  1.0  0.0854
  C  C151  1  0.787400  0.813400  0.085200  1.0  -0.1898
  C  C152  1  0.783100  0.802100  0.020400  1.0  -0.1335
  C  C153  1  0.864500  0.841400  0.227600  1.0  -0.2434
  C  C154  1  0.812800  0.871700  0.246800  1.0  -0.1994
  C  C155  1  0.850500  0.904600  0.339000  1.0  0.114
  C  C156  1  0.845500  0.856400  0.354000  1.0  -0.1509
  C  C157  1  0.858000  0.874200  0.425800  1.0  -0.1765
  C  C158  1  0.875000  0.942800  0.481000  1.0  0.1853
  C  C159  1  0.881700  0.996200  0.466200  1.0  -0.1558
  C  C160  1  0.867200  0.974300  0.392600  1.0  -0.0988
  C  C161  1  0.881050  0.023250  0.606300  1.0  0.1433
  C  C162  1  0.917930  0.930230  0.595260  1.0  0.1341
  C  C163  1  0.097400  0.090600  0.894400  1.0  0.1567
  C  C164  1  0.043190  0.172590  0.912180  1.0  0.1444
  C  C165  1  0.174800  0.215400  0.015400  1.0  0.1907
  C  C166  1  0.169700  0.265200  0.079800  1.0  -0.203
  C  C167  1  0.234300  0.318400  0.148000  1.0  -0.0846
  C  C168  1  0.297800  0.322100  0.151000  1.0  0.0843
  C  C169  1  0.297800  0.271800  0.085200  1.0  -0.1925
  C  C170  1  0.237300  0.218300  0.020400  1.0  -0.1368
  C  C171  1  0.363100  0.386200  0.227600  1.0  -0.2419
  C  C172  1  0.434000  0.375100  0.246800  1.0  -0.2049
  C  C173  1  0.488500  0.434400  0.339000  1.0  0.1142
  C  C174  1  0.508500  0.497600  0.354000  1.0  -0.1509
  C  C175  1  0.567800  0.551600  0.425800  1.0  -0.173
  C  C176  1  0.606000  0.538200  0.481000  1.0  0.1827
  C  C177  1  0.584500  0.470000  0.466200  1.0  -0.156
  C  C178  1  0.525400  0.418300  0.392600  1.0  -0.0955
  C  C179  1  0.725250  0.583050  0.606300  1.0  0.1472
  C  C180  1  0.677330  0.665030  0.595260  1.0  0.1436
  C  C181  1  0.097400  0.803800  0.894400  1.0  0.1557
  C  C182  1  0.043190  0.739590  0.912180  1.0  0.1428
  C  C183  1  0.174800  0.800000  0.015400  1.0  0.1908
  C  C184  1  0.169700  0.814600  0.079800  1.0  -0.2108
  C  C185  1  0.234300  0.829600  0.148000  1.0  -0.0857
  C  C186  1  0.297800  0.828900  0.151000  1.0  0.0872
  C  C187  1  0.297800  0.813400  0.085200  1.0  -0.1907
  C  C188  1  0.237300  0.802100  0.020400  1.0  -0.1357
  C  C189  1  0.363100  0.841400  0.227600  1.0  -0.2489
  C  C190  1  0.434000  0.871700  0.246800  1.0  -0.2005
  C  C191  1  0.488500  0.904600  0.339000  1.0  0.1104
  C  C192  1  0.508500  0.856400  0.354000  1.0  -0.1472
  C  C193  1  0.567800  0.874200  0.425800  1.0  -0.1729
  C  C194  1  0.606000  0.942800  0.481000  1.0  0.1828
  C  C195  1  0.584500  0.996200  0.466200  1.0  -0.1579
  C  C196  1  0.525400  0.974300  0.392600  1.0  -0.0994
  C  C197  1  0.725250  0.023250  0.606300  1.0  0.1482
  C  C198  1  0.677330  0.930230  0.595260  1.0  0.141
  C  C199  1  0.797000  0.090600  0.894400  1.0  0.1573
  C  C200  1  0.868990  0.172590  0.912180  1.0  0.1422
  C  C201  1  0.840600  0.215400  0.015400  1.0  0.1921
  C  C202  1  0.910100  0.265200  0.079800  1.0  -0.1989
  C  C203  1  0.913700  0.318400  0.148000  1.0  -0.08
  C  C204  1  0.853200  0.322100  0.151000  1.0  0.0839
  C  C205  1  0.787400  0.271800  0.085200  1.0  -0.1927
  C  C206  1  0.783100  0.218300  0.020400  1.0  -0.1412
  C  C207  1  0.864500  0.386200  0.227600  1.0  -0.2422
  C  C208  1  0.812800  0.375100  0.246800  1.0  -0.2032
  C  C209  1  0.850500  0.434400  0.339000  1.0  0.1164
  C  C210  1  0.845500  0.497600  0.354000  1.0  -0.1474
  C  C211  1  0.858000  0.551600  0.425800  1.0  -0.1734
  C  C212  1  0.875000  0.538200  0.481000  1.0  0.1854
  C  C213  1  0.881700  0.470000  0.466200  1.0  -0.1582
  C  C214  1  0.867200  0.418300  0.392600  1.0  -0.1038
  C  C215  1  0.881050  0.583050  0.606300  1.0  0.145
  C  C216  1  0.917930  0.665030  0.595260  1.0  0.1355
  C  C217  1  0.666667  0.867000  0.734000  1.0  0.6711
  C  C218  1  0.896390  0.956590  0.913180  1.0  0.367
  C  C219  1  0.067300  0.867000  0.734000  1.0  0.6725
  C  C220  1  0.016790  0.956590  0.913180  1.0  0.3643
  C  C221  1  0.053800  0.847400  0.394400  1.0  0.1548
  C  C222  1  0.989590  0.793190  0.412180  1.0  0.1432
  C  C223  1  0.050000  0.924800  0.515400  1.0  0.1923
  C  C224  1  0.064600  0.919700  0.579800  1.0  -0.2062
  C  C225  1  0.079600  0.984300  0.648000  1.0  -0.0825
  C  C226  1  0.078900  0.047800  0.651000  1.0  0.0851
  C  C227  1  0.063400  0.047800  0.585200  1.0  -0.1919
  C  C228  1  0.052100  0.987300  0.520400  1.0  -0.1336
  C  C229  1  0.091400  0.113100  0.727600  1.0  -0.2486
  C  C230  1  0.121700  0.184000  0.746800  1.0  -0.2022
  C  C231  1  0.154600  0.238500  0.839000  1.0  0.1128
  C  C232  1  0.106400  0.258500  0.854000  1.0  -0.1491
  C  C233  1  0.124200  0.317800  0.925800  1.0  -0.1702
  C  C234  1  0.192800  0.356000  0.981000  1.0  0.1812
  C  C235  1  0.246200  0.334500  0.966200  1.0  -0.1536
  C  C236  1  0.224300  0.275400  0.892600  1.0  -0.0924
  C  C237  1  0.273250  0.475250  0.106300  1.0  0.1498
  C  C238  1  0.180230  0.427330  0.095260  1.0  0.14
  C  C239  1  0.340600  0.547000  0.394400  1.0  0.1593
  C  C240  1  0.422590  0.618990  0.412180  1.0  0.1431
  C  C241  1  0.465400  0.590600  0.515400  1.0  0.1899
  C  C242  1  0.515200  0.660100  0.579800  1.0  -0.2033
  C  C243  1  0.568400  0.663700  0.648000  1.0  -0.0813
  C  C244  1  0.572100  0.603200  0.651000  1.0  0.084
  C  C245  1  0.521800  0.537400  0.585200  1.0  -0.1931
  C  C246  1  0.468300  0.533100  0.520400  1.0  -0.1396
  C  C247  1  0.636200  0.614500  0.727600  1.0  -0.242
  C  C248  1  0.625100  0.562800  0.746800  1.0  -0.2029
  C  C249  1  0.684400  0.600500  0.839000  1.0  0.1158
  C  C250  1  0.747600  0.595500  0.854000  1.0  -0.149
  C  C251  1  0.801600  0.608000  0.925800  1.0  -0.1787
  C  C252  1  0.788200  0.625000  0.981000  1.0  0.1839
  C  C253  1  0.720000  0.631700  0.966200  1.0  -0.154
  C  C254  1  0.668300  0.617200  0.892600  1.0  -0.0912
  C  C255  1  0.833050  0.631050  0.106300  1.0  0.1448
  C  C256  1  0.915030  0.667930  0.095260  1.0  0.1344
  C  C257  1  0.340600  0.847400  0.394400  1.0  0.1572
  C  C258  1  0.422590  0.793190  0.412180  1.0  0.1442
  C  C259  1  0.465400  0.924800  0.515400  1.0  0.1911
  C  C260  1  0.515200  0.919700  0.579800  1.0  -0.2012
  C  C261  1  0.568400  0.984300  0.648000  1.0  -0.0837
  C  C262  1  0.572100  0.047800  0.651000  1.0  0.0846
  C  C263  1  0.521800  0.047800  0.585200  1.0  -0.1928
  C  C264  1  0.468300  0.987300  0.520400  1.0  -0.1387
  C  C265  1  0.636200  0.113100  0.727600  1.0  -0.2431
  C  C266  1  0.625100  0.184000  0.746800  1.0  -0.2012
  C  C267  1  0.684400  0.238500  0.839000  1.0  0.116
  C  C268  1  0.747600  0.258500  0.854000  1.0  -0.1547
  C  C269  1  0.801600  0.317800  0.925800  1.0  -0.1742
  C  C270  1  0.788200  0.356000  0.981000  1.0  0.1787
  C  C271  1  0.720000  0.334500  0.966200  1.0  -0.1551
  C  C272  1  0.668300  0.275400  0.892600  1.0  -0.0915
  C  C273  1  0.833050  0.475250  0.106300  1.0  0.1455
  C  C274  1  0.915030  0.427330  0.095260  1.0  0.1431
  C  C275  1  0.053800  0.547000  0.394400  1.0  0.1556
  C  C276  1  0.989590  0.618990  0.412180  1.0  0.1423
  C  C277  1  0.050000  0.590600  0.515400  1.0  0.1902
  C  C278  1  0.064600  0.660100  0.579800  1.0  -0.2072
  C  C279  1  0.079600  0.663700  0.648000  1.0  -0.0828
  C  C280  1  0.078900  0.603200  0.651000  1.0  0.0847
  C  C281  1  0.063400  0.537400  0.585200  1.0  -0.1959
  C  C282  1  0.052100  0.533100  0.520400  1.0  -0.1387
  C  C283  1  0.091400  0.614500  0.727600  1.0  -0.2423
  C  C284  1  0.121700  0.562800  0.746800  1.0  -0.2027
  C  C285  1  0.154600  0.600500  0.839000  1.0  0.1142
  C  C286  1  0.106400  0.595500  0.854000  1.0  -0.1511
  C  C287  1  0.124200  0.608000  0.925800  1.0  -0.1789
  C  C288  1  0.192800  0.625000  0.981000  1.0  0.1855
  C  C289  1  0.246200  0.631700  0.966200  1.0  -0.1509
  C  C290  1  0.224300  0.617200  0.892600  1.0  -0.0945
  C  C291  1  0.273250  0.631050  0.106300  1.0  0.1426
  C  C292  1  0.180230  0.667930  0.095260  1.0  0.1353
  C  C293  1  0.117000  0.817300  0.234000  1.0  0.6716
  C  C294  1  0.206590  0.766790  0.413180  1.0  0.3654
  C  C295  1  0.117000  0.416700  0.234000  1.0  0.6714
  C  C296  1  0.206590  0.646390  0.413180  1.0  0.3677
  N  N297  1  0.807650  0.779250  0.837900  1.0  -0.2384
  N  N298  1  0.853630  0.736030  0.848660  1.0  -0.2412
  N  N299  1  0.835960  0.783160  0.943920  1.0  0.0366
  N  N300  1  0.899770  0.023770  0.670940  1.0  -0.27
  N  N301  1  0.922920  0.963320  0.661440  1.0  -0.1539
  N  N302  1  0.891420  0.965720  0.558440  1.0  0.0385
  N  N303  1  0.030250  0.058650  0.837900  1.0  -0.2404
  N  N304  1  0.995030  0.112630  0.848660  1.0  -0.2341
  N  N305  1  0.107960  0.160760  0.943920  1.0  0.0341
  N  N306  1  0.771170  0.647170  0.670940  1.0  -0.2658
  N  N307  1  0.738520  0.698120  0.661440  1.0  -0.1559
  N  N308  1  0.667020  0.592720  0.558440  1.0  0.0378
  N  N309  1  0.030250  0.779250  0.837900  1.0  -0.2405
  N  N310  1  0.995030  0.736030  0.848660  1.0  -0.2354
  N  N311  1  0.107960  0.783160  0.943920  1.0  0.0362
  N  N312  1  0.771170  0.023770  0.670940  1.0  -0.2683
  N  N313  1  0.738520  0.963320  0.661440  1.0  -0.1556
  N  N314  1  0.667020  0.965720  0.558440  1.0  0.0379
  N  N315  1  0.807650  0.058650  0.837900  1.0  -0.24
  N  N316  1  0.853630  0.112630  0.848660  1.0  -0.2393
  N  N317  1  0.835960  0.160760  0.943920  1.0  0.0354
  N  N318  1  0.899770  0.647170  0.670940  1.0  -0.2643
  N  N319  1  0.922920  0.698120  0.661440  1.0  -0.1559
  N  N320  1  0.891420  0.592720  0.558440  1.0  0.0382
  N  N321  1  0.029250  0.780250  0.337900  1.0  -0.2391
  N  N322  1  0.986030  0.745030  0.348660  1.0  -0.2346
  N  N323  1  0.033160  0.857960  0.443920  1.0  0.0381
  N  N324  1  0.273770  0.521170  0.170940  1.0  -0.2656
  N  N325  1  0.213320  0.488520  0.161440  1.0  -0.1577
  N  N326  1  0.215720  0.417020  0.058440  1.0  0.0374
  N  N327  1  0.308650  0.557650  0.337900  1.0  -0.242
  N  N328  1  0.362630  0.603630  0.348660  1.0  -0.2399
  N  N329  1  0.410760  0.585960  0.443920  1.0  0.0354
  N  N330  1  0.897170  0.649770  0.170940  1.0  -0.2653
  N  N331  1  0.948120  0.672920  0.161440  1.0  -0.1556
  N  N332  1  0.842720  0.641420  0.058440  1.0  0.0394
  N  N333  1  0.308650  0.780250  0.337900  1.0  -0.2419
  N  N334  1  0.362630  0.745030  0.348660  1.0  -0.2354
  N  N335  1  0.410760  0.857960  0.443920  1.0  0.0342
  N  N336  1  0.897170  0.521170  0.170940  1.0  -0.267
  N  N337  1  0.948120  0.488520  0.161440  1.0  -0.1582
  N  N338  1  0.842720  0.417020  0.058440  1.0  0.0387
  N  N339  1  0.029250  0.557650  0.337900  1.0  -0.2391
  N  N340  1  0.986030  0.603630  0.348660  1.0  -0.2412
  N  N341  1  0.033160  0.585960  0.443920  1.0  0.0385
  N  N342  1  0.273770  0.649770  0.170940  1.0  -0.2682
  N  N343  1  0.213320  0.672920  0.161440  1.0  -0.1533
  N  N344  1  0.215720  0.641420  0.058440  1.0  0.0387
  Cl  Cl345  1  0.580630  0.757140  0.514280  1.0  -0.4954
  Cl  Cl346  1  0.933650  0.757140  0.514280  1.0  -0.5001
  Cl  Cl347  1  0.007140  0.683650  0.014280  1.0  -0.4983
  Cl  Cl348  1  0.007140  0.330630  0.014280  1.0  -0.4956
  O  O349  1  0.693000  0.818820  0.739240  1.0  -0.6034
  O  O350  1  0.927300  0.016000  0.932800  1.0  -0.6141
  O  O351  1  0.046240  0.920420  0.739240  1.0  -0.6005
  O  O352  1  0.005500  0.916800  0.932800  1.0  -0.6219
  O  O353  1  0.046240  0.818820  0.739240  1.0  -0.6035
  O  O354  1  0.005500  0.016000  0.932800  1.0  -0.615
  O  O355  1  0.693000  0.920420  0.739240  1.0  -0.6031
  O  O356  1  0.927300  0.916800  0.932800  1.0  -0.6107
  O  O357  1  0.888990  0.989490  0.777980  1.0  -0.8036
  O  O358  1  0.888990  0.788490  0.777980  1.0  -0.8032
  O  O359  1  0.783880  0.841880  0.683760  1.0  -0.5721
  O  O360  1  0.841240  0.922640  0.845280  1.0  -0.6406
  O  O361  1  0.899880  0.841880  0.683760  1.0  -0.5768
  O  O362  1  0.004040  0.922640  0.845280  1.0  -0.6408
  O  O363  1  0.068820  0.796240  0.239240  1.0  -0.6025
  O  O364  1  0.266000  0.755500  0.432800  1.0  -0.618
  O  O365  1  0.170420  0.443000  0.239240  1.0  -0.602
  O  O366  1  0.166800  0.677300  0.432800  1.0  -0.6111
  O  O367  1  0.170420  0.796240  0.239240  1.0  -0.6036
  O  O368  1  0.166800  0.755500  0.432800  1.0  -0.6171
  O  O369  1  0.068820  0.443000  0.239240  1.0  -0.6018
  O  O370  1  0.266000  0.677300  0.432800  1.0  -0.6114
  O  O371  1  0.239490  0.638990  0.277980  1.0  -0.804
  O  O372  1  0.038490  0.638990  0.277980  1.0  -0.8047
  O  O373  1  0.091880  0.649880  0.183760  1.0  -0.5766
  O  O374  1  0.172640  0.754040  0.345280  1.0  -0.6413
  O  O375  1  0.091880  0.533880  0.183760  1.0  -0.5726
  O  O376  1  0.172640  0.591240  0.345280  1.0  -0.6419
