# generated using pymatgen
data_CuH7C12N3O4
_symmetry_space_group_name_H-M   'P 1'
_cell_length_a   4.71090000
_cell_length_b   11.00200000
_cell_length_c   31.85800000
_cell_angle_alpha   90.00000000
_cell_angle_beta   90.00000000
_cell_angle_gamma   96.00800000
_symmetry_Int_Tables_number   1
_chemical_formula_structural   CuH7C12N3O4
_chemical_formula_sum   'Cu4 H28 C48 N12 O16'
_cell_volume   1642.10909029
_cell_formula_units_Z   4
loop_
 _symmetry_equiv_pos_site_id
 _symmetry_equiv_pos_as_xyz
  1  'x, y, z'
loop_
 _atom_site_type_symbol
 _atom_site_label
 _atom_site_symmetry_multiplicity
 _atom_site_fract_x
 _atom_site_fract_y
 _atom_site_fract_z
 _atom_site_occupancy
 _atom_site_charge
  Cu  Cu1  1  0.501000  0.411000  0.804200  1.0  0.975
  Cu  Cu2  1  0.499000  0.089000  0.304200  1.0  0.9747
  Cu  Cu3  1  0.499000  0.589000  0.195800  1.0  0.9755
  Cu  Cu4  1  0.501000  0.911000  0.695800  1.0  0.9757
  H  H5  1  0.631300  0.461000  0.708100  1.0  0.1251
  H  H6  1  0.448900  0.364100  0.646800  1.0  0.0931
  H  H7  1  0.733300  0.460600  0.013000  1.0  0.0761
  H  H8  1  0.452100  0.590900  0.871400  1.0  0.0984
  H  H9  1  0.616300  0.623800  0.940400  1.0  0.1273
  H  H10  1  0.782500  0.264400  0.869400  1.0  0.1132
  H  H11  1  0.946800  0.297300  0.938400  1.0  0.1313
  H  H12  1  0.368700  0.039000  0.208100  1.0  0.1247
  H  H13  1  0.551100  0.135900  0.146800  1.0  0.0927
  H  H14  1  0.266700  0.039400  0.513000  1.0  0.0763
  H  H15  1  0.547900  0.909100  0.371400  1.0  0.0979
  H  H16  1  0.383700  0.876200  0.440400  1.0  0.1272
  H  H17  1  0.217500  0.235600  0.369400  1.0  0.1136
  H  H18  1  0.053200  0.202700  0.438400  1.0  0.1341
  H  H19  1  0.368700  0.539000  0.291900  1.0  0.125
  H  H20  1  0.551100  0.635900  0.353200  1.0  0.0932
  H  H21  1  0.266700  0.539400  0.987000  1.0  0.077
  H  H22  1  0.547900  0.409100  0.128600  1.0  0.0975
  H  H23  1  0.383700  0.376200  0.059600  1.0  0.1263
  H  H24  1  0.217500  0.735600  0.130600  1.0  0.1135
  H  H25  1  0.053200  0.702700  0.061600  1.0  0.1346
  H  H26  1  0.631300  0.961000  0.791900  1.0  0.1252
  H  H27  1  0.448900  0.864100  0.853200  1.0  0.0931
  H  H28  1  0.733300  0.960600  0.487000  1.0  0.0751
  H  H29  1  0.452100  0.090900  0.628600  1.0  0.0979
  H  H30  1  0.616300  0.123800  0.559600  1.0  0.1278
  H  H31  1  0.782500  0.764400  0.630600  1.0  0.1135
  H  H32  1  0.946800  0.797300  0.561600  1.0  0.1305
  C  C33  1  0.882680  0.480550  0.993410  1.0  -0.1067
  C  C34  1  0.216500  0.177000  0.794700  1.0  0.5407
  C  C35  1  0.267400  0.229400  0.749300  1.0  0.0478
  C  C36  1  0.509500  0.386700  0.709800  1.0  0.107
  C  C37  1  0.397500  0.328600  0.673300  1.0  0.1272
  C  C38  1  0.155200  0.175300  0.712100  1.0  0.1162
  C  C39  1  0.968300  0.057200  0.708400  1.0  0.6465
  C  C40  1  0.748900  0.337200  0.883800  1.0  0.1823
  C  C41  1  0.552300  0.531500  0.885000  1.0  0.1724
  C  C42  1  0.650000  0.551000  0.926000  1.0  -0.2007
  C  C43  1  0.846600  0.356800  0.924800  1.0  -0.1844
  C  C44  1  0.797100  0.463700  0.945900  1.0  0.1367
  C  C45  1  0.117320  0.019450  0.493410  1.0  -0.106
  C  C46  1  0.783500  0.323000  0.294700  1.0  0.5411
  C  C47  1  0.732600  0.270600  0.249300  1.0  0.0477
  C  C48  1  0.490500  0.113300  0.209800  1.0  0.1063
  C  C49  1  0.602500  0.171400  0.173300  1.0  0.1269
  C  C50  1  0.844800  0.324700  0.212100  1.0  0.1176
  C  C51  1  0.031700  0.442800  0.208400  1.0  0.6626
  C  C52  1  0.251100  0.162800  0.383800  1.0  0.1806
  C  C53  1  0.447700  0.968500  0.385000  1.0  0.1728
  C  C54  1  0.350000  0.949000  0.426000  1.0  -0.1997
  C  C55  1  0.153400  0.143200  0.424800  1.0  -0.185
  C  C56  1  0.202900  0.036300  0.445900  1.0  0.1365
  C  C57  1  0.117320  0.519450  0.006590  1.0  -0.1052
  C  C58  1  0.783500  0.823000  0.205300  1.0  0.5419
  C  C59  1  0.732600  0.770600  0.250700  1.0  0.0471
  C  C60  1  0.490500  0.613300  0.290200  1.0  0.1063
  C  C61  1  0.602500  0.671400  0.326700  1.0  0.127
  C  C62  1  0.844800  0.824700  0.287900  1.0  0.1175
  C  C63  1  0.031700  0.942800  0.291600  1.0  0.6622
  C  C64  1  0.251100  0.662800  0.116200  1.0  0.181
  C  C65  1  0.447700  0.468500  0.115000  1.0  0.1724
  C  C66  1  0.350000  0.449000  0.074000  1.0  -0.1996
  C  C67  1  0.153400  0.643200  0.075200  1.0  -0.1833
  C  C68  1  0.202900  0.536300  0.054100  1.0  0.1362
  C  C69  1  0.882680  0.980550  0.506590  1.0  -0.1061
  C  C70  1  0.216500  0.677000  0.705300  1.0  0.5412
  C  C71  1  0.267400  0.729400  0.750700  1.0  0.0464
  C  C72  1  0.509500  0.886700  0.790200  1.0  0.1075
  C  C73  1  0.397500  0.828600  0.826700  1.0  0.1269
  C  C74  1  0.155200  0.675300  0.787900  1.0  0.1161
  C  C75  1  0.968300  0.557200  0.791600  1.0  0.6459
  C  C76  1  0.748900  0.837200  0.616200  1.0  0.1823
  C  C77  1  0.552300  0.031500  0.615000  1.0  0.1718
  C  C78  1  0.650000  0.051000  0.574000  1.0  -0.2013
  C  C79  1  0.846600  0.856800  0.575200  1.0  -0.183
  C  C80  1  0.797100  0.963700  0.554100  1.0  0.1366
  N  N81  1  0.439500  0.334000  0.748100  1.0  -0.2638
  N  N82  1  0.223300  0.226400  0.674300  1.0  -0.3686
  N  N83  1  0.601700  0.424600  0.863900  1.0  -0.3411
  N  N84  1  0.560500  0.166000  0.248100  1.0  -0.2608
  N  N85  1  0.776700  0.273600  0.174300  1.0  -0.3682
  N  N86  1  0.398300  0.075400  0.363900  1.0  -0.3405
  N  N87  1  0.560500  0.666000  0.251900  1.0  -0.2589
  N  N88  1  0.776700  0.773600  0.325700  1.0  -0.3689
  N  N89  1  0.398300  0.575400  0.136100  1.0  -0.3399
  N  N90  1  0.439500  0.834000  0.751900  1.0  -0.2607
  N  N91  1  0.223300  0.726400  0.825700  1.0  -0.3683
  N  N92  1  0.601700  0.924600  0.636100  1.0  -0.3406
  O  O93  1  0.314850  0.244160  0.822960  1.0  -0.5392
  O  O94  1  0.019270  0.069930  0.800300  1.0  -0.6139
  O  O95  1  0.708190  0.007890  0.717350  1.0  -0.6681
  O  O96  1  0.105820  0.988990  0.697240  1.0  -0.5413
  O  O97  1  0.685150  0.255840  0.322960  1.0  -0.5394
  O  O98  1  0.980730  0.430070  0.300300  1.0  -0.6144
  O  O99  1  0.291810  0.492110  0.217350  1.0  -0.6695
  O  O100  1  0.894180  0.511010  0.197240  1.0  -0.5413
  O  O101  1  0.685150  0.755840  0.177040  1.0  -0.5388
  O  O102  1  0.980730  0.930070  0.199700  1.0  -0.6145
  O  O103  1  0.291810  0.992110  0.282650  1.0  -0.6702
  O  O104  1  0.894180  0.011010  0.302760  1.0  -0.5415
  O  O105  1  0.314850  0.744160  0.677040  1.0  -0.5394
  O  O106  1  0.019270  0.569930  0.699700  1.0  -0.6144
  O  O107  1  0.708190  0.507890  0.782650  1.0  -0.6685
  O  O108  1  0.105820  0.488990  0.802760  1.0  -0.5414
