# generated using pymatgen
data_Sm4H14C28N4O17
_symmetry_space_group_name_H-M   'P 1'
_cell_length_a   16.47300000
_cell_length_b   17.06800000
_cell_length_c   17.38400000
_cell_angle_alpha   77.35000000
_cell_angle_beta   62.91000000
_cell_angle_gamma   62.40000000
_symmetry_Int_Tables_number   1
_chemical_formula_structural   Sm4H14C28N4O17
_chemical_formula_sum   'Sm8 H28 C56 N8 O34'
_cell_volume   3856.10413621
_cell_formula_units_Z   2
loop_
 _symmetry_equiv_pos_site_id
 _symmetry_equiv_pos_as_xyz
  1  'x, y, z'
loop_
 _atom_site_type_symbol
 _atom_site_label
 _atom_site_symmetry_multiplicity
 _atom_site_fract_x
 _atom_site_fract_y
 _atom_site_fract_z
 _atom_site_occupancy
 _atom_site_charge
  Sm  Sm1  1  0.959480  0.806760  0.042680  1.0  2.0462
  Sm  Sm2  1  0.017360  0.024170  0.678060  1.0  2.0311
  Sm  Sm3  1  0.683910  0.315490  0.554620  1.0  2.0753
  Sm  Sm4  1  0.223680  0.481600  0.802070  1.0  1.9648
  Sm  Sm5  1  0.040520  0.193240  0.957320  1.0  2.0466
  Sm  Sm6  1  0.982640  0.975830  0.321940  1.0  2.0324
  Sm  Sm7  1  0.316090  0.684510  0.445380  1.0  2.0751
  Sm  Sm8  1  0.776320  0.518400  0.197930  1.0  1.9713
  H  H9  1  0.234000  0.370400  0.904200  1.0  0.3775
  H  H10  1  0.303200  0.405900  0.864700  1.0  0.2417
  H  H11  1  0.041100  0.347000  0.703600  1.0  0.1085
  H  H12  1  0.237900  0.721100  0.167500  1.0  0.1069
  H  H13  1  0.643900  0.040800  0.492100  1.0  0.1122
  H  H14  1  0.358000  0.585900  0.094700  1.0  0.1055
  H  H15  1  0.322200  0.537900  0.000300  1.0  0.1139
  H  H16  1  0.385400  0.206400  0.668600  1.0  0.115
  H  H17  1  0.478100  0.073700  0.592700  1.0  0.1029
  H  H18  1  0.156100  0.503200  0.517900  1.0  0.1122
  H  H19  1  0.577200  0.091900  0.946400  1.0  0.1032
  H  H20  1  0.610300  0.161400  0.806800  1.0  0.11
  H  H21  1  0.720100  0.979900  0.972500  1.0  0.1085
  H  H22  1  0.061500  0.415000  0.570100  1.0  0.1009
  H  H23  1  0.766000  0.629600  0.095800  1.0  0.3775
  H  H24  1  0.696800  0.594100  0.135300  1.0  0.2403
  H  H25  1  0.958900  0.653000  0.296400  1.0  0.1087
  H  H26  1  0.762100  0.278900  0.832500  1.0  0.1076
  H  H27  1  0.356100  0.959200  0.507900  1.0  0.1124
  H  H28  1  0.642000  0.414100  0.905300  1.0  0.1036
  H  H29  1  0.677800  0.462100  0.999700  1.0  0.1139
  H  H30  1  0.614600  0.793600  0.331400  1.0  0.115
  H  H31  1  0.521900  0.926300  0.407300  1.0  0.104
  H  H32  1  0.843900  0.496800  0.482100  1.0  0.1128
  H  H33  1  0.422800  0.908100  0.053600  1.0  0.1046
  H  H34  1  0.389700  0.838600  0.193200  1.0  0.1099
  H  H35  1  0.279900  0.020100  0.027500  1.0  0.1085
  H  H36  1  0.938500  0.585000  0.429900  1.0  0.1017
  C  C37  1  0.787200  0.146900  0.679600  1.0  0.6901
  C  C38  1  0.644200  0.077400  0.903100  1.0  -0.1278
  C  C39  1  0.663900  0.119700  0.820700  1.0  -0.1193
  C  C40  1  0.728900  0.012300  0.918800  1.0  -0.1124
  C  C41  1  0.760200  0.099400  0.764000  1.0  0.0953
  C  C42  1  0.824000  0.996500  0.855200  1.0  0.0898
  C  C43  1  0.754100  0.135200  0.456900  1.0  0.7121
  C  C44  1  0.156900  0.617700  0.965300  1.0  0.7091
  C  C45  1  0.114900  0.397900  0.732000  1.0  0.1005
  C  C46  1  0.176600  0.487300  0.627100  1.0  0.0981
  C  C47  1  0.242300  0.536700  0.600000  1.0  0.7097
  C  C48  1  0.107400  0.354300  0.819000  1.0  0.7082
  C  C49  1  0.184800  0.642000  0.024400  1.0  0.114
  C  C50  1  0.140500  0.742400  0.119200  1.0  0.1096
  C  C51  1  0.088800  0.423200  0.603300  1.0  -0.1083
  C  C52  1  0.056800  0.828200  0.165200  1.0  0.6824
  C  C53  1  0.225800  0.699100  0.130000  1.0  -0.1087
  C  C54  1  0.076200  0.384300  0.681800  1.0  -0.1121
  C  C55  1  0.605900  0.092300  0.526500  1.0  -0.1278
  C  C56  1  0.502100  0.242600  0.620500  1.0  0.1019
  C  C57  1  0.297500  0.619500  0.086500  1.0  -0.1116
  C  C58  1  0.275700  0.591100  0.031400  1.0  -0.1126
  C  C59  1  0.453900  0.188900  0.631400  1.0  -0.1278
  C  C60  1  0.507800  0.112600  0.585000  1.0  -0.0885
  C  C61  1  0.143400  0.476700  0.572800  1.0  -0.121
  C  C62  1  0.452100  0.326000  0.669900  1.0  0.7007
  C  C63  1  0.648600  0.149900  0.517000  1.0  0.0806
  C  C64  1  0.915700  0.931400  0.865800  1.0  0.7072
  C  C65  1  0.212800  0.853100  0.320400  1.0  0.6918
  C  C66  1  0.355800  0.922600  0.096900  1.0  -0.127
  C  C67  1  0.336100  0.880300  0.179300  1.0  -0.1179
  C  C68  1  0.271100  0.987700  0.081200  1.0  -0.1117
  C  C69  1  0.239800  0.900600  0.236000  1.0  0.0953
  C  C70  1  0.176000  0.003500  0.144800  1.0  0.0897
  C  C71  1  0.245900  0.864800  0.543100  1.0  0.7071
  C  C72  1  0.843100  0.382300  0.034700  1.0  0.7103
  C  C73  1  0.885100  0.602100  0.268000  1.0  0.1012
  C  C74  1  0.823400  0.512700  0.372900  1.0  0.0968
  C  C75  1  0.757700  0.463300  0.400000  1.0  0.7172
  C  C76  1  0.892600  0.645700  0.181000  1.0  0.7061
  C  C77  1  0.815200  0.358000  0.975600  1.0  0.1138
  C  C78  1  0.859500  0.257600  0.880800  1.0  0.109
  C  C79  1  0.911200  0.576800  0.396700  1.0  -0.11
  C  C80  1  0.943200  0.171800  0.834800  1.0  0.6821
  C  C81  1  0.774200  0.300900  0.870000  1.0  -0.1092
  C  C82  1  0.923800  0.615700  0.318200  1.0  -0.1107
  C  C83  1  0.394100  0.907700  0.473500  1.0  -0.1278
  C  C84  1  0.497900  0.757400  0.379500  1.0  0.1016
  C  C85  1  0.702500  0.380500  0.913500  1.0  -0.1114
  C  C86  1  0.724300  0.408900  0.968600  1.0  -0.113
  C  C87  1  0.546100  0.811100  0.368600  1.0  -0.1279
  C  C88  1  0.492200  0.887400  0.415000  1.0  -0.0876
  C  C89  1  0.856600  0.523300  0.427200  1.0  -0.123
  C  C90  1  0.547900  0.674000  0.330100  1.0  0.7006
  C  C91  1  0.351400  0.850100  0.483000  1.0  0.081
  C  C92  1  0.084300  0.068600  0.134200  1.0  0.7049
  N  N93  1  0.842700  0.037800  0.778000  1.0  -0.5378
  N  N94  1  0.596600  0.222400  0.565500  1.0  -0.5445
  N  N95  1  0.120600  0.717200  0.065400  1.0  -0.5126
  N  N96  1  0.160800  0.450700  0.706000  1.0  -0.5584
  N  N97  1  0.157300  0.962200  0.222000  1.0  -0.5378
  N  N98  1  0.403400  0.777600  0.434500  1.0  -0.5435
  N  N99  1  0.879400  0.282800  0.934600  1.0  -0.5117
  N  N100  1  0.839200  0.549300  0.294000  1.0  -0.5616
  O  O101  1  0.361600  0.352000  0.721300  1.0  -0.6886
  O  O102  1  0.718600  0.203000  0.656700  1.0  -0.7595
  O  O103  1  0.880900  0.128500  0.635100  1.0  -0.7998
  O  O104  1  0.908400  0.881700  0.929800  1.0  -0.8057
  O  O105  1  0.074300  0.672700  0.961900  1.0  -0.7596
  O  O106  1  0.508100  0.364200  0.655700  1.0  -0.781
  O  O107  1  0.071900  0.299000  0.844900  1.0  -0.7493
  O  O108  1  0.144900  0.375500  0.856100  1.0  -0.7631
  O  O109  1  0.069000  0.858500  0.215800  1.0  -0.7302
  O  O110  1  0.807500  0.068500  0.408700  1.0  -0.8267
  O  O111  1  0.212700  0.549400  0.922800  1.0  -0.7579
  O  O112  1  0.000800  0.929600  0.808800  1.0  -0.7372
  O  O113  1  0.279300  0.532200  0.649700  1.0  -0.7146
  O  O114  1  0.253800  0.578200  0.529300  1.0  -0.8345
  O  O115  1  0.279700  0.377800  0.908600  1.0  -0.6588
  O  O116  1  0.980800  0.862800  0.147000  1.0  -0.7855
  O  O117  1  0.782900  0.191200  0.457900  1.0  -0.7675
  O  O118  1  0.638400  0.648000  0.278700  1.0  -0.6899
  O  O119  1  0.281400  0.797000  0.343300  1.0  -0.7585
  O  O120  1  0.119100  0.871500  0.364900  1.0  -0.798
  O  O121  1  0.091600  0.118300  0.070200  1.0  -0.8083
  O  O122  1  0.925700  0.327300  0.038100  1.0  -0.7614
  O  O123  1  0.491900  0.635800  0.344300  1.0  -0.7778
  O  O124  1  0.928100  0.701000  0.155100  1.0  -0.7506
  O  O125  1  0.855100  0.624500  0.143900  1.0  -0.7625
  O  O126  1  0.931000  0.141500  0.784200  1.0  -0.731
  O  O127  1  0.192500  0.931500  0.591300  1.0  -0.8279
  O  O128  1  0.787300  0.450600  0.077200  1.0  -0.7573
  O  O129  1  0.999200  0.070400  0.191200  1.0  -0.7377
  O  O130  1  0.720700  0.467800  0.350300  1.0  -0.7126
  O  O131  1  0.746200  0.421800  0.470700  1.0  -0.8341
  O  O132  1  0.720300  0.622200  0.091400  1.0  -0.6596
  O  O133  1  0.019200  0.137200  0.853000  1.0  -0.785
  O  O134  1  0.217100  0.808800  0.542100  1.0  -0.765
