# generated using pymatgen
data_La2H22C14N2O16F
_symmetry_space_group_name_H-M   'P 1'
_cell_length_a   15.69800000
_cell_length_b   17.32140000
_cell_length_c   17.93670000
_cell_angle_alpha   77.83350000
_cell_angle_beta   64.04950000
_cell_angle_gamma   63.05470000
_symmetry_Int_Tables_number   1
_chemical_formula_structural   La2H22C14N2O16F
_chemical_formula_sum   'La8 H88 C56 N8 O64 F4'
_cell_volume   3908.87916986
_cell_formula_units_Z   4
loop_
 _symmetry_equiv_pos_site_id
 _symmetry_equiv_pos_as_xyz
  1  'x, y, z'
loop_
 _atom_site_type_symbol
 _atom_site_label
 _atom_site_symmetry_multiplicity
 _atom_site_fract_x
 _atom_site_fract_y
 _atom_site_fract_z
 _atom_site_occupancy
 _atom_site_charge
  La  La1  1  0.422930  0.549900  0.828580  1.0  1.9807
  La  La2  1  0.473520  0.824410  0.986610  1.0  2.0646
  La  La3  1  0.801410  0.950100  0.671420  1.0  1.9829
  La  La4  1  0.284540  0.675590  0.513390  1.0  2.065
  La  La5  1  0.577070  0.450100  0.171420  1.0  1.9799
  La  La6  1  0.526480  0.175590  0.013390  1.0  2.0641
  La  La7  1  0.198590  0.049900  0.328580  1.0  1.9817
  La  La8  1  0.715460  0.324410  0.486610  1.0  2.0645
  H  H9  1  0.798500  0.509600  0.570800  1.0  0.0757
  H  H10  1  0.805100  0.633000  0.590400  1.0  0.096
  H  H11  1  0.690200  0.706600  0.718600  1.0  0.082
  H  H12  1  0.475200  0.782700  0.647100  1.0  0.0826
  H  H13  1  0.491300  0.898900  0.555900  1.0  0.0937
  H  H14  1  0.413100  0.937900  0.461100  1.0  0.0736
  H  H15  1  0.254900  0.566000  0.784000  1.0  0.4478
  H  H16  1  0.324200  0.481700  0.765500  1.0  0.4179
  H  H17  1  0.194300  0.712100  0.894900  1.0  0.3978
  H  H18  1  0.270200  0.725400  0.829000  1.0  0.3831
  H  H19  1  0.534200  0.402700  0.880300  1.0  0.309
  H  H20  1  0.383000  0.518600  0.013200  1.0  0.4187
  H  H21  1  0.286000  0.555000  0.018600  1.0  0.3685
  H  H22  1  0.385700  0.923200  0.841200  1.0  0.4184
  H  H23  1  0.323400  0.901300  0.911300  1.0  0.4118
  H  H24  1  0.283200  0.763200  0.025400  1.0  0.4228
  H  H25  1  0.357300  0.732200  0.054800  1.0  0.4466
  H  H26  1  0.433900  0.905400  0.130200  1.0  0.4304
  H  H27  1  0.512600  0.832800  0.141200  1.0  0.4043
  H  H28  1  0.385700  0.016500  0.024900  1.0  0.3503
  H  H29  1  0.408900  0.021400  0.941200  1.0  0.4089
  H  H30  1  0.616400  0.424200  0.828200  1.0  0.4064
  H  H31  1  0.878900  0.990400  0.929200  1.0  0.0757
  H  H32  1  0.028500  0.867000  0.909600  1.0  0.0949
  H  H33  1  0.115400  0.793400  0.781400  1.0  0.0825
  H  H34  1  0.905000  0.717300  0.852900  1.0  0.0845
  H  H35  1  0.946100  0.601100  0.944100  1.0  0.0946
  H  H36  1  0.812100  0.562100  0.038900  1.0  0.0731
  H  H37  1  0.604900  0.934000  0.716000  1.0  0.4478
  H  H38  1  0.571400  0.018300  0.734500  1.0  0.4215
  H  H39  1  0.801300  0.787900  0.605100  1.0  0.3986
  H  H40  1  0.824600  0.774600  0.671000  1.0  0.3862
  H  H41  1  0.817200  0.097300  0.619700  1.0  0.3099
  H  H42  1  0.914800  0.981400  0.486800  1.0  0.4161
  H  H43  1  0.859600  0.945000  0.481400  1.0  0.3732
  H  H44  1  0.150100  0.576800  0.658800  1.0  0.4176
  H  H45  1  0.136000  0.598700  0.588700  1.0  0.4105
  H  H46  1  0.071800  0.736800  0.474600  1.0  0.4224
  H  H47  1  0.144300  0.767800  0.445200  1.0  0.4457
  H  H48  1  0.469500  0.594600  0.369800  1.0  0.4288
  H  H49  1  0.486600  0.667200  0.358800  1.0  0.4011
  H  H50  1  0.427100  0.483500  0.475100  1.0  0.3501
  H  H51  1  0.371500  0.478600  0.558800  1.0  0.4089
  H  H52  1  0.868800  0.075800  0.671800  1.0  0.4087
  H  H53  1  0.201500  0.490400  0.429200  1.0  0.075
  H  H54  1  0.194900  0.367000  0.409600  1.0  0.0956
  H  H55  1  0.309800  0.293400  0.281400  1.0  0.0822
  H  H56  1  0.524800  0.217300  0.352900  1.0  0.0834
  H  H57  1  0.508700  0.101100  0.444100  1.0  0.0936
  H  H58  1  0.586900  0.062100  0.538900  1.0  0.0737
  H  H59  1  0.745100  0.434000  0.216000  1.0  0.4513
  H  H60  1  0.675800  0.518300  0.234500  1.0  0.4191
  H  H61  1  0.805700  0.287900  0.105100  1.0  0.4019
  H  H62  1  0.729800  0.274600  0.171000  1.0  0.387
  H  H63  1  0.465800  0.597300  0.119700  1.0  0.3111
  H  H64  1  0.617000  0.481400  0.986800  1.0  0.4154
  H  H65  1  0.714000  0.445000  0.981400  1.0  0.3716
  H  H66  1  0.614300  0.076800  0.158800  1.0  0.4183
  H  H67  1  0.676600  0.098700  0.088700  1.0  0.4144
  H  H68  1  0.716800  0.236800  0.974600  1.0  0.425
  H  H69  1  0.642700  0.267800  0.945200  1.0  0.4446
  H  H70  1  0.566100  0.094600  0.869800  1.0  0.4302
  H  H71  1  0.487400  0.167200  0.858800  1.0  0.4039
  H  H72  1  0.614300  0.983500  0.975100  1.0  0.35
  H  H73  1  0.591100  0.978600  0.058800  1.0  0.4076
  H  H74  1  0.383600  0.575800  0.171800  1.0  0.4094
  H  H75  1  0.121100  0.009600  0.070800  1.0  0.0755
  H  H76  1  0.971500  0.133000  0.090400  1.0  0.0953
  H  H77  1  0.884600  0.206600  0.218600  1.0  0.0828
  H  H78  1  0.095000  0.282700  0.147100  1.0  0.0833
  H  H79  1  0.053900  0.398900  0.055900  1.0  0.0948
  H  H80  1  0.187900  0.437900  0.961100  1.0  0.073
  H  H81  1  0.395100  0.066000  0.284000  1.0  0.4495
  H  H82  1  0.428600  0.981700  0.265500  1.0  0.4183
  H  H83  1  0.198700  0.212100  0.394900  1.0  0.3983
  H  H84  1  0.175400  0.225400  0.329000  1.0  0.3813
  H  H85  1  0.182800  0.902700  0.380300  1.0  0.3067
  H  H86  1  0.085200  0.018600  0.513200  1.0  0.4178
  H  H87  1  0.140400  0.055000  0.518600  1.0  0.3721
  H  H88  1  0.849900  0.423200  0.341200  1.0  0.4173
  H  H89  1  0.864000  0.401300  0.411300  1.0  0.4118
  H  H90  1  0.928200  0.263200  0.525400  1.0  0.4216
  H  H91  1  0.855700  0.232200  0.554800  1.0  0.4451
  H  H92  1  0.530500  0.405400  0.630200  1.0  0.431
  H  H93  1  0.513400  0.332800  0.641200  1.0  0.405
  H  H94  1  0.572900  0.516500  0.524900  1.0  0.3497
  H  H95  1  0.628500  0.521400  0.441200  1.0  0.4075
  H  H96  1  0.131200  0.924200  0.328200  1.0  0.4084
  C  C97  1  0.642400  0.454600  0.654400  1.0  0.6462
  C  C98  1  0.666667  0.521400  0.670400  1.0  0.0505
  C  C99  1  0.748100  0.543700  0.616700  1.0  -0.1194
  C  C100  1  0.755500  0.614300  0.630100  1.0  -0.1354
  C  C101  1  0.685400  0.659400  0.706600  1.0  -0.093
  C  C102  1  0.611400  0.631000  0.761600  1.0  0.0968
  C  C103  1  0.533300  0.673500  0.845700  1.0  0.6487
  C  C104  1  0.394700  0.673300  0.645500  1.0  0.6628
  C  C105  1  0.406500  0.749100  0.592500  1.0  0.0888
  C  C106  1  0.451100  0.797600  0.604800  1.0  -0.1026
  C  C107  1  0.458100  0.867600  0.552600  1.0  -0.1482
  C  C108  1  0.413400  0.889400  0.495200  1.0  -0.1213
  C  C109  1  0.368800  0.838300  0.488300  1.0  0.1054
  C  C110  1  0.315100  0.861500  0.430300  1.0  0.6606
  C  C111  1  0.751400  0.045400  0.845600  1.0  0.6466
  C  C112  1  0.858400  0.978600  0.829600  1.0  0.0535
  C  C113  1  0.908500  0.956300  0.883300  1.0  -0.1256
  C  C114  1  0.999900  0.885700  0.869900  1.0  -0.136
  C  C115  1  0.051400  0.840600  0.793400  1.0  -0.093
  C  C116  1  0.004000  0.869000  0.738400  1.0  0.0988
  C  C117  1  0.052500  0.826500  0.654300  1.0  0.6501
  C  C118  1  0.713500  0.826700  0.854500  1.0  0.6632
  C  C119  1  0.748100  0.750900  0.907500  1.0  0.0895
  C  C120  1  0.853500  0.702400  0.895200  1.0  -0.0997
  C  C121  1  0.878300  0.632400  0.947400  1.0  -0.1489
  C  C122  1  0.798000  0.610600  0.004800  1.0  -0.1218
  C  C123  1  0.695400  0.661700  0.011700  1.0  0.1044
  C  C124  1  0.606900  0.638500  0.069700  1.0  0.6565
  C  C125  1  0.357600  0.545400  0.345600  1.0  0.6448
  C  C126  1  0.333400  0.478600  0.329600  1.0  0.0523
  C  C127  1  0.251900  0.456300  0.383300  1.0  -0.1201
  C  C128  1  0.244500  0.385700  0.369900  1.0  -0.1353
  C  C129  1  0.314600  0.340600  0.293400  1.0  -0.092
  C  C130  1  0.388600  0.369000  0.238400  1.0  0.0974
  C  C131  1  0.466700  0.326500  0.154300  1.0  0.6475
  C  C132  1  0.605300  0.326700  0.354500  1.0  0.6618
  C  C133  1  0.593500  0.250900  0.407500  1.0  0.089
  C  C134  1  0.548900  0.202400  0.395200  1.0  -0.1039
  C  C135  1  0.541900  0.132400  0.447400  1.0  -0.1481
  C  C136  1  0.586600  0.110600  0.504800  1.0  -0.1222
  C  C137  1  0.631200  0.161700  0.511700  1.0  0.1044
  C  C138  1  0.684900  0.138500  0.569700  1.0  0.6613
  C  C139  1  0.248600  0.954600  0.154400  1.0  0.6453
  C  C140  1  0.141600  0.021400  0.170400  1.0  0.0519
  C  C141  1  0.091500  0.043700  0.116700  1.0  -0.1228
  C  C142  1  0.000100  0.114300  0.130100  1.0  -0.1339
  C  C143  1  0.948600  0.159400  0.206600  1.0  -0.0936
  C  C144  1  0.996000  0.131000  0.261600  1.0  0.0972
  C  C145  1  0.947500  0.173500  0.345700  1.0  0.6495
  C  C146  1  0.286500  0.173300  0.145500  1.0  0.6631
  C  C147  1  0.251900  0.249100  0.092500  1.0  0.0884
  C  C148  1  0.146500  0.297600  0.104800  1.0  -0.1006
  C  C149  1  0.121700  0.367600  0.052600  1.0  -0.1492
  C  C150  1  0.202000  0.389400  0.995200  1.0  -0.1202
  C  C151  1  0.304600  0.338300  0.988300  1.0  0.1055
  C  C152  1  0.393100  0.361500  0.930300  1.0  0.6589
  N  N153  1  0.598900  0.566500  0.742300  1.0  -0.4386
  N  N154  1  0.366100  0.770200  0.535200  1.0  -0.4167
  N  N155  1  0.907700  0.933500  0.757700  1.0  -0.4422
  N  N156  1  0.671500  0.729800  0.964800  1.0  -0.4174
  N  N157  1  0.401100  0.433500  0.257700  1.0  -0.4407
  N  N158  1  0.633900  0.229800  0.464800  1.0  -0.4179
  N  N159  1  0.092300  0.066500  0.242300  1.0  -0.4407
  N  N160  1  0.328500  0.270200  0.035200  1.0  -0.4193
  O  O161  1  0.418400  0.654600  0.707200  1.0  -0.6781
  O  O162  1  0.309800  0.928800  0.389000  1.0  -0.6107
  O  O163  1  0.551400  0.722600  0.871200  1.0  -0.7179
  O  O164  1  0.704500  0.409400  0.591600  1.0  -0.7015
  O  O165  1  0.554500  0.453100  0.704100  1.0  -0.6512
  O  O166  1  0.458000  0.651400  0.882800  1.0  -0.6874
  O  O167  1  0.357200  0.632800  0.625800  1.0  -0.6905
  O  O168  1  0.274600  0.812900  0.430500  1.0  -0.62
  O  O169  1  0.319100  0.533300  0.761300  1.0  -0.7925
  O  O170  1  0.259900  0.695700  0.873900  1.0  -0.8225
  O  O171  1  0.573000  0.430000  0.878400  1.0  -0.7928
  O  O172  1  0.343600  0.559600  0.992200  1.0  -0.818
  O  O173  1  0.386500  0.895300  0.886100  1.0  -0.8326
  O  O174  1  0.343100  0.760800  0.014000  1.0  -0.7933
  O  O175  1  0.497300  0.871600  0.105600  1.0  -0.7814
  O  O176  1  0.426600  0.989400  0.979600  1.0  -0.8088
  O  O177  1  0.780200  0.845400  0.792800  1.0  -0.6793
  O  O178  1  0.627600  0.571200  0.111000  1.0  -0.6116
  O  O179  1  0.145200  0.777400  0.628800  1.0  -0.7166
  O  O180  1  0.705500  0.090600  0.908400  1.0  -0.7046
  O  O181  1  0.711700  0.046900  0.795900  1.0  -0.6513
  O  O182  1  0.992200  0.848600  0.617200  1.0  -0.6876
  O  O183  1  0.615800  0.867200  0.874200  1.0  -0.6892
  O  O184  1  0.518000  0.687100  0.069500  1.0  -0.618
  O  O185  1  0.613700  0.966700  0.738700  1.0  -0.7934
  O  O186  1  0.829500  0.804300  0.626100  1.0  -0.8249
  O  O187  1  0.881400  0.070000  0.621600  1.0  -0.7929
  O  O188  1  0.895400  0.940400  0.507800  1.0  -0.8134
  O  O189  1  0.167900  0.604700  0.613900  1.0  -0.833
  O  O190  1  0.117900  0.739200  0.486000  1.0  -0.7925
  O  O191  1  0.474500  0.628400  0.394400  1.0  -0.7767
  O  O192  1  0.395600  0.510600  0.520400  1.0  -0.8071
  O  O193  1  0.581600  0.345400  0.292800  1.0  -0.6784
  O  O194  1  0.690200  0.071200  0.611000  1.0  -0.6107
  O  O195  1  0.448600  0.277400  0.128800  1.0  -0.7186
  O  O196  1  0.295500  0.590600  0.408400  1.0  -0.7033
  O  O197  1  0.445500  0.546900  0.295900  1.0  -0.6496
  O  O198  1  0.542000  0.348600  0.117200  1.0  -0.688
  O  O199  1  0.642800  0.367200  0.374200  1.0  -0.6918
  O  O200  1  0.725400  0.187100  0.569500  1.0  -0.6189
  O  O201  1  0.680900  0.466700  0.238700  1.0  -0.7932
  O  O202  1  0.740100  0.304300  0.126100  1.0  -0.8218
  O  O203  1  0.427000  0.570000  0.121600  1.0  -0.7945
  O  O204  1  0.656400  0.440400  0.007800  1.0  -0.8158
  O  O205  1  0.613500  0.104700  0.113900  1.0  -0.8366
  O  O206  1  0.656900  0.239200  0.986000  1.0  -0.7944
  O  O207  1  0.502700  0.128400  0.894400  1.0  -0.7821
  O  O208  1  0.573400  0.010600  0.020400  1.0  -0.8076
  O  O209  1  0.219800  0.154600  0.207200  1.0  -0.6791
  O  O210  1  0.372400  0.428800  0.889000  1.0  -0.6121
  O  O211  1  0.854800  0.222600  0.371200  1.0  -0.7155
  O  O212  1  0.294500  0.909400  0.091600  1.0  -0.7054
  O  O213  1  0.288300  0.953100  0.204100  1.0  -0.6525
  O  O214  1  0.007800  0.151400  0.382800  1.0  -0.6881
  O  O215  1  0.384200  0.132800  0.125800  1.0  -0.69
  O  O216  1  0.482000  0.312900  0.930500  1.0  -0.6196
  O  O217  1  0.386300  0.033300  0.261300  1.0  -0.7964
  O  O218  1  0.170500  0.195700  0.373900  1.0  -0.8269
  O  O219  1  0.118600  0.930000  0.378400  1.0  -0.7958
  O  O220  1  0.104600  0.059600  0.492200  1.0  -0.8183
  O  O221  1  0.832100  0.395300  0.386100  1.0  -0.8332
  O  O222  1  0.882100  0.260800  0.514000  1.0  -0.7931
  O  O223  1  0.525500  0.371600  0.605600  1.0  -0.7781
  O  O224  1  0.604400  0.489400  0.479600  1.0  -0.8108
  F  F225  1  0.043600  0.366000  0.335800  1.0  -0.5741
  F  F226  1  0.745400  0.134000  0.164200  1.0  -0.576
  F  F227  1  0.956400  0.634000  0.664200  1.0  -0.5748
  F  F228  1  0.254600  0.866000  0.835800  1.0  -0.5765
