# generated using pymatgen
data_Rb2Mo2P2H8C5S2(NO5)2
_symmetry_space_group_name_H-M   'P 1'
_cell_length_a   21.56090000
_cell_length_b   21.56090000
_cell_length_c   11.36770000
_cell_angle_alpha   90.00000000
_cell_angle_beta   90.00000000
_cell_angle_gamma   90.00000000
_symmetry_Int_Tables_number   1
_chemical_formula_structural   Rb2Mo2P2H8C5S2(NO5)2
_chemical_formula_sum   'Rb16 Mo16 P16 H64 C40 S16 N16 O80'
_cell_volume   5284.53008163
_cell_formula_units_Z   8
loop_
 _symmetry_equiv_pos_site_id
 _symmetry_equiv_pos_as_xyz
  1  'x, y, z'
loop_
 _atom_site_type_symbol
 _atom_site_label
 _atom_site_symmetry_multiplicity
 _atom_site_fract_x
 _atom_site_fract_y
 _atom_site_fract_z
 _atom_site_occupancy
 _atom_site_charge
  Rb  Rb1  1  0.565150  0.516540  0.131870  1.0  0.9169
  Rb  Rb2  1  0.468990  0.286010  0.503110  1.0  0.8918
  Rb  Rb3  1  0.934850  0.983460  0.131870  1.0  0.9164
  Rb  Rb4  1  0.031010  0.213990  0.503110  1.0  0.8898
  Rb  Rb5  1  0.483460  0.065150  0.631870  1.0  0.9161
  Rb  Rb6  1  0.713990  0.968990  0.003110  1.0  0.8918
  Rb  Rb7  1  0.016540  0.434850  0.631870  1.0  0.9168
  Rb  Rb8  1  0.786010  0.531010  0.003110  1.0  0.8899
  Rb  Rb9  1  0.434850  0.483460  0.868130  1.0  0.915
  Rb  Rb10  1  0.531010  0.713990  0.496890  1.0  0.89
  Rb  Rb11  1  0.065150  0.016540  0.868130  1.0  0.9157
  Rb  Rb12  1  0.968990  0.786010  0.496890  1.0  0.8917
  Rb  Rb13  1  0.516540  0.934850  0.368130  1.0  0.9152
  Rb  Rb14  1  0.286010  0.031010  0.996890  1.0  0.8897
  Rb  Rb15  1  0.983460  0.565150  0.368130  1.0  0.9149
  Rb  Rb16  1  0.213990  0.468990  0.996890  1.0  0.892
  Mo  Mo17  1  0.383980  0.465130  0.216320  1.0  1.3116
  Mo  Mo18  1  0.451870  0.358860  0.144520  1.0  1.2612
  Mo  Mo19  1  0.116020  0.034870  0.216320  1.0  1.3129
  Mo  Mo20  1  0.048130  0.141140  0.144520  1.0  1.2617
  Mo  Mo21  1  0.534870  0.883980  0.716320  1.0  1.3125
  Mo  Mo22  1  0.641140  0.951870  0.644520  1.0  1.2606
  Mo  Mo23  1  0.965130  0.616020  0.716320  1.0  1.3157
  Mo  Mo24  1  0.858860  0.548130  0.644520  1.0  1.2595
  Mo  Mo25  1  0.616020  0.534870  0.783680  1.0  1.3143
  Mo  Mo26  1  0.548130  0.641140  0.855480  1.0  1.2624
  Mo  Mo27  1  0.883980  0.965130  0.783680  1.0  1.3126
  Mo  Mo28  1  0.951870  0.858860  0.855480  1.0  1.262
  Mo  Mo29  1  0.465130  0.116020  0.283680  1.0  1.3165
  Mo  Mo30  1  0.358860  0.048130  0.355480  1.0  1.2603
  Mo  Mo31  1  0.034870  0.383980  0.283680  1.0  1.3144
  Mo  Mo32  1  0.141140  0.451870  0.355480  1.0  1.2613
  P  P33  1  0.290710  0.438880  0.443560  1.0  1.396
  P  P34  1  0.264920  0.544340  0.277970  1.0  1.4076
  P  P35  1  0.209290  0.061120  0.443560  1.0  1.3955
  P  P36  1  0.235080  0.955660  0.277970  1.0  1.4075
  P  P37  1  0.561120  0.790710  0.943560  1.0  1.391
  P  P38  1  0.455660  0.764920  0.777970  1.0  1.4065
  P  P39  1  0.938880  0.709290  0.943560  1.0  1.3927
  P  P40  1  0.044340  0.735080  0.777970  1.0  1.4074
  P  P41  1  0.709290  0.561120  0.556440  1.0  1.3954
  P  P42  1  0.735080  0.455660  0.722030  1.0  1.407
  P  P43  1  0.790710  0.938880  0.556440  1.0  1.395
  P  P44  1  0.764920  0.044340  0.722030  1.0  1.4048
  P  P45  1  0.438880  0.209290  0.056440  1.0  1.3914
  P  P46  1  0.544340  0.235080  0.222030  1.0  1.4068
  P  P47  1  0.061120  0.290710  0.056440  1.0  1.3904
  P  P48  1  0.955660  0.264920  0.222030  1.0  1.4048
  H  H49  1  0.362600  0.315500  0.301000  1.0  0.4483
  H  H50  1  0.387000  0.267200  0.263000  1.0  0.3804
  H  H51  1  0.335900  0.548500  0.574500  1.0  0.1147
  H  H52  1  0.326200  0.605100  0.485400  1.0  0.1266
  H  H53  1  0.206100  0.643100  0.452700  1.0  0.1165
  H  H54  1  0.116200  0.636500  0.589200  1.0  0.1044
  H  H55  1  0.245700  0.518100  0.701600  1.0  0.1093
  H  H56  1  0.144100  0.558500  0.735000  1.0  0.2249
  H  H57  1  0.137400  0.184500  0.301000  1.0  0.4495
  H  H58  1  0.113000  0.232800  0.263000  1.0  0.3826
  H  H59  1  0.164100  0.951500  0.574500  1.0  0.1161
  H  H60  1  0.173800  0.894900  0.485400  1.0  0.1272
  H  H61  1  0.293900  0.856900  0.452700  1.0  0.1162
  H  H62  1  0.383800  0.863500  0.589200  1.0  0.1041
  H  H63  1  0.254300  0.981900  0.701600  1.0  0.1093
  H  H64  1  0.355900  0.941500  0.735000  1.0  0.2254
  H  H65  1  0.684500  0.862600  0.801000  1.0  0.4478
  H  H66  1  0.732800  0.887000  0.763000  1.0  0.379
  H  H67  1  0.451500  0.835900  0.074500  1.0  0.1167
  H  H68  1  0.394900  0.826200  0.985400  1.0  0.1263
  H  H69  1  0.356900  0.706100  0.952700  1.0  0.115
  H  H70  1  0.363500  0.616200  0.089200  1.0  0.104
  H  H71  1  0.481900  0.745700  0.201600  1.0  0.1081
  H  H72  1  0.441500  0.644100  0.235000  1.0  0.2246
  H  H73  1  0.815500  0.637400  0.801000  1.0  0.4469
  H  H74  1  0.767200  0.613000  0.763000  1.0  0.3803
  H  H75  1  0.048500  0.664100  0.074500  1.0  0.1173
  H  H76  1  0.105100  0.673800  0.985400  1.0  0.1258
  H  H77  1  0.143100  0.793900  0.952700  1.0  0.115
  H  H78  1  0.136500  0.883800  0.089200  1.0  0.1043
  H  H79  1  0.018100  0.754300  0.201600  1.0  0.1087
  H  H80  1  0.058500  0.855900  0.235000  1.0  0.2252
  H  H81  1  0.637400  0.684500  0.699000  1.0  0.4486
  H  H82  1  0.613000  0.732800  0.737000  1.0  0.3829
  H  H83  1  0.664100  0.451500  0.425500  1.0  0.1163
  H  H84  1  0.673800  0.394900  0.514600  1.0  0.1263
  H  H85  1  0.793900  0.356900  0.547300  1.0  0.1169
  H  H86  1  0.883800  0.363500  0.410800  1.0  0.1043
  H  H87  1  0.754300  0.481900  0.298400  1.0  0.1088
  H  H88  1  0.855900  0.441500  0.265000  1.0  0.225
  H  H89  1  0.862600  0.815500  0.699000  1.0  0.4478
  H  H90  1  0.887000  0.767200  0.737000  1.0  0.3812
  H  H91  1  0.835900  0.048500  0.425500  1.0  0.1151
  H  H92  1  0.826200  0.105100  0.514600  1.0  0.1257
  H  H93  1  0.706100  0.143100  0.547300  1.0  0.1168
  H  H94  1  0.616200  0.136500  0.410800  1.0  0.1042
  H  H95  1  0.745700  0.018100  0.298400  1.0  0.1085
  H  H96  1  0.644100  0.058500  0.265000  1.0  0.2249
  H  H97  1  0.315500  0.137400  0.199000  1.0  0.4462
  H  H98  1  0.267200  0.113000  0.237000  1.0  0.3811
  H  H99  1  0.548500  0.164100  0.925500  1.0  0.1163
  H  H100  1  0.605100  0.173800  0.014600  1.0  0.1253
  H  H101  1  0.643100  0.293900  0.047300  1.0  0.1148
  H  H102  1  0.636500  0.383800  0.910800  1.0  0.104
  H  H103  1  0.518100  0.254300  0.798400  1.0  0.1077
  H  H104  1  0.558500  0.355900  0.765000  1.0  0.2248
  H  H105  1  0.184500  0.362600  0.199000  1.0  0.4481
  H  H106  1  0.232800  0.387000  0.237000  1.0  0.3796
  H  H107  1  0.951500  0.335900  0.925500  1.0  0.1169
  H  H108  1  0.894900  0.326200  0.014600  1.0  0.1257
  H  H109  1  0.856900  0.206100  0.047300  1.0  0.1154
  H  H110  1  0.863500  0.116200  0.910800  1.0  0.1042
  H  H111  1  0.981900  0.245700  0.798400  1.0  0.1078
  H  H112  1  0.941500  0.144100  0.765000  1.0  0.2245
  C  C113  1  0.309510  0.519590  0.407610  1.0  -0.1422
  C  C114  1  0.308670  0.564930  0.511570  1.0  -0.1805
  C  C115  1  0.202670  0.617090  0.519870  1.0  -0.1302
  C  C116  1  0.153660  0.613420  0.593980  1.0  -0.0833
  C  C117  1  0.224710  0.548350  0.655850  1.0  0.0659
  C  C118  1  0.190490  0.980410  0.407610  1.0  -0.1442
  C  C119  1  0.191330  0.935070  0.511570  1.0  -0.182
  C  C120  1  0.297330  0.882910  0.519870  1.0  -0.1295
  C  C121  1  0.346340  0.886580  0.593980  1.0  -0.083
  C  C122  1  0.275290  0.951650  0.655850  1.0  0.0635
  C  C123  1  0.480410  0.809510  0.907610  1.0  -0.1413
  C  C124  1  0.435070  0.808670  0.011570  1.0  -0.1803
  C  C125  1  0.382910  0.702670  0.019870  1.0  -0.1304
  C  C126  1  0.386580  0.653660  0.093980  1.0  -0.0846
  C  C127  1  0.451650  0.724710  0.155850  1.0  0.0675
  C  C128  1  0.019590  0.690490  0.907610  1.0  -0.1428
  C  C129  1  0.064930  0.691330  0.011570  1.0  -0.1803
  C  C130  1  0.117090  0.797330  0.019870  1.0  -0.1296
  C  C131  1  0.113420  0.846340  0.093980  1.0  -0.082
  C  C132  1  0.048350  0.775290  0.155850  1.0  0.0662
  C  C133  1  0.690490  0.480410  0.592390  1.0  -0.1453
  C  C134  1  0.691330  0.435070  0.488430  1.0  -0.1823
  C  C135  1  0.797330  0.382910  0.480130  1.0  -0.1287
  C  C136  1  0.846340  0.386580  0.406020  1.0  -0.0834
  C  C137  1  0.775290  0.451650  0.344150  1.0  0.0649
  C  C138  1  0.809510  0.019590  0.592390  1.0  -0.1431
  C  C139  1  0.808670  0.064930  0.488430  1.0  -0.1816
  C  C140  1  0.702670  0.117090  0.480130  1.0  -0.1295
  C  C141  1  0.653660  0.113420  0.406020  1.0  -0.0836
  C  C142  1  0.724710  0.048350  0.344150  1.0  0.0654
  C  C143  1  0.519590  0.190490  0.092390  1.0  -0.1434
  C  C144  1  0.564930  0.191330  0.988430  1.0  -0.1819
  C  C145  1  0.617090  0.297330  0.980130  1.0  -0.1282
  C  C146  1  0.613420  0.346340  0.906020  1.0  -0.0821
  C  C147  1  0.548350  0.275290  0.844150  1.0  0.0671
  C  C148  1  0.980410  0.309510  0.092390  1.0  -0.1428
  C  C149  1  0.935070  0.308670  0.988430  1.0  -0.1809
  C  C150  1  0.882910  0.202670  0.980130  1.0  -0.1299
  C  C151  1  0.886580  0.153660  0.906020  1.0  -0.0849
  C  C152  1  0.951650  0.224710  0.844150  1.0  0.067
  S  S153  1  0.465710  0.417540  0.314010  1.0  -0.1529
  S  S154  1  0.355220  0.391400  0.077710  1.0  -0.1994
  S  S155  1  0.034290  0.082460  0.314010  1.0  -0.1546
  S  S156  1  0.144780  0.108600  0.077710  1.0  -0.2004
  S  S157  1  0.582460  0.965710  0.814010  1.0  -0.1533
  S  S158  1  0.608600  0.855220  0.577710  1.0  -0.2015
  S  S159  1  0.917540  0.534290  0.814010  1.0  -0.1529
  S  S160  1  0.891400  0.644780  0.577710  1.0  -0.2012
  S  S161  1  0.534290  0.582460  0.685990  1.0  -0.1522
  S  S162  1  0.644780  0.608600  0.922290  1.0  -0.2003
  S  S163  1  0.965710  0.917540  0.685990  1.0  -0.1521
  S  S164  1  0.855220  0.891390  0.922290  1.0  -0.2005
  S  S165  1  0.417540  0.034290  0.185990  1.0  -0.151
  S  S166  1  0.391400  0.144780  0.422290  1.0  -0.2015
  S  S167  1  0.082460  0.465710  0.185990  1.0  -0.1514
  S  S168  1  0.108600  0.355220  0.422290  1.0  -0.2024
  N  N169  1  0.246750  0.575800  0.560700  1.0  0.0406
  N  N170  1  0.168350  0.570190  0.676680  1.0  -0.2987
  N  N171  1  0.253250  0.924200  0.560700  1.0  0.0403
  N  N172  1  0.331650  0.929810  0.676680  1.0  -0.3001
  N  N173  1  0.424200  0.746750  0.060700  1.0  0.0402
  N  N174  1  0.429810  0.668350  0.176680  1.0  -0.3006
  N  N175  1  0.075800  0.753250  0.060700  1.0  0.0407
  N  N176  1  0.070190  0.831650  0.176680  1.0  -0.2997
  N  N177  1  0.753250  0.424200  0.439300  1.0  0.0395
  N  N178  1  0.831650  0.429810  0.323320  1.0  -0.2995
  N  N179  1  0.746750  0.075800  0.439300  1.0  0.0411
  N  N180  1  0.668350  0.070190  0.323320  1.0  -0.2978
  N  N181  1  0.575800  0.253250  0.939300  1.0  0.0407
  N  N182  1  0.570190  0.331650  0.823320  1.0  -0.2982
  N  N183  1  0.924200  0.246750  0.939300  1.0  0.0401
  N  N184  1  0.929810  0.168350  0.823320  1.0  -0.3004
  O  O185  1  0.424320  0.516310  0.133590  1.0  -0.7925
  O  O186  1  0.372620  0.516640  0.368450  1.0  -0.664
  O  O187  1  0.297800  0.507100  0.180880  1.0  -0.8722
  O  O188  1  0.314830  0.404900  0.334810  1.0  -0.8023
  O  O189  1  0.498000  0.396250  0.048390  1.0  -0.8307
  O  O190  1  0.220030  0.432460  0.457870  1.0  -0.8213
  O  O191  1  0.196990  0.523360  0.286510  1.0  -0.8831
  O  O192  1  0.393880  0.297510  0.281640  1.0  -0.8209
  O  O193  1  0.322640  0.421040  0.556760  1.0  -0.5952
  O  O194  1  0.270300  0.613190  0.263280  1.0  -0.6531
  O  O195  1  0.075680  0.983690  0.133590  1.0  -0.7938
  O  O196  1  0.127380  0.983360  0.368450  1.0  -0.6624
  O  O197  1  0.202200  0.992900  0.180880  1.0  -0.8707
  O  O198  1  0.185170  0.095100  0.334810  1.0  -0.8
  O  O199  1  0.002000  0.103750  0.048390  1.0  -0.8293
  O  O200  1  0.279970  0.067540  0.457870  1.0  -0.8204
  O  O201  1  0.303010  0.976640  0.286510  1.0  -0.878
  O  O202  1  0.106120  0.202490  0.281640  1.0  -0.8193
  O  O203  1  0.177360  0.078960  0.556760  1.0  -0.5923
  O  O204  1  0.229700  0.886810  0.263280  1.0  -0.6523
  O  O205  1  0.483690  0.924320  0.633590  1.0  -0.7954
  O  O206  1  0.483360  0.872620  0.868450  1.0  -0.6664
  O  O207  1  0.492900  0.797800  0.680880  1.0  -0.8711
  O  O208  1  0.595100  0.814830  0.834810  1.0  -0.8013
  O  O209  1  0.603750  0.998000  0.548390  1.0  -0.8271
  O  O210  1  0.567540  0.720030  0.957870  1.0  -0.8211
  O  O211  1  0.476640  0.696990  0.786510  1.0  -0.8797
  O  O212  1  0.702490  0.893880  0.781640  1.0  -0.8177
  O  O213  1  0.578960  0.822640  0.056760  1.0  -0.5927
  O  O214  1  0.386810  0.770300  0.763280  1.0  -0.6456
  O  O215  1  0.016310  0.575680  0.633590  1.0  -0.7949
  O  O216  1  0.016640  0.627380  0.868450  1.0  -0.6622
  O  O217  1  0.007100  0.702200  0.680880  1.0  -0.8714
  O  O218  1  0.904900  0.685170  0.834810  1.0  -0.8001
  O  O219  1  0.896250  0.502000  0.548390  1.0  -0.8281
  O  O220  1  0.932460  0.779970  0.957870  1.0  -0.8182
  O  O221  1  0.023360  0.803010  0.786510  1.0  -0.8846
  O  O222  1  0.797510  0.606120  0.781640  1.0  -0.8181
  O  O223  1  0.921040  0.677360  0.056760  1.0  -0.5904
  O  O224  1  0.113190  0.729700  0.763280  1.0  -0.6491
  O  O225  1  0.575680  0.483690  0.866410  1.0  -0.7952
  O  O226  1  0.627380  0.483360  0.631550  1.0  -0.6629
  O  O227  1  0.702200  0.492900  0.819120  1.0  -0.8714
  O  O228  1  0.685170  0.595100  0.665190  1.0  -0.7996
  O  O229  1  0.502000  0.603750  0.951610  1.0  -0.8302
  O  O230  1  0.779970  0.567540  0.542130  1.0  -0.819
  O  O231  1  0.803010  0.476640  0.713490  1.0  -0.8798
  O  O232  1  0.606120  0.702490  0.718360  1.0  -0.8182
  O  O233  1  0.677360  0.578960  0.443240  1.0  -0.5932
  O  O234  1  0.729700  0.386810  0.736720  1.0  -0.6524
  O  O235  1  0.924320  0.016310  0.866410  1.0  -0.7938
  O  O236  1  0.872620  0.016640  0.631550  1.0  -0.6637
  O  O237  1  0.797800  0.007100  0.819120  1.0  -0.8721
  O  O238  1  0.814830  0.904900  0.665190  1.0  -0.8021
  O  O239  1  0.998000  0.896250  0.951610  1.0  -0.8312
  O  O240  1  0.720030  0.932460  0.542130  1.0  -0.8167
  O  O241  1  0.696990  0.023360  0.713490  1.0  -0.8848
  O  O242  1  0.893880  0.797510  0.718360  1.0  -0.8215
  O  O243  1  0.822640  0.921040  0.443240  1.0  -0.5927
  O  O244  1  0.770300  0.113190  0.736720  1.0  -0.6526
  O  O245  1  0.516310  0.075680  0.366410  1.0  -0.7961
  O  O246  1  0.516640  0.127380  0.131550  1.0  -0.6626
  O  O247  1  0.507100  0.202200  0.319120  1.0  -0.8717
  O  O248  1  0.404900  0.185170  0.165190  1.0  -0.7997
  O  O249  1  0.396250  0.002000  0.451610  1.0  -0.8289
  O  O250  1  0.432460  0.279970  0.042130  1.0  -0.8153
  O  O251  1  0.523360  0.303010  0.213490  1.0  -0.8839
  O  O252  1  0.297510  0.106120  0.218360  1.0  -0.8185
  O  O253  1  0.421040  0.177360  0.943240  1.0  -0.5915
  O  O254  1  0.613190  0.229700  0.236720  1.0  -0.6489
  O  O255  1  0.983690  0.424320  0.366410  1.0  -0.7972
  O  O256  1  0.983360  0.372620  0.131550  1.0  -0.6664
  O  O257  1  0.992900  0.297800  0.319120  1.0  -0.8716
  O  O258  1  0.095100  0.314830  0.165190  1.0  -0.8013
  O  O259  1  0.103750  0.498000  0.451610  1.0  -0.8276
  O  O260  1  0.067540  0.220030  0.042130  1.0  -0.8179
  O  O261  1  0.976640  0.196990  0.213490  1.0  -0.8834
  O  O262  1  0.202490  0.393880  0.218360  1.0  -0.8168
  O  O263  1  0.078960  0.322640  0.943240  1.0  -0.5933
  O  O264  1  0.886810  0.270300  0.236720  1.0  -0.6448
