# generated using pymatgen
data_Cd7H30C78(NO4)6
_symmetry_space_group_name_H-M   'P 1'
_cell_length_a   22.52100000
_cell_length_b   22.52100000
_cell_length_c   22.52100000
_cell_angle_alpha   90.00000000
_cell_angle_beta   90.00000000
_cell_angle_gamma   90.00000000
_symmetry_Int_Tables_number   1
_chemical_formula_structural   Cd7H30C78(NO4)6
_chemical_formula_sum   'Cd14 H60 C156 N12 O48'
_cell_volume   11422.54852676
_cell_formula_units_Z   2
loop_
 _symmetry_equiv_pos_site_id
 _symmetry_equiv_pos_as_xyz
  1  'x, y, z'
loop_
 _atom_site_type_symbol
 _atom_site_label
 _atom_site_symmetry_multiplicity
 _atom_site_fract_x
 _atom_site_fract_y
 _atom_site_fract_z
 _atom_site_occupancy
 _atom_site_charge
  Cd  Cd1  1  0.285340  0.285340  0.714660  1.0  0.9157
  Cd  Cd2  1  0.714660  0.714660  0.714660  1.0  0.9123
  Cd  Cd3  1  0.714660  0.285340  0.285340  1.0  0.913
  Cd  Cd4  1  0.285340  0.714660  0.285340  1.0  0.9159
  Cd  Cd5  1  0.285340  0.285340  0.285340  1.0  0.9165
  Cd  Cd6  1  0.714660  0.714660  0.285340  1.0  0.9128
  Cd  Cd7  1  0.285340  0.714660  0.714660  1.0  0.9153
  Cd  Cd8  1  0.714660  0.285340  0.714660  1.0  0.9124
  Cd  Cd9  1  0.000000  0.000000  0.538000  1.0  0.9487
  Cd  Cd10  1  0.000000  0.000000  0.462000  1.0  0.9583
  Cd  Cd11  1  0.538000  0.000000  0.000000  1.0  0.9655
  Cd  Cd12  1  0.462000  0.000000  0.000000  1.0  0.9677
  Cd  Cd13  1  0.000000  0.538000  0.000000  1.0  0.962
  Cd  Cd14  1  0.000000  0.462000  0.000000  1.0  0.9646
  H  H15  1  0.163200  0.163200  0.588900  1.0  0.1066
  H  H16  1  0.836800  0.836800  0.588900  1.0  0.1065
  H  H17  1  0.836800  0.163200  0.411100  1.0  0.1061
  H  H18  1  0.163200  0.836800  0.411100  1.0  0.1066
  H  H19  1  0.588900  0.163200  0.163200  1.0  0.1049
  H  H20  1  0.588900  0.836800  0.836800  1.0  0.105
  H  H21  1  0.411100  0.836800  0.163200  1.0  0.105
  H  H22  1  0.411100  0.163200  0.836800  1.0  0.1048
  H  H23  1  0.163200  0.588900  0.163200  1.0  0.1054
  H  H24  1  0.836800  0.588900  0.836800  1.0  0.1047
  H  H25  1  0.163200  0.411100  0.836800  1.0  0.1055
  H  H26  1  0.836800  0.411100  0.163200  1.0  0.1055
  H  H27  1  0.163200  0.163200  0.411100  1.0  0.106
  H  H28  1  0.836800  0.836800  0.411100  1.0  0.1063
  H  H29  1  0.163200  0.836800  0.588900  1.0  0.1068
  H  H30  1  0.836800  0.163200  0.588900  1.0  0.1064
  H  H31  1  0.163200  0.588900  0.836800  1.0  0.1052
  H  H32  1  0.836800  0.588900  0.163200  1.0  0.105
  H  H33  1  0.836800  0.411100  0.836800  1.0  0.1053
  H  H34  1  0.163200  0.411100  0.163200  1.0  0.1057
  H  H35  1  0.588900  0.163200  0.836800  1.0  0.1048
  H  H36  1  0.588900  0.836800  0.163200  1.0  0.1054
  H  H37  1  0.411100  0.163200  0.163200  1.0  0.1047
  H  H38  1  0.411100  0.836800  0.836800  1.0  0.1048
  H  H39  1  0.054200  0.226200  0.500000  1.0  0.1075
  H  H40  1  0.945800  0.773800  0.500000  1.0  0.1074
  H  H41  1  0.945800  0.226200  0.500000  1.0  0.1074
  H  H42  1  0.054200  0.773800  0.500000  1.0  0.1078
  H  H43  1  0.500000  0.054200  0.226200  1.0  0.106
  H  H44  1  0.500000  0.945800  0.773800  1.0  0.106
  H  H45  1  0.500000  0.945800  0.226200  1.0  0.1059
  H  H46  1  0.500000  0.054200  0.773800  1.0  0.1058
  H  H47  1  0.226200  0.500000  0.054200  1.0  0.1072
  H  H48  1  0.773800  0.500000  0.945800  1.0  0.1082
  H  H49  1  0.226200  0.500000  0.945800  1.0  0.1075
  H  H50  1  0.773800  0.500000  0.054200  1.0  0.1077
  H  H51  1  0.226200  0.054200  0.500000  1.0  0.1068
  H  H52  1  0.773800  0.945800  0.500000  1.0  0.1077
  H  H53  1  0.226200  0.945800  0.500000  1.0  0.1066
  H  H54  1  0.773800  0.054200  0.500000  1.0  0.1077
  H  H55  1  0.054200  0.500000  0.773800  1.0  0.1068
  H  H56  1  0.945800  0.500000  0.226200  1.0  0.1064
  H  H57  1  0.945800  0.500000  0.773800  1.0  0.1065
  H  H58  1  0.054200  0.500000  0.226200  1.0  0.1069
  H  H59  1  0.500000  0.226200  0.945800  1.0  0.1075
  H  H60  1  0.500000  0.773800  0.054200  1.0  0.1074
  H  H61  1  0.500000  0.226200  0.054200  1.0  0.1068
  H  H62  1  0.500000  0.773800  0.945800  1.0  0.1076
  H  H63  1  0.271900  0.271900  0.500000  1.0  0.1032
  H  H64  1  0.728100  0.728100  0.500000  1.0  0.1035
  H  H65  1  0.728100  0.271900  0.500000  1.0  0.1034
  H  H66  1  0.271900  0.728100  0.500000  1.0  0.1031
  H  H67  1  0.500000  0.271900  0.271900  1.0  0.1038
  H  H68  1  0.500000  0.728100  0.728100  1.0  0.1031
  H  H69  1  0.500000  0.728100  0.271900  1.0  0.1036
  H  H70  1  0.500000  0.271900  0.728100  1.0  0.1032
  H  H71  1  0.271900  0.500000  0.271900  1.0  0.1036
  H  H72  1  0.728100  0.500000  0.728100  1.0  0.1033
  H  H73  1  0.271900  0.500000  0.728100  1.0  0.103
  H  H74  1  0.728100  0.500000  0.271900  1.0  0.1038
  C  C75  1  0.221600  0.221600  0.553000  1.0  -0.116
  C  C76  1  0.177700  0.177700  0.553100  1.0  -0.0582
  C  C77  1  0.244500  0.244500  0.610600  1.0  0.7082
  C  C78  1  0.778400  0.778400  0.553000  1.0  -0.1159
  C  C79  1  0.822300  0.822300  0.553100  1.0  -0.0567
  C  C80  1  0.755500  0.755500  0.610600  1.0  0.7089
  C  C81  1  0.778400  0.221600  0.447000  1.0  -0.1154
  C  C82  1  0.822300  0.177700  0.446900  1.0  -0.0568
  C  C83  1  0.755500  0.244500  0.389400  1.0  0.7087
  C  C84  1  0.221600  0.778400  0.447000  1.0  -0.1155
  C  C85  1  0.177700  0.822300  0.446900  1.0  -0.0579
  C  C86  1  0.244500  0.755500  0.389400  1.0  0.7077
  C  C87  1  0.553000  0.221600  0.221600  1.0  -0.1152
  C  C88  1  0.553100  0.177700  0.177700  1.0  -0.0566
  C  C89  1  0.610600  0.244500  0.244500  1.0  0.7064
  C  C90  1  0.553000  0.778400  0.778400  1.0  -0.1142
  C  C91  1  0.553100  0.822300  0.822300  1.0  -0.056
  C  C92  1  0.610600  0.755500  0.755500  1.0  0.7063
  C  C93  1  0.447000  0.778400  0.221600  1.0  -0.1147
  C  C94  1  0.446900  0.822300  0.177700  1.0  -0.0574
  C  C95  1  0.389400  0.755500  0.244500  1.0  0.7082
  C  C96  1  0.447000  0.221600  0.778400  1.0  -0.1137
  C  C97  1  0.446900  0.177700  0.822300  1.0  -0.0571
  C  C98  1  0.389400  0.244500  0.755500  1.0  0.708
  C  C99  1  0.221600  0.553000  0.221600  1.0  -0.1141
  C  C100  1  0.177700  0.553100  0.177700  1.0  -0.0576
  C  C101  1  0.244500  0.610600  0.244500  1.0  0.7061
  C  C102  1  0.778400  0.553000  0.778400  1.0  -0.1125
  C  C103  1  0.822300  0.553100  0.822300  1.0  -0.0559
  C  C104  1  0.755500  0.610600  0.755500  1.0  0.7063
  C  C105  1  0.221600  0.447000  0.778400  1.0  -0.1126
  C  C106  1  0.177700  0.446900  0.822300  1.0  -0.0583
  C  C107  1  0.244500  0.389400  0.755500  1.0  0.706
  C  C108  1  0.778400  0.447000  0.221600  1.0  -0.1126
  C  C109  1  0.822300  0.446900  0.177700  1.0  -0.0572
  C  C110  1  0.755500  0.389400  0.244500  1.0  0.7069
  C  C111  1  0.221600  0.221600  0.447000  1.0  -0.1158
  C  C112  1  0.177700  0.177700  0.446900  1.0  -0.0578
  C  C113  1  0.244500  0.244500  0.389400  1.0  0.7078
  C  C114  1  0.778400  0.778400  0.447000  1.0  -0.1165
  C  C115  1  0.822300  0.822300  0.446900  1.0  -0.0572
  C  C116  1  0.755500  0.755500  0.389400  1.0  0.7086
  C  C117  1  0.221600  0.778400  0.553000  1.0  -0.117
  C  C118  1  0.177700  0.822300  0.553100  1.0  -0.0583
  C  C119  1  0.244500  0.755500  0.610600  1.0  0.7089
  C  C120  1  0.778400  0.221600  0.553000  1.0  -0.116
  C  C121  1  0.822300  0.177700  0.553100  1.0  -0.0563
  C  C122  1  0.755500  0.244500  0.610600  1.0  0.7082
  C  C123  1  0.221600  0.553000  0.778400  1.0  -0.1132
  C  C124  1  0.177700  0.553100  0.822300  1.0  -0.0573
  C  C125  1  0.244500  0.610600  0.755500  1.0  0.7061
  C  C126  1  0.778400  0.553000  0.221600  1.0  -0.114
  C  C127  1  0.822300  0.553100  0.177700  1.0  -0.0563
  C  C128  1  0.755500  0.610600  0.244500  1.0  0.7063
  C  C129  1  0.778400  0.447000  0.778400  1.0  -0.1131
  C  C130  1  0.822300  0.446900  0.822300  1.0  -0.0569
  C  C131  1  0.755500  0.389400  0.755500  1.0  0.7063
  C  C132  1  0.221600  0.447000  0.221600  1.0  -0.1135
  C  C133  1  0.177700  0.446900  0.177700  1.0  -0.0584
  C  C134  1  0.244500  0.389400  0.244500  1.0  0.7066
  C  C135  1  0.553000  0.221600  0.778400  1.0  -0.1148
  C  C136  1  0.553100  0.177700  0.822300  1.0  -0.056
  C  C137  1  0.610600  0.244500  0.755500  1.0  0.706
  C  C138  1  0.553000  0.778400  0.221600  1.0  -0.1155
  C  C139  1  0.553100  0.822300  0.177700  1.0  -0.0568
  C  C140  1  0.610600  0.755500  0.244500  1.0  0.7068
  C  C141  1  0.447000  0.221600  0.221600  1.0  -0.1149
  C  C142  1  0.446900  0.177700  0.177700  1.0  -0.0572
  C  C143  1  0.389400  0.244500  0.244500  1.0  0.7081
  C  C144  1  0.447000  0.778400  0.778400  1.0  -0.1154
  C  C145  1  0.446900  0.822300  0.822300  1.0  -0.0573
  C  C146  1  0.389400  0.755500  0.755500  1.0  0.708
  C  C147  1  0.050900  0.130900  0.500000  1.0  0.1123
  C  C148  1  0.030100  0.192700  0.500000  1.0  -0.1561
  C  C149  1  0.949100  0.869100  0.500000  1.0  0.1139
  C  C150  1  0.969900  0.807300  0.500000  1.0  -0.1543
  C  C151  1  0.949100  0.130900  0.500000  1.0  0.1138
  C  C152  1  0.969900  0.192700  0.500000  1.0  -0.1558
  C  C153  1  0.050900  0.869100  0.500000  1.0  0.1142
  C  C154  1  0.030100  0.807300  0.500000  1.0  -0.1532
  C  C155  1  0.500000  0.050900  0.130900  1.0  0.1147
  C  C156  1  0.500000  0.030100  0.192700  1.0  -0.1548
  C  C157  1  0.500000  0.949100  0.869100  1.0  0.1136
  C  C158  1  0.500000  0.969900  0.807300  1.0  -0.1544
  C  C159  1  0.500000  0.949100  0.130900  1.0  0.1146
  C  C160  1  0.500000  0.969900  0.192700  1.0  -0.1538
  C  C161  1  0.500000  0.050900  0.869100  1.0  0.1153
  C  C162  1  0.500000  0.030100  0.807300  1.0  -0.154
  C  C163  1  0.130900  0.500000  0.050900  1.0  0.1136
  C  C164  1  0.192700  0.500000  0.030100  1.0  -0.1499
  C  C165  1  0.869100  0.500000  0.949100  1.0  0.1137
  C  C166  1  0.807300  0.500000  0.969900  1.0  -0.1515
  C  C167  1  0.130900  0.500000  0.949100  1.0  0.1142
  C  C168  1  0.192700  0.500000  0.969900  1.0  -0.1496
  C  C169  1  0.869100  0.500000  0.050900  1.0  0.1149
  C  C170  1  0.807300  0.500000  0.030100  1.0  -0.1515
  C  C171  1  0.130900  0.050900  0.500000  1.0  0.1137
  C  C172  1  0.192700  0.030100  0.500000  1.0  -0.1515
  C  C173  1  0.869100  0.949100  0.500000  1.0  0.1131
  C  C174  1  0.807300  0.969900  0.500000  1.0  -0.1529
  C  C175  1  0.130900  0.949100  0.500000  1.0  0.1138
  C  C176  1  0.192700  0.969900  0.500000  1.0  -0.1506
  C  C177  1  0.869100  0.050900  0.500000  1.0  0.115
  C  C178  1  0.807300  0.030100  0.500000  1.0  -0.1526
  C  C179  1  0.050900  0.500000  0.869100  1.0  0.1135
  C  C180  1  0.030100  0.500000  0.807300  1.0  -0.1552
  C  C181  1  0.949100  0.500000  0.130900  1.0  0.1145
  C  C182  1  0.969900  0.500000  0.192700  1.0  -0.1558
  C  C183  1  0.949100  0.500000  0.869100  1.0  0.1147
  C  C184  1  0.969900  0.500000  0.807300  1.0  -0.1548
  C  C185  1  0.050900  0.500000  0.130900  1.0  0.1147
  C  C186  1  0.030100  0.500000  0.192700  1.0  -0.1537
  C  C187  1  0.500000  0.130900  0.949100  1.0  0.1127
  C  C188  1  0.500000  0.192700  0.969900  1.0  -0.1545
  C  C189  1  0.500000  0.869100  0.050900  1.0  0.1142
  C  C190  1  0.500000  0.807300  0.030100  1.0  -0.1523
  C  C191  1  0.500000  0.130900  0.050900  1.0  0.1139
  C  C192  1  0.500000  0.192700  0.030100  1.0  -0.154
  C  C193  1  0.500000  0.869100  0.949100  1.0  0.1147
  C  C194  1  0.500000  0.807300  0.969900  1.0  -0.1512
  C  C195  1  0.109100  0.109100  0.500000  1.0  -0.0654
  C  C196  1  0.156000  0.156000  0.500000  1.0  0.0845
  C  C197  1  0.242700  0.242700  0.500000  1.0  0.0126
  C  C198  1  0.890900  0.890900  0.500000  1.0  -0.0655
  C  C199  1  0.844000  0.844000  0.500000  1.0  0.0843
  C  C200  1  0.757300  0.757300  0.500000  1.0  0.0144
  C  C201  1  0.890900  0.109100  0.500000  1.0  -0.0657
  C  C202  1  0.844000  0.156000  0.500000  1.0  0.0846
  C  C203  1  0.757300  0.242700  0.500000  1.0  0.0132
  C  C204  1  0.109100  0.890900  0.500000  1.0  -0.0653
  C  C205  1  0.156000  0.844000  0.500000  1.0  0.0846
  C  C206  1  0.242700  0.757300  0.500000  1.0  0.0136
  C  C207  1  0.500000  0.109100  0.109100  1.0  -0.0642
  C  C208  1  0.500000  0.156000  0.156000  1.0  0.0846
  C  C209  1  0.500000  0.242700  0.242700  1.0  0.0078
  C  C210  1  0.500000  0.890900  0.890900  1.0  -0.0643
  C  C211  1  0.500000  0.844000  0.844000  1.0  0.0852
  C  C212  1  0.500000  0.757300  0.757300  1.0  0.0098
  C  C213  1  0.500000  0.890900  0.109100  1.0  -0.0639
  C  C214  1  0.500000  0.844000  0.156000  1.0  0.0849
  C  C215  1  0.500000  0.757300  0.242700  1.0  0.0097
  C  C216  1  0.500000  0.109100  0.890900  1.0  -0.0639
  C  C217  1  0.500000  0.156000  0.844000  1.0  0.0852
  C  C218  1  0.500000  0.242700  0.757300  1.0  0.0092
  C  C219  1  0.109100  0.500000  0.109100  1.0  -0.0634
  C  C220  1  0.156000  0.500000  0.156000  1.0  0.0844
  C  C221  1  0.242700  0.500000  0.242700  1.0  0.0122
  C  C222  1  0.890900  0.500000  0.890900  1.0  -0.0636
  C  C223  1  0.844000  0.500000  0.844000  1.0  0.0849
  C  C224  1  0.757300  0.500000  0.757300  1.0  0.0126
  C  C225  1  0.109100  0.500000  0.890900  1.0  -0.0636
  C  C226  1  0.156000  0.500000  0.844000  1.0  0.0848
  C  C227  1  0.242700  0.500000  0.757300  1.0  0.0121
  C  C228  1  0.890900  0.500000  0.109100  1.0  -0.0636
  C  C229  1  0.844000  0.500000  0.156000  1.0  0.0845
  C  C230  1  0.757300  0.500000  0.242700  1.0  0.0122
  N  N231  1  0.000000  0.095700  0.500000  1.0  -0.2707
  N  N232  1  0.000000  0.904300  0.500000  1.0  -0.2703
  N  N233  1  0.500000  0.000000  0.095700  1.0  -0.2723
  N  N234  1  0.500000  0.000000  0.904300  1.0  -0.2732
  N  N235  1  0.095700  0.500000  0.000000  1.0  -0.2702
  N  N236  1  0.904300  0.500000  0.000000  1.0  -0.2696
  N  N237  1  0.095700  0.000000  0.500000  1.0  -0.2702
  N  N238  1  0.904300  0.000000  0.500000  1.0  -0.2696
  N  N239  1  0.000000  0.500000  0.904300  1.0  -0.2732
  N  N240  1  0.000000  0.500000  0.095700  1.0  -0.2723
  N  N241  1  0.500000  0.095700  0.000000  1.0  -0.2707
  N  N242  1  0.500000  0.904300  0.000000  1.0  -0.2703
  O  O243  1  0.225100  0.225100  0.655400  1.0  -0.606
  O  O244  1  0.282900  0.282900  0.607600  1.0  -0.5771
  O  O245  1  0.774900  0.774900  0.655400  1.0  -0.6048
  O  O246  1  0.717100  0.717100  0.607600  1.0  -0.5757
  O  O247  1  0.774900  0.225100  0.344600  1.0  -0.607
  O  O248  1  0.717100  0.282900  0.392400  1.0  -0.5756
  O  O249  1  0.225100  0.774900  0.344600  1.0  -0.607
  O  O250  1  0.282900  0.717100  0.392400  1.0  -0.578
  O  O251  1  0.655400  0.225100  0.225100  1.0  -0.6147
  O  O252  1  0.607600  0.282900  0.282900  1.0  -0.5732
  O  O253  1  0.655400  0.774900  0.774900  1.0  -0.6135
  O  O254  1  0.607600  0.717100  0.717100  1.0  -0.5762
  O  O255  1  0.344600  0.774900  0.225100  1.0  -0.613
  O  O256  1  0.392400  0.717100  0.282900  1.0  -0.5746
  O  O257  1  0.344600  0.225100  0.774900  1.0  -0.6135
  O  O258  1  0.392400  0.282900  0.717100  1.0  -0.5752
  O  O259  1  0.225100  0.655400  0.225100  1.0  -0.6088
  O  O260  1  0.282900  0.607600  0.282900  1.0  -0.5795
  O  O261  1  0.774900  0.655400  0.774900  1.0  -0.6071
  O  O262  1  0.717100  0.607600  0.717100  1.0  -0.579
  O  O263  1  0.225100  0.344600  0.774900  1.0  -0.6071
  O  O264  1  0.282900  0.392400  0.717100  1.0  -0.5811
  O  O265  1  0.774900  0.344600  0.225100  1.0  -0.6067
  O  O266  1  0.717100  0.392400  0.282900  1.0  -0.5782
  O  O267  1  0.225100  0.225100  0.344600  1.0  -0.6067
  O  O268  1  0.282900  0.282900  0.392400  1.0  -0.5772
  O  O269  1  0.774900  0.774900  0.344600  1.0  -0.6074
  O  O270  1  0.717100  0.717100  0.392400  1.0  -0.5758
  O  O271  1  0.225100  0.774900  0.655400  1.0  -0.6054
  O  O272  1  0.282900  0.717100  0.607600  1.0  -0.5779
  O  O273  1  0.774900  0.225100  0.655400  1.0  -0.6054
  O  O274  1  0.717100  0.282900  0.607600  1.0  -0.5755
  O  O275  1  0.225100  0.655400  0.774900  1.0  -0.6081
  O  O276  1  0.282900  0.607600  0.717100  1.0  -0.5808
  O  O277  1  0.774900  0.655400  0.225100  1.0  -0.6076
  O  O278  1  0.717100  0.607600  0.282900  1.0  -0.5779
  O  O279  1  0.774900  0.344600  0.774900  1.0  -0.6065
  O  O280  1  0.717100  0.392400  0.717100  1.0  -0.5792
  O  O281  1  0.225100  0.344600  0.225100  1.0  -0.6075
  O  O282  1  0.282900  0.392400  0.282900  1.0  -0.5798
  O  O283  1  0.655400  0.225100  0.774900  1.0  -0.6148
  O  O284  1  0.607600  0.282900  0.717100  1.0  -0.5756
  O  O285  1  0.655400  0.774900  0.225100  1.0  -0.6134
  O  O286  1  0.607600  0.717100  0.282900  1.0  -0.575
  O  O287  1  0.344600  0.225100  0.225100  1.0  -0.6136
  O  O288  1  0.392400  0.282900  0.282900  1.0  -0.5728
  O  O289  1  0.344600  0.774900  0.774900  1.0  -0.6135
  O  O290  1  0.392400  0.717100  0.717100  1.0  -0.5758
