# generated using pymatgen
data_ZnH6(C3N2)2
_symmetry_space_group_name_H-M   'P 1'
_cell_length_a   15.37900000
_cell_length_b   15.44900000
_cell_length_c   18.40700000
_cell_angle_alpha   90.00000000
_cell_angle_beta   90.00000000
_cell_angle_gamma   90.00000000
_symmetry_Int_Tables_number   1
_chemical_formula_structural   ZnH6(C3N2)2
_chemical_formula_sum   'Zn16 H96 C96 N64'
_cell_volume   4373.32227760
_cell_formula_units_Z   16
loop_
 _symmetry_equiv_pos_site_id
 _symmetry_equiv_pos_as_xyz
  1  'x, y, z'
loop_
 _atom_site_type_symbol
 _atom_site_label
 _atom_site_symmetry_multiplicity
 _atom_site_fract_x
 _atom_site_fract_y
 _atom_site_fract_z
 _atom_site_occupancy
 _atom_site_charge
  Zn  Zn1  1  0.799480  0.860370  0.593860  1.0  0.7258
  Zn  Zn2  1  0.491210  0.664180  0.684660  1.0  0.728
  Zn  Zn3  1  0.700520  0.139630  0.093860  1.0  0.726
  Zn  Zn4  1  0.008790  0.335820  0.184660  1.0  0.728
  Zn  Zn5  1  0.200520  0.360370  0.906140  1.0  0.7259
  Zn  Zn6  1  0.508790  0.164180  0.815340  1.0  0.7281
  Zn  Zn7  1  0.299480  0.639630  0.406140  1.0  0.7257
  Zn  Zn8  1  0.991210  0.835820  0.315340  1.0  0.7281
  Zn  Zn9  1  0.200520  0.139630  0.406140  1.0  0.7258
  Zn  Zn10  1  0.508790  0.335820  0.315340  1.0  0.7281
  Zn  Zn11  1  0.299480  0.860370  0.906140  1.0  0.7258
  Zn  Zn12  1  0.991210  0.664180  0.815340  1.0  0.7281
  Zn  Zn13  1  0.799480  0.639630  0.093860  1.0  0.7257
  Zn  Zn14  1  0.491210  0.835820  0.184660  1.0  0.728
  Zn  Zn15  1  0.700520  0.360370  0.593860  1.0  0.726
  Zn  Zn16  1  0.008790  0.164180  0.684660  1.0  0.728
  H  H17  1  0.678800  0.719400  0.653200  1.0  0.0533
  H  H18  1  0.603600  0.941200  0.575700  1.0  0.1002
  H  H19  1  0.474500  0.860900  0.614100  1.0  0.0926
  H  H20  1  0.936800  0.811600  0.477700  1.0  0.0509
  H  H21  1  0.733000  0.951800  0.445400  1.0  0.0989
  H  H22  1  0.811700  0.939100  0.332000  1.0  0.0883
  H  H23  1  0.936700  0.009700  0.595200  1.0  0.0619
  H  H24  1  0.763600  0.964000  0.742800  1.0  0.0953
  H  H25  1  0.857600  0.078800  0.786700  1.0  0.0941
  H  H26  1  0.901800  0.811300  0.730200  1.0  0.0504
  H  H27  1  0.941500  0.578100  0.659900  1.0  0.085
  H  H28  1  0.863300  0.657400  0.565800  1.0  0.0985
  H  H29  1  0.821200  0.280600  0.153200  1.0  0.0528
  H  H30  1  0.896400  0.058800  0.075700  1.0  0.0999
  H  H31  1  0.025500  0.139100  0.114100  1.0  0.0918
  H  H32  1  0.563200  0.188400  0.977700  1.0  0.0506
  H  H33  1  0.767000  0.048200  0.945400  1.0  0.0983
  H  H34  1  0.688300  0.060900  0.832000  1.0  0.0887
  H  H35  1  0.563300  0.990300  0.095200  1.0  0.0619
  H  H36  1  0.736400  0.036000  0.242800  1.0  0.0944
  H  H37  1  0.642400  0.921200  0.286700  1.0  0.0943
  H  H38  1  0.598200  0.188700  0.230200  1.0  0.0505
  H  H39  1  0.558500  0.421900  0.159900  1.0  0.0857
  H  H40  1  0.636700  0.342600  0.065800  1.0  0.0989
  H  H41  1  0.321200  0.219400  0.846800  1.0  0.0527
  H  H42  1  0.396400  0.441200  0.924300  1.0  0.1002
  H  H43  1  0.525500  0.360900  0.885900  1.0  0.0917
  H  H44  1  0.063200  0.311600  0.022300  1.0  0.0507
  H  H45  1  0.267000  0.451800  0.054600  1.0  0.0989
  H  H46  1  0.188300  0.439100  0.168000  1.0  0.0885
  H  H47  1  0.063300  0.509700  0.904800  1.0  0.0622
  H  H48  1  0.236400  0.464000  0.757200  1.0  0.0948
  H  H49  1  0.142400  0.578800  0.713300  1.0  0.094
  H  H50  1  0.098200  0.311300  0.769800  1.0  0.0505
  H  H51  1  0.058500  0.078100  0.840100  1.0  0.0854
  H  H52  1  0.136700  0.157400  0.934200  1.0  0.0985
  H  H53  1  0.178800  0.780600  0.346800  1.0  0.0534
  H  H54  1  0.103600  0.558800  0.424300  1.0  0.1002
  H  H55  1  0.974500  0.639100  0.385900  1.0  0.0924
  H  H56  1  0.436800  0.688400  0.522300  1.0  0.0505
  H  H57  1  0.233000  0.548200  0.554600  1.0  0.0992
  H  H58  1  0.311700  0.560900  0.668000  1.0  0.0887
  H  H59  1  0.436700  0.490300  0.404800  1.0  0.062
  H  H60  1  0.263600  0.536000  0.257200  1.0  0.0945
  H  H61  1  0.357600  0.421200  0.213300  1.0  0.0936
  H  H62  1  0.401800  0.688700  0.269800  1.0  0.0505
  H  H63  1  0.441500  0.921900  0.340100  1.0  0.0857
  H  H64  1  0.363300  0.842600  0.434200  1.0  0.0986
  H  H65  1  0.321200  0.280600  0.346800  1.0  0.0531
  H  H66  1  0.396400  0.058800  0.424300  1.0  0.0985
  H  H67  1  0.525500  0.139100  0.385900  1.0  0.0911
  H  H68  1  0.063200  0.188400  0.522300  1.0  0.0507
  H  H69  1  0.267000  0.048200  0.554600  1.0  0.0989
  H  H70  1  0.188300  0.060900  0.668000  1.0  0.0887
  H  H71  1  0.063300  0.990300  0.404800  1.0  0.0622
  H  H72  1  0.236400  0.036000  0.257200  1.0  0.0946
  H  H73  1  0.142400  0.921200  0.213300  1.0  0.0939
  H  H74  1  0.098200  0.188700  0.269800  1.0  0.0503
  H  H75  1  0.058500  0.421900  0.340100  1.0  0.0861
  H  H76  1  0.136700  0.342600  0.434200  1.0  0.0985
  H  H77  1  0.178800  0.719400  0.846800  1.0  0.0532
  H  H78  1  0.103600  0.941200  0.924300  1.0  0.0988
  H  H79  1  0.974500  0.860900  0.885900  1.0  0.0918
  H  H80  1  0.436800  0.811600  0.022300  1.0  0.0507
  H  H81  1  0.233000  0.951800  0.054600  1.0  0.0994
  H  H82  1  0.311700  0.939100  0.168000  1.0  0.0884
  H  H83  1  0.436700  0.009700  0.904800  1.0  0.0621
  H  H84  1  0.263600  0.964000  0.757200  1.0  0.0946
  H  H85  1  0.357600  0.078800  0.713300  1.0  0.0937
  H  H86  1  0.401800  0.811300  0.769800  1.0  0.0508
  H  H87  1  0.441500  0.578100  0.840100  1.0  0.0854
  H  H88  1  0.363300  0.657400  0.934200  1.0  0.0985
  H  H89  1  0.678800  0.780600  0.153200  1.0  0.0531
  H  H90  1  0.603600  0.558800  0.075700  1.0  0.0983
  H  H91  1  0.474500  0.639100  0.114100  1.0  0.0921
  H  H92  1  0.936800  0.688400  0.977700  1.0  0.0502
  H  H93  1  0.733000  0.548200  0.945400  1.0  0.0988
  H  H94  1  0.811700  0.560900  0.832000  1.0  0.0884
  H  H95  1  0.936700  0.490300  0.095200  1.0  0.0618
  H  H96  1  0.763600  0.536000  0.242800  1.0  0.0948
  H  H97  1  0.857600  0.421200  0.286700  1.0  0.0943
  H  H98  1  0.901800  0.688700  0.230200  1.0  0.0506
  H  H99  1  0.941500  0.921900  0.159900  1.0  0.0855
  H  H100  1  0.863300  0.842600  0.065800  1.0  0.0987
  H  H101  1  0.821200  0.219400  0.653200  1.0  0.0529
  H  H102  1  0.896400  0.441200  0.575700  1.0  0.0988
  H  H103  1  0.025500  0.360900  0.614100  1.0  0.0916
  H  H104  1  0.563200  0.311600  0.477700  1.0  0.051
  H  H105  1  0.767000  0.451800  0.445400  1.0  0.0985
  H  H106  1  0.688300  0.439100  0.332000  1.0  0.0886
  H  H107  1  0.563300  0.509700  0.595200  1.0  0.0619
  H  H108  1  0.736400  0.464000  0.742800  1.0  0.0949
  H  H109  1  0.642400  0.578800  0.786700  1.0  0.0943
  H  H110  1  0.598200  0.311300  0.730200  1.0  0.0502
  H  H111  1  0.558500  0.078100  0.659900  1.0  0.085
  H  H112  1  0.636700  0.157400  0.565800  1.0  0.0987
  C  C113  1  0.643500  0.765400  0.639400  1.0  0.229
  C  C114  1  0.603400  0.886500  0.596900  1.0  -0.0336
  C  C115  1  0.531600  0.841800  0.618000  1.0  -0.036
  C  C116  1  0.895100  0.845900  0.455200  1.0  0.237
  C  C117  1  0.784500  0.921300  0.438600  1.0  -0.0406
  C  C118  1  0.828400  0.914600  0.376000  1.0  -0.0243
  C  C119  1  0.904800  0.012700  0.638000  1.0  0.2262
  C  C120  1  0.810500  0.987300  0.717700  1.0  -0.0355
  C  C121  1  0.862700  0.051000  0.742100  1.0  -0.0195
  C  C122  1  0.902100  0.762500  0.700600  1.0  0.2313
  C  C123  1  0.924100  0.635600  0.662900  1.0  -0.0232
  C  C124  1  0.880500  0.679400  0.610600  1.0  -0.0386
  C  C125  1  0.856500  0.234600  0.139400  1.0  0.2291
  C  C126  1  0.896600  0.113500  0.096900  1.0  -0.0339
  C  C127  1  0.968400  0.158200  0.118000  1.0  -0.0355
  C  C128  1  0.604900  0.154100  0.955200  1.0  0.2362
  C  C129  1  0.715500  0.078700  0.938600  1.0  -0.0406
  C  C130  1  0.671600  0.085400  0.876000  1.0  -0.0243
  C  C131  1  0.595200  0.987300  0.138000  1.0  0.2263
  C  C132  1  0.689500  0.012700  0.217700  1.0  -0.0354
  C  C133  1  0.637300  0.949000  0.242100  1.0  -0.0191
  C  C134  1  0.597900  0.237500  0.200600  1.0  0.2315
  C  C135  1  0.575900  0.364400  0.162900  1.0  -0.0241
  C  C136  1  0.619500  0.320600  0.110600  1.0  -0.0388
  C  C137  1  0.356500  0.265400  0.860600  1.0  0.2293
  C  C138  1  0.396600  0.386500  0.903100  1.0  -0.0342
  C  C139  1  0.468400  0.341800  0.882000  1.0  -0.0362
  C  C140  1  0.104900  0.345900  0.044800  1.0  0.2358
  C  C141  1  0.215500  0.421300  0.061400  1.0  -0.0407
  C  C142  1  0.171600  0.414600  0.124000  1.0  -0.0245
  C  C143  1  0.095200  0.512700  0.862000  1.0  0.2255
  C  C144  1  0.189500  0.487300  0.782300  1.0  -0.036
  C  C145  1  0.137300  0.551000  0.757900  1.0  -0.0198
  C  C146  1  0.097900  0.262500  0.799400  1.0  0.2323
  C  C147  1  0.075900  0.135600  0.837100  1.0  -0.0237
  C  C148  1  0.119500  0.179400  0.889400  1.0  -0.0384
  C  C149  1  0.143500  0.734600  0.360600  1.0  0.2287
  C  C150  1  0.103400  0.613500  0.403100  1.0  -0.0336
  C  C151  1  0.031600  0.658200  0.382000  1.0  -0.0353
  C  C152  1  0.395100  0.654100  0.544800  1.0  0.2369
  C  C153  1  0.284500  0.578700  0.561400  1.0  -0.0399
  C  C154  1  0.328400  0.585400  0.624000  1.0  -0.0246
  C  C155  1  0.404800  0.487300  0.362000  1.0  0.226
  C  C156  1  0.310500  0.512700  0.282300  1.0  -0.0365
  C  C157  1  0.362700  0.449000  0.257900  1.0  -0.019
  C  C158  1  0.402100  0.737500  0.299400  1.0  0.231
  C  C159  1  0.424100  0.864400  0.337100  1.0  -0.0237
  C  C160  1  0.380500  0.820600  0.389400  1.0  -0.0398
  C  C161  1  0.356500  0.234600  0.360600  1.0  0.2292
  C  C162  1  0.396600  0.113500  0.403100  1.0  -0.0338
  C  C163  1  0.468400  0.158200  0.382000  1.0  -0.0357
  C  C164  1  0.104900  0.154100  0.544800  1.0  0.2363
  C  C165  1  0.215500  0.078700  0.561400  1.0  -0.0402
  C  C166  1  0.171600  0.085400  0.624000  1.0  -0.0238
  C  C167  1  0.095200  0.987300  0.362000  1.0  0.2254
  C  C168  1  0.189500  0.012700  0.282300  1.0  -0.0358
  C  C169  1  0.137300  0.949000  0.257900  1.0  -0.0194
  C  C170  1  0.097900  0.237500  0.299400  1.0  0.231
  C  C171  1  0.075900  0.364400  0.337100  1.0  -0.0243
  C  C172  1  0.119500  0.320600  0.389400  1.0  -0.0394
  C  C173  1  0.143500  0.765400  0.860600  1.0  0.2289
  C  C174  1  0.103400  0.886500  0.903100  1.0  -0.0341
  C  C175  1  0.031600  0.841800  0.882000  1.0  -0.036
  C  C176  1  0.395100  0.845900  0.044800  1.0  0.2362
  C  C177  1  0.284500  0.921300  0.061400  1.0  -0.0402
  C  C178  1  0.328400  0.914600  0.124000  1.0  -0.025
  C  C179  1  0.404800  0.012700  0.862000  1.0  0.2261
  C  C180  1  0.310500  0.987300  0.782300  1.0  -0.0364
  C  C181  1  0.362700  0.051000  0.757900  1.0  -0.0195
  C  C182  1  0.402100  0.762500  0.799400  1.0  0.2323
  C  C183  1  0.424100  0.635600  0.837100  1.0  -0.0231
  C  C184  1  0.380500  0.679400  0.889400  1.0  -0.039
  C  C185  1  0.643500  0.734600  0.139400  1.0  0.2287
  C  C186  1  0.603400  0.613500  0.096900  1.0  -0.0336
  C  C187  1  0.531600  0.658200  0.118000  1.0  -0.0353
  C  C188  1  0.895100  0.654100  0.955200  1.0  0.2371
  C  C189  1  0.784500  0.578700  0.938600  1.0  -0.0399
  C  C190  1  0.828400  0.585400  0.876000  1.0  -0.0244
  C  C191  1  0.904800  0.487300  0.138000  1.0  0.2264
  C  C192  1  0.810500  0.512700  0.217700  1.0  -0.0362
  C  C193  1  0.862700  0.449000  0.242100  1.0  -0.019
  C  C194  1  0.902100  0.737500  0.200600  1.0  0.2315
  C  C195  1  0.924100  0.864400  0.162900  1.0  -0.0236
  C  C196  1  0.880500  0.820600  0.110600  1.0  -0.0391
  C  C197  1  0.856500  0.265400  0.639400  1.0  0.2294
  C  C198  1  0.896600  0.386500  0.596900  1.0  -0.0338
  C  C199  1  0.968400  0.341800  0.618000  1.0  -0.0359
  C  C200  1  0.604900  0.345900  0.455200  1.0  0.2366
  C  C201  1  0.715500  0.421300  0.438600  1.0  -0.0412
  C  C202  1  0.671600  0.414600  0.376000  1.0  -0.0243
  C  C203  1  0.595200  0.512700  0.638000  1.0  0.2261
  C  C204  1  0.689500  0.487300  0.717700  1.0  -0.035
  C  C205  1  0.637300  0.551000  0.742100  1.0  -0.0196
  C  C206  1  0.597900  0.262500  0.700600  1.0  0.2311
  C  C207  1  0.575900  0.135600  0.662900  1.0  -0.0238
  C  C208  1  0.619500  0.179400  0.610600  1.0  -0.0382
  N  N209  1  0.557600  0.764200  0.645800  1.0  -0.392
  N  N210  1  0.674100  0.838100  0.611800  1.0  -0.3812
  N  N211  1  0.900000  0.867000  0.386710  1.0  -0.3878
  N  N212  1  0.827700  0.876200  0.490260  1.0  -0.3845
  N  N213  1  0.923500  0.067800  0.691410  1.0  -0.3909
  N  N214  1  0.837400  0.962900  0.651150  1.0  -0.3877
  N  N215  1  0.938300  0.688500  0.720140  1.0  -0.3828
  N  N216  1  0.866400  0.761000  0.635020  1.0  -0.3874
  N  N217  1  0.942400  0.235800  0.145800  1.0  -0.3909
  N  N218  1  0.825900  0.161900  0.111800  1.0  -0.3814
  N  N219  1  0.600000  0.133000  0.886710  1.0  -0.3871
  N  N220  1  0.672300  0.123800  0.990260  1.0  -0.3839
  N  N221  1  0.576500  0.932200  0.191410  1.0  -0.3914
  N  N222  1  0.662600  0.037100  0.151150  1.0  -0.3876
  N  N223  1  0.561700  0.311500  0.220140  1.0  -0.3827
  N  N224  1  0.633600  0.239000  0.135020  1.0  -0.3877
  N  N225  1  0.442400  0.264200  0.854200  1.0  -0.391
  N  N226  1  0.325900  0.338100  0.888200  1.0  -0.3808
  N  N227  1  0.100000  0.367000  0.113290  1.0  -0.3874
  N  N228  1  0.172300  0.376200  0.009740  1.0  -0.3839
  N  N229  1  0.076500  0.567800  0.808590  1.0  -0.3913
  N  N230  1  0.162600  0.462900  0.848850  1.0  -0.3868
  N  N231  1  0.061700  0.188500  0.779860  1.0  -0.383
  N  N232  1  0.133600  0.261000  0.864980  1.0  -0.3874
  N  N233  1  0.057600  0.735800  0.354200  1.0  -0.3913
  N  N234  1  0.174100  0.661900  0.388200  1.0  -0.3808
  N  N235  1  0.400000  0.633000  0.613290  1.0  -0.3877
  N  N236  1  0.327700  0.623800  0.509740  1.0  -0.3835
  N  N237  1  0.423500  0.432200  0.308590  1.0  -0.3904
  N  N238  1  0.337400  0.537100  0.348850  1.0  -0.3876
  N  N239  1  0.438300  0.811500  0.279860  1.0  -0.3825
  N  N240  1  0.366400  0.739000  0.364980  1.0  -0.3877
  N  N241  1  0.442400  0.235800  0.354200  1.0  -0.3906
  N  N242  1  0.325900  0.161900  0.388200  1.0  -0.3809
  N  N243  1  0.100000  0.133000  0.613290  1.0  -0.3874
  N  N244  1  0.172300  0.123800  0.509740  1.0  -0.3836
  N  N245  1  0.076500  0.932200  0.308590  1.0  -0.3912
  N  N246  1  0.162600  0.037100  0.348850  1.0  -0.3873
  N  N247  1  0.061700  0.311500  0.279860  1.0  -0.3821
  N  N248  1  0.133600  0.239000  0.364980  1.0  -0.3873
  N  N249  1  0.057600  0.764200  0.854200  1.0  -0.3917
  N  N250  1  0.174100  0.838100  0.888200  1.0  -0.3809
  N  N251  1  0.400000  0.867000  0.113290  1.0  -0.3877
  N  N252  1  0.327700  0.876200  0.009740  1.0  -0.3837
  N  N253  1  0.423500  0.067800  0.808590  1.0  -0.3909
  N  N254  1  0.337400  0.962900  0.848850  1.0  -0.3872
  N  N255  1  0.438300  0.688500  0.779860  1.0  -0.3831
  N  N256  1  0.366400  0.761000  0.864980  1.0  -0.3874
  N  N257  1  0.557600  0.735800  0.145800  1.0  -0.3919
  N  N258  1  0.674100  0.661900  0.111800  1.0  -0.3814
  N  N259  1  0.900000  0.633000  0.886710  1.0  -0.3874
  N  N260  1  0.827700  0.623800  0.990260  1.0  -0.3845
  N  N261  1  0.923500  0.432200  0.191410  1.0  -0.3904
  N  N262  1  0.837400  0.537100  0.151150  1.0  -0.3875
  N  N263  1  0.938300  0.811500  0.220140  1.0  -0.3827
  N  N264  1  0.866400  0.739000  0.135020  1.0  -0.388
  N  N265  1  0.942400  0.264200  0.645800  1.0  -0.391
  N  N266  1  0.825900  0.338100  0.611800  1.0  -0.3812
  N  N267  1  0.600000  0.367000  0.386710  1.0  -0.3875
  N  N268  1  0.672300  0.376200  0.490260  1.0  -0.3841
  N  N269  1  0.576500  0.567800  0.691410  1.0  -0.3915
  N  N270  1  0.662600  0.462900  0.651150  1.0  -0.3877
  N  N271  1  0.561700  0.188500  0.720140  1.0  -0.3828
  N  N272  1  0.633600  0.261000  0.635020  1.0  -0.3874
