# generated using pymatgen
data_ZnH6(C3N2)2
_symmetry_space_group_name_H-M   'P 1'
_cell_length_a   9.80100000
_cell_length_b   24.10400000
_cell_length_c   24.35600000
_cell_angle_alpha   90.00000000
_cell_angle_beta   90.00000000
_cell_angle_gamma   90.00000000
_symmetry_Int_Tables_number   1
_chemical_formula_structural   ZnH6(C3N2)2
_chemical_formula_sum   'Zn16 H96 C96 N64'
_cell_volume   5753.94191222
_cell_formula_units_Z   16
loop_
 _symmetry_equiv_pos_site_id
 _symmetry_equiv_pos_as_xyz
  1  'x, y, z'
loop_
 _atom_site_type_symbol
 _atom_site_label
 _atom_site_symmetry_multiplicity
 _atom_site_fract_x
 _atom_site_fract_y
 _atom_site_fract_z
 _atom_site_occupancy
 _atom_site_charge
  Zn  Zn1  1  0.024660  0.824220  0.499440  1.0  0.7355
  Zn  Zn2  1  0.000400  0.000590  0.323370  1.0  0.7369
  Zn  Zn3  1  0.475340  0.175780  0.999440  1.0  0.7357
  Zn  Zn4  1  0.499600  0.999410  0.823370  1.0  0.7368
  Zn  Zn5  1  0.975340  0.324220  0.000560  1.0  0.7359
  Zn  Zn6  1  0.999600  0.500590  0.176630  1.0  0.7369
  Zn  Zn7  1  0.524660  0.675780  0.500560  1.0  0.7355
  Zn  Zn8  1  0.500400  0.499410  0.676630  1.0  0.7367
  Zn  Zn9  1  0.975340  0.175780  0.500560  1.0  0.7358
  Zn  Zn10  1  0.999600  0.999410  0.676630  1.0  0.7368
  Zn  Zn11  1  0.524660  0.824220  0.000560  1.0  0.7357
  Zn  Zn12  1  0.500400  0.000590  0.176630  1.0  0.7369
  Zn  Zn13  1  0.024660  0.675780  0.999440  1.0  0.7354
  Zn  Zn14  1  0.000400  0.499410  0.823370  1.0  0.7367
  Zn  Zn15  1  0.475340  0.324220  0.499440  1.0  0.7358
  Zn  Zn16  1  0.499600  0.500590  0.323370  1.0  0.737
  H  H17  1  0.731500  0.776300  0.530900  1.0  0.0618
  H  H18  1  0.787000  0.656700  0.426200  1.0  0.0935
  H  H19  1  0.988200  0.715600  0.425500  1.0  0.0921
  H  H20  1  0.978800  0.945600  0.442500  1.0  0.059
  H  H21  1  0.067100  0.939600  0.559700  1.0  0.0643
  H  H22  1  0.848400  0.814400  0.609300  1.0  0.0964
  H  H23  1  0.842400  0.885000  0.679900  1.0  0.0961
  H  H24  1  0.301000  0.969000  0.276900  1.0  0.0712
  H  H25  1  0.014800  0.055500  0.205000  1.0  0.0985
  H  H26  1  0.213300  0.052800  0.144800  1.0  0.089
  H  H27  1  0.112700  0.878200  0.307100  1.0  0.0974
  H  H28  1  0.124000  0.809800  0.380000  1.0  0.0917
  H  H29  1  0.768500  0.223700  0.030900  1.0  0.0622
  H  H30  1  0.713000  0.343300  0.926200  1.0  0.0939
  H  H31  1  0.511800  0.284400  0.925500  1.0  0.0927
  H  H32  1  0.521200  0.054400  0.942500  1.0  0.0594
  H  H33  1  0.432900  0.060400  0.059700  1.0  0.0645
  H  H34  1  0.651600  0.185600  0.109300  1.0  0.0959
  H  H35  1  0.657600  0.115000  0.179900  1.0  0.0956
  H  H36  1  0.199000  0.031000  0.776900  1.0  0.0713
  H  H37  1  0.485200  0.944500  0.705000  1.0  0.0985
  H  H38  1  0.286700  0.947200  0.644800  1.0  0.0893
  H  H39  1  0.387300  0.121800  0.807100  1.0  0.0973
  H  H40  1  0.376000  0.190200  0.880000  1.0  0.0922
  H  H41  1  0.268500  0.276300  0.969100  1.0  0.0624
  H  H42  1  0.213000  0.156700  0.073800  1.0  0.0941
  H  H43  1  0.011800  0.215600  0.074500  1.0  0.0925
  H  H44  1  0.021200  0.445600  0.057500  1.0  0.0591
  H  H45  1  0.932900  0.439600  0.940300  1.0  0.0653
  H  H46  1  0.151600  0.314400  0.890700  1.0  0.0957
  H  H47  1  0.157600  0.385000  0.820100  1.0  0.0956
  H  H48  1  0.699000  0.469000  0.223100  1.0  0.0704
  H  H49  1  0.985200  0.555500  0.295000  1.0  0.0982
  H  H50  1  0.786700  0.552800  0.355200  1.0  0.088
  H  H51  1  0.887300  0.378200  0.192900  1.0  0.0975
  H  H52  1  0.876000  0.309800  0.120000  1.0  0.0922
  H  H53  1  0.231500  0.723700  0.469100  1.0  0.0623
  H  H54  1  0.287000  0.843300  0.573800  1.0  0.0933
  H  H55  1  0.488200  0.784400  0.574500  1.0  0.0923
  H  H56  1  0.478800  0.554400  0.557500  1.0  0.059
  H  H57  1  0.567100  0.560400  0.440300  1.0  0.0651
  H  H58  1  0.348400  0.685600  0.390700  1.0  0.0957
  H  H59  1  0.342400  0.615000  0.320100  1.0  0.0959
  H  H60  1  0.801000  0.531000  0.723100  1.0  0.071
  H  H61  1  0.514800  0.444500  0.795000  1.0  0.0987
  H  H62  1  0.713300  0.447200  0.855200  1.0  0.0886
  H  H63  1  0.612700  0.621800  0.692900  1.0  0.0973
  H  H64  1  0.624000  0.690200  0.620000  1.0  0.0921
  H  H65  1  0.268500  0.223700  0.469100  1.0  0.0626
  H  H66  1  0.213000  0.343300  0.573800  1.0  0.0938
  H  H67  1  0.011800  0.284400  0.574500  1.0  0.0924
  H  H68  1  0.021200  0.054400  0.557500  1.0  0.0592
  H  H69  1  0.932900  0.060400  0.440300  1.0  0.0655
  H  H70  1  0.151600  0.185600  0.390700  1.0  0.0956
  H  H71  1  0.157600  0.115000  0.320100  1.0  0.0957
  H  H72  1  0.699000  0.031000  0.723100  1.0  0.0707
  H  H73  1  0.985200  0.944500  0.795000  1.0  0.0986
  H  H74  1  0.786700  0.947200  0.855200  1.0  0.0884
  H  H75  1  0.887300  0.121800  0.692900  1.0  0.0971
  H  H76  1  0.876000  0.190200  0.620000  1.0  0.0925
  H  H77  1  0.231500  0.776300  0.969100  1.0  0.0628
  H  H78  1  0.287000  0.656700  0.073800  1.0  0.0937
  H  H79  1  0.488200  0.715600  0.074500  1.0  0.0926
  H  H80  1  0.478800  0.945600  0.057500  1.0  0.0591
  H  H81  1  0.567100  0.939600  0.940300  1.0  0.0647
  H  H82  1  0.348400  0.814400  0.890700  1.0  0.0955
  H  H83  1  0.342400  0.885000  0.820100  1.0  0.0959
  H  H84  1  0.801000  0.969000  0.223100  1.0  0.0708
  H  H85  1  0.514800  0.055500  0.295000  1.0  0.0983
  H  H86  1  0.713300  0.052800  0.355200  1.0  0.0883
  H  H87  1  0.612700  0.878200  0.192900  1.0  0.0975
  H  H88  1  0.624000  0.809800  0.120000  1.0  0.0919
  H  H89  1  0.731500  0.723700  0.030900  1.0  0.0618
  H  H90  1  0.787000  0.843300  0.926200  1.0  0.0935
  H  H91  1  0.988200  0.784400  0.925500  1.0  0.0924
  H  H92  1  0.978800  0.554400  0.942500  1.0  0.0593
  H  H93  1  0.067100  0.560400  0.059700  1.0  0.0643
  H  H94  1  0.848400  0.685600  0.109300  1.0  0.0961
  H  H95  1  0.842400  0.615000  0.179900  1.0  0.096
  H  H96  1  0.301000  0.531000  0.776900  1.0  0.0716
  H  H97  1  0.014800  0.444500  0.705000  1.0  0.0987
  H  H98  1  0.213300  0.447200  0.644800  1.0  0.0892
  H  H99  1  0.112700  0.621800  0.807100  1.0  0.0975
  H  H100  1  0.124000  0.690200  0.880000  1.0  0.092
  H  H101  1  0.768500  0.276300  0.530900  1.0  0.0616
  H  H102  1  0.713000  0.156700  0.426200  1.0  0.0937
  H  H103  1  0.511800  0.215600  0.425500  1.0  0.0922
  H  H104  1  0.521200  0.445600  0.442500  1.0  0.0588
  H  H105  1  0.432900  0.439600  0.559700  1.0  0.0648
  H  H106  1  0.651600  0.314400  0.609300  1.0  0.0963
  H  H107  1  0.657600  0.385000  0.679900  1.0  0.0957
  H  H108  1  0.199000  0.469000  0.276900  1.0  0.0708
  H  H109  1  0.485200  0.555500  0.205000  1.0  0.0984
  H  H110  1  0.286700  0.552800  0.144800  1.0  0.0888
  H  H111  1  0.387300  0.378200  0.307100  1.0  0.0973
  H  H112  1  0.376000  0.309800  0.380000  1.0  0.0918
  C  C113  1  0.771200  0.753300  0.504800  1.0  0.2367
  C  C114  1  0.799600  0.688100  0.447800  1.0  -0.0203
  C  C115  1  0.911500  0.720700  0.447400  1.0  -0.0425
  C  C116  1  0.012700  0.919900  0.417500  1.0  0.2278
  C  C117  1  0.010600  0.917300  0.581000  1.0  0.2157
  C  C118  1  0.891900  0.848700  0.607600  1.0  -0.0299
  C  C119  1  0.888600  0.887800  0.646700  1.0  -0.0253
  C  C120  1  0.254100  0.990700  0.251600  1.0  0.2304
  C  C121  1  0.096600  0.037500  0.212400  1.0  -0.0485
  C  C122  1  0.207600  0.036500  0.179400  1.0  -0.0215
  C  C123  1  0.086100  0.883800  0.343300  1.0  -0.0267
  C  C124  1  0.091700  0.845900  0.383800  1.0  -0.0272
  C  C125  1  0.728800  0.246700  0.004800  1.0  0.2368
  C  C126  1  0.700400  0.311900  0.947800  1.0  -0.0211
  C  C127  1  0.588500  0.279300  0.947400  1.0  -0.0423
  C  C128  1  0.487300  0.080100  0.917500  1.0  0.2295
  C  C129  1  0.489400  0.082700  0.081000  1.0  0.2156
  C  C130  1  0.608100  0.151300  0.107600  1.0  -0.03
  C  C131  1  0.611400  0.112200  0.146700  1.0  -0.0252
  C  C132  1  0.245900  0.009300  0.751600  1.0  0.2298
  C  C133  1  0.403400  0.962500  0.712400  1.0  -0.0481
  C  C134  1  0.292400  0.963500  0.679400  1.0  -0.0216
  C  C135  1  0.413900  0.116200  0.843300  1.0  -0.0268
  C  C136  1  0.408300  0.154100  0.883800  1.0  -0.0282
  C  C137  1  0.228800  0.253300  0.995200  1.0  0.2377
  C  C138  1  0.200400  0.188100  0.052200  1.0  -0.0207
  C  C139  1  0.088500  0.220700  0.052600  1.0  -0.0421
  C  C140  1  0.987300  0.419900  0.082500  1.0  0.2295
  C  C141  1  0.989400  0.417300  0.919000  1.0  0.2158
  C  C142  1  0.108100  0.348700  0.892400  1.0  -0.0294
  C  C143  1  0.111400  0.387800  0.853300  1.0  -0.025
  C  C144  1  0.745900  0.490700  0.248400  1.0  0.2304
  C  C145  1  0.903400  0.537500  0.287600  1.0  -0.0478
  C  C146  1  0.792400  0.536500  0.320600  1.0  -0.0219
  C  C147  1  0.913900  0.383800  0.156700  1.0  -0.0265
  C  C148  1  0.908300  0.345900  0.116200  1.0  -0.0273
  C  C149  1  0.271200  0.746700  0.495200  1.0  0.2375
  C  C150  1  0.299600  0.811900  0.552200  1.0  -0.0204
  C  C151  1  0.411500  0.779300  0.552600  1.0  -0.0418
  C  C152  1  0.512700  0.580100  0.582500  1.0  0.2294
  C  C153  1  0.510600  0.582700  0.419000  1.0  0.2166
  C  C154  1  0.391900  0.651300  0.392400  1.0  -0.03
  C  C155  1  0.388600  0.612200  0.353300  1.0  -0.0254
  C  C156  1  0.754100  0.509300  0.748400  1.0  0.2297
  C  C157  1  0.596600  0.462500  0.787600  1.0  -0.0473
  C  C158  1  0.707600  0.463500  0.820600  1.0  -0.0221
  C  C159  1  0.586100  0.616200  0.656700  1.0  -0.0267
  C  C160  1  0.591700  0.654100  0.616200  1.0  -0.0272
  C  C161  1  0.228800  0.246700  0.495200  1.0  0.2375
  C  C162  1  0.200400  0.311900  0.552200  1.0  -0.0212
  C  C163  1  0.088500  0.279300  0.552600  1.0  -0.0421
  C  C164  1  0.987300  0.080100  0.582500  1.0  0.2298
  C  C165  1  0.989400  0.082700  0.419000  1.0  0.2168
  C  C166  1  0.108100  0.151300  0.392400  1.0  -0.0294
  C  C167  1  0.111400  0.112200  0.353300  1.0  -0.0252
  C  C168  1  0.745900  0.009300  0.748400  1.0  0.2305
  C  C169  1  0.903400  0.962500  0.787600  1.0  -0.0473
  C  C170  1  0.792400  0.963500  0.820600  1.0  -0.0216
  C  C171  1  0.913900  0.116200  0.656700  1.0  -0.0275
  C  C172  1  0.908300  0.154100  0.616200  1.0  -0.0286
  C  C173  1  0.271200  0.753300  0.995200  1.0  0.2376
  C  C174  1  0.299600  0.688100  0.052200  1.0  -0.0203
  C  C175  1  0.411500  0.720700  0.052600  1.0  -0.0417
  C  C176  1  0.512700  0.919900  0.082500  1.0  0.2288
  C  C177  1  0.510600  0.917300  0.919000  1.0  0.2156
  C  C178  1  0.391900  0.848700  0.892400  1.0  -0.0292
  C  C179  1  0.388600  0.887800  0.853300  1.0  -0.0251
  C  C180  1  0.754100  0.990700  0.248400  1.0  0.229
  C  C181  1  0.596600  0.037500  0.287600  1.0  -0.0481
  C  C182  1  0.707600  0.036500  0.320600  1.0  -0.0225
  C  C183  1  0.586100  0.883800  0.156700  1.0  -0.0261
  C  C184  1  0.591700  0.845900  0.116200  1.0  -0.0265
  C  C185  1  0.771200  0.746700  0.004800  1.0  0.2369
  C  C186  1  0.799600  0.811900  0.947800  1.0  -0.0207
  C  C187  1  0.911500  0.779300  0.947400  1.0  -0.0425
  C  C188  1  0.012700  0.580100  0.917500  1.0  0.2289
  C  C189  1  0.010600  0.582700  0.081000  1.0  0.2154
  C  C190  1  0.891900  0.651300  0.107600  1.0  -0.0304
  C  C191  1  0.888600  0.612200  0.146700  1.0  -0.026
  C  C192  1  0.254100  0.509300  0.751600  1.0  0.2293
  C  C193  1  0.096600  0.462500  0.712400  1.0  -0.0481
  C  C194  1  0.207600  0.463500  0.679400  1.0  -0.021
  C  C195  1  0.086100  0.616200  0.843300  1.0  -0.0271
  C  C196  1  0.091700  0.654100  0.883800  1.0  -0.0275
  C  C197  1  0.728800  0.253300  0.504800  1.0  0.2368
  C  C198  1  0.700400  0.188100  0.447800  1.0  -0.0203
  C  C199  1  0.588500  0.220700  0.447400  1.0  -0.0426
  C  C200  1  0.487300  0.419900  0.417500  1.0  0.2288
  C  C201  1  0.489400  0.417300  0.581000  1.0  0.2161
  C  C202  1  0.608100  0.348700  0.607600  1.0  -0.0301
  C  C203  1  0.611400  0.387800  0.646700  1.0  -0.0245
  C  C204  1  0.245900  0.490700  0.251600  1.0  0.2314
  C  C205  1  0.403400  0.537500  0.212400  1.0  -0.048
  C  C206  1  0.292400  0.536500  0.179400  1.0  -0.022
  C  C207  1  0.413900  0.383800  0.343300  1.0  -0.0264
  C  C208  1  0.408300  0.345900  0.383800  1.0  -0.0276
  N  N209  1  0.893200  0.761900  0.484200  1.0  -0.3857
  N  N210  1  0.709100  0.708100  0.484400  1.0  -0.4022
  N  N211  1  0.043600  0.868200  0.430700  1.0  -0.3879
  N  N212  1  0.035100  0.931600  0.364300  1.0  -0.4049
  N  N213  1  0.963800  0.932500  0.630100  1.0  -0.3961
  N  N214  1  0.969100  0.867300  0.565200  1.0  -0.3911
  N  N215  1  0.125200  0.007200  0.258900  1.0  -0.3936
  N  N216  1  0.309100  0.008200  0.204600  1.0  -0.3938
  N  N217  1  0.606800  0.238100  0.984200  1.0  -0.3856
  N  N218  1  0.790900  0.291900  0.984400  1.0  -0.4011
  N  N219  1  0.456400  0.131800  0.930700  1.0  -0.3869
  N  N220  1  0.464900  0.068400  0.864300  1.0  -0.4054
  N  N221  1  0.536200  0.067500  0.130100  1.0  -0.3961
  N  N222  1  0.530900  0.132700  0.065200  1.0  -0.3908
  N  N223  1  0.374800  0.992800  0.758900  1.0  -0.3932
  N  N224  1  0.190900  0.991800  0.704600  1.0  -0.3936
  N  N225  1  0.106800  0.261900  0.015800  1.0  -0.3854
  N  N226  1  0.290900  0.208100  0.015600  1.0  -0.401
  N  N227  1  0.956400  0.368200  0.069300  1.0  -0.3874
  N  N228  1  0.964900  0.431600  0.135700  1.0  -0.4052
  N  N229  1  0.036200  0.432500  0.869900  1.0  -0.3965
  N  N230  1  0.030900  0.367300  0.934800  1.0  -0.3915
  N  N231  1  0.874800  0.507200  0.241100  1.0  -0.3939
  N  N232  1  0.690900  0.508200  0.295400  1.0  -0.3943
  N  N233  1  0.393200  0.738100  0.515800  1.0  -0.3854
  N  N234  1  0.209100  0.791900  0.515600  1.0  -0.4016
  N  N235  1  0.543600  0.631800  0.569300  1.0  -0.3864
  N  N236  1  0.535100  0.568400  0.635700  1.0  -0.4057
  N  N237  1  0.463800  0.567500  0.369900  1.0  -0.3959
  N  N238  1  0.469100  0.632700  0.434800  1.0  -0.3906
  N  N239  1  0.625200  0.492800  0.741100  1.0  -0.3941
  N  N240  1  0.809100  0.491800  0.795400  1.0  -0.3947
  N  N241  1  0.106800  0.238100  0.515800  1.0  -0.3857
  N  N242  1  0.290900  0.291900  0.515600  1.0  -0.4011
  N  N243  1  0.956400  0.131800  0.569300  1.0  -0.3863
  N  N244  1  0.964900  0.068400  0.635700  1.0  -0.4057
  N  N245  1  0.036200  0.067500  0.369900  1.0  -0.3963
  N  N246  1  0.030900  0.132700  0.434800  1.0  -0.391
  N  N247  1  0.874800  0.992800  0.741100  1.0  -0.394
  N  N248  1  0.690900  0.991800  0.795400  1.0  -0.3944
  N  N249  1  0.393200  0.761900  0.015800  1.0  -0.3857
  N  N250  1  0.209100  0.708100  0.015600  1.0  -0.402
  N  N251  1  0.543600  0.868200  0.069300  1.0  -0.3875
  N  N252  1  0.535100  0.931600  0.135700  1.0  -0.4052
  N  N253  1  0.463800  0.932500  0.869900  1.0  -0.396
  N  N254  1  0.469100  0.867300  0.934800  1.0  -0.3912
  N  N255  1  0.625200  0.007200  0.241100  1.0  -0.3942
  N  N256  1  0.809100  0.008200  0.295400  1.0  -0.3938
  N  N257  1  0.893200  0.738100  0.984200  1.0  -0.3853
  N  N258  1  0.709100  0.791900  0.984400  1.0  -0.4017
  N  N259  1  0.043600  0.631800  0.930700  1.0  -0.387
  N  N260  1  0.035100  0.568400  0.864300  1.0  -0.4055
  N  N261  1  0.963800  0.567500  0.130100  1.0  -0.3957
  N  N262  1  0.969100  0.632700  0.065200  1.0  -0.3905
  N  N263  1  0.125200  0.492800  0.758900  1.0  -0.3936
  N  N264  1  0.309100  0.491800  0.704600  1.0  -0.3939
  N  N265  1  0.606800  0.261900  0.484200  1.0  -0.3854
  N  N266  1  0.790900  0.208100  0.484400  1.0  -0.401
  N  N267  1  0.456400  0.368200  0.430700  1.0  -0.3878
  N  N268  1  0.464900  0.431600  0.364300  1.0  -0.4048
  N  N269  1  0.536200  0.432500  0.630100  1.0  -0.3967
  N  N270  1  0.530900  0.367300  0.565200  1.0  -0.3914
  N  N271  1  0.374800  0.507200  0.258900  1.0  -0.393
  N  N272  1  0.190900  0.508200  0.204600  1.0  -0.3942
