# generated using pymatgen
data_ZnH6(C3N2)2
_symmetry_space_group_name_H-M   'P 1'
_cell_length_a   9.67900000
_cell_length_b   24.11400000
_cell_length_c   24.45000000
_cell_angle_alpha   90.00000000
_cell_angle_beta   90.00000000
_cell_angle_gamma   90.00000000
_symmetry_Int_Tables_number   1
_chemical_formula_structural   ZnH6(C3N2)2
_chemical_formula_sum   'Zn16 H96 C96 N64'
_cell_volume   5706.61547670
_cell_formula_units_Z   16
loop_
 _symmetry_equiv_pos_site_id
 _symmetry_equiv_pos_as_xyz
  1  'x, y, z'
loop_
 _atom_site_type_symbol
 _atom_site_label
 _atom_site_symmetry_multiplicity
 _atom_site_fract_x
 _atom_site_fract_y
 _atom_site_fract_z
 _atom_site_occupancy
 _atom_site_charge
  Zn  Zn1  1  0.015110  0.825350  0.498780  1.0  0.7322
  Zn  Zn2  1  0.002040  0.998210  0.676130  1.0  0.7378
  Zn  Zn3  1  0.484890  0.174650  0.998780  1.0  0.7323
  Zn  Zn4  1  0.497960  0.001790  0.176130  1.0  0.7378
  Zn  Zn5  1  0.984890  0.325350  0.001220  1.0  0.7323
  Zn  Zn6  1  0.997960  0.498210  0.823870  1.0  0.7378
  Zn  Zn7  1  0.515110  0.674650  0.501220  1.0  0.732
  Zn  Zn8  1  0.502040  0.501790  0.323870  1.0  0.7375
  Zn  Zn9  1  0.984890  0.174650  0.501220  1.0  0.7322
  Zn  Zn10  1  0.997960  0.001790  0.323870  1.0  0.7376
  Zn  Zn11  1  0.515110  0.825350  0.001220  1.0  0.7322
  Zn  Zn12  1  0.502040  0.998210  0.823870  1.0  0.7377
  Zn  Zn13  1  0.015110  0.674650  0.998780  1.0  0.7321
  Zn  Zn14  1  0.002040  0.501790  0.176130  1.0  0.7377
  Zn  Zn15  1  0.484890  0.325350  0.498780  1.0  0.7324
  Zn  Zn16  1  0.497960  0.498210  0.676130  1.0  0.7379
  H  H17  1  0.978000  0.945500  0.557700  1.0  0.055
  H  H18  1  0.302800  0.965200  0.725600  1.0  0.0714
  H  H19  1  0.973900  0.725600  0.583600  1.0  0.0893
  H  H20  1  0.006100  0.051700  0.795600  1.0  0.0893
  H  H21  1  0.718500  0.773800  0.467100  1.0  0.0599
  H  H22  1  0.205400  0.051400  0.857000  1.0  0.0925
  H  H23  1  0.073900  0.938900  0.438400  1.0  0.0738
  H  H24  1  0.770000  0.664800  0.586800  1.0  0.0993
  H  H25  1  0.136100  0.808300  0.615600  1.0  0.0928
  H  H26  1  0.808200  0.894100  0.323500  1.0  0.1022
  H  H27  1  0.131300  0.876900  0.690600  1.0  0.1019
  H  H28  1  0.811500  0.821200  0.393700  1.0  0.0968
  H  H29  1  0.522000  0.054500  0.057700  1.0  0.055
  H  H30  1  0.197200  0.034800  0.225600  1.0  0.0721
  H  H31  1  0.526100  0.274400  0.083600  1.0  0.0892
  H  H32  1  0.493900  0.948300  0.295600  1.0  0.0895
  H  H33  1  0.781500  0.226200  0.967100  1.0  0.0599
  H  H34  1  0.294600  0.948600  0.357000  1.0  0.0918
  H  H35  1  0.426100  0.061100  0.938400  1.0  0.0739
  H  H36  1  0.730000  0.335200  0.086800  1.0  0.0992
  H  H37  1  0.363900  0.191700  0.115600  1.0  0.0932
  H  H38  1  0.691800  0.105900  0.823500  1.0  0.1021
  H  H39  1  0.368700  0.123100  0.190600  1.0  0.1021
  H  H40  1  0.688500  0.178800  0.893700  1.0  0.0971
  H  H41  1  0.022000  0.445500  0.942300  1.0  0.0545
  H  H42  1  0.697200  0.465200  0.774400  1.0  0.0723
  H  H43  1  0.026100  0.225600  0.916400  1.0  0.0893
  H  H44  1  0.993900  0.551700  0.704400  1.0  0.0896
  H  H45  1  0.281500  0.273800  0.032900  1.0  0.0595
  H  H46  1  0.794600  0.551400  0.643000  1.0  0.0922
  H  H47  1  0.926100  0.438900  0.061600  1.0  0.074
  H  H48  1  0.230000  0.164800  0.913200  1.0  0.0988
  H  H49  1  0.863900  0.308300  0.884400  1.0  0.0924
  H  H50  1  0.191800  0.394100  0.176500  1.0  0.1025
  H  H51  1  0.868700  0.376900  0.809400  1.0  0.1025
  H  H52  1  0.188500  0.321200  0.106300  1.0  0.0971
  H  H53  1  0.478000  0.554500  0.442300  1.0  0.0554
  H  H54  1  0.802800  0.534800  0.274400  1.0  0.0718
  H  H55  1  0.473900  0.774400  0.416400  1.0  0.0891
  H  H56  1  0.506100  0.448300  0.204400  1.0  0.0899
  H  H57  1  0.218500  0.726200  0.532900  1.0  0.0588
  H  H58  1  0.705400  0.448600  0.143000  1.0  0.0927
  H  H59  1  0.573900  0.561100  0.561600  1.0  0.0736
  H  H60  1  0.270000  0.835200  0.413200  1.0  0.099
  H  H61  1  0.636100  0.691700  0.384400  1.0  0.0927
  H  H62  1  0.308200  0.605900  0.676500  1.0  0.1025
  H  H63  1  0.631300  0.623100  0.309400  1.0  0.1027
  H  H64  1  0.311500  0.678800  0.606300  1.0  0.0969
  H  H65  1  0.022000  0.054500  0.442300  1.0  0.0551
  H  H66  1  0.697200  0.034800  0.274400  1.0  0.0725
  H  H67  1  0.026100  0.274400  0.416400  1.0  0.0894
  H  H68  1  0.993900  0.948300  0.204400  1.0  0.0901
  H  H69  1  0.281500  0.226200  0.532900  1.0  0.0593
  H  H70  1  0.794600  0.948600  0.143000  1.0  0.0926
  H  H71  1  0.926100  0.061100  0.561600  1.0  0.0735
  H  H72  1  0.230000  0.335200  0.413200  1.0  0.0993
  H  H73  1  0.863900  0.191700  0.384400  1.0  0.0931
  H  H74  1  0.191800  0.105900  0.676500  1.0  0.1018
  H  H75  1  0.868700  0.123100  0.309400  1.0  0.1026
  H  H76  1  0.188500  0.178800  0.606300  1.0  0.0967
  H  H77  1  0.478000  0.945500  0.942300  1.0  0.0548
  H  H78  1  0.802800  0.965200  0.774400  1.0  0.072
  H  H79  1  0.473900  0.725600  0.916400  1.0  0.089
  H  H80  1  0.506100  0.051700  0.704400  1.0  0.0899
  H  H81  1  0.218500  0.773800  0.032900  1.0  0.059
  H  H82  1  0.705400  0.051400  0.643000  1.0  0.0927
  H  H83  1  0.573900  0.938900  0.061600  1.0  0.074
  H  H84  1  0.270000  0.664800  0.913200  1.0  0.0989
  H  H85  1  0.636100  0.808300  0.884400  1.0  0.0922
  H  H86  1  0.308200  0.894100  0.176500  1.0  0.1024
  H  H87  1  0.631300  0.876900  0.809400  1.0  0.1026
  H  H88  1  0.311500  0.821200  0.106300  1.0  0.0972
  H  H89  1  0.978000  0.554500  0.057700  1.0  0.0547
  H  H90  1  0.302800  0.534800  0.225600  1.0  0.0715
  H  H91  1  0.973900  0.774400  0.083600  1.0  0.0892
  H  H92  1  0.006100  0.448300  0.295600  1.0  0.0897
  H  H93  1  0.718500  0.726200  0.967100  1.0  0.0596
  H  H94  1  0.205400  0.448600  0.357000  1.0  0.0926
  H  H95  1  0.073900  0.561100  0.938400  1.0  0.0739
  H  H96  1  0.770000  0.835200  0.086800  1.0  0.0989
  H  H97  1  0.136100  0.691700  0.115600  1.0  0.0927
  H  H98  1  0.808200  0.605900  0.823500  1.0  0.1019
  H  H99  1  0.131300  0.623100  0.190600  1.0  0.1018
  H  H100  1  0.811500  0.678800  0.893700  1.0  0.0972
  H  H101  1  0.522000  0.445500  0.557700  1.0  0.0546
  H  H102  1  0.197200  0.465200  0.725600  1.0  0.0717
  H  H103  1  0.526100  0.225600  0.583600  1.0  0.0894
  H  H104  1  0.493900  0.551700  0.795600  1.0  0.0896
  H  H105  1  0.781500  0.273800  0.467100  1.0  0.0602
  H  H106  1  0.294600  0.551400  0.857000  1.0  0.0916
  H  H107  1  0.426100  0.438900  0.438400  1.0  0.0739
  H  H108  1  0.730000  0.164800  0.586800  1.0  0.0995
  H  H109  1  0.363900  0.308300  0.615600  1.0  0.093
  H  H110  1  0.691800  0.394100  0.323500  1.0  0.1018
  H  H111  1  0.368700  0.376900  0.690600  1.0  0.1023
  H  H112  1  0.688500  0.321200  0.393700  1.0  0.097
  C  C113  1  0.017200  0.919000  0.581900  1.0  0.2286
  C  C114  1  0.253400  0.987600  0.750800  1.0  0.2034
  C  C115  1  0.896600  0.727800  0.559800  1.0  -0.0332
  C  C116  1  0.091900  0.034000  0.788400  1.0  -0.0198
  C  C117  1  0.758400  0.753700  0.496700  1.0  0.229
  C  C118  1  0.201600  0.034100  0.822100  1.0  -0.0374
  C  C119  1  0.007800  0.918200  0.418200  1.0  0.1972
  C  C120  1  0.784700  0.694300  0.561800  1.0  -0.0258
  C  C121  1  0.102600  0.845200  0.612700  1.0  -0.0392
  C  C122  1  0.864200  0.894200  0.355500  1.0  -0.0316
  C  C123  1  0.099500  0.882800  0.654300  1.0  -0.0254
  C  C124  1  0.864900  0.854300  0.394500  1.0  -0.0334
  C  C125  1  0.482800  0.081000  0.081900  1.0  0.2285
  C  C126  1  0.246600  0.012400  0.250800  1.0  0.2043
  C  C127  1  0.603400  0.272200  0.059800  1.0  -0.0336
  C  C128  1  0.408100  0.966000  0.288400  1.0  -0.0194
  C  C129  1  0.741600  0.246300  0.996700  1.0  0.2283
  C  C130  1  0.298400  0.965900  0.322100  1.0  -0.0357
  C  C131  1  0.492200  0.081800  0.918200  1.0  0.1973
  C  C132  1  0.715300  0.305700  0.061800  1.0  -0.026
  C  C133  1  0.397400  0.154800  0.112700  1.0  -0.0413
  C  C134  1  0.635800  0.105800  0.855500  1.0  -0.031
  C  C135  1  0.400500  0.117200  0.154300  1.0  -0.0263
  C  C136  1  0.635100  0.145700  0.894500  1.0  -0.0334
  C  C137  1  0.982800  0.419000  0.918100  1.0  0.2284
  C  C138  1  0.746600  0.487600  0.749200  1.0  0.2049
  C  C139  1  0.103400  0.227800  0.940200  1.0  -0.0339
  C  C140  1  0.908100  0.534000  0.711600  1.0  -0.0203
  C  C141  1  0.241600  0.253700  0.003300  1.0  0.2277
  C  C142  1  0.798400  0.534100  0.677900  1.0  -0.0349
  C  C143  1  0.992200  0.418200  0.081800  1.0  0.1973
  C  C144  1  0.215300  0.194300  0.938200  1.0  -0.0256
  C  C145  1  0.897400  0.345200  0.887300  1.0  -0.0399
  C  C146  1  0.135800  0.394200  0.144500  1.0  -0.032
  C  C147  1  0.900500  0.382800  0.845700  1.0  -0.0253
  C  C148  1  0.135100  0.354300  0.105500  1.0  -0.0326
  C  C149  1  0.517200  0.581000  0.418100  1.0  0.2285
  C  C150  1  0.753400  0.512400  0.249200  1.0  0.2033
  C  C151  1  0.396600  0.772200  0.440200  1.0  -0.0336
  C  C152  1  0.591900  0.466000  0.211600  1.0  -0.02
  C  C153  1  0.258400  0.746300  0.503300  1.0  0.229
  C  C154  1  0.701600  0.465900  0.177900  1.0  -0.035
  C  C155  1  0.507800  0.581800  0.581800  1.0  0.1968
  C  C156  1  0.284700  0.805700  0.438200  1.0  -0.0262
  C  C157  1  0.602600  0.654800  0.387300  1.0  -0.0408
  C  C158  1  0.364200  0.605800  0.644500  1.0  -0.0329
  C  C159  1  0.599500  0.617200  0.345700  1.0  -0.0259
  C  C160  1  0.364900  0.645700  0.605500  1.0  -0.0339
  C  C161  1  0.982800  0.081000  0.418100  1.0  0.2287
  C  C162  1  0.746600  0.012400  0.249200  1.0  0.2033
  C  C163  1  0.103400  0.272200  0.440200  1.0  -0.0337
  C  C164  1  0.908100  0.966000  0.211600  1.0  -0.0204
  C  C165  1  0.241600  0.246300  0.503300  1.0  0.2283
  C  C166  1  0.798400  0.965900  0.177900  1.0  -0.0347
  C  C167  1  0.992200  0.081800  0.581800  1.0  0.1971
  C  C168  1  0.215300  0.305700  0.438200  1.0  -0.0259
  C  C169  1  0.897400  0.154800  0.387300  1.0  -0.0408
  C  C170  1  0.135800  0.105800  0.644500  1.0  -0.0319
  C  C171  1  0.900500  0.117200  0.345700  1.0  -0.0256
  C  C172  1  0.135100  0.145700  0.605500  1.0  -0.0332
  C  C173  1  0.517200  0.919000  0.918100  1.0  0.2281
  C  C174  1  0.753400  0.987600  0.749200  1.0  0.2043
  C  C175  1  0.396600  0.727800  0.940200  1.0  -0.0337
  C  C176  1  0.591900  0.034000  0.711600  1.0  -0.0201
  C  C177  1  0.258400  0.753700  0.003300  1.0  0.2282
  C  C178  1  0.701600  0.034100  0.677900  1.0  -0.0351
  C  C179  1  0.507800  0.918200  0.081800  1.0  0.1973
  C  C180  1  0.284700  0.694300  0.938200  1.0  -0.0261
  C  C181  1  0.602600  0.845200  0.887300  1.0  -0.0398
  C  C182  1  0.364200  0.894200  0.144500  1.0  -0.0329
  C  C183  1  0.599500  0.882800  0.845700  1.0  -0.0255
  C  C184  1  0.364900  0.854300  0.105500  1.0  -0.0331
  C  C185  1  0.017200  0.581000  0.081900  1.0  0.2286
  C  C186  1  0.253400  0.512400  0.250800  1.0  0.204
  C  C187  1  0.896600  0.772200  0.059800  1.0  -0.033
  C  C188  1  0.091900  0.466000  0.288400  1.0  -0.0192
  C  C189  1  0.758400  0.746300  0.996700  1.0  0.2292
  C  C190  1  0.201600  0.465900  0.322100  1.0  -0.0369
  C  C191  1  0.007800  0.581800  0.918200  1.0  0.1974
  C  C192  1  0.784700  0.805700  0.061800  1.0  -0.0261
  C  C193  1  0.102600  0.654800  0.112700  1.0  -0.0408
  C  C194  1  0.864200  0.605800  0.855500  1.0  -0.0315
  C  C195  1  0.099500  0.617200  0.154300  1.0  -0.0257
  C  C196  1  0.864900  0.645700  0.894500  1.0  -0.0339
  C  C197  1  0.482800  0.419000  0.581900  1.0  0.2284
  C  C198  1  0.246600  0.487600  0.750800  1.0  0.2042
  C  C199  1  0.603400  0.227800  0.559800  1.0  -0.0339
  C  C200  1  0.408100  0.534000  0.788400  1.0  -0.0198
  C  C201  1  0.741600  0.253700  0.496700  1.0  0.2283
  C  C202  1  0.298400  0.534100  0.822100  1.0  -0.036
  C  C203  1  0.492200  0.418200  0.418200  1.0  0.1968
  C  C204  1  0.715300  0.194300  0.561800  1.0  -0.0254
  C  C205  1  0.397400  0.345200  0.612700  1.0  -0.0396
  C  C206  1  0.635800  0.394200  0.355500  1.0  -0.0311
  C  C207  1  0.400500  0.382800  0.654300  1.0  -0.0259
  C  C208  1  0.635100  0.354300  0.394500  1.0  -0.033
  N  N209  1  0.881600  0.765400  0.518100  1.0  -0.3916
  N  N210  1  0.696800  0.710600  0.521300  1.0  -0.397
  N  N211  1  0.121500  0.005100  0.742800  1.0  -0.3886
  N  N212  1  0.305900  0.005500  0.798200  1.0  -0.385
  N  N213  1  0.050000  0.868700  0.566400  1.0  -0.3778
  N  N214  1  0.043300  0.929800  0.634600  1.0  -0.3992
  N  N215  1  0.954900  0.869100  0.435400  1.0  -0.3817
  N  N216  1  0.956800  0.934900  0.369300  1.0  -0.3859
  N  N217  1  0.618400  0.234600  0.018100  1.0  -0.3919
  N  N218  1  0.803200  0.289400  0.021300  1.0  -0.3964
  N  N219  1  0.378500  0.994900  0.242800  1.0  -0.3881
  N  N220  1  0.194100  0.994500  0.298200  1.0  -0.3858
  N  N221  1  0.450000  0.131300  0.066400  1.0  -0.3771
  N  N222  1  0.456700  0.070200  0.134600  1.0  -0.3997
  N  N223  1  0.545100  0.130900  0.935400  1.0  -0.3811
  N  N224  1  0.543200  0.065100  0.869300  1.0  -0.3857
  N  N225  1  0.118400  0.265400  0.981900  1.0  -0.3924
  N  N226  1  0.303200  0.210600  0.978700  1.0  -0.3958
  N  N227  1  0.878500  0.505100  0.757200  1.0  -0.3885
  N  N228  1  0.694100  0.505500  0.701800  1.0  -0.3859
  N  N229  1  0.950000  0.368700  0.933600  1.0  -0.378
  N  N230  1  0.956700  0.429800  0.865400  1.0  -0.3994
  N  N231  1  0.045100  0.369100  0.064600  1.0  -0.3806
  N  N232  1  0.043200  0.434900  0.130700  1.0  -0.3868
  N  N233  1  0.381600  0.734600  0.481900  1.0  -0.3917
  N  N234  1  0.196800  0.789400  0.478700  1.0  -0.3967
  N  N235  1  0.621500  0.494900  0.257200  1.0  -0.3892
  N  N236  1  0.805900  0.494500  0.201800  1.0  -0.3853
  N  N237  1  0.550000  0.631300  0.433600  1.0  -0.3772
  N  N238  1  0.543300  0.570200  0.365400  1.0  -0.3994
  N  N239  1  0.454900  0.630900  0.564600  1.0  -0.3806
  N  N240  1  0.456800  0.565100  0.630700  1.0  -0.386
  N  N241  1  0.118400  0.234600  0.481900  1.0  -0.3923
  N  N242  1  0.303200  0.289400  0.478700  1.0  -0.396
  N  N243  1  0.878500  0.994900  0.257200  1.0  -0.3885
  N  N244  1  0.694100  0.994500  0.201800  1.0  -0.3853
  N  N245  1  0.950000  0.131300  0.433600  1.0  -0.3771
  N  N246  1  0.956700  0.070200  0.365400  1.0  -0.3997
  N  N247  1  0.045100  0.130900  0.564600  1.0  -0.3805
  N  N248  1  0.043200  0.065100  0.630700  1.0  -0.3863
  N  N249  1  0.381600  0.765400  0.981900  1.0  -0.3921
  N  N250  1  0.196800  0.710600  0.978700  1.0  -0.3971
  N  N251  1  0.621500  0.005100  0.757200  1.0  -0.3892
  N  N252  1  0.805900  0.005500  0.701800  1.0  -0.3854
  N  N253  1  0.550000  0.868700  0.933600  1.0  -0.378
  N  N254  1  0.543300  0.929800  0.865400  1.0  -0.3992
  N  N255  1  0.454900  0.869100  0.064600  1.0  -0.3809
  N  N256  1  0.456800  0.934900  0.130700  1.0  -0.3863
  N  N257  1  0.881600  0.734600  0.018100  1.0  -0.3914
  N  N258  1  0.696800  0.789400  0.021300  1.0  -0.3967
  N  N259  1  0.121500  0.494900  0.242800  1.0  -0.3882
  N  N260  1  0.305900  0.494500  0.298200  1.0  -0.3861
  N  N261  1  0.050000  0.631300  0.066400  1.0  -0.3772
  N  N262  1  0.043300  0.570200  0.134600  1.0  -0.3994
  N  N263  1  0.954900  0.630900  0.935400  1.0  -0.3814
  N  N264  1  0.956800  0.565100  0.869300  1.0  -0.3853
  N  N265  1  0.618400  0.265400  0.518100  1.0  -0.3917
  N  N266  1  0.803200  0.210600  0.521300  1.0  -0.3962
  N  N267  1  0.378500  0.505100  0.742800  1.0  -0.3884
  N  N268  1  0.194100  0.505500  0.798200  1.0  -0.3857
  N  N269  1  0.450000  0.368700  0.566400  1.0  -0.3778
  N  N270  1  0.456700  0.429800  0.634600  1.0  -0.3995
  N  N271  1  0.545100  0.369100  0.435400  1.0  -0.3814
  N  N272  1  0.543200  0.434900  0.369300  1.0  -0.3863
