# generated using pymatgen
data_ZnH6(C3N2)2
_symmetry_space_group_name_H-M   'P 1'
_cell_length_a   15.10690000
_cell_length_b   15.34860000
_cell_length_c   18.34300000
_cell_angle_alpha   90.00000000
_cell_angle_beta   90.00000000
_cell_angle_gamma   90.00000000
_symmetry_Int_Tables_number   1
_chemical_formula_structural   ZnH6(C3N2)2
_chemical_formula_sum   'Zn16 H96 C96 N64'
_cell_volume   4253.18710563
_cell_formula_units_Z   16
loop_
 _symmetry_equiv_pos_site_id
 _symmetry_equiv_pos_as_xyz
  1  'x, y, z'
loop_
 _atom_site_type_symbol
 _atom_site_label
 _atom_site_symmetry_multiplicity
 _atom_site_fract_x
 _atom_site_fract_y
 _atom_site_fract_z
 _atom_site_occupancy
 _atom_site_charge
  Zn  Zn1  1  0.861520  0.794350  0.591560  1.0  0.725
  Zn  Zn2  1  0.662940  0.487320  0.686700  1.0  0.7287
  Zn  Zn3  1  0.138480  0.705650  0.091560  1.0  0.725
  Zn  Zn4  1  0.337060  0.012680  0.186700  1.0  0.7287
  Zn  Zn5  1  0.361520  0.205650  0.908440  1.0  0.725
  Zn  Zn6  1  0.162940  0.512680  0.813300  1.0  0.7287
  Zn  Zn7  1  0.638480  0.294350  0.408440  1.0  0.7248
  Zn  Zn8  1  0.837060  0.987320  0.313300  1.0  0.7286
  Zn  Zn9  1  0.138480  0.205650  0.408440  1.0  0.7249
  Zn  Zn10  1  0.337060  0.512680  0.313300  1.0  0.7287
  Zn  Zn11  1  0.861520  0.294350  0.908440  1.0  0.7249
  Zn  Zn12  1  0.662940  0.987320  0.813300  1.0  0.7287
  Zn  Zn13  1  0.638480  0.794350  0.091560  1.0  0.7249
  Zn  Zn14  1  0.837060  0.487320  0.186700  1.0  0.7286
  Zn  Zn15  1  0.361520  0.705650  0.591560  1.0  0.725
  Zn  Zn16  1  0.162940  0.012680  0.686700  1.0  0.7288
  H  H17  1  0.718900  0.673900  0.653100  1.0  0.0515
  H  H18  1  0.941800  0.599300  0.572900  1.0  0.0922
  H  H19  1  0.860600  0.470900  0.613400  1.0  0.0889
  H  H20  1  0.814500  0.933200  0.475600  1.0  0.0507
  H  H21  1  0.947700  0.724800  0.442700  1.0  0.0868
  H  H22  1  0.935700  0.802700  0.327700  1.0  0.0867
  H  H23  1  0.016800  0.933800  0.595500  1.0  0.0494
  H  H24  1  0.962400  0.761600  0.740200  1.0  0.0943
  H  H25  1  0.071900  0.860900  0.790000  1.0  0.0871
  H  H26  1  0.811000  0.894600  0.729000  1.0  0.0498
  H  H27  1  0.574600  0.936700  0.660400  1.0  0.0817
  H  H28  1  0.657200  0.864200  0.564200  1.0  0.0897
  H  H29  1  0.281100  0.826100  0.153100  1.0  0.0519
  H  H30  1  0.058200  0.900700  0.072900  1.0  0.0927
  H  H31  1  0.139400  0.029100  0.113400  1.0  0.0902
  H  H32  1  0.185500  0.566800  0.975600  1.0  0.0503
  H  H33  1  0.052300  0.775200  0.942700  1.0  0.0864
  H  H34  1  0.064300  0.697300  0.827700  1.0  0.0871
  H  H35  1  0.983200  0.566200  0.095500  1.0  0.0494
  H  H36  1  0.037600  0.738400  0.240200  1.0  0.0933
  H  H37  1  0.928100  0.639100  0.290000  1.0  0.0873
  H  H38  1  0.189000  0.605400  0.229000  1.0  0.05
  H  H39  1  0.425400  0.563300  0.160400  1.0  0.081
  H  H40  1  0.342800  0.635800  0.064200  1.0  0.0897
  H  H41  1  0.218900  0.326100  0.846900  1.0  0.051
  H  H42  1  0.441800  0.400700  0.927100  1.0  0.0923
  H  H43  1  0.360600  0.529100  0.886600  1.0  0.0897
  H  H44  1  0.314500  0.066800  0.024400  1.0  0.05
  H  H45  1  0.447700  0.275200  0.057300  1.0  0.0866
  H  H46  1  0.435700  0.197300  0.172300  1.0  0.0865
  H  H47  1  0.516800  0.066200  0.904500  1.0  0.0497
  H  H48  1  0.462400  0.238400  0.759800  1.0  0.0938
  H  H49  1  0.571900  0.139100  0.710000  1.0  0.0876
  H  H50  1  0.311000  0.105400  0.771000  1.0  0.0505
  H  H51  1  0.074600  0.063300  0.839600  1.0  0.0825
  H  H52  1  0.157200  0.135800  0.935800  1.0  0.0895
  H  H53  1  0.781100  0.173900  0.346900  1.0  0.0519
  H  H54  1  0.558200  0.099300  0.427100  1.0  0.0926
  H  H55  1  0.639400  0.970900  0.386600  1.0  0.089
  H  H56  1  0.685500  0.433200  0.524400  1.0  0.0502
  H  H57  1  0.552300  0.224800  0.557300  1.0  0.0864
  H  H58  1  0.564300  0.302700  0.672300  1.0  0.0869
  H  H59  1  0.483200  0.433800  0.404500  1.0  0.0495
  H  H60  1  0.537600  0.261600  0.259800  1.0  0.0936
  H  H61  1  0.428100  0.360900  0.210000  1.0  0.0875
  H  H62  1  0.689000  0.394600  0.271000  1.0  0.0506
  H  H63  1  0.925400  0.436700  0.339600  1.0  0.081
  H  H64  1  0.842800  0.364200  0.435800  1.0  0.0894
  H  H65  1  0.281100  0.326100  0.346900  1.0  0.0515
  H  H66  1  0.058200  0.400700  0.427100  1.0  0.0926
  H  H67  1  0.139400  0.529100  0.386600  1.0  0.0894
  H  H68  1  0.185500  0.066800  0.524400  1.0  0.0498
  H  H69  1  0.052300  0.275200  0.557300  1.0  0.0868
  H  H70  1  0.064300  0.197300  0.672300  1.0  0.0868
  H  H71  1  0.983200  0.066200  0.404500  1.0  0.0496
  H  H72  1  0.037600  0.238400  0.259800  1.0  0.0935
  H  H73  1  0.928100  0.139100  0.210000  1.0  0.0875
  H  H74  1  0.189000  0.105400  0.271000  1.0  0.0505
  H  H75  1  0.425400  0.063300  0.339600  1.0  0.0813
  H  H76  1  0.342800  0.135800  0.435800  1.0  0.0892
  H  H77  1  0.718900  0.173900  0.846900  1.0  0.0516
  H  H78  1  0.941800  0.099300  0.927100  1.0  0.0923
  H  H79  1  0.860600  0.970900  0.886600  1.0  0.0882
  H  H80  1  0.814500  0.433200  0.024400  1.0  0.0502
  H  H81  1  0.947700  0.224800  0.057300  1.0  0.0865
  H  H82  1  0.935700  0.302700  0.172300  1.0  0.0866
  H  H83  1  0.016800  0.433800  0.904500  1.0  0.0496
  H  H84  1  0.962400  0.261600  0.759800  1.0  0.0934
  H  H85  1  0.071900  0.360900  0.710000  1.0  0.0875
  H  H86  1  0.811000  0.394600  0.771000  1.0  0.0505
  H  H87  1  0.574600  0.436700  0.839600  1.0  0.0819
  H  H88  1  0.657200  0.364200  0.935800  1.0  0.0897
  H  H89  1  0.781100  0.673900  0.153100  1.0  0.0519
  H  H90  1  0.558200  0.599300  0.072900  1.0  0.0926
  H  H91  1  0.639400  0.470900  0.113400  1.0  0.0884
  H  H92  1  0.685500  0.933200  0.975600  1.0  0.0504
  H  H93  1  0.552300  0.724800  0.942700  1.0  0.0866
  H  H94  1  0.564300  0.802700  0.827700  1.0  0.087
  H  H95  1  0.483200  0.933800  0.095500  1.0  0.0494
  H  H96  1  0.537600  0.761600  0.240200  1.0  0.0944
  H  H97  1  0.428100  0.860900  0.290000  1.0  0.0872
  H  H98  1  0.689000  0.894600  0.229000  1.0  0.0501
  H  H99  1  0.925400  0.936700  0.160400  1.0  0.0807
  H  H100  1  0.842800  0.864200  0.064200  1.0  0.0898
  H  H101  1  0.218900  0.826100  0.653100  1.0  0.0515
  H  H102  1  0.441800  0.900700  0.572900  1.0  0.0922
  H  H103  1  0.360600  0.029100  0.613400  1.0  0.0891
  H  H104  1  0.314500  0.566800  0.475600  1.0  0.0506
  H  H105  1  0.447700  0.775200  0.442700  1.0  0.0863
  H  H106  1  0.435700  0.697300  0.327700  1.0  0.0867
  H  H107  1  0.516800  0.566200  0.595500  1.0  0.0494
  H  H108  1  0.462400  0.738400  0.740200  1.0  0.0938
  H  H109  1  0.571900  0.639100  0.790000  1.0  0.0872
  H  H110  1  0.311000  0.605400  0.729000  1.0  0.0498
  H  H111  1  0.074600  0.563300  0.660400  1.0  0.0824
  H  H112  1  0.157200  0.635800  0.564200  1.0  0.0897
  C  C113  1  0.765900  0.638600  0.638900  1.0  0.2162
  C  C114  1  0.886500  0.599600  0.595200  1.0  -0.0251
  C  C115  1  0.841400  0.528200  0.617400  1.0  -0.0333
  C  C116  1  0.848000  0.890400  0.452600  1.0  0.2151
  C  C117  1  0.918800  0.777700  0.436100  1.0  -0.0236
  C  C118  1  0.912600  0.821000  0.372200  1.0  -0.0329
  C  C119  1  0.015700  0.903400  0.639400  1.0  0.2157
  C  C120  1  0.985400  0.810200  0.716600  1.0  -0.0423
  C  C121  1  0.047300  0.864700  0.743600  1.0  -0.0174
  C  C122  1  0.761500  0.896700  0.698900  1.0  0.2167
  C  C123  1  0.633900  0.920900  0.662600  1.0  -0.0226
  C  C124  1  0.679200  0.878300  0.610100  1.0  -0.0321
  C  C125  1  0.234100  0.861400  0.138900  1.0  0.2173
  C  C126  1  0.113500  0.900400  0.095200  1.0  -0.0254
  C  C127  1  0.158600  0.971800  0.117400  1.0  -0.0335
  C  C128  1  0.152000  0.609600  0.952600  1.0  0.2152
  C  C129  1  0.081200  0.722300  0.936100  1.0  -0.0247
  C  C130  1  0.087400  0.679000  0.872200  1.0  -0.0331
  C  C131  1  0.984300  0.596600  0.139400  1.0  0.2151
  C  C132  1  0.014600  0.689800  0.216600  1.0  -0.0423
  C  C133  1  0.952700  0.635300  0.243600  1.0  -0.0174
  C  C134  1  0.238500  0.603300  0.198900  1.0  0.2153
  C  C135  1  0.366100  0.579100  0.162600  1.0  -0.0213
  C  C136  1  0.320800  0.621700  0.110100  1.0  -0.0317
  C  C137  1  0.265900  0.361400  0.861100  1.0  0.2165
  C  C138  1  0.386500  0.400400  0.904800  1.0  -0.0253
  C  C139  1  0.341400  0.471800  0.882600  1.0  -0.0334
  C  C140  1  0.348000  0.109600  0.047400  1.0  0.2145
  C  C141  1  0.418800  0.222300  0.063900  1.0  -0.0234
  C  C142  1  0.412600  0.179000  0.127800  1.0  -0.0321
  C  C143  1  0.515700  0.096600  0.860600  1.0  0.217
  C  C144  1  0.485400  0.189800  0.783400  1.0  -0.0429
  C  C145  1  0.547300  0.135300  0.756400  1.0  -0.0172
  C  C146  1  0.261500  0.103300  0.801100  1.0  0.2164
  C  C147  1  0.133900  0.079100  0.837400  1.0  -0.0224
  C  C148  1  0.179200  0.121700  0.889900  1.0  -0.0324
  C  C149  1  0.734100  0.138600  0.361100  1.0  0.2169
  C  C150  1  0.613500  0.099600  0.404800  1.0  -0.0263
  C  C151  1  0.658600  0.028200  0.382600  1.0  -0.0338
  C  C152  1  0.652000  0.390400  0.547400  1.0  0.2147
  C  C153  1  0.581200  0.277700  0.563900  1.0  -0.0234
  C  C154  1  0.587400  0.321000  0.627800  1.0  -0.033
  C  C155  1  0.484300  0.403400  0.360600  1.0  0.2161
  C  C156  1  0.514600  0.310200  0.283400  1.0  -0.0424
  C  C157  1  0.452700  0.364700  0.256400  1.0  -0.017
  C  C158  1  0.738500  0.396700  0.301100  1.0  0.2158
  C  C159  1  0.866100  0.420900  0.337400  1.0  -0.0218
  C  C160  1  0.820800  0.378300  0.389900  1.0  -0.032
  C  C161  1  0.234100  0.361400  0.361100  1.0  0.217
  C  C162  1  0.113500  0.400400  0.404800  1.0  -0.0261
  C  C163  1  0.158600  0.471800  0.382600  1.0  -0.0339
  C  C164  1  0.152000  0.109600  0.547400  1.0  0.2143
  C  C165  1  0.081200  0.222300  0.563900  1.0  -0.0238
  C  C166  1  0.087400  0.179000  0.627800  1.0  -0.0329
  C  C167  1  0.984300  0.096600  0.360600  1.0  0.2169
  C  C168  1  0.014600  0.189800  0.283400  1.0  -0.0422
  C  C169  1  0.952700  0.135300  0.256400  1.0  -0.0179
  C  C170  1  0.238500  0.103300  0.301100  1.0  0.2156
  C  C171  1  0.366100  0.079100  0.337400  1.0  -0.0215
  C  C172  1  0.320800  0.121700  0.389900  1.0  -0.0317
  C  C173  1  0.765900  0.138600  0.861100  1.0  0.216
  C  C174  1  0.886500  0.099600  0.904800  1.0  -0.0257
  C  C175  1  0.841400  0.028200  0.882600  1.0  -0.0336
  C  C176  1  0.848000  0.390400  0.047400  1.0  0.215
  C  C177  1  0.918800  0.277700  0.063900  1.0  -0.023
  C  C178  1  0.912600  0.321000  0.127800  1.0  -0.0322
  C  C179  1  0.015700  0.403400  0.860600  1.0  0.2159
  C  C180  1  0.985400  0.310200  0.783400  1.0  -0.0429
  C  C181  1  0.047300  0.364700  0.756400  1.0  -0.0161
  C  C182  1  0.761500  0.396700  0.801100  1.0  0.2166
  C  C183  1  0.633900  0.420900  0.837400  1.0  -0.0227
  C  C184  1  0.679200  0.378300  0.889900  1.0  -0.0325
  C  C185  1  0.734100  0.638600  0.138900  1.0  0.2171
  C  C186  1  0.613500  0.599600  0.095200  1.0  -0.0256
  C  C187  1  0.658600  0.528200  0.117400  1.0  -0.0336
  C  C188  1  0.652000  0.890400  0.952600  1.0  0.2151
  C  C189  1  0.581200  0.777700  0.936100  1.0  -0.0237
  C  C190  1  0.587400  0.821000  0.872200  1.0  -0.0336
  C  C191  1  0.484300  0.903400  0.139400  1.0  0.2157
  C  C192  1  0.514600  0.810200  0.216600  1.0  -0.0417
  C  C193  1  0.452700  0.864700  0.243600  1.0  -0.0188
  C  C194  1  0.738500  0.896700  0.198900  1.0  0.2154
  C  C195  1  0.866100  0.920900  0.162600  1.0  -0.0215
  C  C196  1  0.820800  0.878300  0.110100  1.0  -0.0321
  C  C197  1  0.265900  0.861400  0.638900  1.0  0.2167
  C  C198  1  0.386500  0.900400  0.595200  1.0  -0.0249
  C  C199  1  0.341400  0.971800  0.617400  1.0  -0.0329
  C  C200  1  0.348000  0.609600  0.452600  1.0  0.2153
  C  C201  1  0.418800  0.722300  0.436100  1.0  -0.0244
  C  C202  1  0.412600  0.679000  0.372200  1.0  -0.0325
  C  C203  1  0.515700  0.596600  0.639400  1.0  0.2153
  C  C204  1  0.485400  0.689800  0.716600  1.0  -0.0432
  C  C205  1  0.547300  0.635300  0.743600  1.0  -0.0161
  C  C206  1  0.261500  0.603300  0.698900  1.0  0.2167
  C  C207  1  0.133900  0.579100  0.662600  1.0  -0.0227
  C  C208  1  0.179200  0.621700  0.610100  1.0  -0.0316
  N  N209  1  0.765600  0.553900  0.646200  1.0  -0.3755
  N  N210  1  0.839200  0.669400  0.609900  1.0  -0.3747
  N  N211  1  0.869000  0.894200  0.383500  1.0  -0.3727
  N  N212  1  0.877500  0.821000  0.487300  1.0  -0.3721
  N  N213  1  0.066900  0.924100  0.694700  1.0  -0.3766
  N  N214  1  0.963100  0.837000  0.650800  1.0  -0.3832
  N  N215  1  0.687300  0.935600  0.717600  1.0  -0.3698
  N  N216  1  0.759400  0.860500  0.634000  1.0  -0.3738
  N  N217  1  0.234400  0.946100  0.146200  1.0  -0.375
  N  N218  1  0.160800  0.830600  0.109900  1.0  -0.3756
  N  N219  1  0.131000  0.605800  0.883500  1.0  -0.3731
  N  N220  1  0.122500  0.679000  0.987300  1.0  -0.3723
  N  N221  1  0.933100  0.575900  0.194700  1.0  -0.3772
  N  N222  1  0.036900  0.663000  0.150800  1.0  -0.3824
  N  N223  1  0.312700  0.564400  0.217600  1.0  -0.3686
  N  N224  1  0.240600  0.639500  0.134000  1.0  -0.3739
  N  N225  1  0.265600  0.446100  0.853800  1.0  -0.3756
  N  N226  1  0.339200  0.330600  0.890100  1.0  -0.3749
  N  N227  1  0.369000  0.105800  0.116500  1.0  -0.373
  N  N228  1  0.377500  0.179000  0.012700  1.0  -0.3714
  N  N229  1  0.566900  0.075900  0.805300  1.0  -0.3758
  N  N230  1  0.463100  0.163000  0.849200  1.0  -0.3821
  N  N231  1  0.187300  0.064400  0.782400  1.0  -0.3693
  N  N232  1  0.259400  0.139500  0.866000  1.0  -0.3726
  N  N233  1  0.734400  0.053900  0.353800  1.0  -0.3754
  N  N234  1  0.660800  0.169400  0.390100  1.0  -0.3746
  N  N235  1  0.631000  0.394200  0.616500  1.0  -0.3735
  N  N236  1  0.622500  0.321000  0.512700  1.0  -0.3721
  N  N237  1  0.433100  0.424100  0.305300  1.0  -0.3771
  N  N238  1  0.536900  0.337000  0.349200  1.0  -0.3808
  N  N239  1  0.812700  0.435600  0.282400  1.0  -0.3688
  N  N240  1  0.740600  0.360500  0.366000  1.0  -0.3734
  N  N241  1  0.234400  0.446100  0.353800  1.0  -0.3752
  N  N242  1  0.160800  0.330600  0.390100  1.0  -0.375
  N  N243  1  0.131000  0.105800  0.616500  1.0  -0.3731
  N  N244  1  0.122500  0.179000  0.512700  1.0  -0.3715
  N  N245  1  0.933100  0.075900  0.305300  1.0  -0.3773
  N  N246  1  0.036900  0.163000  0.349200  1.0  -0.3811
  N  N247  1  0.312700  0.064400  0.282400  1.0  -0.3688
  N  N248  1  0.240600  0.139500  0.366000  1.0  -0.3733
  N  N249  1  0.765600  0.053900  0.853800  1.0  -0.3757
  N  N250  1  0.839200  0.169400  0.890100  1.0  -0.3745
  N  N251  1  0.869000  0.394200  0.116500  1.0  -0.3731
  N  N252  1  0.877500  0.321000  0.012700  1.0  -0.3721
  N  N253  1  0.066900  0.424100  0.805300  1.0  -0.3763
  N  N254  1  0.963100  0.337000  0.849200  1.0  -0.3817
  N  N255  1  0.687300  0.435600  0.782400  1.0  -0.3691
  N  N256  1  0.759400  0.360500  0.866000  1.0  -0.3727
  N  N257  1  0.734400  0.553900  0.146200  1.0  -0.3747
  N  N258  1  0.660800  0.669400  0.109900  1.0  -0.3748
  N  N259  1  0.631000  0.894200  0.883500  1.0  -0.3731
  N  N260  1  0.622500  0.821000  0.987300  1.0  -0.3721
  N  N261  1  0.433100  0.924100  0.194700  1.0  -0.3773
  N  N262  1  0.536900  0.837000  0.150800  1.0  -0.3828
  N  N263  1  0.812700  0.935600  0.217600  1.0  -0.3691
  N  N264  1  0.740600  0.860500  0.134000  1.0  -0.3743
  N  N265  1  0.265600  0.946100  0.646200  1.0  -0.3757
  N  N266  1  0.339200  0.830600  0.609900  1.0  -0.3755
  N  N267  1  0.369000  0.605800  0.383500  1.0  -0.3729
  N  N268  1  0.377500  0.679000  0.487300  1.0  -0.3722
  N  N269  1  0.566900  0.575900  0.694700  1.0  -0.3758
  N  N270  1  0.463100  0.663000  0.650800  1.0  -0.3826
  N  N271  1  0.187300  0.564400  0.717600  1.0  -0.3692
  N  N272  1  0.259400  0.639500  0.634000  1.0  -0.3732
