# generated using pymatgen
data_ZnH6(C3N2)2
_symmetry_space_group_name_H-M   'P 1'
_cell_length_a   18.97010000
_cell_length_b   18.97010000
_cell_length_c   16.74000000
_cell_angle_alpha   90.00000000
_cell_angle_beta   90.00000000
_cell_angle_gamma   90.00000000
_symmetry_Int_Tables_number   1
_chemical_formula_structural   ZnH6(C3N2)2
_chemical_formula_sum   'Zn16 H96 C96 N64'
_cell_volume   6024.13497773
_cell_formula_units_Z   16
loop_
 _symmetry_equiv_pos_site_id
 _symmetry_equiv_pos_as_xyz
  1  'x, y, z'
loop_
 _atom_site_type_symbol
 _atom_site_label
 _atom_site_symmetry_multiplicity
 _atom_site_fract_x
 _atom_site_fract_y
 _atom_site_fract_z
 _atom_site_occupancy
 _atom_site_charge
  Zn  Zn1  1  0.605490  0.173360  0.179240  1.0  0.7291
  Zn  Zn2  1  0.394510  0.826640  0.179240  1.0  0.7283
  Zn  Zn3  1  0.326640  0.105490  0.679240  1.0  0.7292
  Zn  Zn4  1  0.673360  0.894510  0.679240  1.0  0.7284
  Zn  Zn5  1  0.894510  0.673360  0.320760  1.0  0.7285
  Zn  Zn6  1  0.105490  0.326640  0.320760  1.0  0.7292
  Zn  Zn7  1  0.173360  0.605490  0.820760  1.0  0.7284
  Zn  Zn8  1  0.826640  0.394510  0.820760  1.0  0.7292
  Zn  Zn9  1  0.394510  0.826640  0.820760  1.0  0.7284
  Zn  Zn10  1  0.605490  0.173360  0.820760  1.0  0.7292
  Zn  Zn11  1  0.673360  0.894510  0.320760  1.0  0.7285
  Zn  Zn12  1  0.326640  0.105490  0.320760  1.0  0.7293
  Zn  Zn13  1  0.105490  0.326640  0.679240  1.0  0.729
  Zn  Zn14  1  0.894510  0.673360  0.679240  1.0  0.7283
  Zn  Zn15  1  0.826640  0.394510  0.179240  1.0  0.7291
  Zn  Zn16  1  0.173360  0.605490  0.179240  1.0  0.7283
  H  H17  1  0.602700  0.305800  0.301800  1.0  0.1
  H  H18  1  0.604700  0.010600  0.218400  1.0  0.051
  H  H19  1  0.718000  0.152500  0.322100  1.0  0.0924
  H  H20  1  0.712500  0.084500  0.074800  1.0  0.1015
  H  H21  1  0.750800  0.039600  0.377300  1.0  0.1043
  H  H22  1  0.397300  0.694200  0.301800  1.0  0.1002
  H  H23  1  0.395300  0.989400  0.218400  1.0  0.0505
  H  H24  1  0.282000  0.847500  0.322100  1.0  0.0929
  H  H25  1  0.287500  0.915500  0.074800  1.0  0.1017
  H  H26  1  0.249200  0.960400  0.377300  1.0  0.1043
  H  H27  1  0.194200  0.102700  0.801800  1.0  0.1
  H  H28  1  0.489400  0.104700  0.718400  1.0  0.0514
  H  H29  1  0.347500  0.218000  0.822100  1.0  0.0929
  H  H30  1  0.415500  0.212500  0.574800  1.0  0.1018
  H  H31  1  0.460400  0.250800  0.877300  1.0  0.1052
  H  H32  1  0.805800  0.897300  0.801800  1.0  0.0997
  H  H33  1  0.510600  0.895300  0.718400  1.0  0.0505
  H  H34  1  0.652500  0.782000  0.822100  1.0  0.0928
  H  H35  1  0.584500  0.787500  0.574800  1.0  0.1013
  H  H36  1  0.539600  0.749200  0.877300  1.0  0.1053
  H  H37  1  0.897300  0.805800  0.198200  1.0  0.1
  H  H38  1  0.895300  0.510600  0.281600  1.0  0.0519
  H  H39  1  0.782000  0.652500  0.177900  1.0  0.0924
  H  H40  1  0.787500  0.584500  0.425200  1.0  0.1011
  H  H41  1  0.749200  0.539600  0.122700  1.0  0.1036
  H  H42  1  0.102700  0.194200  0.198200  1.0  0.1007
  H  H43  1  0.104700  0.489400  0.281600  1.0  0.051
  H  H44  1  0.218000  0.347500  0.177900  1.0  0.0921
  H  H45  1  0.212500  0.415500  0.425200  1.0  0.1014
  H  H46  1  0.250800  0.460400  0.122700  1.0  0.1041
  H  H47  1  0.305800  0.602700  0.698200  1.0  0.1003
  H  H48  1  0.010600  0.604700  0.781600  1.0  0.0521
  H  H49  1  0.152500  0.718000  0.677900  1.0  0.0925
  H  H50  1  0.084500  0.712500  0.925200  1.0  0.1019
  H  H51  1  0.039600  0.750800  0.622700  1.0  0.1045
  H  H52  1  0.694200  0.397300  0.698200  1.0  0.1003
  H  H53  1  0.989400  0.395300  0.781600  1.0  0.0508
  H  H54  1  0.847500  0.282000  0.677900  1.0  0.0925
  H  H55  1  0.915500  0.287500  0.925200  1.0  0.1013
  H  H56  1  0.960400  0.249200  0.622700  1.0  0.1047
  H  H57  1  0.397300  0.694200  0.698200  1.0  0.1007
  H  H58  1  0.395300  0.989400  0.781600  1.0  0.0508
  H  H59  1  0.282000  0.847500  0.677900  1.0  0.0922
  H  H60  1  0.287500  0.915500  0.925200  1.0  0.1041
  H  H61  1  0.249200  0.960400  0.622700  1.0  0.1036
  H  H62  1  0.602700  0.305800  0.698200  1.0  0.1
  H  H63  1  0.604700  0.010600  0.781600  1.0  0.0518
  H  H64  1  0.718000  0.152500  0.677900  1.0  0.0922
  H  H65  1  0.712500  0.084500  0.925200  1.0  0.1034
  H  H66  1  0.750800  0.039600  0.622700  1.0  0.1041
  H  H67  1  0.805800  0.897300  0.198200  1.0  0.1009
  H  H68  1  0.510600  0.895300  0.281600  1.0  0.0507
  H  H69  1  0.652500  0.782000  0.177900  1.0  0.0921
  H  H70  1  0.584500  0.787500  0.425200  1.0  0.1031
  H  H71  1  0.539600  0.749200  0.122700  1.0  0.1046
  H  H72  1  0.194200  0.102700  0.198200  1.0  0.0997
  H  H73  1  0.489400  0.104700  0.281600  1.0  0.0519
  H  H74  1  0.347500  0.218000  0.177900  1.0  0.0925
  H  H75  1  0.415500  0.212500  0.425200  1.0  0.104
  H  H76  1  0.460400  0.250800  0.122700  1.0  0.1047
  H  H77  1  0.102700  0.194200  0.801800  1.0  0.103
  H  H78  1  0.104700  0.489400  0.718400  1.0  0.0507
  H  H79  1  0.218000  0.347500  0.822100  1.0  0.0926
  H  H80  1  0.212500  0.415500  0.574800  1.0  0.1037
  H  H81  1  0.250800  0.460400  0.877300  1.0  0.1043
  H  H82  1  0.897300  0.805800  0.801800  1.0  0.1021
  H  H83  1  0.895300  0.510600  0.718400  1.0  0.0512
  H  H84  1  0.782000  0.652500  0.822100  1.0  0.0928
  H  H85  1  0.787500  0.584500  0.574800  1.0  0.1038
  H  H86  1  0.749200  0.539600  0.877300  1.0  0.1044
  H  H87  1  0.694200  0.397300  0.301800  1.0  0.1024
  H  H88  1  0.989400  0.395300  0.218400  1.0  0.0507
  H  H89  1  0.847500  0.282000  0.322100  1.0  0.0931
  H  H90  1  0.915500  0.287500  0.074800  1.0  0.1039
  H  H91  1  0.960400  0.249200  0.377300  1.0  0.1055
  H  H92  1  0.305800  0.602700  0.301800  1.0  0.1024
  H  H93  1  0.010600  0.604700  0.218400  1.0  0.0514
  H  H94  1  0.152500  0.718000  0.322100  1.0  0.0928
  H  H95  1  0.084500  0.712500  0.074800  1.0  0.1044
  H  H96  1  0.039600  0.750800  0.377300  1.0  0.1048
  H  H97  1  0.733200  0.266800  0.130500  1.0  0.0502
  H  H98  1  0.266800  0.733200  0.130500  1.0  0.0497
  H  H99  1  0.233200  0.233200  0.630500  1.0  0.0497
  H  H100  1  0.766800  0.766800  0.630500  1.0  0.05
  H  H101  1  0.766800  0.766800  0.369500  1.0  0.0508
  H  H102  1  0.233200  0.233200  0.369500  1.0  0.0502
  H  H103  1  0.266800  0.733200  0.869500  1.0  0.0502
  H  H104  1  0.733200  0.266800  0.869500  1.0  0.0508
  H  H105  1  0.556700  0.198900  0.000000  1.0  0.057
  H  H106  1  0.443300  0.801100  0.000000  1.0  0.0568
  H  H107  1  0.301100  0.056700  0.500000  1.0  0.0579
  H  H108  1  0.698900  0.943300  0.500000  1.0  0.058
  H  H109  1  0.943300  0.698900  0.500000  1.0  0.0571
  H  H110  1  0.056700  0.301100  0.500000  1.0  0.0567
  H  H111  1  0.198900  0.556700  0.000000  1.0  0.0582
  H  H112  1  0.801100  0.443300  0.000000  1.0  0.0582
  C  C113  1  0.639800  0.309200  0.265600  1.0  -0.0427
  C  C114  1  0.638200  0.032600  0.250500  1.0  0.2356
  C  C115  1  0.699200  0.109300  0.306600  1.0  -0.035
  C  C116  1  0.681200  0.108800  0.042200  1.0  -0.0465
  C  C117  1  0.717300  0.047300  0.337700  1.0  -0.0311
  C  C118  1  0.360200  0.690800  0.265600  1.0  -0.0411
  C  C119  1  0.361800  0.967400  0.250500  1.0  0.236
  C  C120  1  0.300800  0.890700  0.306600  1.0  -0.0345
  C  C121  1  0.318800  0.891200  0.042200  1.0  -0.0459
  C  C122  1  0.282700  0.952700  0.337700  1.0  -0.0323
  C  C123  1  0.190800  0.139800  0.765600  1.0  -0.0409
  C  C124  1  0.467400  0.138200  0.750500  1.0  0.2355
  C  C125  1  0.390700  0.199200  0.806600  1.0  -0.0349
  C  C126  1  0.391200  0.181200  0.542200  1.0  -0.0449
  C  C127  1  0.452700  0.217300  0.837700  1.0  -0.0335
  C  C128  1  0.809200  0.860200  0.765600  1.0  -0.042
  C  C129  1  0.532600  0.861800  0.750500  1.0  0.2358
  C  C130  1  0.609300  0.800800  0.806600  1.0  -0.0344
  C  C131  1  0.608800  0.818800  0.542200  1.0  -0.0464
  C  C132  1  0.547300  0.782700  0.837700  1.0  -0.0326
  C  C133  1  0.860200  0.809200  0.234400  1.0  -0.0419
  C  C134  1  0.861800  0.532600  0.249500  1.0  0.2366
  C  C135  1  0.800800  0.609300  0.193400  1.0  -0.0353
  C  C136  1  0.818800  0.608800  0.457800  1.0  -0.0471
  C  C137  1  0.782700  0.547300  0.162300  1.0  -0.0333
  C  C138  1  0.139800  0.190800  0.234400  1.0  -0.0418
  C  C139  1  0.138200  0.467400  0.249500  1.0  0.236
  C  C140  1  0.199200  0.390700  0.193400  1.0  -0.0353
  C  C141  1  0.181200  0.391200  0.457800  1.0  -0.046
  C  C142  1  0.217300  0.452700  0.162300  1.0  -0.0325
  C  C143  1  0.309200  0.639800  0.734400  1.0  -0.041
  C  C144  1  0.032600  0.638200  0.749500  1.0  0.2367
  C  C145  1  0.109300  0.699200  0.693400  1.0  -0.0346
  C  C146  1  0.108800  0.681200  0.957800  1.0  -0.0456
  C  C147  1  0.047300  0.717300  0.662300  1.0  -0.0337
  C  C148  1  0.690800  0.360200  0.734400  1.0  -0.0417
  C  C149  1  0.967400  0.361800  0.749500  1.0  0.2362
  C  C150  1  0.890700  0.300800  0.693400  1.0  -0.0352
  C  C151  1  0.891200  0.318800  0.957800  1.0  -0.0461
  C  C152  1  0.952700  0.282700  0.662300  1.0  -0.0336
  C  C153  1  0.360200  0.690800  0.734400  1.0  -0.0413
  C  C154  1  0.361800  0.967400  0.749500  1.0  0.2364
  C  C155  1  0.300800  0.890700  0.693400  1.0  -0.0349
  C  C156  1  0.318800  0.891200  0.957800  1.0  -0.0457
  C  C157  1  0.282700  0.952700  0.662300  1.0  -0.033
  C  C158  1  0.639800  0.309200  0.734400  1.0  -0.0428
  C  C159  1  0.638200  0.032600  0.749500  1.0  0.2365
  C  C160  1  0.699200  0.109300  0.693400  1.0  -0.0357
  C  C161  1  0.681200  0.108800  0.957800  1.0  -0.0475
  C  C162  1  0.717300  0.047300  0.662300  1.0  -0.0327
  C  C163  1  0.809200  0.860200  0.234400  1.0  -0.0414
  C  C164  1  0.532600  0.861800  0.249500  1.0  0.2361
  C  C165  1  0.609300  0.800800  0.193400  1.0  -0.0353
  C  C166  1  0.608800  0.818800  0.457800  1.0  -0.047
  C  C167  1  0.547300  0.782700  0.162300  1.0  -0.0335
  C  C168  1  0.190800  0.139800  0.234400  1.0  -0.0416
  C  C169  1  0.467400  0.138200  0.249500  1.0  0.2366
  C  C170  1  0.390700  0.199200  0.193400  1.0  -0.0352
  C  C171  1  0.391200  0.181200  0.457800  1.0  -0.045
  C  C172  1  0.452700  0.217300  0.162300  1.0  -0.0345
  C  C173  1  0.139800  0.190800  0.765600  1.0  -0.0413
  C  C174  1  0.138200  0.467400  0.750500  1.0  0.2359
  C  C175  1  0.199200  0.390700  0.806600  1.0  -0.0344
  C  C176  1  0.181200  0.391200  0.542200  1.0  -0.046
  C  C177  1  0.217300  0.452700  0.837700  1.0  -0.0311
  C  C178  1  0.860200  0.809200  0.765600  1.0  -0.042
  C  C179  1  0.861800  0.532600  0.750500  1.0  0.2355
  C  C180  1  0.800800  0.609300  0.806600  1.0  -0.035
  C  C181  1  0.818800  0.608800  0.542200  1.0  -0.0466
  C  C182  1  0.782700  0.547300  0.837700  1.0  -0.0322
  C  C183  1  0.690800  0.360200  0.265600  1.0  -0.0418
  C  C184  1  0.967400  0.361800  0.250500  1.0  0.2356
  C  C185  1  0.890700  0.300800  0.306600  1.0  -0.0342
  C  C186  1  0.891200  0.318800  0.042200  1.0  -0.0449
  C  C187  1  0.952700  0.282700  0.337700  1.0  -0.0322
  C  C188  1  0.309200  0.639800  0.265600  1.0  -0.0409
  C  C189  1  0.032600  0.638200  0.250500  1.0  0.2358
  C  C190  1  0.109300  0.699200  0.306600  1.0  -0.0344
  C  C191  1  0.108800  0.681200  0.042200  1.0  -0.0459
  C  C192  1  0.047300  0.717300  0.337700  1.0  -0.0329
  C  C193  1  0.710700  0.289300  0.172700  1.0  0.2318
  C  C194  1  0.289300  0.710700  0.172700  1.0  0.2327
  C  C195  1  0.210700  0.210700  0.672700  1.0  0.2315
  C  C196  1  0.789300  0.789300  0.672700  1.0  0.2329
  C  C197  1  0.789300  0.789300  0.327300  1.0  0.2327
  C  C198  1  0.210700  0.210700  0.327300  1.0  0.2314
  C  C199  1  0.289300  0.710700  0.827300  1.0  0.2325
  C  C200  1  0.710700  0.289300  0.827300  1.0  0.232
  C  C201  1  0.597100  0.171100  0.000000  1.0  0.2191
  C  C202  1  0.402900  0.828900  0.000000  1.0  0.2197
  C  C203  1  0.328900  0.097100  0.500000  1.0  0.2165
  C  C204  1  0.671100  0.902900  0.500000  1.0  0.2167
  C  C205  1  0.902900  0.671100  0.500000  1.0  0.2204
  C  C206  1  0.097100  0.328900  0.500000  1.0  0.2192
  C  C207  1  0.171100  0.597100  0.000000  1.0  0.2169
  C  C208  1  0.828900  0.402900  0.000000  1.0  0.216
  N  N209  1  0.652200  0.264600  0.204400  1.0  -0.3874
  N  N210  1  0.649200  0.100600  0.248800  1.0  -0.3855
  N  N211  1  0.628000  0.149900  0.067100  1.0  -0.3708
  N  N212  1  0.677900  0.997900  0.300800  1.0  -0.399
  N  N213  1  0.347800  0.735400  0.204400  1.0  -0.3858
  N  N214  1  0.350800  0.899400  0.248800  1.0  -0.3852
  N  N215  1  0.372000  0.850100  0.067100  1.0  -0.3704
  N  N216  1  0.322100  0.002100  0.300800  1.0  -0.399
  N  N217  1  0.235400  0.152200  0.704400  1.0  -0.3857
  N  N218  1  0.399400  0.149200  0.748800  1.0  -0.3847
  N  N219  1  0.350100  0.128000  0.567100  1.0  -0.3727
  N  N220  1  0.502100  0.177900  0.800800  1.0  -0.3957
  N  N221  1  0.764600  0.847800  0.704400  1.0  -0.3859
  N  N222  1  0.600600  0.850800  0.748800  1.0  -0.3848
  N  N223  1  0.649900  0.872000  0.567100  1.0  -0.3721
  N  N224  1  0.497900  0.822100  0.800800  1.0  -0.3961
  N  N225  1  0.847800  0.764600  0.295600  1.0  -0.3861
  N  N226  1  0.850800  0.600600  0.251200  1.0  -0.3843
  N  N227  1  0.872000  0.649900  0.432900  1.0  -0.3704
  N  N228  1  0.822100  0.497900  0.199200  1.0  -0.3996
  N  N229  1  0.152200  0.235400  0.295600  1.0  -0.3871
  N  N230  1  0.149200  0.399400  0.251200  1.0  -0.385
  N  N231  1  0.128000  0.350100  0.432900  1.0  -0.3709
  N  N232  1  0.177900  0.502100  0.199200  1.0  -0.3988
  N  N233  1  0.264600  0.652200  0.795600  1.0  -0.3868
  N  N234  1  0.100600  0.649200  0.751200  1.0  -0.3843
  N  N235  1  0.149900  0.628000  0.932900  1.0  -0.3728
  N  N236  1  0.997900  0.677900  0.699200  1.0  -0.3958
  N  N237  1  0.735400  0.347800  0.795600  1.0  -0.3861
  N  N238  1  0.899400  0.350800  0.751200  1.0  -0.3836
  N  N239  1  0.850100  0.372000  0.932900  1.0  -0.3721
  N  N240  1  0.002100  0.322100  0.699200  1.0  -0.3956
  N  N241  1  0.347800  0.735400  0.795600  1.0  -0.3858
  N  N242  1  0.350800  0.899400  0.751200  1.0  -0.3844
  N  N243  1  0.372000  0.850100  0.932900  1.0  -0.3708
  N  N244  1  0.322100  0.002100  0.699200  1.0  -0.3991
  N  N245  1  0.652200  0.264600  0.795600  1.0  -0.3882
  N  N246  1  0.649200  0.100600  0.751200  1.0  -0.3849
  N  N247  1  0.628000  0.149900  0.932900  1.0  -0.3707
  N  N248  1  0.677900  0.997900  0.699200  1.0  -0.3994
  N  N249  1  0.764600  0.847800  0.295600  1.0  -0.3867
  N  N250  1  0.600600  0.850800  0.251200  1.0  -0.3837
  N  N251  1  0.649900  0.872000  0.432900  1.0  -0.372
  N  N252  1  0.497900  0.822100  0.199200  1.0  -0.3962
  N  N253  1  0.235400  0.152200  0.295600  1.0  -0.3858
  N  N254  1  0.399400  0.149200  0.251200  1.0  -0.3842
  N  N255  1  0.350100  0.128000  0.432900  1.0  -0.3727
  N  N256  1  0.502100  0.177900  0.199200  1.0  -0.3958
  N  N257  1  0.152200  0.235400  0.704400  1.0  -0.387
  N  N258  1  0.149200  0.399400  0.748800  1.0  -0.3857
  N  N259  1  0.128000  0.350100  0.567100  1.0  -0.371
  N  N260  1  0.177900  0.502100  0.800800  1.0  -0.3987
  N  N261  1  0.847800  0.764600  0.704400  1.0  -0.3854
  N  N262  1  0.850800  0.600600  0.748800  1.0  -0.3852
  N  N263  1  0.872000  0.649900  0.567100  1.0  -0.37
  N  N264  1  0.822100  0.497900  0.800800  1.0  -0.3992
  N  N265  1  0.735400  0.347800  0.204400  1.0  -0.3856
  N  N266  1  0.899400  0.350800  0.248800  1.0  -0.3843
  N  N267  1  0.850100  0.372000  0.067100  1.0  -0.3726
  N  N268  1  0.002100  0.322100  0.300800  1.0  -0.3953
  N  N269  1  0.264600  0.652200  0.204400  1.0  -0.3865
  N  N270  1  0.100600  0.649200  0.248800  1.0  -0.3852
  N  N271  1  0.149900  0.628000  0.067100  1.0  -0.3723
  N  N272  1  0.997900  0.677900  0.300800  1.0  -0.3959
