# generated using pymatgen
data_CoH10(C7N2)2
_symmetry_space_group_name_H-M   'P 1'
_cell_length_a   22.94370000
_cell_length_b   22.94370000
_cell_length_c   15.74700000
_cell_angle_alpha   90.00000000
_cell_angle_beta   90.00000000
_cell_angle_gamma   120.00000000
_symmetry_Int_Tables_number   1
_chemical_formula_structural   CoH10(C7N2)2
_chemical_formula_sum   'Co18 H180 C252 N72'
_cell_volume   7178.85811688
_cell_formula_units_Z   18
loop_
 _symmetry_equiv_pos_site_id
 _symmetry_equiv_pos_as_xyz
  1  'x, y, z'
loop_
 _atom_site_type_symbol
 _atom_site_label
 _atom_site_symmetry_multiplicity
 _atom_site_fract_x
 _atom_site_fract_y
 _atom_site_fract_z
 _atom_site_occupancy
 _atom_site_charge
  Co  Co1  1  0.398850  0.070060  0.340750  1.0  0.829
  Co  Co2  1  0.065520  0.403390  0.674080  1.0  0.8289
  Co  Co3  1  0.732180  0.736730  0.007420  1.0  0.8289
  Co  Co4  1  0.929940  0.328790  0.340750  1.0  0.8274
  Co  Co5  1  0.596610  0.662120  0.674080  1.0  0.8271
  Co  Co6  1  0.263270  0.995460  0.007420  1.0  0.8273
  Co  Co7  1  0.671210  0.601150  0.340750  1.0  0.8272
  Co  Co8  1  0.337880  0.934480  0.674080  1.0  0.8273
  Co  Co9  1  0.004540  0.267820  0.007420  1.0  0.8271
  Co  Co10  1  0.601150  0.929940  0.659250  1.0  0.8275
  Co  Co11  1  0.267820  0.263270  0.992580  1.0  0.8273
  Co  Co12  1  0.934480  0.596610  0.325920  1.0  0.8275
  Co  Co13  1  0.070060  0.671210  0.659250  1.0  0.8284
  Co  Co14  1  0.736730  0.004540  0.992580  1.0  0.8283
  Co  Co15  1  0.403390  0.337880  0.325920  1.0  0.8281
  Co  Co16  1  0.328790  0.398850  0.659250  1.0  0.8271
  Co  Co17  1  0.995460  0.732180  0.992580  1.0  0.8271
  Co  Co18  1  0.662120  0.065520  0.325920  1.0  0.8272
  H  H19  1  0.333333  0.071000  0.171400  1.0  0.0513
  H  H20  1  0.367500  0.911700  0.324900  1.0  0.1101
  H  H21  1  0.334600  0.808500  0.263500  1.0  0.0869
  H  H22  1  0.365900  0.189100  0.387800  1.0  0.0577
  H  H23  1  0.486300  0.138500  0.182900  1.0  0.1143
  H  H24  1  0.547600  0.216700  0.078900  1.0  0.0956
  H  H25  1  0.489900  0.344800  0.167200  1.0  0.1197
  H  H26  1  0.546300  0.316200  0.069200  1.0  0.0945
  H  H27  1  0.262800  0.853300  0.057800  1.0  0.105
  H  H28  1  0.281600  0.778300  0.134800  1.0  0.0973
  H  H29  1  0.999970  0.404330  0.504730  1.0  0.0521
  H  H30  1  0.034170  0.245030  0.658230  1.0  0.1101
  H  H31  1  0.001270  0.141830  0.596830  1.0  0.0866
  H  H32  1  0.032570  0.522430  0.721130  1.0  0.0577
  H  H33  1  0.152970  0.471830  0.516230  1.0  0.1143
  H  H34  1  0.214270  0.550030  0.412230  1.0  0.0956
  H  H35  1  0.156570  0.678130  0.500530  1.0  0.1198
  H  H36  1  0.212970  0.649530  0.402530  1.0  0.0945
  H  H37  1  0.929470  0.186630  0.391130  1.0  0.105
  H  H38  1  0.948270  0.111630  0.468130  1.0  0.0988
  H  H39  1  0.666667  0.737670  0.838070  1.0  0.0513
  H  H40  1  0.700830  0.578370  0.991570  1.0  0.1101
  H  H41  1  0.667930  0.475170  0.930170  1.0  0.0869
  H  H42  1  0.699230  0.855770  0.054470  1.0  0.0577
  H  H43  1  0.819630  0.805170  0.849570  1.0  0.1143
  H  H44  1  0.880930  0.883370  0.745570  1.0  0.0956
  H  H45  1  0.823230  0.011470  0.833870  1.0  0.1197
  H  H46  1  0.879630  0.982870  0.735870  1.0  0.0948
  H  H47  1  0.596130  0.519970  0.724470  1.0  0.105
  H  H48  1  0.614930  0.444970  0.801470  1.0  0.0973
  H  H49  1  0.929000  0.262300  0.171400  1.0  0.0515
  H  H50  1  0.088300  0.455800  0.324900  1.0  0.1123
  H  H51  1  0.191500  0.526100  0.263500  1.0  0.0867
  H  H52  1  0.810900  0.176800  0.387800  1.0  0.0581
  H  H53  1  0.861500  0.347800  0.182900  1.0  0.1146
  H  H54  1  0.783300  0.330900  0.078900  1.0  0.0952
  H  H55  1  0.655200  0.145100  0.167200  1.0  0.1174
  H  H56  1  0.683800  0.230100  0.069200  1.0  0.0949
  H  H57  1  0.146700  0.409500  0.057800  1.0  0.1051
  H  H58  1  0.221700  0.503300  0.134800  1.0  0.0981
  H  H59  1  0.595670  0.595630  0.504730  1.0  0.0515
  H  H60  1  0.754970  0.789130  0.658230  1.0  0.1123
  H  H61  1  0.858170  0.859430  0.596830  1.0  0.0863
  H  H62  1  0.477570  0.510130  0.721130  1.0  0.058
  H  H63  1  0.528170  0.681130  0.516230  1.0  0.1146
  H  H64  1  0.449970  0.664230  0.412230  1.0  0.0952
  H  H65  1  0.321870  0.478430  0.500530  1.0  0.1173
  H  H66  1  0.350470  0.563430  0.402530  1.0  0.0949
  H  H67  1  0.813370  0.742830  0.391130  1.0  0.1051
  H  H68  1  0.888370  0.836630  0.468130  1.0  0.0973
  H  H69  1  0.262330  0.928970  0.838070  1.0  0.0515
  H  H70  1  0.421630  0.122470  0.991570  1.0  0.1122
  H  H71  1  0.524830  0.192770  0.930170  1.0  0.0867
  H  H72  1  0.144230  0.843470  0.054470  1.0  0.0581
  H  H73  1  0.194830  0.014470  0.849570  1.0  0.1146
  H  H74  1  0.116630  0.997570  0.745570  1.0  0.0952
  H  H75  1  0.988530  0.811770  0.833870  1.0  0.1172
  H  H76  1  0.017130  0.896770  0.735870  1.0  0.094
  H  H77  1  0.480030  0.076170  0.724470  1.0  0.1052
  H  H78  1  0.555030  0.169970  0.801470  1.0  0.0981
  H  H79  1  0.737700  0.666667  0.171400  1.0  0.0528
  H  H80  1  0.544200  0.632500  0.324900  1.0  0.1113
  H  H81  1  0.473900  0.665400  0.263500  1.0  0.0866
  H  H82  1  0.823200  0.634100  0.387800  1.0  0.0573
  H  H83  1  0.652200  0.513700  0.182900  1.0  0.1168
  H  H84  1  0.669100  0.452400  0.078900  1.0  0.095
  H  H85  1  0.854900  0.510100  0.167200  1.0  0.1198
  H  H86  1  0.769900  0.453700  0.069200  1.0  0.0947
  H  H87  1  0.590500  0.737200  0.057800  1.0  0.1048
  H  H88  1  0.496700  0.718400  0.134800  1.0  0.0982
  H  H89  1  0.404370  0.000030  0.504730  1.0  0.0523
  H  H90  1  0.210870  0.965830  0.658230  1.0  0.1113
  H  H91  1  0.140570  0.998730  0.596830  1.0  0.0872
  H  H92  1  0.489870  0.967430  0.721130  1.0  0.0573
  H  H93  1  0.318870  0.847030  0.516230  1.0  0.1168
  H  H94  1  0.335770  0.785730  0.412230  1.0  0.095
  H  H95  1  0.521570  0.843430  0.500530  1.0  0.1198
  H  H96  1  0.436570  0.787030  0.402530  1.0  0.0947
  H  H97  1  0.257170  0.070530  0.391130  1.0  0.1049
  H  H98  1  0.163370  0.051730  0.468130  1.0  0.0982
  H  H99  1  0.071030  0.333370  0.838070  1.0  0.0523
  H  H100  1  0.877530  0.299170  0.991570  1.0  0.1113
  H  H101  1  0.807230  0.332070  0.930170  1.0  0.0866
  H  H102  1  0.156530  0.300770  0.054470  1.0  0.0573
  H  H103  1  0.985530  0.180370  0.849570  1.0  0.1168
  H  H104  1  0.002430  0.119070  0.745570  1.0  0.095
  H  H105  1  0.188230  0.176770  0.833870  1.0  0.1199
  H  H106  1  0.103230  0.120370  0.735870  1.0  0.0951
  H  H107  1  0.923830  0.403870  0.724470  1.0  0.1051
  H  H108  1  0.830030  0.385070  0.801470  1.0  0.0982
  H  H109  1  0.666667  0.929000  0.828600  1.0  0.0508
  H  H110  1  0.632500  0.088300  0.675100  1.0  0.1101
  H  H111  1  0.665400  0.191500  0.736500  1.0  0.087
  H  H112  1  0.634100  0.810900  0.612200  1.0  0.0582
  H  H113  1  0.513700  0.861500  0.817100  1.0  0.1142
  H  H114  1  0.452400  0.783300  0.921100  1.0  0.0951
  H  H115  1  0.510100  0.655200  0.832800  1.0  0.1198
  H  H116  1  0.453700  0.683800  0.930800  1.0  0.0949
  H  H117  1  0.737200  0.146700  0.942200  1.0  0.1049
  H  H118  1  0.718400  0.221700  0.865200  1.0  0.097
  H  H119  1  0.333370  0.262330  0.161930  1.0  0.0517
  H  H120  1  0.299170  0.421630  0.008430  1.0  0.1101
  H  H121  1  0.332070  0.524830  0.069830  1.0  0.087
  H  H122  1  0.300770  0.144230  0.945530  1.0  0.0582
  H  H123  1  0.180370  0.194830  0.150430  1.0  0.1142
  H  H124  1  0.119070  0.116630  0.254430  1.0  0.0951
  H  H125  1  0.176770  0.988530  0.166130  1.0  0.1198
  H  H126  1  0.120370  0.017130  0.264130  1.0  0.0955
  H  H127  1  0.403870  0.480030  0.275530  1.0  0.1049
  H  H128  1  0.385070  0.555030  0.198530  1.0  0.097
  H  H129  1  0.000030  0.595670  0.495270  1.0  0.0516
  H  H130  1  0.965830  0.754970  0.341770  1.0  0.1101
  H  H131  1  0.998730  0.858170  0.403170  1.0  0.0868
  H  H132  1  0.967430  0.477570  0.278870  1.0  0.0581
  H  H133  1  0.847030  0.528170  0.483770  1.0  0.1142
  H  H134  1  0.785730  0.449970  0.587770  1.0  0.0951
  H  H135  1  0.843430  0.321870  0.499470  1.0  0.1198
  H  H136  1  0.787030  0.350470  0.597470  1.0  0.0949
  H  H137  1  0.070530  0.813370  0.608870  1.0  0.1049
  H  H138  1  0.051730  0.888370  0.531870  1.0  0.0984
  H  H139  1  0.071000  0.737700  0.828600  1.0  0.0515
  H  H140  1  0.911700  0.544200  0.675100  1.0  0.1105
  H  H141  1  0.808500  0.473900  0.736500  1.0  0.0872
  H  H142  1  0.189100  0.823200  0.612200  1.0  0.0579
  H  H143  1  0.138500  0.652200  0.817100  1.0  0.1148
  H  H144  1  0.216700  0.669100  0.921100  1.0  0.0951
  H  H145  1  0.344800  0.854900  0.832800  1.0  0.1181
  H  H146  1  0.316200  0.769900  0.930800  1.0  0.0948
  H  H147  1  0.853300  0.590500  0.942200  1.0  0.1051
  H  H148  1  0.778300  0.496700  0.865200  1.0  0.0975
  H  H149  1  0.737670  0.071030  0.161930  1.0  0.0515
  H  H150  1  0.578370  0.877530  0.008430  1.0  0.1104
  H  H151  1  0.475170  0.807230  0.069830  1.0  0.0872
  H  H152  1  0.855770  0.156530  0.945530  1.0  0.0579
  H  H153  1  0.805170  0.985530  0.150430  1.0  0.1148
  H  H154  1  0.883370  0.002430  0.254430  1.0  0.0951
  H  H155  1  0.011470  0.188230  0.166130  1.0  0.118
  H  H156  1  0.982870  0.103230  0.264130  1.0  0.0938
  H  H157  1  0.519970  0.923830  0.275530  1.0  0.1052
  H  H158  1  0.444970  0.830030  0.198530  1.0  0.0975
  H  H159  1  0.404330  0.404370  0.495270  1.0  0.0515
  H  H160  1  0.245030  0.210870  0.341770  1.0  0.1106
  H  H161  1  0.141830  0.140570  0.403170  1.0  0.0866
  H  H162  1  0.522430  0.489870  0.278870  1.0  0.0579
  H  H163  1  0.471830  0.318870  0.483770  1.0  0.1148
  H  H164  1  0.550030  0.335770  0.587770  1.0  0.0951
  H  H165  1  0.678130  0.521570  0.499470  1.0  0.118
  H  H166  1  0.649530  0.436570  0.597470  1.0  0.0948
  H  H167  1  0.186630  0.257170  0.608870  1.0  0.1051
  H  H168  1  0.111630  0.163370  0.531870  1.0  0.097
  H  H169  1  0.262300  0.333333  0.828600  1.0  0.0517
  H  H170  1  0.455800  0.367500  0.675100  1.0  0.1099
  H  H171  1  0.526100  0.334600  0.736500  1.0  0.0874
  H  H172  1  0.176800  0.365900  0.612200  1.0  0.0579
  H  H173  1  0.347800  0.486300  0.817100  1.0  0.1178
  H  H174  1  0.330900  0.547600  0.921100  1.0  0.0946
  H  H175  1  0.145100  0.489900  0.832800  1.0  0.1212
  H  H176  1  0.230100  0.546300  0.930800  1.0  0.0951
  H  H177  1  0.409500  0.262800  0.942200  1.0  0.1055
  H  H178  1  0.503300  0.281600  0.865200  1.0  0.0979
  H  H179  1  0.928970  0.666667  0.161930  1.0  0.0519
  H  H180  1  0.122470  0.700830  0.008430  1.0  0.1099
  H  H181  1  0.192770  0.667930  0.069830  1.0  0.0874
  H  H182  1  0.843470  0.699230  0.945530  1.0  0.0579
  H  H183  1  0.014470  0.819630  0.150430  1.0  0.1178
  H  H184  1  0.997570  0.880930  0.254430  1.0  0.0946
  H  H185  1  0.811770  0.823230  0.166130  1.0  0.1213
  H  H186  1  0.896770  0.879630  0.264130  1.0  0.0958
  H  H187  1  0.076170  0.596130  0.275530  1.0  0.1056
  H  H188  1  0.169970  0.614930  0.198530  1.0  0.0979
  H  H189  1  0.595630  0.999970  0.495270  1.0  0.0512
  H  H190  1  0.789130  0.034170  0.341770  1.0  0.1099
  H  H191  1  0.859430  0.001270  0.403170  1.0  0.0878
  H  H192  1  0.510130  0.032570  0.278870  1.0  0.0579
  H  H193  1  0.681130  0.152970  0.483770  1.0  0.1178
  H  H194  1  0.664230  0.214270  0.587770  1.0  0.0946
  H  H195  1  0.478430  0.156570  0.499470  1.0  0.1213
  H  H196  1  0.563430  0.212970  0.597470  1.0  0.0951
  H  H197  1  0.742830  0.929470  0.608870  1.0  0.1053
  H  H198  1  0.836630  0.948270  0.531870  1.0  0.0977
  C  C199  1  0.329400  0.028800  0.175600  1.0  0.3072
  C  C200  1  0.336700  0.945600  0.223400  1.0  0.1618
  C  C201  1  0.347600  0.900600  0.271400  1.0  -0.1782
  C  C202  1  0.327000  0.839400  0.234500  1.0  -0.0853
  C  C203  1  0.392600  0.200600  0.339400  1.0  0.3234
  C  C204  1  0.452200  0.195700  0.237700  1.0  0.1675
  C  C205  1  0.487000  0.179400  0.180000  1.0  -0.1747
  C  C206  1  0.522800  0.225800  0.118100  1.0  -0.0865
  C  C207  1  0.452400  0.256700  0.232800  1.0  0.1608
  C  C208  1  0.488700  0.303800  0.170200  1.0  -0.1848
  C  C209  1  0.522600  0.286400  0.112900  1.0  -0.0965
  C  C210  1  0.304000  0.927700  0.145400  1.0  0.1755
  C  C211  1  0.283700  0.865200  0.110600  1.0  -0.168
  C  C212  1  0.295200  0.820900  0.156400  1.0  -0.0992
  C  C213  1  0.996070  0.362130  0.508930  1.0  0.3056
  C  C214  1  0.003370  0.278930  0.556730  1.0  0.1618
  C  C215  1  0.014270  0.233930  0.604730  1.0  -0.1779
  C  C216  1  0.993670  0.172730  0.567830  1.0  -0.0856
  C  C217  1  0.059270  0.533930  0.672730  1.0  0.3234
  C  C218  1  0.118870  0.529030  0.571030  1.0  0.1675
  C  C219  1  0.153670  0.512730  0.513330  1.0  -0.1747
  C  C220  1  0.189470  0.559130  0.451430  1.0  -0.0865
  C  C221  1  0.119070  0.590030  0.566130  1.0  0.1607
  C  C222  1  0.155370  0.637130  0.503530  1.0  -0.1847
  C  C223  1  0.189270  0.619730  0.446230  1.0  -0.0965
  C  C224  1  0.970670  0.261030  0.478730  1.0  0.1756
  C  C225  1  0.950370  0.198530  0.443930  1.0  -0.1679
  C  C226  1  0.961870  0.154230  0.489730  1.0  -0.0992
  C  C227  1  0.662730  0.695470  0.842270  1.0  0.3072
  C  C228  1  0.670030  0.612270  0.890070  1.0  0.1618
  C  C229  1  0.680930  0.567270  0.938070  1.0  -0.1782
  C  C230  1  0.660330  0.506070  0.901170  1.0  -0.0854
  C  C231  1  0.725930  0.867270  0.006070  1.0  0.3233
  C  C232  1  0.785530  0.862370  0.904370  1.0  0.1675
  C  C233  1  0.820330  0.846070  0.846670  1.0  -0.1747
  C  C234  1  0.856130  0.892470  0.784770  1.0  -0.0863
  C  C235  1  0.785730  0.923370  0.899470  1.0  0.1585
  C  C236  1  0.822030  0.970470  0.836870  1.0  -0.1848
  C  C237  1  0.855930  0.953070  0.779570  1.0  -0.0965
  C  C238  1  0.637330  0.594370  0.812070  1.0  0.1755
  C  C239  1  0.617030  0.531870  0.777270  1.0  -0.168
  C  C240  1  0.628530  0.487570  0.823070  1.0  -0.0992
  C  C241  1  0.971200  0.300600  0.175600  1.0  0.306
  C  C242  1  0.054400  0.391100  0.223400  1.0  0.1606
  C  C243  1  0.099400  0.447000  0.271400  1.0  -0.1806
  C  C244  1  0.160600  0.487600  0.234500  1.0  -0.0875
  C  C245  1  0.799400  0.192000  0.339400  1.0  0.3208
  C  C246  1  0.804300  0.256500  0.237700  1.0  0.1668
  C  C247  1  0.820600  0.307600  0.180000  1.0  -0.1753
  C  C248  1  0.774200  0.297000  0.118100  1.0  -0.0886
  C  C249  1  0.743300  0.195700  0.232800  1.0  0.1606
  C  C250  1  0.696200  0.184900  0.170200  1.0  -0.1826
  C  C251  1  0.713600  0.236200  0.112900  1.0  -0.097
  C  C252  1  0.072300  0.376300  0.145400  1.0  0.175
  C  C253  1  0.134800  0.418500  0.110600  1.0  -0.1673
  C  C254  1  0.179100  0.474300  0.156400  1.0  -0.0992
  C  C255  1  0.637870  0.633930  0.508930  1.0  0.306
  C  C256  1  0.721070  0.724430  0.556730  1.0  0.1606
  C  C257  1  0.766070  0.780330  0.604730  1.0  -0.1806
  C  C258  1  0.827270  0.820930  0.567830  1.0  -0.0874
  C  C259  1  0.466070  0.525330  0.672730  1.0  0.3208
  C  C260  1  0.470970  0.589830  0.571030  1.0  0.1668
  C  C261  1  0.487270  0.640930  0.513330  1.0  -0.1753
  C  C262  1  0.440870  0.630330  0.451430  1.0  -0.0886
  C  C263  1  0.409970  0.529030  0.566130  1.0  0.1606
  C  C264  1  0.362870  0.518230  0.503530  1.0  -0.1827
  C  C265  1  0.380270  0.569530  0.446230  1.0  -0.097
  C  C266  1  0.738970  0.709630  0.478730  1.0  0.1749
  C  C267  1  0.801470  0.751830  0.443930  1.0  -0.1673
  C  C268  1  0.845770  0.807630  0.489730  1.0  -0.0992
  C  C269  1  0.304530  0.967270  0.842270  1.0  0.306
  C  C270  1  0.387730  0.057770  0.890070  1.0  0.1606
  C  C271  1  0.432730  0.113670  0.938070  1.0  -0.1801
  C  C272  1  0.493930  0.154270  0.901170  1.0  -0.0875
  C  C273  1  0.132730  0.858670  0.006070  1.0  0.3208
  C  C274  1  0.137630  0.923170  0.904370  1.0  0.1668
  C  C275  1  0.153930  0.974270  0.846670  1.0  -0.1753
  C  C276  1  0.107530  0.963670  0.784770  1.0  -0.0829
  C  C277  1  0.076630  0.862370  0.899470  1.0  0.1606
  C  C278  1  0.029530  0.851570  0.836870  1.0  -0.1827
  C  C279  1  0.046930  0.902870  0.779570  1.0  -0.0971
  C  C280  1  0.405630  0.042970  0.812070  1.0  0.175
  C  C281  1  0.468130  0.085170  0.777270  1.0  -0.1673
  C  C282  1  0.512430  0.140970  0.823070  1.0  -0.0992
  C  C283  1  0.699400  0.670600  0.175600  1.0  0.302
  C  C284  1  0.608900  0.663300  0.223400  1.0  0.1616
  C  C285  1  0.553000  0.652400  0.271400  1.0  -0.179
  C  C286  1  0.512400  0.673000  0.234500  1.0  -0.0856
  C  C287  1  0.808000  0.607400  0.339400  1.0  0.3214
  C  C288  1  0.743500  0.547800  0.237700  1.0  0.1675
  C  C289  1  0.692400  0.513000  0.180000  1.0  -0.1765
  C  C290  1  0.703000  0.477200  0.118100  1.0  -0.0813
  C  C291  1  0.804300  0.547600  0.232800  1.0  0.1597
  C  C292  1  0.815100  0.511300  0.170200  1.0  -0.1842
  C  C293  1  0.763800  0.477400  0.112900  1.0  -0.0961
  C  C294  1  0.623700  0.696000  0.145400  1.0  0.1744
  C  C295  1  0.581500  0.716300  0.110600  1.0  -0.167
  C  C296  1  0.525700  0.704800  0.156400  1.0  -0.1005
  C  C297  1  0.366070  0.003930  0.508930  1.0  0.3022
  C  C298  1  0.275570  0.996630  0.556730  1.0  0.1616
  C  C299  1  0.219670  0.985730  0.604730  1.0  -0.1792
  C  C300  1  0.179070  0.006330  0.567830  1.0  -0.0856
  C  C301  1  0.474670  0.940730  0.672730  1.0  0.3214
  C  C302  1  0.410170  0.881130  0.571030  1.0  0.1676
  C  C303  1  0.359070  0.846330  0.513330  1.0  -0.1765
  C  C304  1  0.369670  0.810530  0.451430  1.0  -0.0813
  C  C305  1  0.470970  0.880930  0.566130  1.0  0.16
  C  C306  1  0.481770  0.844630  0.503530  1.0  -0.1842
  C  C307  1  0.430470  0.810730  0.446230  1.0  -0.0961
  C  C308  1  0.290370  0.029330  0.478730  1.0  0.1744
  C  C309  1  0.248170  0.049630  0.443930  1.0  -0.167
  C  C310  1  0.192370  0.038130  0.489730  1.0  -0.1
  C  C311  1  0.032730  0.337270  0.842270  1.0  0.3022
  C  C312  1  0.942230  0.329970  0.890070  1.0  0.1616
  C  C313  1  0.886330  0.319070  0.938070  1.0  -0.1792
  C  C314  1  0.845730  0.339670  0.901170  1.0  -0.0856
  C  C315  1  0.141330  0.274070  0.006070  1.0  0.3214
  C  C316  1  0.076830  0.214470  0.904370  1.0  0.1675
  C  C317  1  0.025730  0.179670  0.846670  1.0  -0.1765
  C  C318  1  0.036330  0.143870  0.784770  1.0  -0.0873
  C  C319  1  0.137630  0.214270  0.899470  1.0  0.16
  C  C320  1  0.148430  0.177970  0.836870  1.0  -0.1841
  C  C321  1  0.097130  0.144070  0.779570  1.0  -0.0961
  C  C322  1  0.957030  0.362670  0.812070  1.0  0.1744
  C  C323  1  0.914830  0.382970  0.777270  1.0  -0.1671
  C  C324  1  0.859030  0.371470  0.823070  1.0  -0.1
  C  C325  1  0.670600  0.971200  0.824400  1.0  0.3053
  C  C326  1  0.663300  0.054400  0.776600  1.0  0.1621
  C  C327  1  0.652400  0.099400  0.728600  1.0  -0.1788
  C  C328  1  0.673000  0.160600  0.765500  1.0  -0.0849
  C  C329  1  0.607400  0.799400  0.660600  1.0  0.3217
  C  C330  1  0.547800  0.804300  0.762300  1.0  0.1672
  C  C331  1  0.513000  0.820600  0.820000  1.0  -0.1742
  C  C332  1  0.477200  0.774200  0.881900  1.0  -0.086
  C  C333  1  0.547600  0.743300  0.767200  1.0  0.1569
  C  C334  1  0.511300  0.696200  0.829800  1.0  -0.1847
  C  C335  1  0.477400  0.713600  0.887100  1.0  -0.0982
  C  C336  1  0.696000  0.072300  0.854600  1.0  0.1745
  C  C337  1  0.716300  0.134800  0.889400  1.0  -0.1684
  C  C338  1  0.704800  0.179100  0.843600  1.0  -0.1002
  C  C339  1  0.337270  0.304530  0.157730  1.0  0.3036
  C  C340  1  0.329970  0.387730  0.109930  1.0  0.1621
  C  C341  1  0.319070  0.432730  0.061930  1.0  -0.1788
  C  C342  1  0.339670  0.493930  0.098830  1.0  -0.0849
  C  C343  1  0.274070  0.132730  0.993930  1.0  0.3216
  C  C344  1  0.214470  0.137630  0.095630  1.0  0.1672
  C  C345  1  0.179670  0.153930  0.153330  1.0  -0.1742
  C  C346  1  0.143870  0.107530  0.215230  1.0  -0.0859
  C  C347  1  0.214270  0.076630  0.100530  1.0  0.1569
  C  C348  1  0.177970  0.029530  0.163130  1.0  -0.1848
  C  C349  1  0.144070  0.046930  0.220430  1.0  -0.0981
  C  C350  1  0.362670  0.405630  0.187930  1.0  0.1746
  C  C351  1  0.382970  0.468130  0.222730  1.0  -0.1684
  C  C352  1  0.371470  0.512430  0.176930  1.0  -0.1002
  C  C353  1  0.003930  0.637870  0.491070  1.0  0.3036
  C  C354  1  0.996630  0.721070  0.443270  1.0  0.1621
  C  C355  1  0.985730  0.766070  0.395270  1.0  -0.1786
  C  C356  1  0.006330  0.827270  0.432170  1.0  -0.0851
  C  C357  1  0.940730  0.466070  0.327270  1.0  0.3217
  C  C358  1  0.881130  0.470970  0.428970  1.0  0.1672
  C  C359  1  0.846330  0.487270  0.486670  1.0  -0.1742
  C  C360  1  0.810530  0.440870  0.548570  1.0  -0.086
  C  C361  1  0.880930  0.409970  0.433870  1.0  0.1591
  C  C362  1  0.844630  0.362870  0.496470  1.0  -0.1847
  C  C363  1  0.810730  0.380270  0.553770  1.0  -0.0982
  C  C364  1  0.029330  0.738970  0.521270  1.0  0.1746
  C  C365  1  0.049630  0.801470  0.556070  1.0  -0.1683
  C  C366  1  0.038130  0.845770  0.510270  1.0  -0.1002
  C  C367  1  0.028800  0.699400  0.824400  1.0  0.3032
  C  C368  1  0.945600  0.608900  0.776600  1.0  0.1611
  C  C369  1  0.900600  0.553000  0.728600  1.0  -0.1804
  C  C370  1  0.839400  0.512400  0.765500  1.0  -0.0878
  C  C371  1  0.200600  0.808000  0.660600  1.0  0.3216
  C  C372  1  0.195700  0.743500  0.762300  1.0  0.1668
  C  C373  1  0.179400  0.692400  0.820000  1.0  -0.1765
  C  C374  1  0.225800  0.703000  0.881900  1.0  -0.0881
  C  C375  1  0.256700  0.804300  0.767200  1.0  0.1609
  C  C376  1  0.303800  0.815100  0.829800  1.0  -0.182
  C  C377  1  0.286400  0.763800  0.887100  1.0  -0.0953
  C  C378  1  0.927700  0.623700  0.854600  1.0  0.1745
  C  C379  1  0.865200  0.581500  0.889400  1.0  -0.1677
  C  C380  1  0.820900  0.525700  0.843600  1.0  -0.0994
  C  C381  1  0.695470  0.032730  0.157730  1.0  0.3032
  C  C382  1  0.612270  0.942230  0.109930  1.0  0.1611
  C  C383  1  0.567270  0.886330  0.061930  1.0  -0.18
  C  C384  1  0.506070  0.845730  0.098830  1.0  -0.0878
  C  C385  1  0.867270  0.141330  0.993930  1.0  0.3216
  C  C386  1  0.862370  0.076830  0.095630  1.0  0.1667
  C  C387  1  0.846070  0.025730  0.153330  1.0  -0.1765
  C  C388  1  0.892470  0.036330  0.215230  1.0  -0.0814
  C  C389  1  0.923370  0.137630  0.100530  1.0  0.1609
  C  C390  1  0.970470  0.148430  0.163130  1.0  -0.1821
  C  C391  1  0.953070  0.097130  0.220430  1.0  -0.0954
  C  C392  1  0.594370  0.957030  0.187930  1.0  0.1745
  C  C393  1  0.531870  0.914830  0.222730  1.0  -0.1677
  C  C394  1  0.487570  0.859030  0.176930  1.0  -0.0994
  C  C395  1  0.362130  0.366070  0.491070  1.0  0.3032
  C  C396  1  0.278930  0.275570  0.443270  1.0  0.1611
  C  C397  1  0.233930  0.219670  0.395270  1.0  -0.1804
  C  C398  1  0.172730  0.179070  0.432170  1.0  -0.0879
  C  C399  1  0.533930  0.474670  0.327270  1.0  0.3216
  C  C400  1  0.529030  0.410170  0.428970  1.0  0.1668
  C  C401  1  0.512730  0.359070  0.486670  1.0  -0.1765
  C  C402  1  0.559130  0.369670  0.548570  1.0  -0.0881
  C  C403  1  0.590030  0.470970  0.433870  1.0  0.1609
  C  C404  1  0.637130  0.481770  0.496470  1.0  -0.1821
  C  C405  1  0.619730  0.430470  0.553770  1.0  -0.0953
  C  C406  1  0.261030  0.290370  0.521270  1.0  0.1745
  C  C407  1  0.198530  0.248170  0.556070  1.0  -0.1677
  C  C408  1  0.154230  0.192370  0.510270  1.0  -0.0994
  C  C409  1  0.300600  0.329400  0.824400  1.0  0.3042
  C  C410  1  0.391100  0.336700  0.776600  1.0  0.1607
  C  C411  1  0.447000  0.347600  0.728600  1.0  -0.1799
  C  C412  1  0.487600  0.327000  0.765500  1.0  -0.0854
  C  C413  1  0.192000  0.392600  0.660600  1.0  0.3214
  C  C414  1  0.256500  0.452200  0.762300  1.0  0.168
  C  C415  1  0.307600  0.487000  0.820000  1.0  -0.1736
  C  C416  1  0.297000  0.522800  0.881900  1.0  -0.0795
  C  C417  1  0.195700  0.452400  0.767200  1.0  0.1605
  C  C418  1  0.184900  0.488700  0.829800  1.0  -0.1844
  C  C419  1  0.236200  0.522600  0.887100  1.0  -0.0969
  C  C420  1  0.376300  0.304000  0.854600  1.0  0.1748
  C  C421  1  0.418500  0.283700  0.889400  1.0  -0.1672
  C  C422  1  0.474300  0.295200  0.843600  1.0  -0.1003
  C  C423  1  0.967270  0.662730  0.157730  1.0  0.3038
  C  C424  1  0.057770  0.670030  0.109930  1.0  0.1607
  C  C425  1  0.113670  0.680930  0.061930  1.0  -0.1801
  C  C426  1  0.154270  0.660330  0.098830  1.0  -0.0854
  C  C427  1  0.858670  0.725930  0.993930  1.0  0.3214
  C  C428  1  0.923170  0.785530  0.095630  1.0  0.1678
  C  C429  1  0.974270  0.820330  0.153330  1.0  -0.1736
  C  C430  1  0.963670  0.856130  0.215230  1.0  -0.0864
  C  C431  1  0.862370  0.785730  0.100530  1.0  0.1608
  C  C432  1  0.851570  0.822030  0.163130  1.0  -0.1843
  C  C433  1  0.902870  0.855930  0.220430  1.0  -0.0968
  C  C434  1  0.042970  0.637330  0.187930  1.0  0.1748
  C  C435  1  0.085170  0.617030  0.222730  1.0  -0.1673
  C  C436  1  0.140970  0.628530  0.176930  1.0  -0.0999
  C  C437  1  0.633930  0.996070  0.491070  1.0  0.3044
  C  C438  1  0.724430  0.003370  0.443270  1.0  0.1607
  C  C439  1  0.780330  0.014270  0.395270  1.0  -0.1801
  C  C440  1  0.820930  0.993670  0.432170  1.0  -0.0854
  C  C441  1  0.525330  0.059270  0.327270  1.0  0.3214
  C  C442  1  0.589830  0.118870  0.428970  1.0  0.168
  C  C443  1  0.640930  0.153670  0.486670  1.0  -0.1736
  C  C444  1  0.630330  0.189470  0.548570  1.0  -0.0796
  C  C445  1  0.529030  0.119070  0.433870  1.0  0.1608
  C  C446  1  0.518230  0.155370  0.496470  1.0  -0.1844
  C  C447  1  0.569530  0.189270  0.553770  1.0  -0.0968
  C  C448  1  0.709630  0.970670  0.521270  1.0  0.1748
  C  C449  1  0.751830  0.950370  0.556070  1.0  -0.1673
  C  C450  1  0.807630  0.961870  0.510270  1.0  -0.0999
  N  N451  1  0.352600  0.011200  0.242700  1.0  -0.4962
  N  N452  1  0.412400  0.159700  0.306300  1.0  -0.504
  N  N453  1  0.412900  0.258300  0.299900  1.0  -0.4919
  N  N454  1  0.300400  0.982500  0.114900  1.0  -0.4831
  N  N455  1  0.019270  0.344530  0.576030  1.0  -0.4959
  N  N456  1  0.079070  0.493030  0.639630  1.0  -0.5041
  N  N457  1  0.079570  0.591630  0.633230  1.0  -0.492
  N  N458  1  0.967070  0.315830  0.448230  1.0  -0.4836
  N  N459  1  0.685930  0.677870  0.909370  1.0  -0.4961
  N  N460  1  0.745730  0.826370  0.972970  1.0  -0.504
  N  N461  1  0.746230  0.924970  0.966570  1.0  -0.4919
  N  N462  1  0.633730  0.649170  0.781570  1.0  -0.4831
  N  N463  1  0.988800  0.341400  0.242700  1.0  -0.4979
  N  N464  1  0.840300  0.252700  0.306300  1.0  -0.5056
  N  N465  1  0.741700  0.154600  0.299900  1.0  -0.4921
  N  N466  1  0.017500  0.317900  0.114900  1.0  -0.4876
  N  N467  1  0.655470  0.674730  0.576030  1.0  -0.4979
  N  N468  1  0.506970  0.586030  0.639630  1.0  -0.5054
  N  N469  1  0.408370  0.487930  0.633230  1.0  -0.4921
  N  N470  1  0.684170  0.651230  0.448230  1.0  -0.4877
  N  N471  1  0.322130  0.008070  0.909370  1.0  -0.4981
  N  N472  1  0.173630  0.919370  0.972970  1.0  -0.5054
  N  N473  1  0.075030  0.821270  0.966570  1.0  -0.4921
  N  N474  1  0.350830  0.984570  0.781570  1.0  -0.4837
  N  N475  1  0.658600  0.647400  0.242700  1.0  -0.4965
  N  N476  1  0.747300  0.587600  0.306300  1.0  -0.5049
  N  N477  1  0.845400  0.587100  0.299900  1.0  -0.4929
  N  N478  1  0.682100  0.699600  0.114900  1.0  -0.484
  N  N479  1  0.325270  0.980730  0.576030  1.0  -0.4969
  N  N480  1  0.413970  0.920930  0.639630  1.0  -0.5051
  N  N481  1  0.512070  0.920430  0.633230  1.0  -0.4929
  N  N482  1  0.348770  0.032930  0.448230  1.0  -0.4837
  N  N483  1  0.991930  0.314070  0.909370  1.0  -0.4969
  N  N484  1  0.080630  0.254270  0.972970  1.0  -0.505
  N  N485  1  0.178730  0.253770  0.966570  1.0  -0.493
  N  N486  1  0.015430  0.366270  0.781570  1.0  -0.4842
  N  N487  1  0.647400  0.988800  0.757300  1.0  -0.4966
  N  N488  1  0.587600  0.840300  0.693700  1.0  -0.5052
  N  N489  1  0.587100  0.741700  0.700100  1.0  -0.4932
  N  N490  1  0.699600  0.017500  0.885100  1.0  -0.4812
  N  N491  1  0.314070  0.322130  0.090630  1.0  -0.4966
  N  N492  1  0.254270  0.173630  0.027030  1.0  -0.5052
  N  N493  1  0.253770  0.075030  0.033430  1.0  -0.4931
  N  N494  1  0.366270  0.350830  0.218430  1.0  -0.4813
  N  N495  1  0.980730  0.655470  0.423970  1.0  -0.4964
  N  N496  1  0.920930  0.506970  0.360370  1.0  -0.5054
  N  N497  1  0.920430  0.408370  0.366770  1.0  -0.4932
  N  N498  1  0.032930  0.684170  0.551770  1.0  -0.4816
  N  N499  1  0.011200  0.658600  0.757300  1.0  -0.4968
  N  N500  1  0.159700  0.747300  0.693700  1.0  -0.506
  N  N501  1  0.258300  0.845400  0.700100  1.0  -0.4925
  N  N502  1  0.982500  0.682100  0.885100  1.0  -0.4863
  N  N503  1  0.677870  0.991930  0.090630  1.0  -0.497
  N  N504  1  0.826370  0.080630  0.027030  1.0  -0.5058
  N  N505  1  0.924970  0.178730  0.033430  1.0  -0.4925
  N  N506  1  0.649170  0.015430  0.218430  1.0  -0.4823
  N  N507  1  0.344530  0.325270  0.423970  1.0  -0.4968
  N  N508  1  0.493030  0.413970  0.360370  1.0  -0.5058
  N  N509  1  0.591630  0.512070  0.366770  1.0  -0.4925
  N  N510  1  0.315830  0.348770  0.551770  1.0  -0.4864
  N  N511  1  0.341400  0.352600  0.757300  1.0  -0.4966
  N  N512  1  0.252700  0.412400  0.693700  1.0  -0.5048
  N  N513  1  0.154600  0.412900  0.700100  1.0  -0.4934
  N  N514  1  0.317900  0.300400  0.885100  1.0  -0.4827
  N  N515  1  0.008070  0.685930  0.090630  1.0  -0.4964
  N  N516  1  0.919370  0.745730  0.027030  1.0  -0.5048
  N  N517  1  0.821270  0.746230  0.033430  1.0  -0.4936
  N  N518  1  0.984570  0.633730  0.218430  1.0  -0.4827
  N  N519  1  0.674730  0.019270  0.423970  1.0  -0.497
  N  N520  1  0.586030  0.079070  0.360370  1.0  -0.505
  N  N521  1  0.487930  0.079570  0.366770  1.0  -0.4935
  N  N522  1  0.651230  0.967070  0.551770  1.0  -0.4824
