# generated using pymatgen
data_InH6C4O7
_symmetry_space_group_name_H-M   'P 1'
_cell_length_a   7.26420000
_cell_length_b   15.02040000
_cell_length_c   8.82860000
_cell_angle_alpha   90.00000000
_cell_angle_beta   90.00000000
_cell_angle_gamma   90.00000000
_symmetry_Int_Tables_number   1
_chemical_formula_structural   InH6C4O7
_chemical_formula_sum   'In4 H24 C16 O28'
_cell_volume   963.29904921
_cell_formula_units_Z   4
loop_
 _symmetry_equiv_pos_site_id
 _symmetry_equiv_pos_as_xyz
  1  'x, y, z'
loop_
 _atom_site_type_symbol
 _atom_site_label
 _atom_site_symmetry_multiplicity
 _atom_site_fract_x
 _atom_site_fract_y
 _atom_site_fract_z
 _atom_site_occupancy
 _atom_site_charge
  In  In1  1  0.500000  0.500000  0.500000  1.0  1.5111
  In  In2  1  0.000000  0.500000  0.500000  1.0  1.5111
  In  In3  1  0.000000  0.000000  0.000000  1.0  1.5111
  In  In4  1  0.500000  0.000000  0.000000  1.0  1.5111
  H  H5  1  0.250000  0.454500  0.679900  1.0  0.3907
  H  H6  1  0.484400  0.306900  0.147300  1.0  0.3605
  H  H7  1  0.121300  0.294500  0.143800  1.0  0.0731
  H  H8  1  0.250000  0.545500  0.679900  1.0  0.3909
  H  H9  1  0.015600  0.693100  0.147300  1.0  0.3569
  H  H10  1  0.378700  0.705500  0.143800  1.0  0.0743
  H  H11  1  0.250000  0.954500  0.820100  1.0  0.3914
  H  H12  1  0.015600  0.806900  0.352700  1.0  0.3588
  H  H13  1  0.378700  0.794500  0.356200  1.0  0.0737
  H  H14  1  0.250000  0.045500  0.820100  1.0  0.3894
  H  H15  1  0.484400  0.193100  0.352700  1.0  0.3607
  H  H16  1  0.121300  0.205500  0.356200  1.0  0.0736
  H  H17  1  0.750000  0.545500  0.320100  1.0  0.3895
  H  H18  1  0.515600  0.693100  0.852700  1.0  0.3578
  H  H19  1  0.878700  0.705500  0.856200  1.0  0.0743
  H  H20  1  0.750000  0.454500  0.320100  1.0  0.3914
  H  H21  1  0.984400  0.306900  0.852700  1.0  0.3608
  H  H22  1  0.621300  0.294500  0.856200  1.0  0.0732
  H  H23  1  0.750000  0.045500  0.179900  1.0  0.391
  H  H24  1  0.984400  0.193100  0.647300  1.0  0.3602
  H  H25  1  0.621300  0.205500  0.643800  1.0  0.0732
  H  H26  1  0.750000  0.954500  0.179900  1.0  0.3908
  H  H27  1  0.515600  0.806900  0.647300  1.0  0.358
  H  H28  1  0.878700  0.794500  0.643800  1.0  0.074
  C  C29  1  0.235700  0.371400  0.311800  1.0  0.6451
  C  C30  1  0.235700  0.292600  0.202500  1.0  0.0584
  C  C31  1  0.264300  0.628600  0.311800  1.0  0.6462
  C  C32  1  0.264300  0.707400  0.202500  1.0  0.0582
  C  C33  1  0.264300  0.871400  0.188200  1.0  0.6485
  C  C34  1  0.264300  0.792600  0.297500  1.0  0.0582
  C  C35  1  0.235700  0.128600  0.188200  1.0  0.6478
  C  C36  1  0.235700  0.207400  0.297500  1.0  0.0581
  C  C37  1  0.764300  0.628600  0.688200  1.0  0.646
  C  C38  1  0.764300  0.707400  0.797500  1.0  0.0593
  C  C39  1  0.735700  0.371400  0.688200  1.0  0.646
  C  C40  1  0.735700  0.292600  0.797500  1.0  0.0581
  C  C41  1  0.735700  0.128600  0.811800  1.0  0.6483
  C  C42  1  0.735700  0.207400  0.702500  1.0  0.0575
  C  C43  1  0.764300  0.871400  0.811800  1.0  0.648
  C  C44  1  0.764300  0.792600  0.702500  1.0  0.0578
  O  O45  1  0.381900  0.415550  0.324900  1.0  -0.6433
  O  O46  1  0.088100  0.383900  0.379900  1.0  -0.6315
  O  O47  1  0.386000  0.294640  0.099500  1.0  -0.5722
  O  O48  1  0.118100  0.584450  0.324900  1.0  -0.642
  O  O49  1  0.411900  0.616100  0.379900  1.0  -0.6319
  O  O50  1  0.114000  0.705360  0.099500  1.0  -0.5727
  O  O51  1  0.118100  0.915550  0.175100  1.0  -0.6433
  O  O52  1  0.411900  0.883900  0.120100  1.0  -0.6315
  O  O53  1  0.114000  0.794640  0.400500  1.0  -0.5719
  O  O54  1  0.381900  0.084450  0.175100  1.0  -0.6428
  O  O55  1  0.088100  0.116100  0.120100  1.0  -0.6315
  O  O56  1  0.386000  0.205360  0.400500  1.0  -0.5713
  O  O57  1  0.618100  0.584450  0.675100  1.0  -0.6422
  O  O58  1  0.911900  0.616100  0.620100  1.0  -0.6316
  O  O59  1  0.614000  0.705360  0.900500  1.0  -0.5718
  O  O60  1  0.881900  0.415550  0.675100  1.0  -0.6436
  O  O61  1  0.588100  0.383900  0.620100  1.0  -0.6314
  O  O62  1  0.886000  0.294640  0.900500  1.0  -0.5715
  O  O63  1  0.881900  0.084450  0.824900  1.0  -0.6424
  O  O64  1  0.588100  0.116100  0.879900  1.0  -0.6315
  O  O65  1  0.886000  0.205360  0.599500  1.0  -0.5725
  O  O66  1  0.618100  0.915550  0.824900  1.0  -0.6429
  O  O67  1  0.911900  0.883900  0.879900  1.0  -0.6319
  O  O68  1  0.614000  0.794640  0.599500  1.0  -0.5721
  O  O69  1  0.250000  0.500000  0.622800  1.0  -0.8765
  O  O70  1  0.250000  0.000000  0.877200  1.0  -0.8748
  O  O71  1  0.750000  0.500000  0.377200  1.0  -0.8748
  O  O72  1  0.750000  0.000000  0.122800  1.0  -0.8765
