# generated using pymatgen
data_ZnH10(C7N2)2
_symmetry_space_group_name_H-M   'P 1'
_cell_length_a   22.98900000
_cell_length_b   22.98900000
_cell_length_c   15.76300000
_cell_angle_alpha   90.00000000
_cell_angle_beta   90.00000000
_cell_angle_gamma   120.00000000
_symmetry_Int_Tables_number   1
_chemical_formula_structural   ZnH10(C7N2)2
_chemical_formula_sum   'Zn18 H180 C252 N72'
_cell_volume   7214.55698030
_cell_formula_units_Z   18
loop_
 _symmetry_equiv_pos_site_id
 _symmetry_equiv_pos_as_xyz
  1  'x, y, z'
loop_
 _atom_site_type_symbol
 _atom_site_label
 _atom_site_symmetry_multiplicity
 _atom_site_fract_x
 _atom_site_fract_y
 _atom_site_fract_z
 _atom_site_occupancy
 _atom_site_charge
  Zn  Zn1  1  0.671900  0.070470  0.341600  1.0  0.7897
  Zn  Zn2  1  0.338570  0.403800  0.674930  1.0  0.7898
  Zn  Zn3  1  0.005230  0.737140  0.008270  1.0  0.7898
  Zn  Zn4  1  0.929530  0.601430  0.341600  1.0  0.7895
  Zn  Zn5  1  0.596200  0.934760  0.674930  1.0  0.7895
  Zn  Zn6  1  0.262860  0.268100  0.008270  1.0  0.7895
  Zn  Zn7  1  0.398570  0.328100  0.341600  1.0  0.7899
  Zn  Zn8  1  0.065240  0.661430  0.674930  1.0  0.7898
  Zn  Zn9  1  0.731900  0.994770  0.008270  1.0  0.7899
  Zn  Zn10  1  0.328100  0.929530  0.658400  1.0  0.7896
  Zn  Zn11  1  0.994770  0.262860  0.991730  1.0  0.7896
  Zn  Zn12  1  0.661430  0.596200  0.325070  1.0  0.7896
  Zn  Zn13  1  0.070470  0.398570  0.658400  1.0  0.7897
  Zn  Zn14  1  0.737140  0.731900  0.991730  1.0  0.7897
  Zn  Zn15  1  0.403800  0.065240  0.325070  1.0  0.7897
  Zn  Zn16  1  0.601430  0.671900  0.658400  1.0  0.7896
  Zn  Zn17  1  0.268100  0.005230  0.991730  1.0  0.7896
  Zn  Zn18  1  0.934760  0.338570  0.325070  1.0  0.7895
  H  H19  1  0.738200  0.070300  0.172000  1.0  0.0607
  H  H20  1  0.543600  0.913100  0.324800  1.0  0.113
  H  H21  1  0.473800  0.808700  0.266700  1.0  0.0968
  H  H22  1  0.496000  0.779000  0.134500  1.0  0.0935
  H  H23  1  0.588600  0.854100  0.056700  1.0  0.115
  H  H24  1  0.824400  0.189700  0.387100  1.0  0.0681
  H  H25  1  0.854400  0.344000  0.165800  1.0  0.1134
  H  H26  1  0.650500  0.138900  0.183200  1.0  0.1175
  H  H27  1  0.770200  0.319400  0.071400  1.0  0.1019
  H  H28  1  0.668300  0.218400  0.078000  1.0  0.0984
  H  H29  1  0.404870  0.403630  0.505330  1.0  0.0605
  H  H30  1  0.210270  0.246430  0.658130  1.0  0.113
  H  H31  1  0.140470  0.142030  0.600030  1.0  0.0962
  H  H32  1  0.162670  0.112330  0.467830  1.0  0.0924
  H  H33  1  0.255270  0.187430  0.390030  1.0  0.115
  H  H34  1  0.491070  0.523030  0.720430  1.0  0.0681
  H  H35  1  0.521070  0.677330  0.499130  1.0  0.1134
  H  H36  1  0.317170  0.472230  0.516530  1.0  0.1175
  H  H37  1  0.436870  0.652730  0.404730  1.0  0.1019
  H  H38  1  0.334970  0.551730  0.411330  1.0  0.0984
  H  H39  1  0.071530  0.736970  0.838670  1.0  0.0607
  H  H40  1  0.876930  0.579770  0.991470  1.0  0.113
  H  H41  1  0.807130  0.475370  0.933370  1.0  0.0968
  H  H42  1  0.829330  0.445670  0.801170  1.0  0.0935
  H  H43  1  0.921930  0.520770  0.723370  1.0  0.115
  H  H44  1  0.157730  0.856370  0.053770  1.0  0.0681
  H  H45  1  0.187730  0.010670  0.832470  1.0  0.1134
  H  H46  1  0.983830  0.805570  0.849870  1.0  0.1175
  H  H47  1  0.103530  0.986070  0.738070  1.0  0.0999
  H  H48  1  0.001630  0.885070  0.744670  1.0  0.0984
  H  H49  1  0.929700  0.667900  0.172000  1.0  0.0607
  H  H50  1  0.086900  0.630500  0.324800  1.0  0.1131
  H  H51  1  0.191300  0.665100  0.266700  1.0  0.0951
  H  H52  1  0.221000  0.717000  0.134500  1.0  0.0921
  H  H53  1  0.145900  0.734500  0.056700  1.0  0.1153
  H  H54  1  0.810300  0.634700  0.387100  1.0  0.0676
  H  H55  1  0.656000  0.510400  0.165800  1.0  0.1139
  H  H56  1  0.861100  0.511600  0.183200  1.0  0.1194
  H  H57  1  0.680600  0.450800  0.071400  1.0  0.0999
  H  H58  1  0.781600  0.449900  0.078000  1.0  0.0989
  H  H59  1  0.596370  0.001230  0.505330  1.0  0.0608
  H  H60  1  0.753570  0.963830  0.658130  1.0  0.1131
  H  H61  1  0.857970  0.998430  0.600030  1.0  0.0947
  H  H62  1  0.887670  0.050330  0.467830  1.0  0.0922
  H  H63  1  0.812570  0.067830  0.390030  1.0  0.1153
  H  H64  1  0.476970  0.968030  0.720430  1.0  0.0676
  H  H65  1  0.322670  0.843730  0.499130  1.0  0.114
  H  H66  1  0.527770  0.844930  0.516530  1.0  0.1194
  H  H67  1  0.347270  0.784130  0.404730  1.0  0.0999
  H  H68  1  0.448270  0.783230  0.411330  1.0  0.0989
  H  H69  1  0.263030  0.334570  0.838670  1.0  0.0608
  H  H70  1  0.420230  0.297170  0.991470  1.0  0.1131
  H  H71  1  0.524630  0.331770  0.933370  1.0  0.0951
  H  H72  1  0.554330  0.383670  0.801170  1.0  0.0921
  H  H73  1  0.479230  0.401170  0.723370  1.0  0.1153
  H  H74  1  0.143630  0.301370  0.053770  1.0  0.0676
  H  H75  1  0.989330  0.177070  0.832470  1.0  0.1139
  H  H76  1  0.194430  0.178270  0.849870  1.0  0.1194
  H  H77  1  0.013930  0.117470  0.738070  1.0  0.1017
  H  H78  1  0.114930  0.116570  0.744670  1.0  0.0989
  H  H79  1  0.332100  0.261800  0.172000  1.0  0.0602
  H  H80  1  0.369500  0.456400  0.324800  1.0  0.114
  H  H81  1  0.334900  0.526200  0.266700  1.0  0.0944
  H  H82  1  0.283000  0.504000  0.134500  1.0  0.0919
  H  H83  1  0.265500  0.411400  0.056700  1.0  0.1149
  H  H84  1  0.365300  0.175600  0.387100  1.0  0.068
  H  H85  1  0.489600  0.145600  0.165800  1.0  0.1119
  H  H86  1  0.488400  0.349500  0.183200  1.0  0.119
  H  H87  1  0.549200  0.229800  0.071400  1.0  0.1011
  H  H88  1  0.550100  0.331700  0.078000  1.0  0.0989
  H  H89  1  0.998770  0.595130  0.505330  1.0  0.0602
  H  H90  1  0.036170  0.789730  0.658130  1.0  0.114
  H  H91  1  0.001570  0.859530  0.600030  1.0  0.0963
  H  H92  1  0.949670  0.837330  0.467830  1.0  0.0934
  H  H93  1  0.932170  0.744730  0.390030  1.0  0.115
  H  H94  1  0.031970  0.508930  0.720430  1.0  0.068
  H  H95  1  0.156270  0.478930  0.499130  1.0  0.1119
  H  H96  1  0.155070  0.682830  0.516530  1.0  0.119
  H  H97  1  0.215870  0.563130  0.404730  1.0  0.1011
  H  H98  1  0.216770  0.665030  0.411330  1.0  0.0989
  H  H99  1  0.665430  0.928470  0.838670  1.0  0.0602
  H  H100  1  0.702830  0.123070  0.991470  1.0  0.114
  H  H101  1  0.668230  0.192870  0.933370  1.0  0.0944
  H  H102  1  0.616330  0.170670  0.801170  1.0  0.0919
  H  H103  1  0.598830  0.078070  0.723370  1.0  0.1149
  H  H104  1  0.698630  0.842270  0.053770  1.0  0.068
  H  H105  1  0.822930  0.812270  0.832470  1.0  0.1119
  H  H106  1  0.821730  0.016170  0.849870  1.0  0.119
  H  H107  1  0.882530  0.896470  0.738070  1.0  0.1016
  H  H108  1  0.883430  0.998370  0.744670  1.0  0.099
  H  H109  1  0.261800  0.929700  0.828000  1.0  0.0605
  H  H110  1  0.456400  0.086900  0.675200  1.0  0.1134
  H  H111  1  0.526200  0.191300  0.733300  1.0  0.0968
  H  H112  1  0.504000  0.221000  0.865500  1.0  0.0917
  H  H113  1  0.411400  0.145900  0.943300  1.0  0.1156
  H  H114  1  0.175600  0.810300  0.612900  1.0  0.0687
  H  H115  1  0.145600  0.656000  0.834200  1.0  0.1138
  H  H116  1  0.349500  0.861100  0.816800  1.0  0.1175
  H  H117  1  0.229800  0.680600  0.928600  1.0  0.1021
  H  H118  1  0.331700  0.781600  0.922000  1.0  0.0987
  H  H119  1  0.928470  0.263030  0.161330  1.0  0.0605
  H  H120  1  0.123070  0.420230  0.008530  1.0  0.1134
  H  H121  1  0.192870  0.524630  0.066630  1.0  0.0968
  H  H122  1  0.170670  0.554330  0.198830  1.0  0.0917
  H  H123  1  0.078070  0.479230  0.276630  1.0  0.1156
  H  H124  1  0.842270  0.143630  0.946230  1.0  0.0687
  H  H125  1  0.812270  0.989330  0.167530  1.0  0.1138
  H  H126  1  0.016170  0.194430  0.150130  1.0  0.1176
  H  H127  1  0.896470  0.013930  0.261930  1.0  0.1004
  H  H128  1  0.998370  0.114930  0.255330  1.0  0.0987
  H  H129  1  0.595130  0.596370  0.494670  1.0  0.0603
  H  H130  1  0.789730  0.753570  0.341870  1.0  0.1134
  H  H131  1  0.859530  0.857970  0.399970  1.0  0.0962
  H  H132  1  0.837330  0.887670  0.532170  1.0  0.091
  H  H133  1  0.744730  0.812570  0.609970  1.0  0.1156
  H  H134  1  0.508930  0.476970  0.279570  1.0  0.0687
  H  H135  1  0.478930  0.322670  0.500870  1.0  0.1137
  H  H136  1  0.682830  0.527770  0.483470  1.0  0.1176
  H  H137  1  0.563130  0.347270  0.595270  1.0  0.1021
  H  H138  1  0.665030  0.448270  0.588670  1.0  0.0987
  H  H139  1  0.070300  0.332100  0.828000  1.0  0.0609
  H  H140  1  0.913100  0.369500  0.675200  1.0  0.1128
  H  H141  1  0.808700  0.334900  0.733300  1.0  0.0949
  H  H142  1  0.779000  0.283000  0.865500  1.0  0.0906
  H  H143  1  0.854100  0.265500  0.943300  1.0  0.1157
  H  H144  1  0.189700  0.365300  0.612900  1.0  0.0688
  H  H145  1  0.344000  0.489600  0.834200  1.0  0.1132
  H  H146  1  0.138900  0.488400  0.816800  1.0  0.1207
  H  H147  1  0.319400  0.549200  0.928600  1.0  0.1001
  H  H148  1  0.218400  0.550100  0.922000  1.0  0.0989
  H  H149  1  0.736970  0.665430  0.161330  1.0  0.061
  H  H150  1  0.579770  0.702830  0.008530  1.0  0.1128
  H  H151  1  0.475370  0.668230  0.066630  1.0  0.0949
  H  H152  1  0.445670  0.616330  0.198830  1.0  0.0906
  H  H153  1  0.520770  0.598830  0.276630  1.0  0.1157
  H  H154  1  0.856370  0.698630  0.946230  1.0  0.0688
  H  H155  1  0.010670  0.822930  0.167530  1.0  0.1132
  H  H156  1  0.805570  0.821730  0.150130  1.0  0.1207
  H  H157  1  0.986070  0.882530  0.261930  1.0  0.1018
  H  H158  1  0.885070  0.883430  0.255330  1.0  0.0989
  H  H159  1  0.403630  0.998770  0.494670  1.0  0.061
  H  H160  1  0.246430  0.036170  0.341870  1.0  0.1128
  H  H161  1  0.142030  0.001570  0.399970  1.0  0.0943
  H  H162  1  0.112330  0.949670  0.532170  1.0  0.0907
  H  H163  1  0.187430  0.932170  0.609970  1.0  0.1157
  H  H164  1  0.523030  0.031970  0.279570  1.0  0.0688
  H  H165  1  0.677330  0.156270  0.500870  1.0  0.1133
  H  H166  1  0.472230  0.155070  0.483470  1.0  0.1207
  H  H167  1  0.652730  0.215870  0.595270  1.0  0.1
  H  H168  1  0.551730  0.216770  0.588670  1.0  0.0989
  H  H169  1  0.667900  0.738200  0.828000  1.0  0.0608
  H  H170  1  0.630500  0.543600  0.675200  1.0  0.1138
  H  H171  1  0.665100  0.473800  0.733300  1.0  0.0941
  H  H172  1  0.717000  0.496000  0.865500  1.0  0.0908
  H  H173  1  0.734500  0.588600  0.943300  1.0  0.1156
  H  H174  1  0.634700  0.824400  0.612900  1.0  0.0689
  H  H175  1  0.510400  0.854400  0.834200  1.0  0.1127
  H  H176  1  0.511600  0.650500  0.816800  1.0  0.1186
  H  H177  1  0.450800  0.770200  0.928600  1.0  0.1017
  H  H178  1  0.449900  0.668300  0.922000  1.0  0.0993
  H  H179  1  0.334570  0.071530  0.161330  1.0  0.0608
  H  H180  1  0.297170  0.876930  0.008530  1.0  0.1138
  H  H181  1  0.331770  0.807130  0.066630  1.0  0.0941
  H  H182  1  0.383670  0.829330  0.198830  1.0  0.0908
  H  H183  1  0.401170  0.921930  0.276630  1.0  0.1156
  H  H184  1  0.301370  0.157730  0.946230  1.0  0.0689
  H  H185  1  0.177070  0.187730  0.167530  1.0  0.1127
  H  H186  1  0.178270  0.983830  0.150130  1.0  0.1186
  H  H187  1  0.117470  0.103530  0.261930  1.0  0.1019
  H  H188  1  0.116570  0.001630  0.255330  1.0  0.0993
  H  H189  1  0.001230  0.404870  0.494670  1.0  0.0607
  H  H190  1  0.963830  0.210270  0.341870  1.0  0.1138
  H  H191  1  0.998430  0.140470  0.399970  1.0  0.0962
  H  H192  1  0.050330  0.162670  0.532170  1.0  0.0919
  H  H193  1  0.067830  0.255270  0.609970  1.0  0.1156
  H  H194  1  0.968030  0.491070  0.279570  1.0  0.0689
  H  H195  1  0.843730  0.521070  0.500870  1.0  0.1127
  H  H196  1  0.844930  0.317170  0.483470  1.0  0.1186
  H  H197  1  0.784130  0.436870  0.595270  1.0  0.1017
  H  H198  1  0.783230  0.334970  0.588670  1.0  0.0993
  C  C199  1  0.699500  0.028500  0.176300  1.0  0.3037
  C  C200  1  0.608800  0.945200  0.226400  1.0  0.166
  C  C201  1  0.552900  0.901400  0.272200  1.0  -0.1658
  C  C202  1  0.511700  0.839600  0.237000  1.0  -0.099
  C  C203  1  0.525100  0.821500  0.156300  1.0  -0.0977
  C  C204  1  0.622200  0.927400  0.146300  1.0  0.163
  C  C205  1  0.580000  0.865400  0.110100  1.0  -0.1775
  C  C206  1  0.808200  0.201200  0.339800  1.0  0.307
  C  C207  1  0.803400  0.257000  0.236100  1.0  0.1453
  C  C208  1  0.814000  0.303900  0.170100  1.0  -0.176
  C  C209  1  0.744300  0.197200  0.240000  1.0  0.1178
  C  C210  1  0.690500  0.179700  0.180200  1.0  -0.1545
  C  C211  1  0.763700  0.288600  0.113800  1.0  -0.0865
  C  C212  1  0.701700  0.227100  0.117500  1.0  -0.1127
  C  C213  1  0.366170  0.361830  0.509630  1.0  0.3037
  C  C214  1  0.275470  0.278530  0.559730  1.0  0.1661
  C  C215  1  0.219570  0.234730  0.605530  1.0  -0.1658
  C  C216  1  0.178370  0.172930  0.570330  1.0  -0.0989
  C  C217  1  0.191770  0.154830  0.489630  1.0  -0.098
  C  C218  1  0.288870  0.260730  0.479630  1.0  0.163
  C  C219  1  0.246670  0.198730  0.443430  1.0  -0.1775
  C  C220  1  0.474870  0.534530  0.673130  1.0  0.307
  C  C221  1  0.470070  0.590330  0.569430  1.0  0.1453
  C  C222  1  0.480670  0.637230  0.503430  1.0  -0.176
  C  C223  1  0.410970  0.530530  0.573330  1.0  0.1178
  C  C224  1  0.357170  0.513030  0.513530  1.0  -0.1545
  C  C225  1  0.430370  0.621930  0.447130  1.0  -0.0863
  C  C226  1  0.368370  0.560430  0.450830  1.0  -0.1127
  C  C227  1  0.032830  0.695170  0.842970  1.0  0.3037
  C  C228  1  0.942130  0.611870  0.893070  1.0  0.1661
  C  C229  1  0.886230  0.568070  0.938870  1.0  -0.1658
  C  C230  1  0.845030  0.506270  0.903670  1.0  -0.099
  C  C231  1  0.858430  0.488170  0.822970  1.0  -0.098
  C  C232  1  0.955530  0.594070  0.812970  1.0  0.163
  C  C233  1  0.913330  0.532070  0.776770  1.0  -0.1775
  C  C234  1  0.141530  0.867870  0.006470  1.0  0.307
  C  C235  1  0.136730  0.923670  0.902770  1.0  0.1455
  C  C236  1  0.147330  0.970570  0.836770  1.0  -0.176
  C  C237  1  0.077630  0.863870  0.906670  1.0  0.1179
  C  C238  1  0.023830  0.846370  0.846870  1.0  -0.1633
  C  C239  1  0.097030  0.955270  0.780470  1.0  -0.0918
  C  C240  1  0.035030  0.893770  0.784170  1.0  -0.1193
  C  C241  1  0.971500  0.671000  0.176300  1.0  0.3047
  C  C242  1  0.054800  0.663600  0.226400  1.0  0.1645
  C  C243  1  0.098600  0.651500  0.272200  1.0  -0.1664
  C  C244  1  0.160400  0.672100  0.237000  1.0  -0.0994
  C  C245  1  0.178500  0.703600  0.156300  1.0  -0.0981
  C  C246  1  0.072600  0.694800  0.146300  1.0  0.1624
  C  C247  1  0.134600  0.714600  0.110100  1.0  -0.1763
  C  C248  1  0.798800  0.607000  0.339800  1.0  0.3065
  C  C249  1  0.743000  0.546400  0.236100  1.0  0.1451
  C  C250  1  0.696100  0.510100  0.170100  1.0  -0.176
  C  C251  1  0.802800  0.547100  0.240000  1.0  0.1181
  C  C252  1  0.820300  0.510800  0.180200  1.0  -0.1544
  C  C253  1  0.711400  0.475100  0.113800  1.0  -0.09
  C  C254  1  0.772900  0.474600  0.117500  1.0  -0.1253
  C  C255  1  0.638170  0.004330  0.509630  1.0  0.3047
  C  C256  1  0.721470  0.996930  0.559730  1.0  0.1645
  C  C257  1  0.765270  0.984830  0.605530  1.0  -0.1663
  C  C258  1  0.827070  0.005430  0.570330  1.0  -0.0993
  C  C259  1  0.845170  0.036930  0.489630  1.0  -0.0982
  C  C260  1  0.739270  0.028130  0.479630  1.0  0.1624
  C  C261  1  0.801270  0.047930  0.443430  1.0  -0.1763
  C  C262  1  0.465470  0.940330  0.673130  1.0  0.3065
  C  C263  1  0.409670  0.879730  0.569430  1.0  0.1451
  C  C264  1  0.362770  0.843430  0.503430  1.0  -0.176
  C  C265  1  0.469470  0.880430  0.573330  1.0  0.1181
  C  C266  1  0.486970  0.844130  0.513530  1.0  -0.1544
  C  C267  1  0.378070  0.808430  0.447130  1.0  -0.0903
  C  C268  1  0.439570  0.807930  0.450830  1.0  -0.1253
  C  C269  1  0.304830  0.337670  0.842970  1.0  0.3047
  C  C270  1  0.388130  0.330270  0.893070  1.0  0.1645
  C  C271  1  0.431930  0.318170  0.938870  1.0  -0.1664
  C  C272  1  0.493730  0.338770  0.903670  1.0  -0.0994
  C  C273  1  0.511830  0.370270  0.822970  1.0  -0.0979
  C  C274  1  0.405930  0.361470  0.812970  1.0  0.1624
  C  C275  1  0.467930  0.381270  0.776770  1.0  -0.1763
  C  C276  1  0.132130  0.273670  0.006470  1.0  0.3065
  C  C277  1  0.076330  0.213070  0.902770  1.0  0.1448
  C  C278  1  0.029430  0.176770  0.836770  1.0  -0.1762
  C  C279  1  0.136130  0.213770  0.906670  1.0  0.1181
  C  C280  1  0.153630  0.177470  0.846870  1.0  -0.1544
  C  C281  1  0.044730  0.141770  0.780470  1.0  -0.0858
  C  C282  1  0.106230  0.141270  0.784170  1.0  -0.1141
  C  C283  1  0.329000  0.300500  0.176300  1.0  0.3041
  C  C284  1  0.336400  0.391200  0.226400  1.0  0.1645
  C  C285  1  0.348500  0.447100  0.272200  1.0  -0.1671
  C  C286  1  0.327900  0.488300  0.237000  1.0  -0.1007
  C  C287  1  0.296400  0.474900  0.156300  1.0  -0.0975
  C  C288  1  0.305200  0.377800  0.146300  1.0  0.1629
  C  C289  1  0.285400  0.420000  0.110100  1.0  -0.1757
  C  C290  1  0.393000  0.191800  0.339800  1.0  0.3053
  C  C291  1  0.453600  0.196600  0.236100  1.0  0.1464
  C  C292  1  0.489900  0.186000  0.170100  1.0  -0.1718
  C  C293  1  0.452900  0.255700  0.240000  1.0  0.118
  C  C294  1  0.489200  0.309500  0.180200  1.0  -0.1629
  C  C295  1  0.524900  0.236300  0.113800  1.0  -0.0891
  C  C296  1  0.525400  0.298300  0.117500  1.0  -0.1207
  C  C297  1  0.995670  0.633830  0.509630  1.0  0.3042
  C  C298  1  0.003070  0.724530  0.559730  1.0  0.1643
  C  C299  1  0.015170  0.780430  0.605530  1.0  -0.167
  C  C300  1  0.994570  0.821630  0.570330  1.0  -0.1006
  C  C301  1  0.963070  0.808230  0.489630  1.0  -0.0975
  C  C302  1  0.971870  0.711130  0.479630  1.0  0.1629
  C  C303  1  0.952070  0.753330  0.443430  1.0  -0.1757
  C  C304  1  0.059670  0.525130  0.673130  1.0  0.3053
  C  C305  1  0.120270  0.529930  0.569430  1.0  0.1464
  C  C306  1  0.156570  0.519330  0.503430  1.0  -0.1718
  C  C307  1  0.119570  0.589030  0.573330  1.0  0.118
  C  C308  1  0.155870  0.642830  0.513530  1.0  -0.1629
  C  C309  1  0.191570  0.569630  0.447130  1.0  -0.0891
  C  C310  1  0.192070  0.631630  0.450830  1.0  -0.1207
  C  C311  1  0.662330  0.967170  0.842970  1.0  0.3041
  C  C312  1  0.669730  0.057870  0.893070  1.0  0.1645
  C  C313  1  0.681830  0.113770  0.938870  1.0  -0.1671
  C  C314  1  0.661230  0.154970  0.903670  1.0  -0.1006
  C  C315  1  0.629730  0.141570  0.822970  1.0  -0.0972
  C  C316  1  0.638530  0.044470  0.812970  1.0  0.1629
  C  C317  1  0.618730  0.086670  0.776770  1.0  -0.1757
  C  C318  1  0.726330  0.858470  0.006470  1.0  0.3053
  C  C319  1  0.786930  0.863270  0.902770  1.0  0.1464
  C  C320  1  0.823230  0.852670  0.836770  1.0  -0.1718
  C  C321  1  0.786230  0.922370  0.906670  1.0  0.1179
  C  C322  1  0.822530  0.976170  0.846870  1.0  -0.1557
  C  C323  1  0.858230  0.902970  0.780470  1.0  -0.0888
  C  C324  1  0.858730  0.964970  0.784170  1.0  -0.1281
  C  C325  1  0.300500  0.971500  0.823700  1.0  0.3054
  C  C326  1  0.391200  0.054800  0.773600  1.0  0.1658
  C  C327  1  0.447100  0.098600  0.727800  1.0  -0.1667
  C  C328  1  0.488300  0.160400  0.763000  1.0  -0.0985
  C  C329  1  0.474900  0.178500  0.843700  1.0  -0.0978
  C  C330  1  0.377800  0.072600  0.853700  1.0  0.1632
  C  C331  1  0.420000  0.134600  0.889900  1.0  -0.1775
  C  C332  1  0.191800  0.798800  0.660200  1.0  0.3072
  C  C333  1  0.196600  0.743000  0.763900  1.0  0.1455
  C  C334  1  0.186000  0.696100  0.829900  1.0  -0.1766
  C  C335  1  0.255700  0.802800  0.760000  1.0  0.1171
  C  C336  1  0.309500  0.820300  0.819800  1.0  -0.1532
  C  C337  1  0.236300  0.711400  0.886200  1.0  -0.086
  C  C338  1  0.298300  0.772900  0.882500  1.0  -0.1121
  C  C339  1  0.967170  0.304830  0.157030  1.0  0.3054
  C  C340  1  0.057870  0.388130  0.106930  1.0  0.1656
  C  C341  1  0.113770  0.431930  0.061130  1.0  -0.1667
  C  C342  1  0.154970  0.493730  0.096330  1.0  -0.0985
  C  C343  1  0.141570  0.511830  0.177030  1.0  -0.098
  C  C344  1  0.044470  0.405930  0.187030  1.0  0.1632
  C  C345  1  0.086670  0.467930  0.223230  1.0  -0.1775
  C  C346  1  0.858470  0.132130  0.993530  1.0  0.3072
  C  C347  1  0.863270  0.076330  0.097230  1.0  0.1462
  C  C348  1  0.852670  0.029430  0.163230  1.0  -0.1766
  C  C349  1  0.922370  0.136130  0.093330  1.0  0.1173
  C  C350  1  0.976170  0.153630  0.153130  1.0  -0.1616
  C  C351  1  0.902970  0.044730  0.219530  1.0  -0.0911
  C  C352  1  0.964970  0.106230  0.215830  1.0  -0.118
  C  C353  1  0.633830  0.638170  0.490370  1.0  0.3054
  C  C354  1  0.724530  0.721470  0.440270  1.0  0.1662
  C  C355  1  0.780430  0.765270  0.394470  1.0  -0.1667
  C  C356  1  0.821630  0.827070  0.429670  1.0  -0.0984
  C  C357  1  0.808230  0.845170  0.510370  1.0  -0.098
  C  C358  1  0.711130  0.739270  0.520370  1.0  0.1632
  C  C359  1  0.753330  0.801270  0.556570  1.0  -0.1775
  C  C360  1  0.525130  0.465470  0.326870  1.0  0.3072
  C  C361  1  0.529930  0.409670  0.430570  1.0  0.1455
  C  C362  1  0.519330  0.362770  0.496570  1.0  -0.1766
  C  C363  1  0.589030  0.469470  0.426670  1.0  0.1171
  C  C364  1  0.642830  0.486970  0.486470  1.0  -0.1532
  C  C365  1  0.569630  0.378070  0.552870  1.0  -0.0858
  C  C366  1  0.631630  0.439570  0.549170  1.0  -0.1121
  C  C367  1  0.028500  0.329000  0.823700  1.0  0.3022
  C  C368  1  0.945200  0.336400  0.773600  1.0  0.1652
  C  C369  1  0.901400  0.348500  0.727800  1.0  -0.1663
  C  C370  1  0.839600  0.327900  0.763000  1.0  -0.0994
  C  C371  1  0.821500  0.296400  0.843700  1.0  -0.0989
  C  C372  1  0.927400  0.305200  0.853700  1.0  0.1622
  C  C373  1  0.865400  0.285400  0.889900  1.0  -0.1767
  C  C374  1  0.201200  0.393000  0.660200  1.0  0.3067
  C  C375  1  0.257000  0.453600  0.763900  1.0  0.1461
  C  C376  1  0.303900  0.489900  0.829900  1.0  -0.1747
  C  C377  1  0.197200  0.452900  0.760000  1.0  0.1179
  C  C378  1  0.179700  0.489200  0.819800  1.0  -0.1544
  C  C379  1  0.288600  0.524900  0.886200  1.0  -0.089
  C  C380  1  0.227100  0.525400  0.882500  1.0  -0.1264
  C  C381  1  0.695170  0.662330  0.157030  1.0  0.3022
  C  C382  1  0.611870  0.669730  0.106930  1.0  0.1652
  C  C383  1  0.568070  0.681830  0.061130  1.0  -0.1663
  C  C384  1  0.506270  0.661230  0.096330  1.0  -0.0994
  C  C385  1  0.488170  0.629730  0.177030  1.0  -0.0987
  C  C386  1  0.594070  0.638530  0.187030  1.0  0.1622
  C  C387  1  0.532070  0.618730  0.223230  1.0  -0.1767
  C  C388  1  0.867870  0.726330  0.993530  1.0  0.3067
  C  C389  1  0.923670  0.786930  0.097230  1.0  0.1457
  C  C390  1  0.970570  0.823230  0.163230  1.0  -0.1749
  C  C391  1  0.863870  0.786230  0.093330  1.0  0.1179
  C  C392  1  0.846370  0.822530  0.153130  1.0  -0.1544
  C  C393  1  0.955270  0.858230  0.219530  1.0  -0.0852
  C  C394  1  0.893770  0.858730  0.215830  1.0  -0.1145
  C  C395  1  0.361830  0.995670  0.490370  1.0  0.3021
  C  C396  1  0.278530  0.003070  0.440270  1.0  0.1651
  C  C397  1  0.234730  0.015170  0.394470  1.0  -0.1663
  C  C398  1  0.172930  0.994570  0.429670  1.0  -0.0994
  C  C399  1  0.154830  0.963070  0.510370  1.0  -0.099
  C  C400  1  0.260730  0.971870  0.520370  1.0  0.1622
  C  C401  1  0.198730  0.952070  0.556570  1.0  -0.1767
  C  C402  1  0.534530  0.059670  0.326870  1.0  0.3067
  C  C403  1  0.590330  0.120270  0.430570  1.0  0.1461
  C  C404  1  0.637230  0.156570  0.496570  1.0  -0.1748
  C  C405  1  0.530530  0.119570  0.426670  1.0  0.1179
  C  C406  1  0.513030  0.155870  0.486470  1.0  -0.1544
  C  C407  1  0.621930  0.191570  0.552870  1.0  -0.0892
  C  C408  1  0.560430  0.192070  0.549170  1.0  -0.1264
  C  C409  1  0.671000  0.699500  0.823700  1.0  0.305
  C  C410  1  0.663600  0.608800  0.773600  1.0  0.1654
  C  C411  1  0.651500  0.552900  0.727800  1.0  -0.1688
  C  C412  1  0.672100  0.511700  0.763000  1.0  -0.1001
  C  C413  1  0.703600  0.525100  0.843700  1.0  -0.0975
  C  C414  1  0.694800  0.622200  0.853700  1.0  0.1621
  C  C415  1  0.714600  0.580000  0.889900  1.0  -0.1756
  C  C416  1  0.607000  0.808200  0.660200  1.0  0.3052
  C  C417  1  0.546400  0.803400  0.763900  1.0  0.1452
  C  C418  1  0.510100  0.814000  0.829900  1.0  -0.1727
  C  C419  1  0.547100  0.744300  0.760000  1.0  0.1164
  C  C420  1  0.510800  0.690500  0.819800  1.0  -0.1632
  C  C421  1  0.475100  0.763700  0.886200  1.0  -0.0897
  C  C422  1  0.474600  0.701700  0.882500  1.0  -0.1204
  C  C423  1  0.337670  0.032830  0.157030  1.0  0.305
  C  C424  1  0.330270  0.942130  0.106930  1.0  0.1655
  C  C425  1  0.318170  0.886230  0.061130  1.0  -0.1688
  C  C426  1  0.338770  0.845030  0.096330  1.0  -0.1
  C  C427  1  0.370270  0.858430  0.177030  1.0  -0.0973
  C  C428  1  0.361470  0.955530  0.187030  1.0  0.1621
  C  C429  1  0.381270  0.913330  0.223230  1.0  -0.1756
  C  C430  1  0.273670  0.141530  0.993530  1.0  0.3052
  C  C431  1  0.213070  0.136730  0.097230  1.0  0.1452
  C  C432  1  0.176770  0.147330  0.163230  1.0  -0.1728
  C  C433  1  0.213770  0.077630  0.093330  1.0  0.1163
  C  C434  1  0.177470  0.023830  0.153130  1.0  -0.1564
  C  C435  1  0.141770  0.097030  0.219530  1.0  -0.0895
  C  C436  1  0.141270  0.035030  0.215830  1.0  -0.1277
  C  C437  1  0.004330  0.366170  0.490370  1.0  0.3051
  C  C438  1  0.996930  0.275470  0.440270  1.0  0.1654
  C  C439  1  0.984830  0.219570  0.394470  1.0  -0.1688
  C  C440  1  0.005430  0.178370  0.429670  1.0  -0.1
  C  C441  1  0.036930  0.191770  0.510370  1.0  -0.0975
  C  C442  1  0.028130  0.288870  0.520370  1.0  0.1621
  C  C443  1  0.047930  0.246670  0.556570  1.0  -0.1756
  C  C444  1  0.940330  0.474870  0.326870  1.0  0.3052
  C  C445  1  0.879730  0.470070  0.430570  1.0  0.1452
  C  C446  1  0.843430  0.480670  0.496570  1.0  -0.1727
  C  C447  1  0.880430  0.410970  0.426670  1.0  0.1164
  C  C448  1  0.844130  0.357170  0.486470  1.0  -0.1632
  C  C449  1  0.808430  0.430370  0.552870  1.0  -0.0897
  C  C450  1  0.807930  0.368370  0.549170  1.0  -0.1204
  N  N451  1  0.658900  0.011300  0.243300  1.0  -0.4703
  N  N452  1  0.748000  0.160400  0.309200  1.0  -0.4604
  N  N453  1  0.681200  0.981900  0.115200  1.0  -0.4856
  N  N454  1  0.844500  0.259000  0.300600  1.0  -0.4682
  N  N455  1  0.325570  0.344630  0.576630  1.0  -0.4703
  N  N456  1  0.414670  0.493730  0.642530  1.0  -0.4605
  N  N457  1  0.347870  0.315230  0.448530  1.0  -0.4856
  N  N458  1  0.511170  0.592330  0.633930  1.0  -0.4681
  N  N459  1  0.992230  0.677970  0.909970  1.0  -0.4703
  N  N460  1  0.081330  0.827070  0.975870  1.0  -0.4605
  N  N461  1  0.014530  0.648570  0.781870  1.0  -0.4855
  N  N462  1  0.177830  0.925670  0.967270  1.0  -0.4677
  N  N463  1  0.988700  0.647600  0.243300  1.0  -0.4716
  N  N464  1  0.839600  0.587600  0.309200  1.0  -0.462
  N  N465  1  0.018100  0.699300  0.115200  1.0  -0.487
  N  N466  1  0.741000  0.585500  0.300600  1.0  -0.4671
  N  N467  1  0.655370  0.980930  0.576630  1.0  -0.4716
  N  N468  1  0.506270  0.920930  0.642530  1.0  -0.462
  N  N469  1  0.684770  0.032630  0.448530  1.0  -0.4872
  N  N470  1  0.407670  0.918830  0.633930  1.0  -0.4671
  N  N471  1  0.322030  0.314270  0.909970  1.0  -0.4716
  N  N472  1  0.172930  0.254270  0.975870  1.0  -0.462
  N  N473  1  0.351430  0.365970  0.781870  1.0  -0.4872
  N  N474  1  0.074330  0.252170  0.967270  1.0  -0.4673
  N  N475  1  0.352400  0.341100  0.243300  1.0  -0.4709
  N  N476  1  0.412400  0.252000  0.309200  1.0  -0.4605
  N  N477  1  0.300700  0.318800  0.115200  1.0  -0.4867
  N  N478  1  0.414500  0.155500  0.300600  1.0  -0.4672
  N  N479  1  0.019070  0.674430  0.576630  1.0  -0.4709
  N  N480  1  0.079070  0.585330  0.642530  1.0  -0.4604
  N  N481  1  0.967370  0.652130  0.448530  1.0  -0.4867
  N  N482  1  0.081170  0.488830  0.633930  1.0  -0.4672
  N  N483  1  0.685730  0.007770  0.909970  1.0  -0.4709
  N  N484  1  0.745730  0.918670  0.975870  1.0  -0.4604
  N  N485  1  0.634030  0.985470  0.781870  1.0  -0.4867
  N  N486  1  0.747830  0.822170  0.967270  1.0  -0.4674
  N  N487  1  0.341100  0.988700  0.756700  1.0  -0.4713
  N  N488  1  0.252000  0.839600  0.690800  1.0  -0.4602
  N  N489  1  0.318800  0.018100  0.884800  1.0  -0.4871
  N  N490  1  0.155500  0.741000  0.699400  1.0  -0.468
  N  N491  1  0.007770  0.322030  0.090030  1.0  -0.4713
  N  N492  1  0.918670  0.172930  0.024130  1.0  -0.4602
  N  N493  1  0.985470  0.351430  0.218130  1.0  -0.487
  N  N494  1  0.822170  0.074330  0.032730  1.0  -0.4675
  N  N495  1  0.674430  0.655370  0.423370  1.0  -0.4713
  N  N496  1  0.585330  0.506270  0.357470  1.0  -0.4602
  N  N497  1  0.652130  0.684770  0.551470  1.0  -0.4871
  N  N498  1  0.488830  0.407670  0.366070  1.0  -0.468
  N  N499  1  0.011300  0.352400  0.756700  1.0  -0.4723
  N  N500  1  0.160400  0.412400  0.690800  1.0  -0.4622
  N  N501  1  0.981900  0.300700  0.884800  1.0  -0.4866
  N  N502  1  0.259000  0.414500  0.699400  1.0  -0.4686
  N  N503  1  0.677970  0.685730  0.090030  1.0  -0.4723
  N  N504  1  0.827070  0.745730  0.024130  1.0  -0.4622
  N  N505  1  0.648570  0.634030  0.218130  1.0  -0.4869
  N  N506  1  0.925670  0.747830  0.032730  1.0  -0.4687
  N  N507  1  0.344630  0.019070  0.423370  1.0  -0.4723
  N  N508  1  0.493730  0.079070  0.357470  1.0  -0.4622
  N  N509  1  0.315230  0.967370  0.551470  1.0  -0.4867
  N  N510  1  0.592330  0.081170  0.366070  1.0  -0.4686
  N  N511  1  0.647600  0.658900  0.756700  1.0  -0.4712
  N  N512  1  0.587600  0.748000  0.690800  1.0  -0.4616
  N  N513  1  0.699300  0.681200  0.884800  1.0  -0.4868
  N  N514  1  0.585500  0.844500  0.699400  1.0  -0.4692
  N  N515  1  0.314270  0.992230  0.090030  1.0  -0.4711
  N  N516  1  0.254270  0.081330  0.024130  1.0  -0.4616
  N  N517  1  0.365970  0.014530  0.218130  1.0  -0.4867
  N  N518  1  0.252170  0.177830  0.032730  1.0  -0.4694
  N  N519  1  0.980930  0.325570  0.423370  1.0  -0.4711
  N  N520  1  0.920930  0.414670  0.357470  1.0  -0.4616
  N  N521  1  0.032630  0.347870  0.551470  1.0  -0.4868
  N  N522  1  0.918830  0.511170  0.366070  1.0  -0.4692
