# generated using pymatgen
data_Zn3P2H32C42S2N6O13
_symmetry_space_group_name_H-M   'P 1'
_cell_length_a   13.53960000
_cell_length_b   30.43800000
_cell_length_c   15.72170000
_cell_angle_alpha   90.00000000
_cell_angle_beta   110.53500000
_cell_angle_gamma   90.00000000
_symmetry_Int_Tables_number   1
_chemical_formula_structural   Zn3P2H32C42S2N6O13
_chemical_formula_sum   'Zn12 P8 H128 C168 S8 N24 O52'
_cell_volume   6067.50014331
_cell_formula_units_Z   4
loop_
 _symmetry_equiv_pos_site_id
 _symmetry_equiv_pos_as_xyz
  1  'x, y, z'
loop_
 _atom_site_type_symbol
 _atom_site_label
 _atom_site_symmetry_multiplicity
 _atom_site_fract_x
 _atom_site_fract_y
 _atom_site_fract_z
 _atom_site_occupancy
 _atom_site_charge
  Zn  Zn1  1  0.475700  0.050730  0.859480  1.0  0.8649
  Zn  Zn2  1  0.333333  0.082940  0.291890  1.0  0.9008
  Zn  Zn3  1  0.613720  0.023240  0.430440  1.0  1.0855
  Zn  Zn4  1  0.524300  0.550730  0.640520  1.0  0.8642
  Zn  Zn5  1  0.666667  0.582940  0.208110  1.0  0.9001
  Zn  Zn6  1  0.386280  0.523240  0.069560  1.0  1.0848
  Zn  Zn7  1  0.524300  0.949270  0.140520  1.0  0.8642
  Zn  Zn8  1  0.666667  0.917060  0.708110  1.0  0.9008
  Zn  Zn9  1  0.386280  0.976760  0.569560  1.0  1.0848
  Zn  Zn10  1  0.475700  0.449270  0.359480  1.0  0.8648
  Zn  Zn11  1  0.333333  0.417060  0.791890  1.0  0.9013
  Zn  Zn12  1  0.613720  0.476760  0.930440  1.0  1.0855
  P  P13  1  0.493920  0.951800  0.782620  1.0  1.444
  P  P14  1  0.443060  0.067520  0.499390  1.0  1.5095
  P  P15  1  0.506080  0.451800  0.717380  1.0  1.4434
  P  P16  1  0.556940  0.567520  0.000610  1.0  1.5091
  P  P17  1  0.506080  0.048200  0.217380  1.0  1.4446
  P  P18  1  0.556940  0.932480  0.500610  1.0  1.5083
  P  P19  1  0.493920  0.548200  0.282620  1.0  1.4451
  P  P20  1  0.443060  0.432480  0.999390  1.0  1.5084
  H  H21  1  0.410800  0.783000  0.869500  1.0  0.123
  H  H22  1  0.573800  0.814400  0.944800  1.0  0.107
  H  H23  1  0.610000  0.884700  0.907400  1.0  0.1174
  H  H24  1  0.317900  0.892900  0.722100  1.0  0.111
  H  H25  1  0.591800  0.131100  0.606800  1.0  0.116
  H  H26  1  0.581000  0.200800  0.661500  1.0  0.1116
  H  H27  1  0.420000  0.236200  0.620000  1.0  0.108
  H  H28  1  0.278600  0.130500  0.478900  1.0  0.1119
  H  H29  1  0.777900  0.092300  0.499900  1.0  0.0783
  H  H30  1  0.955200  0.100200  0.579900  1.0  0.1385
  H  H31  1  0.975900  0.969200  0.604500  1.0  0.1271
  H  H32  1  0.798800  0.964900  0.522800  1.0  0.0865
  H  H33  1  0.134100  0.093200  0.597300  1.0  0.1279
  H  H34  1  0.310200  0.096800  0.685700  1.0  0.0684
  H  H35  1  0.286200  0.993200  0.822700  1.0  0.0745
  H  H36  1  0.110200  0.986100  0.737700  1.0  0.1156
  H  H37  1  0.691000  0.011100  0.892800  1.0  0.0897
  H  H38  1  0.866100  0.019200  0.978000  1.0  0.1164
  H  H39  1  0.786800  0.111500  0.124800  1.0  0.1261
  H  H40  1  0.613600  0.100600  0.035200  1.0  0.0752
  H  H41  1  0.020600  0.055000  0.018300  1.0  0.1255
  H  H42  1  0.195400  0.061100  0.107000  1.0  0.0874
  H  H43  1  0.123200  0.100100  0.314300  1.0  0.0857
  H  H44  1  0.945800  0.095200  0.231000  1.0  0.1251
  H  H45  1  0.598700  0.137500  0.853800  1.0  0.0789
  H  H46  1  0.581000  0.212600  0.842900  1.0  0.1414
  H  H47  1  0.289200  0.198300  0.851300  1.0  0.1293
  H  H48  1  0.319700  0.124300  0.869300  1.0  0.0905
  H  H49  1  0.559100  0.284200  0.902100  1.0  0.1391
  H  H50  1  0.521300  0.357600  0.878000  1.0  0.0812
  H  H51  1  0.229700  0.332200  0.730900  1.0  0.0868
  H  H52  1  0.258000  0.258000  0.749300  1.0  0.131
  H  H53  1  0.589200  0.283000  0.630500  1.0  0.1219
  H  H54  1  0.426200  0.314400  0.555200  1.0  0.1072
  H  H55  1  0.390000  0.384700  0.592600  1.0  0.1166
  H  H56  1  0.682100  0.392900  0.777900  1.0  0.1115
  H  H57  1  0.408200  0.631100  0.893200  1.0  0.1158
  H  H58  1  0.419000  0.700800  0.838500  1.0  0.1105
  H  H59  1  0.580000  0.736200  0.880000  1.0  0.1081
  H  H60  1  0.721400  0.630500  0.021100  1.0  0.1108
  H  H61  1  0.222100  0.592300  0.000100  1.0  0.0785
  H  H62  1  0.044800  0.600200  0.920100  1.0  0.1384
  H  H63  1  0.024100  0.469200  0.895500  1.0  0.1267
  H  H64  1  0.201200  0.464900  0.977200  1.0  0.0858
  H  H65  1  0.865900  0.593200  0.902700  1.0  0.1276
  H  H66  1  0.689800  0.596800  0.814300  1.0  0.0687
  H  H67  1  0.713800  0.493200  0.677300  1.0  0.0745
  H  H68  1  0.889800  0.486100  0.762300  1.0  0.1156
  H  H69  1  0.309000  0.511100  0.607200  1.0  0.0899
  H  H70  1  0.133900  0.519200  0.522000  1.0  0.1162
  H  H71  1  0.213200  0.611500  0.375200  1.0  0.1266
  H  H72  1  0.386400  0.600600  0.464800  1.0  0.0749
  H  H73  1  0.979400  0.555000  0.481700  1.0  0.126
  H  H74  1  0.804600  0.561100  0.393000  1.0  0.0881
  H  H75  1  0.876800  0.600100  0.185700  1.0  0.0854
  H  H76  1  0.054200  0.595200  0.269000  1.0  0.1241
  H  H77  1  0.401300  0.637500  0.646200  1.0  0.0798
  H  H78  1  0.419000  0.712600  0.657100  1.0  0.1408
  H  H79  1  0.710800  0.698300  0.648700  1.0  0.131
  H  H80  1  0.680300  0.624300  0.630700  1.0  0.0906
  H  H81  1  0.440900  0.784200  0.597900  1.0  0.1383
  H  H82  1  0.478700  0.857600  0.622000  1.0  0.0814
  H  H83  1  0.770300  0.832200  0.769100  1.0  0.0863
  H  H84  1  0.742000  0.758000  0.750700  1.0  0.1314
  H  H85  1  0.589200  0.217000  0.130500  1.0  0.122
  H  H86  1  0.426200  0.185600  0.055200  1.0  0.1069
  H  H87  1  0.390000  0.115300  0.092600  1.0  0.1165
  H  H88  1  0.682100  0.107100  0.277900  1.0  0.1117
  H  H89  1  0.408200  0.868900  0.393200  1.0  0.1157
  H  H90  1  0.419000  0.799200  0.338500  1.0  0.1109
  H  H91  1  0.580000  0.763800  0.380000  1.0  0.1077
  H  H92  1  0.721400  0.869500  0.521100  1.0  0.1105
  H  H93  1  0.222100  0.907700  0.500100  1.0  0.0782
  H  H94  1  0.044800  0.899800  0.420100  1.0  0.1383
  H  H95  1  0.024100  0.030800  0.395500  1.0  0.127
  H  H96  1  0.201200  0.035100  0.477200  1.0  0.0853
  H  H97  1  0.865900  0.906800  0.402700  1.0  0.1278
  H  H98  1  0.689800  0.903200  0.314300  1.0  0.0686
  H  H99  1  0.713800  0.006800  0.177300  1.0  0.0744
  H  H100  1  0.889800  0.013900  0.262300  1.0  0.1156
  H  H101  1  0.309000  0.988900  0.107200  1.0  0.0898
  H  H102  1  0.133900  0.980800  0.022000  1.0  0.1163
  H  H103  1  0.213200  0.888500  0.875200  1.0  0.1261
  H  H104  1  0.386400  0.899400  0.964800  1.0  0.075
  H  H105  1  0.979400  0.945000  0.981700  1.0  0.1261
  H  H106  1  0.804600  0.938900  0.893000  1.0  0.0873
  H  H107  1  0.876800  0.899900  0.685700  1.0  0.0854
  H  H108  1  0.054200  0.904800  0.769000  1.0  0.1242
  H  H109  1  0.401300  0.862500  0.146200  1.0  0.0796
  H  H110  1  0.419000  0.787400  0.157100  1.0  0.1406
  H  H111  1  0.710800  0.801700  0.148700  1.0  0.1312
  H  H112  1  0.680300  0.875700  0.130700  1.0  0.0906
  H  H113  1  0.440900  0.715800  0.097900  1.0  0.1385
  H  H114  1  0.478700  0.642400  0.122000  1.0  0.0814
  H  H115  1  0.770300  0.667800  0.269100  1.0  0.0862
  H  H116  1  0.742000  0.742000  0.250700  1.0  0.1312
  H  H117  1  0.410800  0.717000  0.369500  1.0  0.122
  H  H118  1  0.573800  0.685600  0.444800  1.0  0.1067
  H  H119  1  0.610000  0.615300  0.407400  1.0  0.1175
  H  H120  1  0.317900  0.607100  0.222100  1.0  0.111
  H  H121  1  0.591800  0.368900  0.106800  1.0  0.1163
  H  H122  1  0.581000  0.299200  0.161500  1.0  0.1119
  H  H123  1  0.420000  0.263800  0.120000  1.0  0.108
  H  H124  1  0.278600  0.369500  0.978900  1.0  0.1116
  H  H125  1  0.777900  0.407700  0.999900  1.0  0.0781
  H  H126  1  0.955200  0.399800  0.079900  1.0  0.1389
  H  H127  1  0.975900  0.530800  0.104500  1.0  0.127
  H  H128  1  0.798800  0.535100  0.022800  1.0  0.086
  H  H129  1  0.134100  0.406800  0.097300  1.0  0.1277
  H  H130  1  0.310200  0.403200  0.185700  1.0  0.0684
  H  H131  1  0.286200  0.506800  0.322700  1.0  0.0743
  H  H132  1  0.110200  0.513900  0.237700  1.0  0.1156
  H  H133  1  0.691000  0.488900  0.392800  1.0  0.0895
  H  H134  1  0.866100  0.480800  0.478000  1.0  0.1166
  H  H135  1  0.786800  0.388500  0.624800  1.0  0.1261
  H  H136  1  0.613600  0.399400  0.535200  1.0  0.0751
  H  H137  1  0.020600  0.445000  0.518300  1.0  0.1254
  H  H138  1  0.195400  0.438900  0.607000  1.0  0.0866
  H  H139  1  0.123200  0.399900  0.814300  1.0  0.0858
  H  H140  1  0.945800  0.404800  0.731000  1.0  0.1251
  H  H141  1  0.598700  0.362500  0.353800  1.0  0.079
  H  H142  1  0.581000  0.287400  0.342900  1.0  0.1414
  H  H143  1  0.289200  0.301700  0.351300  1.0  0.1296
  H  H144  1  0.319700  0.375700  0.369300  1.0  0.0905
  H  H145  1  0.559100  0.215800  0.402100  1.0  0.1388
  H  H146  1  0.521300  0.142400  0.378000  1.0  0.0816
  H  H147  1  0.229700  0.167800  0.230900  1.0  0.0872
  H  H148  1  0.258000  0.242000  0.249300  1.0  0.1313
  C  C149  1  0.350200  0.834280  0.787300  1.0  -0.2392
  C  C150  1  0.425400  0.811180  0.854500  1.0  -0.0524
  C  C151  1  0.522600  0.830020  0.899700  1.0  -0.0866
  C  C152  1  0.543900  0.872440  0.877800  1.0  -0.0371
  C  C153  1  0.467100  0.896600  0.812000  1.0  -0.2992
  C  C154  1  0.369900  0.877190  0.766500  1.0  -0.0069
  C  C155  1  0.435800  0.122800  0.538500  1.0  -0.2688
  C  C156  1  0.526500  0.144790  0.592100  1.0  -0.031
  C  C157  1  0.520400  0.186830  0.623900  1.0  -0.0628
  C  C158  1  0.424100  0.207820  0.599600  1.0  0.0103
  C  C159  1  0.336100  0.187220  0.546300  1.0  -0.1177
  C  C160  1  0.340200  0.144360  0.515200  1.0  -0.0224
  C  C161  1  0.818400  0.067270  0.521000  1.0  0.1656
  C  C162  1  0.924900  0.072330  0.569900  1.0  -0.208
  C  C163  1  0.985800  0.035360  0.603600  1.0  0.082
  C  C164  1  0.937100  0.994800  0.584200  1.0  -0.2079
  C  C165  1  0.830600  0.992450  0.534600  1.0  0.1897
  C  C166  1  0.100600  0.038780  0.657300  1.0  0.0975
  C  C167  1  0.163100  0.072540  0.642700  1.0  -0.1485
  C  C168  1  0.269100  0.074640  0.697000  1.0  0.1795
  C  C169  1  0.255000  0.013700  0.777400  1.0  0.1958
  C  C170  1  0.148900  0.009100  0.726000  1.0  -0.1802
  C  C171  1  0.710500  0.031770  0.939300  1.0  0.1759
  C  C172  1  0.816300  0.036500  0.990500  1.0  -0.1911
  C  C173  1  0.848300  0.066950  0.060500  1.0  0.0976
  C  C174  1  0.769500  0.091160  0.077600  1.0  -0.1899
  C  C175  1  0.665400  0.084400  0.023100  1.0  0.1747
  C  C176  1  0.962100  0.072850  0.115600  1.0  0.1149
  C  C177  1  0.039500  0.063680  0.078600  1.0  -0.1978
  C  C178  1  0.144500  0.067590  0.132300  1.0  0.1847
  C  C179  1  0.102100  0.090520  0.254300  1.0  0.1744
  C  C180  1  0.995000  0.087470  0.204700  1.0  -0.1624
  C  C181  1  0.535900  0.149970  0.853500  1.0  0.1813
  C  C182  1  0.525900  0.195260  0.846200  1.0  -0.1844
  C  C183  1  0.431600  0.214220  0.843800  1.0  0.0936
  C  C184  1  0.353100  0.186700  0.852100  1.0  -0.1914
  C  C185  1  0.371600  0.142140  0.861500  1.0  0.1734
  C  C186  1  0.412400  0.262110  0.829300  1.0  0.0902
  C  C187  1  0.491300  0.293150  0.867200  1.0  -0.169
  C  C188  1  0.467800  0.337270  0.852300  1.0  0.1749
  C  C189  1  0.296600  0.322290  0.765800  1.0  0.1795
  C  C190  1  0.312800  0.277570  0.776700  1.0  -0.197
  C  C191  1  0.649800  0.334280  0.712700  1.0  -0.2332
  C  C192  1  0.574600  0.311180  0.645500  1.0  -0.0521
  C  C193  1  0.477400  0.330020  0.600300  1.0  -0.0877
  C  C194  1  0.456100  0.372440  0.622200  1.0  -0.0354
  C  C195  1  0.532900  0.396600  0.688000  1.0  -0.2987
  C  C196  1  0.630100  0.377190  0.733500  1.0  -0.0073
  C  C197  1  0.564200  0.622800  0.961500  1.0  -0.2695
  C  C198  1  0.473500  0.644790  0.907900  1.0  -0.0311
  C  C199  1  0.479600  0.686830  0.876100  1.0  -0.0644
  C  C200  1  0.575900  0.707820  0.900400  1.0  0.0101
  C  C201  1  0.663900  0.687220  0.953700  1.0  -0.1171
  C  C202  1  0.659800  0.644360  0.984800  1.0  -0.0233
  C  C203  1  0.181600  0.567270  0.979000  1.0  0.1659
  C  C204  1  0.075100  0.572330  0.930100  1.0  -0.2092
  C  C205  1  0.014200  0.535360  0.896400  1.0  0.0806
  C  C206  1  0.062900  0.494800  0.915800  1.0  -0.2091
  C  C207  1  0.169400  0.492450  0.965400  1.0  0.1893
  C  C208  1  0.899400  0.538780  0.842700  1.0  0.0973
  C  C209  1  0.836900  0.572540  0.857300  1.0  -0.1476
  C  C210  1  0.730900  0.574640  0.803000  1.0  0.1788
  C  C211  1  0.745000  0.513700  0.722600  1.0  0.1947
  C  C212  1  0.851100  0.509100  0.774000  1.0  -0.1806
  C  C213  1  0.289500  0.531770  0.560700  1.0  0.1784
  C  C214  1  0.183700  0.536500  0.509500  1.0  -0.1917
  C  C215  1  0.151700  0.566950  0.439500  1.0  0.0974
  C  C216  1  0.230500  0.591160  0.422400  1.0  -0.1912
  C  C217  1  0.334600  0.584400  0.476900  1.0  0.1754
  C  C218  1  0.037900  0.572850  0.384400  1.0  0.1149
  C  C219  1  0.960500  0.563680  0.421400  1.0  -0.1956
  C  C220  1  0.855500  0.567590  0.367700  1.0  0.1845
  C  C221  1  0.897900  0.590520  0.245700  1.0  0.1737
  C  C222  1  0.005000  0.587470  0.295300  1.0  -0.1619
  C  C223  1  0.464100  0.649970  0.646500  1.0  0.1822
  C  C224  1  0.474100  0.695260  0.653800  1.0  -0.1825
  C  C225  1  0.568400  0.714220  0.656200  1.0  0.0935
  C  C226  1  0.646900  0.686700  0.647900  1.0  -0.1931
  C  C227  1  0.628400  0.642140  0.638500  1.0  0.1738
  C  C228  1  0.587600  0.762110  0.670700  1.0  0.0909
  C  C229  1  0.508700  0.793150  0.632800  1.0  -0.169
  C  C230  1  0.532200  0.837270  0.647700  1.0  0.1755
  C  C231  1  0.703400  0.822290  0.734200  1.0  0.1798
  C  C232  1  0.687200  0.777570  0.723300  1.0  -0.1969
  C  C233  1  0.649800  0.165720  0.212700  1.0  -0.2334
  C  C234  1  0.574600  0.188820  0.145500  1.0  -0.0532
  C  C235  1  0.477400  0.169980  0.100300  1.0  -0.0878
  C  C236  1  0.456100  0.127560  0.122200  1.0  -0.0354
  C  C237  1  0.532900  0.103400  0.188000  1.0  -0.2962
  C  C238  1  0.630100  0.122810  0.233500  1.0  -0.0073
  C  C239  1  0.564200  0.877200  0.461500  1.0  -0.2691
  C  C240  1  0.473500  0.855210  0.407900  1.0  -0.0307
  C  C241  1  0.479600  0.813170  0.376100  1.0  -0.0645
  C  C242  1  0.575900  0.792180  0.400400  1.0  0.0098
  C  C243  1  0.663900  0.812780  0.453700  1.0  -0.1172
  C  C244  1  0.659800  0.855640  0.484800  1.0  -0.0232
  C  C245  1  0.181600  0.932730  0.479000  1.0  0.1651
  C  C246  1  0.075100  0.927670  0.430100  1.0  -0.2108
  C  C247  1  0.014200  0.964640  0.396400  1.0  0.0806
  C  C248  1  0.062900  0.005200  0.415800  1.0  -0.2098
  C  C249  1  0.169400  0.007550  0.465400  1.0  0.1892
  C  C250  1  0.899400  0.961220  0.342700  1.0  0.0972
  C  C251  1  0.836900  0.927460  0.357300  1.0  -0.147
  C  C252  1  0.730900  0.925360  0.303000  1.0  0.1787
  C  C253  1  0.745000  0.986300  0.222600  1.0  0.194
  C  C254  1  0.851100  0.990900  0.274000  1.0  -0.1808
  C  C255  1  0.289500  0.968230  0.060700  1.0  0.178
  C  C256  1  0.183700  0.963500  0.009500  1.0  -0.1913
  C  C257  1  0.151700  0.933050  0.939500  1.0  0.0971
  C  C258  1  0.230500  0.908840  0.922400  1.0  -0.1909
  C  C259  1  0.334600  0.915600  0.976900  1.0  0.1756
  C  C260  1  0.037900  0.927150  0.884400  1.0  0.1155
  C  C261  1  0.960500  0.936320  0.921400  1.0  -0.1955
  C  C262  1  0.855500  0.932410  0.867700  1.0  0.1846
  C  C263  1  0.897900  0.909480  0.745700  1.0  0.1738
  C  C264  1  0.005000  0.912530  0.795300  1.0  -0.1617
  C  C265  1  0.464100  0.850030  0.146500  1.0  0.1818
  C  C266  1  0.474100  0.804740  0.153800  1.0  -0.1824
  C  C267  1  0.568400  0.785780  0.156200  1.0  0.0932
  C  C268  1  0.646900  0.813300  0.147900  1.0  -0.1932
  C  C269  1  0.628400  0.857860  0.138500  1.0  0.1733
  C  C270  1  0.587600  0.737890  0.170700  1.0  0.0906
  C  C271  1  0.508700  0.706850  0.132800  1.0  -0.1687
  C  C272  1  0.532200  0.662730  0.147700  1.0  0.1755
  C  C273  1  0.703400  0.677710  0.234200  1.0  0.1794
  C  C274  1  0.687200  0.722430  0.223300  1.0  -0.1969
  C  C275  1  0.350200  0.665720  0.287300  1.0  -0.2394
  C  C276  1  0.425400  0.688820  0.354500  1.0  -0.0527
  C  C277  1  0.522600  0.669980  0.399700  1.0  -0.0865
  C  C278  1  0.543900  0.627560  0.377800  1.0  -0.0366
  C  C279  1  0.467100  0.603400  0.312000  1.0  -0.2971
  C  C280  1  0.369900  0.622810  0.266500  1.0  -0.0066
  C  C281  1  0.435800  0.377200  0.038500  1.0  -0.2689
  C  C282  1  0.526500  0.355210  0.092100  1.0  -0.0305
  C  C283  1  0.520400  0.313170  0.123900  1.0  -0.063
  C  C284  1  0.424100  0.292180  0.099600  1.0  0.0095
  C  C285  1  0.336100  0.312780  0.046300  1.0  -0.1177
  C  C286  1  0.340200  0.355640  0.015200  1.0  -0.0225
  C  C287  1  0.818400  0.432730  0.021000  1.0  0.1649
  C  C288  1  0.924900  0.427670  0.069900  1.0  -0.2103
  C  C289  1  0.985800  0.464640  0.103600  1.0  0.0825
  C  C290  1  0.937100  0.505200  0.084200  1.0  -0.2079
  C  C291  1  0.830600  0.507550  0.034600  1.0  0.1896
  C  C292  1  0.100600  0.461220  0.157300  1.0  0.0975
  C  C293  1  0.163100  0.427460  0.142700  1.0  -0.1483
  C  C294  1  0.269100  0.425360  0.197000  1.0  0.1792
  C  C295  1  0.255000  0.486300  0.277400  1.0  0.1954
  C  C296  1  0.148900  0.490900  0.226000  1.0  -0.1797
  C  C297  1  0.710500  0.468230  0.439300  1.0  0.1758
  C  C298  1  0.816300  0.463500  0.490500  1.0  -0.1912
  C  C299  1  0.848300  0.433050  0.560500  1.0  0.0976
  C  C300  1  0.769500  0.408840  0.577600  1.0  -0.1892
  C  C301  1  0.665400  0.415600  0.523100  1.0  0.1751
  C  C302  1  0.962100  0.427150  0.615600  1.0  0.1151
  C  C303  1  0.039500  0.436320  0.578600  1.0  -0.1976
  C  C304  1  0.144500  0.432410  0.632300  1.0  0.1847
  C  C305  1  0.102100  0.409480  0.754300  1.0  0.1751
  C  C306  1  0.995000  0.412530  0.704700  1.0  -0.1619
  C  C307  1  0.535900  0.350030  0.353500  1.0  0.1815
  C  C308  1  0.525900  0.304740  0.346200  1.0  -0.1851
  C  C309  1  0.431600  0.285780  0.343800  1.0  0.0933
  C  C310  1  0.353100  0.313300  0.352100  1.0  -0.1912
  C  C311  1  0.371600  0.357860  0.361500  1.0  0.1729
  C  C312  1  0.412400  0.237890  0.329300  1.0  0.0899
  C  C313  1  0.491300  0.206850  0.367200  1.0  -0.1692
  C  C314  1  0.467800  0.162730  0.352300  1.0  0.175
  C  C315  1  0.296600  0.177710  0.265800  1.0  0.1798
  C  C316  1  0.312800  0.222430  0.276700  1.0  -0.1966
  S  S317  1  0.226810  0.809750  0.725760  1.0  1.4521
  S  S318  1  0.214290  0.215690  0.511210  1.0  0.7505
  S  S319  1  0.773190  0.309750  0.774240  1.0  1.4517
  S  S320  1  0.785710  0.715690  0.988790  1.0  0.7505
  S  S321  1  0.773190  0.190250  0.274240  1.0  1.4517
  S  S322  1  0.785710  0.784310  0.488790  1.0  0.7497
  S  S323  1  0.226810  0.690250  0.225760  1.0  1.4529
  S  S324  1  0.214290  0.284310  0.011210  1.0  0.7488
  N  N325  1  0.771000  0.028200  0.502700  1.0  -0.3367
  N  N326  1  0.315000  0.046460  0.764600  1.0  -0.3257
  N  N327  1  0.635000  0.055740  0.953900  1.0  -0.3216
  N  N328  1  0.176200  0.080280  0.219500  1.0  -0.3191
  N  N329  1  0.460300  0.122980  0.860200  1.0  -0.3295
  N  N330  1  0.372100  0.352080  0.802900  1.0  -0.3451
  N  N331  1  0.229000  0.528200  0.997300  1.0  -0.3364
  N  N332  1  0.685000  0.546460  0.735400  1.0  -0.3277
  N  N333  1  0.365000  0.555740  0.546100  1.0  -0.3191
  N  N334  1  0.823800  0.580280  0.280500  1.0  -0.3185
  N  N335  1  0.539700  0.622980  0.639800  1.0  -0.3301
  N  N336  1  0.627900  0.852080  0.697100  1.0  -0.3439
  N  N337  1  0.229000  0.971800  0.497300  1.0  -0.3361
  N  N338  1  0.685000  0.953540  0.235400  1.0  -0.3274
  N  N339  1  0.365000  0.944260  0.046100  1.0  -0.319
  N  N340  1  0.823800  0.919720  0.780500  1.0  -0.3184
  N  N341  1  0.539700  0.877020  0.139800  1.0  -0.3304
  N  N342  1  0.627900  0.647920  0.197100  1.0  -0.3426
  N  N343  1  0.771000  0.471800  0.002700  1.0  -0.3365
  N  N344  1  0.315000  0.453540  0.264600  1.0  -0.3255
  N  N345  1  0.635000  0.444260  0.453900  1.0  -0.3203
  N  N346  1  0.176200  0.419720  0.719500  1.0  -0.3189
  N  N347  1  0.460300  0.377020  0.360200  1.0  -0.3302
  N  N348  1  0.372100  0.147920  0.302900  1.0  -0.3446
  O  O349  1  0.407600  0.961620  0.692400  1.0  -0.8515
  O  O350  1  0.604760  0.951150  0.777440  1.0  -0.7914
  O  O351  1  0.490130  0.982410  0.858270  1.0  -0.7754
  O  O352  1  0.164900  0.814400  0.780200  1.0  -0.5507
  O  O353  1  0.186200  0.831400  0.642100  1.0  -0.5661
  O  O354  1  0.249800  0.765300  0.713000  1.0  -0.5515
  O  O355  1  0.549800  0.064180  0.489200  1.0  -0.8161
  O  O356  1  0.351200  0.060220  0.410820  1.0  -0.8012
  O  O357  1  0.431100  0.037310  0.572530  1.0  -0.7807
  O  O358  1  0.171600  0.205400  0.573800  1.0  -0.5462
  O  O359  1  0.151500  0.198200  0.429500  1.0  -0.5733
  O  O360  1  0.229000  0.256100  0.551000  1.0  -0.5589
  O  O361  1  0.240200  0.259800  0.478800  1.0  -0.5746
  O  O362  1  0.592400  0.461620  0.807600  1.0  -0.8531
  O  O363  1  0.395240  0.451150  0.722560  1.0  -0.7897
  O  O364  1  0.509870  0.482410  0.641730  1.0  -0.7772
  O  O365  1  0.835100  0.314400  0.719800  1.0  -0.5533
  O  O366  1  0.813800  0.331400  0.857900  1.0  -0.5662
  O  O367  1  0.750200  0.265300  0.787000  1.0  -0.552
  O  O368  1  0.450200  0.564180  0.010800  1.0  -0.8154
  O  O369  1  0.648800  0.560220  0.089180  1.0  -0.8009
  O  O370  1  0.568900  0.537310  0.927470  1.0  -0.7816
  O  O371  1  0.828400  0.705400  0.926200  1.0  -0.5481
  O  O372  1  0.848500  0.698200  0.070500  1.0  -0.5765
  O  O373  1  0.771000  0.756100  0.949000  1.0  -0.5622
  O  O374  1  0.759800  0.759800  0.021200  1.0  -0.5728
  O  O375  1  0.592400  0.038380  0.307600  1.0  -0.8526
  O  O376  1  0.395240  0.048850  0.222560  1.0  -0.7885
  O  O377  1  0.509870  0.017590  0.141730  1.0  -0.7781
  O  O378  1  0.835100  0.185600  0.219800  1.0  -0.5526
  O  O379  1  0.813800  0.168600  0.357900  1.0  -0.5662
  O  O380  1  0.750200  0.234700  0.287000  1.0  -0.554
  O  O381  1  0.450200  0.935820  0.510800  1.0  -0.8163
  O  O382  1  0.648800  0.939780  0.589180  1.0  -0.801
  O  O383  1  0.568900  0.962690  0.427470  1.0  -0.7819
  O  O384  1  0.828400  0.794600  0.426200  1.0  -0.5472
  O  O385  1  0.848500  0.801800  0.570500  1.0  -0.5768
  O  O386  1  0.771000  0.743900  0.449000  1.0  -0.5606
  O  O387  1  0.759800  0.740200  0.521200  1.0  -0.5729
  O  O388  1  0.407600  0.538380  0.192400  1.0  -0.8519
  O  O389  1  0.604760  0.548850  0.277440  1.0  -0.791
  O  O390  1  0.490130  0.517590  0.358270  1.0  -0.7753
  O  O391  1  0.164900  0.685600  0.280200  1.0  -0.5515
  O  O392  1  0.186200  0.668600  0.142100  1.0  -0.5669
  O  O393  1  0.249800  0.734700  0.213000  1.0  -0.5559
  O  O394  1  0.549800  0.435820  0.989200  1.0  -0.8166
  O  O395  1  0.351200  0.439780  0.910820  1.0  -0.8018
  O  O396  1  0.431100  0.462690  0.072530  1.0  -0.7811
  O  O397  1  0.171600  0.294600  0.073800  1.0  -0.5453
  O  O398  1  0.151500  0.301800  0.929500  1.0  -0.5734
  O  O399  1  0.229000  0.243900  0.051000  1.0  -0.5583
  O  O400  1  0.240200  0.240200  0.978800  1.0  -0.575
