# generated using pymatgen
data_ZnH4(CN)8
_symmetry_space_group_name_H-M   'P 1'
_cell_length_a   11.57130000
_cell_length_b   11.73600000
_cell_length_c   13.61900000
_cell_angle_alpha   92.86900000
_cell_angle_beta   114.44300000
_cell_angle_gamma   107.98800000
_symmetry_Int_Tables_number   1
_chemical_formula_structural   ZnH4(CN)8
_chemical_formula_sum   'Zn3 H12 C24 N24'
_cell_volume   1567.27131432
_cell_formula_units_Z   3
loop_
 _symmetry_equiv_pos_site_id
 _symmetry_equiv_pos_as_xyz
  1  'x, y, z'
loop_
 _atom_site_type_symbol
 _atom_site_label
 _atom_site_symmetry_multiplicity
 _atom_site_fract_x
 _atom_site_fract_y
 _atom_site_fract_z
 _atom_site_occupancy
 _atom_site_charge
  Zn  Zn1  1  0.104390  0.233920  0.953610  1.0  0.9382
  Zn  Zn2  1  0.895610  0.766080  0.046390  1.0  0.9406
  Zn  Zn3  1  0.000000  0.500000  0.000000  1.0  0.4384
  H  H4  1  0.672300  0.929300  0.025000  1.0  0.1082
  H  H5  1  0.119500  0.375400  0.575000  1.0  0.1115
  H  H6  1  0.351200  0.602300  0.437200  1.0  0.1047
  H  H7  1  0.907700  0.579100  0.594400  1.0  0.1027
  H  H8  1  0.513000  0.368300  0.377700  1.0  0.1084
  H  H9  1  0.519800  0.189800  0.961400  1.0  0.0999
  H  H10  1  0.327700  0.070700  0.975000  1.0  0.1065
  H  H11  1  0.880500  0.624600  0.425000  1.0  0.1119
  H  H12  1  0.648800  0.397700  0.562800  1.0  0.105
  H  H13  1  0.092300  0.420900  0.405600  1.0  0.1034
  H  H14  1  0.487000  0.631700  0.622300  1.0  0.1088
  H  H15  1  0.480200  0.810200  0.038600  1.0  0.0983
  C  C16  1  0.737000  0.150800  0.984200  1.0  0.36
  C  C17  1  0.027200  0.442200  0.708100  1.0  0.3517
  C  C18  1  0.329100  0.461300  0.267900  1.0  0.365
  C  C19  1  0.013700  0.471300  0.601400  1.0  -0.0684
  C  C20  1  0.418500  0.483000  0.387200  1.0  -0.0415
  C  C21  1  0.603200  0.959100  0.014600  1.0  -0.0793
  C  C22  1  0.070800  0.425300  0.545000  1.0  -0.0774
  C  C23  1  0.411400  0.561000  0.462200  1.0  -0.0771
  C  C24  1  0.944800  0.546400  0.556400  1.0  -0.0716
  C  C25  1  0.614600  0.072500  0.991200  1.0  -0.0461
  C  C26  1  0.507700  0.421900  0.427000  1.0  -0.083
  C  C27  1  0.512900  0.112500  0.977100  1.0  -0.0749
  C  C28  1  0.263000  0.849200  0.015800  1.0  0.3595
  C  C29  1  0.972800  0.557800  0.291900  1.0  0.3527
  C  C30  1  0.670900  0.538700  0.732100  1.0  0.364
  C  C31  1  0.986300  0.528700  0.398600  1.0  -0.0654
  C  C32  1  0.581500  0.517000  0.612800  1.0  -0.044
  C  C33  1  0.396800  0.040900  0.985400  1.0  -0.0788
  C  C34  1  0.929200  0.574700  0.455000  1.0  -0.0768
  C  C35  1  0.588600  0.439000  0.537800  1.0  -0.0762
  C  C36  1  0.055200  0.453600  0.443600  1.0  -0.0722
  C  C37  1  0.385400  0.927500  0.008800  1.0  -0.0414
  C  C38  1  0.492300  0.578100  0.573000  1.0  -0.0812
  C  C39  1  0.487100  0.887500  0.022900  1.0  -0.0729
  N  N40  1  0.301600  0.363700  0.195500  1.0  -0.3507
  N  N41  1  0.829700  0.112700  0.972200  1.0  -0.3749
  N  N42  1  0.055800  0.353200  0.842400  1.0  -0.1224
  N  N43  1  0.014100  0.510500  0.781000  1.0  -0.305
  N  N44  1  0.210000  0.374200  0.099800  1.0  -0.1329
  N  N45  1  0.032600  0.452700  0.864500  1.0  0.0463
  N  N46  1  0.920500  0.212900  0.970500  1.0  -0.1165
  N  N47  1  0.884700  0.307300  0.980700  1.0  0.0493
  N  N48  1  0.185100  0.474800  0.114200  1.0  0.0369
  N  N49  1  0.769100  0.271800  0.989300  1.0  -0.3216
  N  N50  1  0.053400  0.344000  0.743300  1.0  -0.3585
  N  N51  1  0.260100  0.532300  0.220200  1.0  -0.3169
  N  N52  1  0.698400  0.636300  0.804500  1.0  -0.3491
  N  N53  1  0.170300  0.887300  0.027800  1.0  -0.3753
  N  N54  1  0.944200  0.646800  0.157600  1.0  -0.1222
  N  N55  1  0.985900  0.489500  0.219000  1.0  -0.3041
  N  N56  1  0.790000  0.625800  0.900200  1.0  -0.1199
  N  N57  1  0.967400  0.547300  0.135500  1.0  0.0508
  N  N58  1  0.079500  0.787100  0.029500  1.0  -0.1192
  N  N59  1  0.115300  0.692700  0.019300  1.0  0.0487
  N  N60  1  0.814900  0.525200  0.885800  1.0  0.0373
  N  N61  1  0.230900  0.728200  0.010700  1.0  -0.3207
  N  N62  1  0.946600  0.656000  0.256700  1.0  -0.3553
  N  N63  1  0.739900  0.467700  0.779800  1.0  -0.3152
