# generated using pymatgen
data_CuH4(CN)8
_symmetry_space_group_name_H-M   'P 1'
_cell_length_a   22.24900000
_cell_length_b   7.05280000
_cell_length_c   13.57470000
_cell_angle_alpha   90.00000000
_cell_angle_beta   90.00000000
_cell_angle_gamma   90.00000000
_symmetry_Int_Tables_number   1
_chemical_formula_structural   CuH4(CN)8
_chemical_formula_sum   'Cu4 H16 C32 N32'
_cell_volume   2130.11134292
_cell_formula_units_Z   4
loop_
 _symmetry_equiv_pos_site_id
 _symmetry_equiv_pos_as_xyz
  1  'x, y, z'
loop_
 _atom_site_type_symbol
 _atom_site_label
 _atom_site_symmetry_multiplicity
 _atom_site_fract_x
 _atom_site_fract_y
 _atom_site_fract_z
 _atom_site_occupancy
 _atom_site_charge
  Cu  Cu1  1  0.500000  0.500000  0.500000  1.0  0.5422
  Cu  Cu2  1  0.000000  0.000000  0.000000  1.0  0.5422
  Cu  Cu3  1  0.500000  0.000000  0.500000  1.0  0.5422
  Cu  Cu4  1  0.000000  0.500000  0.000000  1.0  0.5422
  H  H5  1  0.295200  0.467000  0.709200  1.0  0.0986
  H  H6  1  0.795200  0.967000  0.209200  1.0  0.0986
  H  H7  1  0.704800  0.033000  0.709200  1.0  0.0987
  H  H8  1  0.204800  0.533000  0.209200  1.0  0.0987
  H  H9  1  0.704800  0.967000  0.290800  1.0  0.0978
  H  H10  1  0.204800  0.467000  0.790800  1.0  0.0978
  H  H11  1  0.295200  0.533000  0.290800  1.0  0.0977
  H  H12  1  0.795200  0.033000  0.790800  1.0  0.0978
  H  H13  1  0.704800  0.533000  0.290800  1.0  0.0983
  H  H14  1  0.204800  0.033000  0.790800  1.0  0.0983
  H  H15  1  0.295200  0.967000  0.290800  1.0  0.0985
  H  H16  1  0.795200  0.467000  0.790800  1.0  0.0985
  H  H17  1  0.295200  0.033000  0.709200  1.0  0.0985
  H  H18  1  0.795200  0.533000  0.209200  1.0  0.0981
  H  H19  1  0.704800  0.467000  0.709200  1.0  0.0982
  H  H20  1  0.204800  0.967000  0.209200  1.0  0.0986
  C  C21  1  0.277000  0.581800  0.725000  1.0  -0.0679
  C  C22  1  0.777000  0.081800  0.225000  1.0  -0.0679
  C  C23  1  0.723000  0.918200  0.725000  1.0  -0.0681
  C  C24  1  0.223000  0.418200  0.225000  1.0  -0.0681
  C  C25  1  0.723000  0.081800  0.275000  1.0  -0.0685
  C  C26  1  0.223000  0.581800  0.775000  1.0  -0.0697
  C  C27  1  0.277000  0.418200  0.275000  1.0  -0.0698
  C  C28  1  0.777000  0.918200  0.775000  1.0  -0.0698
  C  C29  1  0.723000  0.418200  0.275000  1.0  -0.0682
  C  C30  1  0.223000  0.918200  0.775000  1.0  -0.0682
  C  C31  1  0.277000  0.081800  0.275000  1.0  -0.0692
  C  C32  1  0.777000  0.581800  0.775000  1.0  -0.0685
  C  C33  1  0.277000  0.918200  0.725000  1.0  -0.0683
  C  C34  1  0.777000  0.418200  0.225000  1.0  -0.0688
  C  C35  1  0.723000  0.581800  0.725000  1.0  -0.068
  C  C36  1  0.223000  0.081800  0.225000  1.0  -0.068
  C  C37  1  0.360900  0.750000  0.641700  1.0  0.3453
  C  C38  1  0.304600  0.750000  0.698000  1.0  -0.0645
  C  C39  1  0.860900  0.250000  0.141700  1.0  0.3453
  C  C40  1  0.804600  0.250000  0.198000  1.0  -0.0645
  C  C41  1  0.639100  0.750000  0.641700  1.0  0.3452
  C  C42  1  0.695400  0.750000  0.698000  1.0  -0.0654
  C  C43  1  0.139100  0.250000  0.141700  1.0  0.3452
  C  C44  1  0.195400  0.250000  0.198000  1.0  -0.0654
  C  C45  1  0.639100  0.250000  0.358300  1.0  0.3465
  C  C46  1  0.695400  0.250000  0.302000  1.0  -0.065
  C  C47  1  0.139100  0.750000  0.858300  1.0  0.3465
  C  C48  1  0.195400  0.750000  0.802000  1.0  -0.065
  C  C49  1  0.360900  0.250000  0.358300  1.0  0.3464
  C  C50  1  0.304600  0.250000  0.302000  1.0  -0.0648
  C  C51  1  0.860900  0.750000  0.858300  1.0  0.3464
  C  C52  1  0.804600  0.750000  0.802000  1.0  -0.0648
  N  N53  1  0.436630  0.656200  0.565690  1.0  0.0135
  N  N54  1  0.389050  0.592900  0.612900  1.0  -0.3184
  N  N55  1  0.936630  0.156200  0.065690  1.0  0.0135
  N  N56  1  0.889050  0.092900  0.112900  1.0  -0.3184
  N  N57  1  0.563370  0.843800  0.565690  1.0  0.0151
  N  N58  1  0.610950  0.907100  0.612900  1.0  -0.3201
  N  N59  1  0.063370  0.343800  0.065690  1.0  0.0148
  N  N60  1  0.110950  0.407100  0.112900  1.0  -0.3201
  N  N61  1  0.563370  0.156200  0.434310  1.0  0.0126
  N  N62  1  0.610950  0.092900  0.387100  1.0  -0.3195
  N  N63  1  0.063370  0.656200  0.934310  1.0  0.0133
  N  N64  1  0.110950  0.592900  0.887100  1.0  -0.3195
  N  N65  1  0.436630  0.343800  0.434310  1.0  0.0126
  N  N66  1  0.389050  0.407100  0.387100  1.0  -0.3193
  N  N67  1  0.936630  0.843800  0.934310  1.0  0.0126
  N  N68  1  0.889050  0.907100  0.887100  1.0  -0.3193
  N  N69  1  0.563370  0.343800  0.434310  1.0  0.0138
  N  N70  1  0.610950  0.407100  0.387100  1.0  -0.3205
  N  N71  1  0.063370  0.843800  0.934310  1.0  0.0138
  N  N72  1  0.110950  0.907100  0.887100  1.0  -0.3205
  N  N73  1  0.436630  0.156200  0.434310  1.0  0.0127
  N  N74  1  0.389050  0.092900  0.387100  1.0  -0.3187
  N  N75  1  0.936630  0.656200  0.934310  1.0  0.0127
  N  N76  1  0.889050  0.592900  0.887100  1.0  -0.3187
  N  N77  1  0.436630  0.843800  0.565690  1.0  0.0142
  N  N78  1  0.389050  0.907100  0.612900  1.0  -0.3193
  N  N79  1  0.936630  0.343800  0.065690  1.0  0.0142
  N  N80  1  0.889050  0.407100  0.112900  1.0  -0.3193
  N  N81  1  0.563370  0.656200  0.565690  1.0  0.0143
  N  N82  1  0.610950  0.592900  0.612900  1.0  -0.3193
  N  N83  1  0.063370  0.156200  0.065690  1.0  0.0143
  N  N84  1  0.110950  0.092900  0.112900  1.0  -0.3193
