# generated using pymatgen
data_MnH2C4N4Cl
_symmetry_space_group_name_H-M   'P 1'
_cell_length_a   8.60300000
_cell_length_b   19.27740000
_cell_length_c   19.27740000
_cell_angle_alpha   62.17280000
_cell_angle_beta   81.44500000
_cell_angle_gamma   98.55500000
_symmetry_Int_Tables_number   1
_chemical_formula_structural   MnH2C4N4Cl
_chemical_formula_sum   'Mn6 H12 C24 N24 Cl6'
_cell_volume   2707.44030643
_cell_formula_units_Z   6
loop_
 _symmetry_equiv_pos_site_id
 _symmetry_equiv_pos_as_xyz
  1  'x, y, z'
loop_
 _atom_site_type_symbol
 _atom_site_label
 _atom_site_symmetry_multiplicity
 _atom_site_fract_x
 _atom_site_fract_y
 _atom_site_fract_z
 _atom_site_occupancy
 _atom_site_charge
  Mn  Mn1  1  0.221100  0.303230  0.279570  1.0  0.8936
  Mn  Mn2  1  0.500670  0.279570  0.417200  1.0  0.89
  Mn  Mn3  1  0.917870  0.417200  0.303230  1.0  0.8919
  Mn  Mn4  1  0.778900  0.696770  0.720430  1.0  0.8918
  Mn  Mn5  1  0.499330  0.720430  0.582800  1.0  0.8909
  Mn  Mn6  1  0.082130  0.582800  0.696770  1.0  0.8917
  H  H7  1  0.388500  0.363700  0.095000  1.0  0.1277
  H  H8  1  0.665300  0.583600  0.029300  1.0  0.1252
  H  H9  1  0.483500  0.095000  0.541300  1.0  0.1282
  H  H10  1  0.694600  0.029300  0.387100  1.0  0.1255
  H  H11  1  0.024800  0.541300  0.363700  1.0  0.1276
  H  H12  1  0.081700  0.387100  0.583600  1.0  0.1251
  H  H13  1  0.611500  0.636300  0.905000  1.0  0.1276
  H  H14  1  0.334700  0.416400  0.970700  1.0  0.1243
  H  H15  1  0.516500  0.905000  0.458700  1.0  0.1273
  H  H16  1  0.305400  0.970700  0.612900  1.0  0.1257
  H  H17  1  0.975200  0.458700  0.636300  1.0  0.1261
  H  H18  1  0.918300  0.612900  0.416400  1.0  0.1252
  C  C19  1  0.579900  0.436600  0.153500  1.0  0.3564
  C  C20  1  0.537800  0.468300  0.077800  1.0  0.0056
  C  C21  1  0.433500  0.418000  0.057200  1.0  -0.0922
  C  C22  1  0.599100  0.549600  0.017800  1.0  -0.0969
  C  C23  1  0.733400  0.153500  0.409900  1.0  0.3561
  C  C24  1  0.615600  0.077800  0.453900  1.0  0.0059
  C  C25  1  0.490700  0.057200  0.524800  1.0  -0.0964
  C  C26  1  0.616900  0.017800  0.432600  1.0  -0.095
  C  C27  1  0.143300  0.409900  0.436600  1.0  0.3554
  C  C28  1  0.069500  0.453900  0.468300  1.0  0.0059
  C  C29  1  0.015500  0.524800  0.418000  1.0  -0.0933
  C  C30  1  0.049500  0.432600  0.549600  1.0  -0.0972
  C  C31  1  0.420100  0.563400  0.846500  1.0  0.3563
  C  C32  1  0.462200  0.531700  0.922200  1.0  0.0058
  C  C33  1  0.566500  0.582000  0.942800  1.0  -0.0911
  C  C34  1  0.400900  0.450400  0.982200  1.0  -0.0958
  C  C35  1  0.266600  0.846500  0.590100  1.0  0.356
  C  C36  1  0.384400  0.922200  0.546100  1.0  0.0055
  C  C37  1  0.509300  0.942800  0.475200  1.0  -0.0945
  C  C38  1  0.383100  0.982200  0.567400  1.0  -0.0951
  C  C39  1  0.856700  0.590100  0.563400  1.0  0.3554
  C  C40  1  0.930500  0.546100  0.531700  1.0  0.0065
  C  C41  1  0.984500  0.475200  0.582000  1.0  -0.0934
  C  C42  1  0.950500  0.567400  0.450400  1.0  -0.0962
  N  N43  1  0.487000  0.374600  0.223800  1.0  -0.3496
  N  N44  1  0.576400  0.365800  0.278300  1.0  -0.1172
  N  N45  1  0.714700  0.419700  0.239200  1.0  -0.0721
  N  N46  1  0.722500  0.465300  0.162100  1.0  -0.2987
  N  N47  1  0.710800  0.223800  0.401600  1.0  -0.3493
  N  N48  1  0.854700  0.278300  0.355900  1.0  -0.119
  N  N49  1  0.953900  0.239200  0.341100  1.0  -0.0687
  N  N50  1  0.884600  0.162100  0.372600  1.0  -0.2992
  N  N51  1  0.112400  0.401600  0.374600  1.0  -0.3481
  N  N52  1  0.210600  0.355900  0.365800  1.0  -0.1163
  N  N53  1  0.295000  0.341100  0.419700  1.0  -0.0688
  N  N54  1  0.257200  0.372600  0.465300  1.0  -0.2961
  N  N55  1  0.513000  0.625400  0.776200  1.0  -0.3478
  N  N56  1  0.423600  0.634200  0.721700  1.0  -0.1165
  N  N57  1  0.285300  0.580300  0.760800  1.0  -0.0726
  N  N58  1  0.277500  0.534700  0.837900  1.0  -0.2986
  N  N59  1  0.289200  0.776200  0.598400  1.0  -0.3467
  N  N60  1  0.145300  0.721700  0.644100  1.0  -0.1193
  N  N61  1  0.046100  0.760800  0.658900  1.0  -0.0695
  N  N62  1  0.115400  0.837900  0.627400  1.0  -0.2992
  N  N63  1  0.887600  0.598400  0.625400  1.0  -0.3457
  N  N64  1  0.789400  0.644100  0.634200  1.0  -0.1164
  N  N65  1  0.705000  0.658900  0.580300  1.0  -0.0698
  N  N66  1  0.742800  0.627400  0.534700  1.0  -0.2969
  Cl  Cl67  1  0.119940  0.421520  0.191100  1.0  -0.4829
  Cl  Cl68  1  0.311040  0.191100  0.387380  1.0  -0.4833
  Cl  Cl69  1  0.698420  0.387380  0.421520  1.0  -0.4817
  Cl  Cl70  1  0.880060  0.578480  0.808900  1.0  -0.4835
  Cl  Cl71  1  0.688960  0.808900  0.612620  1.0  -0.4829
  Cl  Cl72  1  0.301580  0.612620  0.578480  1.0  -0.483
