# generated using pymatgen
data_MnH4(CN)8
_symmetry_space_group_name_H-M   'P 1'
_cell_length_a   11.69300000
_cell_length_b   11.99400000
_cell_length_c   13.75300000
_cell_angle_alpha   92.97000000
_cell_angle_beta   114.36000000
_cell_angle_gamma   108.35400000
_symmetry_Int_Tables_number   1
_chemical_formula_structural   MnH4(CN)8
_chemical_formula_sum   'Mn3 H12 C24 N24'
_cell_volume   1630.46121610
_cell_formula_units_Z   3
loop_
 _symmetry_equiv_pos_site_id
 _symmetry_equiv_pos_as_xyz
  1  'x, y, z'
loop_
 _atom_site_type_symbol
 _atom_site_label
 _atom_site_symmetry_multiplicity
 _atom_site_fract_x
 _atom_site_fract_y
 _atom_site_fract_z
 _atom_site_occupancy
 _atom_site_charge
  Mn  Mn1  1  0.892600  0.271540  0.046430  1.0  0.9909
  Mn  Mn2  1  0.107400  0.728460  0.953570  1.0  0.988
  Mn  Mn3  1  0.000000  0.000000  0.000000  1.0  0.6998
  H  H4  1  0.323200  0.561600  0.962500  1.0  0.0802
  H  H5  1  0.489800  0.318200  0.051400  1.0  0.1132
  H  H6  1  0.886400  0.126200  0.429800  1.0  0.1127
  H  H7  1  0.097800  0.929300  0.407900  1.0  0.0991
  H  H8  1  0.641000  0.894000  0.563200  1.0  0.1022
  H  H9  1  0.490900  0.131600  0.622000  1.0  0.1025
  H  H10  1  0.676800  0.438400  0.037500  1.0  0.0813
  H  H11  1  0.510200  0.681800  0.948600  1.0  0.1148
  H  H12  1  0.113600  0.873800  0.570200  1.0  0.1116
  H  H13  1  0.902200  0.070700  0.592100  1.0  0.0983
  H  H14  1  0.359000  0.106000  0.436800  1.0  0.1025
  H  H15  1  0.509100  0.868400  0.378000  1.0  0.1019
  C  C16  1  0.266500  0.351100  0.018500  1.0  0.3564
  C  C17  1  0.386500  0.429400  0.010000  1.0  -0.048
  C  C18  1  0.395200  0.536200  0.978400  1.0  -0.0706
  C  C19  1  0.493200  0.391500  0.031100  1.0  -0.104
  C  C20  1  0.974300  0.060600  0.296200  1.0  0.3502
  C  C21  1  0.988600  0.030800  0.401000  1.0  -0.0881
  C  C22  1  0.931600  0.075000  0.457600  1.0  -0.088
  C  C23  1  0.057700  0.957500  0.444500  1.0  -0.0917
  C  C24  1  0.671300  0.039600  0.730100  1.0  0.3564
  C  C25  1  0.581300  0.017000  0.612800  1.0  -0.0715
  C  C26  1  0.584800  0.937200  0.538500  1.0  -0.0725
  C  C27  1  0.495300  0.078600  0.573200  1.0  -0.0865
  C  C28  1  0.733500  0.648900  0.981500  1.0  0.3571
  C  C29  1  0.613500  0.570600  0.990000  1.0  -0.0485
  C  C30  1  0.604800  0.463800  0.021600  1.0  -0.0713
  C  C31  1  0.506800  0.608500  0.968900  1.0  -0.1045
  C  C32  1  0.025700  0.939400  0.703800  1.0  0.3506
  C  C33  1  0.011400  0.969200  0.599000  1.0  -0.0942
  C  C34  1  0.068400  0.925000  0.542400  1.0  -0.0856
  C  C35  1  0.942300  0.042500  0.555500  1.0  -0.0916
  C  C36  1  0.328700  0.960400  0.269900  1.0  0.3569
  C  C37  1  0.418700  0.983000  0.387200  1.0  -0.0709
  C  C38  1  0.415200  0.062800  0.461500  1.0  -0.0727
  C  C39  1  0.504700  0.921400  0.426800  1.0  -0.0871
  N  N40  1  0.175200  0.388600  0.029000  1.0  -0.3869
  N  N41  1  0.083100  0.289200  0.030700  1.0  -0.1466
  N  N42  1  0.119100  0.196800  0.021200  1.0  0.0973
  N  N43  1  0.234100  0.233900  0.013400  1.0  -0.329
  N  N44  1  0.985600  0.993400  0.222500  1.0  -0.3195
  N  N45  1  0.965600  0.050700  0.139600  1.0  0.0727
  N  N46  1  0.945500  0.149300  0.163000  1.0  -0.1687
  N  N47  1  0.949100  0.157600  0.261200  1.0  -0.3385
  N  N48  1  0.697300  0.133500  0.801700  1.0  -0.3499
  N  N49  1  0.787500  0.124300  0.896200  1.0  -0.1762
  N  N50  1  0.812700  0.026200  0.880900  1.0  0.0847
  N  N51  1  0.738900  0.969800  0.776500  1.0  -0.3268
  N  N52  1  0.824800  0.611400  0.971000  1.0  -0.3865
  N  N53  1  0.916900  0.710800  0.969300  1.0  -0.1467
  N  N54  1  0.880900  0.803200  0.978800  1.0  0.0984
  N  N55  1  0.765900  0.766100  0.986600  1.0  -0.3293
  N  N56  1  0.014400  0.006600  0.777500  1.0  -0.3197
  N  N57  1  0.034400  0.949300  0.860400  1.0  0.0742
  N  N58  1  0.054500  0.850700  0.837000  1.0  -0.1694
  N  N59  1  0.050900  0.842400  0.738800  1.0  -0.3383
  N  N60  1  0.302700  0.866500  0.198300  1.0  -0.3515
  N  N61  1  0.212500  0.875700  0.103800  1.0  -0.182
  N  N62  1  0.187300  0.973800  0.119100  1.0  0.0844
  N  N63  1  0.261100  0.030200  0.223500  1.0  -0.3256
