# generated using pymatgen
data_Ni3H12(C11O8)2
_symmetry_space_group_name_H-M   'P 1'
_cell_length_a   13.96660000
_cell_length_b   15.93020000
_cell_length_c   16.64790000
_cell_angle_alpha   90.00000000
_cell_angle_beta   90.00000000
_cell_angle_gamma   90.00000000
_symmetry_Int_Tables_number   1
_chemical_formula_structural   Ni3H12(C11O8)2
_chemical_formula_sum   'Ni12 H48 C88 O64'
_cell_volume   3704.00344594
_cell_formula_units_Z   4
loop_
 _symmetry_equiv_pos_site_id
 _symmetry_equiv_pos_as_xyz
  1  'x, y, z'
loop_
 _atom_site_type_symbol
 _atom_site_label
 _atom_site_symmetry_multiplicity
 _atom_site_fract_x
 _atom_site_fract_y
 _atom_site_fract_z
 _atom_site_occupancy
 _atom_site_charge
  Ni  Ni1  1  0.520020  0.682410  0.893660  1.0  0.9872
  Ni  Ni2  1  0.979980  0.317590  0.393660  1.0  0.9854
  Ni  Ni3  1  0.479980  0.182410  0.606340  1.0  0.9871
  Ni  Ni4  1  0.020020  0.817590  0.106340  1.0  0.9869
  Ni  Ni5  1  0.479980  0.317590  0.106340  1.0  0.9861
  Ni  Ni6  1  0.020020  0.682410  0.606340  1.0  0.9874
  Ni  Ni7  1  0.520020  0.817590  0.393660  1.0  0.9862
  Ni  Ni8  1  0.979980  0.182410  0.893660  1.0  0.9869
  Ni  Ni9  1  0.500000  0.500000  0.000000  1.0  1.1089
  Ni  Ni10  1  0.000000  0.500000  0.500000  1.0  1.1089
  Ni  Ni11  1  0.500000  0.000000  0.500000  1.0  1.1089
  Ni  Ni12  1  0.000000  0.000000  0.000000  1.0  1.1089
  H  H13  1  0.763400  0.599300  0.760500  1.0  0.1373
  H  H14  1  0.932400  0.397200  0.720700  1.0  0.131
  H  H15  1  0.754600  0.400900  0.912900  1.0  0.1415
  H  H16  1  0.350200  0.710700  0.117500  1.0  0.1631
  H  H17  1  0.455100  0.741500  0.142600  1.0  0.1761
  H  H18  1  0.430500  0.643400  0.140900  1.0  0.1636
  H  H19  1  0.736600  0.400700  0.260500  1.0  0.1374
  H  H20  1  0.567600  0.602800  0.220700  1.0  0.1299
  H  H21  1  0.745400  0.599100  0.412900  1.0  0.142
  H  H22  1  0.149800  0.289300  0.617500  1.0  0.1622
  H  H23  1  0.044900  0.258500  0.642600  1.0  0.1763
  H  H24  1  0.069500  0.356600  0.640900  1.0  0.163
  H  H25  1  0.236600  0.099300  0.739500  1.0  0.1373
  H  H26  1  0.067600  0.897200  0.779300  1.0  0.1306
  H  H27  1  0.245400  0.900900  0.587100  1.0  0.1392
  H  H28  1  0.649800  0.210700  0.382500  1.0  0.1616
  H  H29  1  0.544900  0.241500  0.357400  1.0  0.1776
  H  H30  1  0.569500  0.143400  0.359100  1.0  0.1642
  H  H31  1  0.263400  0.900700  0.239500  1.0  0.1374
  H  H32  1  0.432400  0.102800  0.279300  1.0  0.1309
  H  H33  1  0.254600  0.099100  0.087100  1.0  0.1405
  H  H34  1  0.850200  0.789300  0.882500  1.0  0.1632
  H  H35  1  0.955100  0.758500  0.857400  1.0  0.1775
  H  H36  1  0.930500  0.856600  0.859100  1.0  0.1636
  H  H37  1  0.236600  0.400700  0.239500  1.0  0.1376
  H  H38  1  0.067600  0.602800  0.279300  1.0  0.13
  H  H39  1  0.245400  0.599100  0.087100  1.0  0.1411
  H  H40  1  0.649800  0.289300  0.882500  1.0  0.1619
  H  H41  1  0.544900  0.258500  0.857400  1.0  0.1772
  H  H42  1  0.569500  0.356600  0.859100  1.0  0.1635
  H  H43  1  0.263400  0.599300  0.739500  1.0  0.1371
  H  H44  1  0.432400  0.397200  0.779300  1.0  0.1314
  H  H45  1  0.254600  0.400900  0.587100  1.0  0.1387
  H  H46  1  0.850200  0.710700  0.382500  1.0  0.1628
  H  H47  1  0.955100  0.741500  0.357400  1.0  0.1772
  H  H48  1  0.930500  0.643400  0.359100  1.0  0.1642
  H  H49  1  0.763400  0.900700  0.260500  1.0  0.1373
  H  H50  1  0.932400  0.102800  0.220700  1.0  0.1304
  H  H51  1  0.754600  0.099100  0.412900  1.0  0.141
  H  H52  1  0.350200  0.789300  0.617500  1.0  0.1635
  H  H53  1  0.455100  0.758500  0.642600  1.0  0.1768
  H  H54  1  0.430500  0.856600  0.640900  1.0  0.1632
  H  H55  1  0.736600  0.099300  0.760500  1.0  0.1374
  H  H56  1  0.567600  0.897200  0.720700  1.0  0.1298
  H  H57  1  0.745400  0.900900  0.912900  1.0  0.1408
  H  H58  1  0.149800  0.210700  0.117500  1.0  0.1618
  H  H59  1  0.044900  0.241500  0.142600  1.0  0.1763
  H  H60  1  0.069500  0.143400  0.140900  1.0  0.1634
  C  C61  1  0.742700  0.503640  0.840520  1.0  -0.1201
  C  C62  1  0.784200  0.544600  0.774930  1.0  0.0144
  C  C63  1  0.855600  0.505400  0.730910  1.0  -0.1144
  C  C64  1  0.886700  0.425610  0.753040  1.0  0.0288
  C  C65  1  0.851400  0.387200  0.821920  1.0  -0.1124
  C  C66  1  0.779100  0.426680  0.865680  1.0  -0.0582
  C  C67  1  0.656800  0.540600  0.882600  1.0  0.7144
  C  C68  1  0.902500  0.546320  0.659490  1.0  0.724
  C  C69  1  0.893700  0.305500  0.849500  1.0  0.663
  C  C70  1  0.449700  0.693200  0.028300  1.0  0.7633
  C  C71  1  0.418600  0.697600  0.114900  1.0  -0.4281
  C  C72  1  0.757300  0.496360  0.340520  1.0  -0.1204
  C  C73  1  0.715800  0.455400  0.274930  1.0  0.0158
  C  C74  1  0.644400  0.494600  0.230910  1.0  -0.1152
  C  C75  1  0.613300  0.574390  0.253040  1.0  0.0289
  C  C76  1  0.648600  0.612800  0.321920  1.0  -0.112
  C  C77  1  0.720900  0.573320  0.365680  1.0  -0.0632
  C  C78  1  0.843200  0.459400  0.382600  1.0  0.7149
  C  C79  1  0.597500  0.453680  0.159490  1.0  0.7246
  C  C80  1  0.606300  0.694500  0.349500  1.0  0.6643
  C  C81  1  0.050300  0.306800  0.528300  1.0  0.7634
  C  C82  1  0.081400  0.302400  0.614900  1.0  -0.4297
  C  C83  1  0.257300  0.003640  0.659480  1.0  -0.1208
  C  C84  1  0.215800  0.044600  0.725070  1.0  0.0146
  C  C85  1  0.144400  0.005400  0.769090  1.0  -0.1146
  C  C86  1  0.113300  0.925610  0.746960  1.0  0.0284
  C  C87  1  0.148600  0.887200  0.678080  1.0  -0.1126
  C  C88  1  0.220900  0.926680  0.634320  1.0  -0.0595
  C  C89  1  0.343200  0.040600  0.617400  1.0  0.7157
  C  C90  1  0.097500  0.046320  0.840510  1.0  0.7251
  C  C91  1  0.106300  0.805500  0.650500  1.0  0.6626
  C  C92  1  0.550300  0.193200  0.471700  1.0  0.7611
  C  C93  1  0.581400  0.197600  0.385100  1.0  -0.4269
  C  C94  1  0.242700  0.996360  0.159480  1.0  -0.1207
  C  C95  1  0.284200  0.955400  0.225070  1.0  0.0147
  C  C96  1  0.355600  0.994600  0.269090  1.0  -0.1144
  C  C97  1  0.386700  0.074390  0.246960  1.0  0.0297
  C  C98  1  0.351400  0.112800  0.178080  1.0  -0.1124
  C  C99  1  0.279100  0.073320  0.134320  1.0  -0.059
  C  C100  1  0.156800  0.959400  0.117400  1.0  0.7137
  C  C101  1  0.402500  0.953680  0.340510  1.0  0.7244
  C  C102  1  0.393700  0.194500  0.150500  1.0  0.6621
  C  C103  1  0.949700  0.806800  0.971700  1.0  0.7567
  C  C104  1  0.918600  0.802400  0.885100  1.0  -0.4272
  C  C105  1  0.257300  0.496360  0.159480  1.0  -0.1208
  C  C106  1  0.215800  0.455400  0.225070  1.0  0.0153
  C  C107  1  0.144400  0.494600  0.269090  1.0  -0.1147
  C  C108  1  0.113300  0.574390  0.246960  1.0  0.0289
  C  C109  1  0.148600  0.612800  0.178080  1.0  -0.112
  C  C110  1  0.220900  0.573320  0.134320  1.0  -0.0597
  C  C111  1  0.343200  0.459400  0.117400  1.0  0.7146
  C  C112  1  0.097500  0.453680  0.340510  1.0  0.7254
  C  C113  1  0.106300  0.694500  0.150500  1.0  0.6634
  C  C114  1  0.550300  0.306800  0.971700  1.0  0.7619
  C  C115  1  0.581400  0.302400  0.885100  1.0  -0.4302
  C  C116  1  0.242700  0.503640  0.659480  1.0  -0.1201
  C  C117  1  0.284200  0.544600  0.725070  1.0  0.014
  C  C118  1  0.355600  0.505400  0.769090  1.0  -0.1142
  C  C119  1  0.386700  0.425610  0.746960  1.0  0.0291
  C  C120  1  0.351400  0.387200  0.678080  1.0  -0.1125
  C  C121  1  0.279100  0.426680  0.634320  1.0  -0.0588
  C  C122  1  0.156800  0.540600  0.617400  1.0  0.7143
  C  C123  1  0.402500  0.546320  0.840510  1.0  0.7244
  C  C124  1  0.393700  0.305500  0.650500  1.0  0.6624
  C  C125  1  0.949700  0.693200  0.471700  1.0  0.7563
  C  C126  1  0.918600  0.697600  0.385100  1.0  -0.4285
  C  C127  1  0.742700  0.996360  0.340520  1.0  -0.1205
  C  C128  1  0.784200  0.955400  0.274930  1.0  0.0151
  C  C129  1  0.855600  0.994600  0.230910  1.0  -0.115
  C  C130  1  0.886700  0.074390  0.253040  1.0  0.0296
  C  C131  1  0.851400  0.112800  0.321920  1.0  -0.1125
  C  C132  1  0.779100  0.073320  0.365680  1.0  -0.0584
  C  C133  1  0.656800  0.959400  0.382600  1.0  0.714
  C  C134  1  0.902500  0.953680  0.159490  1.0  0.7237
  C  C135  1  0.893700  0.194500  0.349500  1.0  0.6635
  C  C136  1  0.449700  0.806800  0.528300  1.0  0.7637
  C  C137  1  0.418600  0.802400  0.614900  1.0  -0.4263
  C  C138  1  0.757300  0.003640  0.840520  1.0  -0.1206
  C  C139  1  0.715800  0.044600  0.774930  1.0  0.0149
  C  C140  1  0.644400  0.005400  0.730910  1.0  -0.1147
  C  C141  1  0.613300  0.925610  0.753040  1.0  0.0282
  C  C142  1  0.648600  0.887200  0.821920  1.0  -0.1124
  C  C143  1  0.720900  0.926680  0.865680  1.0  -0.063
  C  C144  1  0.843200  0.040600  0.882600  1.0  0.7159
  C  C145  1  0.597500  0.046320  0.659490  1.0  0.7244
  C  C146  1  0.606300  0.805500  0.849500  1.0  0.6637
  C  C147  1  0.050300  0.193200  0.028300  1.0  0.7629
  C  C148  1  0.081400  0.197600  0.114900  1.0  -0.4272
  O  O149  1  0.631810  0.505840  0.947170  1.0  -0.5741
  O  O150  1  0.617050  0.602060  0.848150  1.0  -0.569
  O  O151  1  0.906420  0.625840  0.658640  1.0  -0.5495
  O  O152  1  0.936220  0.496630  0.608510  1.0  -0.596
  O  O153  1  0.956060  0.270440  0.805480  1.0  -0.5274
  O  O154  1  0.869940  0.274490  0.915830  1.0  -0.5152
  O  O155  1  0.502150  0.631330  0.004610  1.0  -0.6671
  O  O156  1  0.430620  0.749910  0.979810  1.0  -0.5246
  O  O157  1  0.868190  0.494160  0.447170  1.0  -0.5745
  O  O158  1  0.882950  0.397940  0.348150  1.0  -0.5705
  O  O159  1  0.593580  0.374160  0.158640  1.0  -0.5497
  O  O160  1  0.563780  0.503370  0.108510  1.0  -0.5959
  O  O161  1  0.543940  0.729560  0.305480  1.0  -0.5276
  O  O162  1  0.630060  0.725510  0.415830  1.0  -0.5163
  O  O163  1  0.997850  0.368670  0.504610  1.0  -0.6677
  O  O164  1  0.069380  0.250090  0.479810  1.0  -0.5241
  O  O165  1  0.368190  0.005840  0.552830  1.0  -0.575
  O  O166  1  0.382950  0.102060  0.651850  1.0  -0.5698
  O  O167  1  0.093580  0.125840  0.841360  1.0  -0.5487
  O  O168  1  0.063780  0.996630  0.891490  1.0  -0.5966
  O  O169  1  0.043940  0.770440  0.694520  1.0  -0.5283
  O  O170  1  0.130060  0.774490  0.584170  1.0  -0.5137
  O  O171  1  0.497850  0.131330  0.495390  1.0  -0.6686
  O  O172  1  0.569380  0.249910  0.520190  1.0  -0.5265
  O  O173  1  0.131810  0.994160  0.052830  1.0  -0.5745
  O  O174  1  0.117050  0.897940  0.151850  1.0  -0.57
  O  O175  1  0.406420  0.874160  0.341360  1.0  -0.5506
  O  O176  1  0.436220  0.003370  0.391490  1.0  -0.5956
  O  O177  1  0.456060  0.229560  0.194520  1.0  -0.5274
  O  O178  1  0.369940  0.225510  0.084170  1.0  -0.5126
  O  O179  1  0.002150  0.868670  0.995390  1.0  -0.6658
  O  O180  1  0.930620  0.750090  0.020190  1.0  -0.5237
  O  O181  1  0.368190  0.494160  0.052830  1.0  -0.5752
  O  O182  1  0.382950  0.397940  0.151850  1.0  -0.5706
  O  O183  1  0.093580  0.374160  0.341360  1.0  -0.5502
  O  O184  1  0.063780  0.503370  0.391490  1.0  -0.5961
  O  O185  1  0.043940  0.729560  0.194520  1.0  -0.5283
  O  O186  1  0.130060  0.725510  0.084170  1.0  -0.5137
  O  O187  1  0.497850  0.368670  0.995390  1.0  -0.6675
  O  O188  1  0.569380  0.250090  0.020190  1.0  -0.5241
  O  O189  1  0.131810  0.505840  0.552830  1.0  -0.5742
  O  O190  1  0.117050  0.602060  0.651850  1.0  -0.5692
  O  O191  1  0.406420  0.625840  0.841360  1.0  -0.5501
  O  O192  1  0.436220  0.496630  0.891490  1.0  -0.5962
  O  O193  1  0.456060  0.270440  0.694520  1.0  -0.528
  O  O194  1  0.369940  0.274490  0.584170  1.0  -0.5124
  O  O195  1  0.002150  0.631330  0.495390  1.0  -0.6669
  O  O196  1  0.930620  0.749910  0.520190  1.0  -0.5257
  O  O197  1  0.631810  0.994160  0.447170  1.0  -0.5738
  O  O198  1  0.617050  0.897940  0.348150  1.0  -0.5699
  O  O199  1  0.906420  0.874160  0.158640  1.0  -0.5498
  O  O200  1  0.936220  0.003370  0.108510  1.0  -0.5959
  O  O201  1  0.956060  0.229560  0.305480  1.0  -0.5282
  O  O202  1  0.869940  0.225510  0.415830  1.0  -0.5159
  O  O203  1  0.502150  0.868670  0.504610  1.0  -0.6657
  O  O204  1  0.430620  0.750090  0.479810  1.0  -0.5224
  O  O205  1  0.868190  0.005840  0.947170  1.0  -0.5747
  O  O206  1  0.882950  0.102060  0.848150  1.0  -0.5699
  O  O207  1  0.593580  0.125840  0.658640  1.0  -0.5484
  O  O208  1  0.563780  0.996630  0.608510  1.0  -0.5962
  O  O209  1  0.543940  0.770440  0.805480  1.0  -0.5285
  O  O210  1  0.630060  0.774490  0.915830  1.0  -0.516
  O  O211  1  0.997850  0.131330  0.004610  1.0  -0.6686
  O  O212  1  0.069380  0.249910  0.979810  1.0  -0.5255
