# generated using pymatgen
data_Ni3H12(C11O8)2
_symmetry_space_group_name_H-M   'P 1'
_cell_length_a   14.06360000
_cell_length_b   15.91520000
_cell_length_c   16.58580000
_cell_angle_alpha   90.00000000
_cell_angle_beta   90.00000000
_cell_angle_gamma   90.00000000
_symmetry_Int_Tables_number   1
_chemical_formula_structural   Ni3H12(C11O8)2
_chemical_formula_sum   'Ni12 H48 C88 O64'
_cell_volume   3712.31679646
_cell_formula_units_Z   4
loop_
 _symmetry_equiv_pos_site_id
 _symmetry_equiv_pos_as_xyz
  1  'x, y, z'
loop_
 _atom_site_type_symbol
 _atom_site_label
 _atom_site_symmetry_multiplicity
 _atom_site_fract_x
 _atom_site_fract_y
 _atom_site_fract_z
 _atom_site_occupancy
 _atom_site_charge
  Ni  Ni1  1  0.479040  0.817490  0.393360  1.0  0.9807
  Ni  Ni2  1  0.020960  0.182510  0.893360  1.0  0.9813
  Ni  Ni3  1  0.520960  0.317490  0.106640  1.0  0.9818
  Ni  Ni4  1  0.979040  0.682510  0.606640  1.0  0.9815
  Ni  Ni5  1  0.520960  0.182510  0.606640  1.0  0.9815
  Ni  Ni6  1  0.979040  0.817490  0.106640  1.0  0.9814
  Ni  Ni7  1  0.479040  0.682510  0.893360  1.0  0.9812
  Ni  Ni8  1  0.020960  0.317490  0.393360  1.0  0.9812
  Ni  Ni9  1  0.500000  0.000000  0.500000  1.0  1.1102
  Ni  Ni10  1  0.000000  0.000000  0.000000  1.0  1.1102
  Ni  Ni11  1  0.500000  0.500000  0.000000  1.0  1.1102
  Ni  Ni12  1  0.000000  0.500000  0.500000  1.0  1.1102
  H  H13  1  0.245900  0.098600  0.413100  1.0  0.1322
  H  H14  1  0.068200  0.102300  0.221800  1.0  0.1345
  H  H15  1  0.237400  0.900500  0.260400  1.0  0.1381
  H  H16  1  0.649400  0.788700  0.616500  1.0  0.1667
  H  H17  1  0.545200  0.758800  0.642500  1.0  0.1736
  H  H18  1  0.570600  0.856700  0.640700  1.0  0.1679
  H  H19  1  0.254100  0.901400  0.913100  1.0  0.1315
  H  H20  1  0.431800  0.897700  0.721800  1.0  0.1346
  H  H21  1  0.262600  0.099500  0.760400  1.0  0.1379
  H  H22  1  0.850600  0.211300  0.116500  1.0  0.1665
  H  H23  1  0.954800  0.241200  0.142500  1.0  0.1729
  H  H24  1  0.929400  0.143300  0.140700  1.0  0.168
  H  H25  1  0.754100  0.598600  0.086900  1.0  0.1311
  H  H26  1  0.931800  0.602300  0.278200  1.0  0.1351
  H  H27  1  0.762600  0.400500  0.239600  1.0  0.1382
  H  H28  1  0.350600  0.288700  0.883500  1.0  0.1667
  H  H29  1  0.454800  0.258800  0.857500  1.0  0.1746
  H  H30  1  0.429400  0.356700  0.859300  1.0  0.1683
  H  H31  1  0.745900  0.401400  0.586900  1.0  0.1319
  H  H32  1  0.568200  0.397700  0.778200  1.0  0.1348
  H  H33  1  0.737400  0.599500  0.739600  1.0  0.1381
  H  H34  1  0.149400  0.711300  0.383500  1.0  0.1655
  H  H35  1  0.045200  0.741200  0.357500  1.0  0.1745
  H  H36  1  0.070600  0.643300  0.359300  1.0  0.1689
  H  H37  1  0.754100  0.901400  0.586900  1.0  0.1313
  H  H38  1  0.931800  0.897700  0.778200  1.0  0.1354
  H  H39  1  0.762600  0.099500  0.739600  1.0  0.1379
  H  H40  1  0.350600  0.211300  0.383500  1.0  0.166
  H  H41  1  0.454800  0.241200  0.357500  1.0  0.1739
  H  H42  1  0.429400  0.143300  0.359300  1.0  0.1691
  H  H43  1  0.745900  0.098600  0.086900  1.0  0.1316
  H  H44  1  0.568200  0.102300  0.278200  1.0  0.1349
  H  H45  1  0.737400  0.900500  0.239600  1.0  0.138
  H  H46  1  0.149400  0.788700  0.883500  1.0  0.1664
  H  H47  1  0.045200  0.758800  0.857500  1.0  0.1743
  H  H48  1  0.070600  0.856700  0.859300  1.0  0.1681
  H  H49  1  0.245900  0.401400  0.913100  1.0  0.1325
  H  H50  1  0.068200  0.397700  0.721800  1.0  0.1344
  H  H51  1  0.237400  0.599500  0.760400  1.0  0.138
  H  H52  1  0.649400  0.711300  0.116500  1.0  0.1662
  H  H53  1  0.545200  0.741200  0.142500  1.0  0.1732
  H  H54  1  0.570600  0.643300  0.140700  1.0  0.1677
  H  H55  1  0.254100  0.598600  0.413100  1.0  0.1316
  H  H56  1  0.431800  0.602300  0.221800  1.0  0.1344
  H  H57  1  0.262600  0.400500  0.260400  1.0  0.1381
  H  H58  1  0.850600  0.288700  0.616500  1.0  0.1669
  H  H59  1  0.954800  0.258800  0.642500  1.0  0.1739
  H  H60  1  0.929400  0.356700  0.640700  1.0  0.1681
  C  C61  1  0.257000  0.995500  0.341180  1.0  -0.127
  C  C62  1  0.221000  0.072750  0.366040  1.0  -0.0113
  C  C63  1  0.149000  0.112700  0.322730  1.0  -0.1241
  C  C64  1  0.113800  0.073830  0.254080  1.0  0.0325
  C  C65  1  0.144000  0.993500  0.231440  1.0  -0.1181
  C  C66  1  0.216000  0.954910  0.275400  1.0  0.0161
  C  C67  1  0.343400  0.959280  0.382550  1.0  0.7082
  C  C68  1  0.107300  0.193820  0.349700  1.0  0.6653
  C  C69  1  0.096200  0.953170  0.159540  1.0  0.7364
  C  C70  1  0.581500  0.802400  0.614500  1.0  -0.4692
  C  C71  1  0.549900  0.807150  0.528100  1.0  0.7597
  C  C72  1  0.243000  0.004500  0.841180  1.0  -0.1267
  C  C73  1  0.279000  0.927250  0.866040  1.0  -0.0112
  C  C74  1  0.351000  0.887300  0.822730  1.0  -0.124
  C  C75  1  0.386200  0.926170  0.754080  1.0  0.0327
  C  C76  1  0.356000  0.006500  0.731440  1.0  -0.1177
  C  C77  1  0.284000  0.045090  0.775400  1.0  0.0154
  C  C78  1  0.156600  0.040720  0.882550  1.0  0.7076
  C  C79  1  0.392700  0.806180  0.849700  1.0  0.6662
  C  C80  1  0.403800  0.046830  0.659540  1.0  0.7354
  C  C81  1  0.918500  0.197600  0.114500  1.0  -0.4704
  C  C82  1  0.950100  0.192850  0.028100  1.0  0.759
  C  C83  1  0.743000  0.495500  0.158820  1.0  -0.1269
  C  C84  1  0.779000  0.572750  0.133960  1.0  -0.0103
  C  C85  1  0.851000  0.612700  0.177270  1.0  -0.1241
  C  C86  1  0.886200  0.573830  0.245920  1.0  0.0334
  C  C87  1  0.856000  0.493500  0.268560  1.0  -0.1177
  C  C88  1  0.784000  0.454910  0.224600  1.0  0.0157
  C  C89  1  0.656600  0.459280  0.117450  1.0  0.7078
  C  C90  1  0.892700  0.693820  0.150300  1.0  0.6651
  C  C91  1  0.903800  0.453170  0.340460  1.0  0.7358
  C  C92  1  0.418500  0.302400  0.885500  1.0  -0.4708
  C  C93  1  0.450100  0.307150  0.971900  1.0  0.7584
  C  C94  1  0.757000  0.504500  0.658820  1.0  -0.1268
  C  C95  1  0.721000  0.427250  0.633960  1.0  -0.0103
  C  C96  1  0.649000  0.387300  0.677270  1.0  -0.1248
  C  C97  1  0.613800  0.426170  0.745920  1.0  0.0324
  C  C98  1  0.644000  0.506500  0.768560  1.0  -0.1175
  C  C99  1  0.716000  0.545090  0.724600  1.0  0.0159
  C  C100  1  0.843400  0.540720  0.617450  1.0  0.7078
  C  C101  1  0.607300  0.306180  0.650300  1.0  0.6651
  C  C102  1  0.596200  0.546830  0.840460  1.0  0.7359
  C  C103  1  0.081500  0.697600  0.385500  1.0  -0.4701
  C  C104  1  0.049900  0.692850  0.471900  1.0  0.7579
  C  C105  1  0.743000  0.004500  0.658820  1.0  -0.1263
  C  C106  1  0.779000  0.927250  0.633960  1.0  -0.0103
  C  C107  1  0.851000  0.887300  0.677270  1.0  -0.1242
  C  C108  1  0.886200  0.926170  0.745920  1.0  0.0331
  C  C109  1  0.856000  0.006500  0.768560  1.0  -0.1176
  C  C110  1  0.784000  0.045090  0.724600  1.0  0.0154
  C  C111  1  0.656600  0.040720  0.617450  1.0  0.7074
  C  C112  1  0.892700  0.806180  0.650300  1.0  0.6654
  C  C113  1  0.903800  0.046830  0.840460  1.0  0.7352
  C  C114  1  0.418500  0.197600  0.385500  1.0  -0.4691
  C  C115  1  0.450100  0.192850  0.471900  1.0  0.758
  C  C116  1  0.757000  0.995500  0.158820  1.0  -0.127
  C  C117  1  0.721000  0.072750  0.133960  1.0  -0.0103
  C  C118  1  0.649000  0.112700  0.177270  1.0  -0.1242
  C  C119  1  0.613800  0.073830  0.245920  1.0  0.0327
  C  C120  1  0.644000  0.993500  0.268560  1.0  -0.1176
  C  C121  1  0.716000  0.954910  0.224600  1.0  0.0161
  C  C122  1  0.843400  0.959280  0.117450  1.0  0.7078
  C  C123  1  0.607300  0.193820  0.150300  1.0  0.6644
  C  C124  1  0.596200  0.953170  0.340460  1.0  0.7366
  C  C125  1  0.081500  0.802400  0.885500  1.0  -0.4688
  C  C126  1  0.049900  0.807150  0.971900  1.0  0.7583
  C  C127  1  0.257000  0.504500  0.841180  1.0  -0.127
  C  C128  1  0.221000  0.427250  0.866040  1.0  -0.0111
  C  C129  1  0.149000  0.387300  0.822730  1.0  -0.1245
  C  C130  1  0.113800  0.426170  0.754080  1.0  0.0321
  C  C131  1  0.144000  0.506500  0.731440  1.0  -0.1176
  C  C132  1  0.216000  0.545090  0.775400  1.0  0.0159
  C  C133  1  0.343400  0.540720  0.882550  1.0  0.7082
  C  C134  1  0.107300  0.306180  0.849700  1.0  0.6659
  C  C135  1  0.096200  0.546830  0.659540  1.0  0.7358
  C  C136  1  0.581500  0.697600  0.114500  1.0  -0.4684
  C  C137  1  0.549900  0.692850  0.028100  1.0  0.7589
  C  C138  1  0.243000  0.495500  0.341180  1.0  -0.1272
  C  C139  1  0.279000  0.572750  0.366040  1.0  -0.0112
  C  C140  1  0.351000  0.612700  0.322730  1.0  -0.1241
  C  C141  1  0.386200  0.573830  0.254080  1.0  0.0332
  C  C142  1  0.356000  0.493500  0.231440  1.0  -0.1182
  C  C143  1  0.284000  0.454910  0.275400  1.0  0.0157
  C  C144  1  0.156600  0.459280  0.382550  1.0  0.7079
  C  C145  1  0.392700  0.693820  0.349700  1.0  0.666
  C  C146  1  0.403800  0.453170  0.159540  1.0  0.7356
  C  C147  1  0.918500  0.302400  0.614500  1.0  -0.4679
  C  C148  1  0.950100  0.307150  0.528100  1.0  0.7595
  O  O149  1  0.368930  0.994420  0.446790  1.0  -0.573
  O  O150  1  0.382010  0.897340  0.348180  1.0  -0.5673
  O  O151  1  0.130470  0.224700  0.416590  1.0  -0.5196
  O  O152  1  0.044970  0.228770  0.305380  1.0  -0.5224
  O  O153  1  0.064090  0.002610  0.108900  1.0  -0.5877
  O  O154  1  0.091410  0.873680  0.159820  1.0  -0.5555
  O  O155  1  0.568260  0.750210  0.479810  1.0  -0.523
  O  O156  1  0.497630  0.868600  0.505110  1.0  -0.6694
  O  O157  1  0.131070  0.005580  0.946790  1.0  -0.5732
  O  O158  1  0.117990  0.102660  0.848180  1.0  -0.5665
  O  O159  1  0.369530  0.775300  0.916590  1.0  -0.5183
  O  O160  1  0.455030  0.771230  0.805380  1.0  -0.5228
  O  O161  1  0.435910  0.997390  0.608900  1.0  -0.5883
  O  O162  1  0.408590  0.126320  0.659820  1.0  -0.5549
  O  O163  1  0.931740  0.249790  0.979810  1.0  -0.523
  O  O164  1  0.002370  0.131400  0.005110  1.0  -0.6696
  O  O165  1  0.631070  0.494420  0.053210  1.0  -0.5733
  O  O166  1  0.617990  0.397340  0.151820  1.0  -0.5672
  O  O167  1  0.869530  0.724700  0.083410  1.0  -0.515
  O  O168  1  0.955030  0.728770  0.194620  1.0  -0.5225
  O  O169  1  0.935910  0.502610  0.391100  1.0  -0.5884
  O  O170  1  0.908590  0.373680  0.340180  1.0  -0.5569
  O  O171  1  0.431740  0.250210  0.020190  1.0  -0.5228
  O  O172  1  0.502370  0.368600  0.994890  1.0  -0.6689
  O  O173  1  0.868930  0.505580  0.553210  1.0  -0.5733
  O  O174  1  0.882010  0.602660  0.651820  1.0  -0.5672
  O  O175  1  0.630470  0.275300  0.583410  1.0  -0.5159
  O  O176  1  0.544970  0.271230  0.694620  1.0  -0.523
  O  O177  1  0.564090  0.497390  0.891100  1.0  -0.5877
  O  O178  1  0.591410  0.626320  0.840180  1.0  -0.5546
  O  O179  1  0.068260  0.749790  0.520190  1.0  -0.5242
  O  O180  1  0.997630  0.631400  0.494890  1.0  -0.6703
  O  O181  1  0.631070  0.005580  0.553210  1.0  -0.573
  O  O182  1  0.617990  0.102660  0.651820  1.0  -0.5667
  O  O183  1  0.869530  0.775300  0.583410  1.0  -0.5147
  O  O184  1  0.955030  0.771230  0.694620  1.0  -0.523
  O  O185  1  0.935910  0.997390  0.891100  1.0  -0.5884
  O  O186  1  0.908590  0.126320  0.840180  1.0  -0.5562
  O  O187  1  0.431740  0.249790  0.520190  1.0  -0.5237
  O  O188  1  0.502370  0.131400  0.494890  1.0  -0.6698
  O  O189  1  0.868930  0.994420  0.053210  1.0  -0.5735
  O  O190  1  0.882010  0.897340  0.151820  1.0  -0.5675
  O  O191  1  0.630470  0.224700  0.083410  1.0  -0.5164
  O  O192  1  0.544970  0.228770  0.194620  1.0  -0.5228
  O  O193  1  0.564090  0.002610  0.391100  1.0  -0.5879
  O  O194  1  0.591410  0.873680  0.340180  1.0  -0.5565
  O  O195  1  0.068260  0.750210  0.020190  1.0  -0.5234
  O  O196  1  0.997630  0.868600  0.994890  1.0  -0.6695
  O  O197  1  0.368930  0.505580  0.946790  1.0  -0.5732
  O  O198  1  0.382010  0.602660  0.848180  1.0  -0.5672
  O  O199  1  0.130470  0.275300  0.916590  1.0  -0.5198
  O  O200  1  0.044970  0.271230  0.805380  1.0  -0.5231
  O  O201  1  0.064090  0.497390  0.608900  1.0  -0.5874
  O  O202  1  0.091410  0.626320  0.659820  1.0  -0.5541
  O  O203  1  0.568260  0.749790  0.979810  1.0  -0.5237
  O  O204  1  0.497630  0.631400  0.005110  1.0  -0.6702
  O  O205  1  0.131070  0.494420  0.446790  1.0  -0.5729
  O  O206  1  0.117990  0.397340  0.348180  1.0  -0.5668
  O  O207  1  0.369530  0.724700  0.416590  1.0  -0.5194
  O  O208  1  0.455030  0.728770  0.305380  1.0  -0.5227
  O  O209  1  0.435910  0.502610  0.108900  1.0  -0.5884
  O  O210  1  0.408590  0.373680  0.159820  1.0  -0.5556
  O  O211  1  0.931740  0.250210  0.479810  1.0  -0.5225
  O  O212  1  0.002370  0.368600  0.505110  1.0  -0.6687
