# generated using pymatgen
data_Fe3H72Au4(C2N)32
_symmetry_space_group_name_H-M   'P 1'
_cell_length_a   14.83440000
_cell_length_b   19.06820000
_cell_length_c   19.06820000
_cell_angle_alpha   111.28900000
_cell_angle_beta   108.11800000
_cell_angle_gamma   71.88170000
_symmetry_Int_Tables_number   1
_chemical_formula_structural   Fe3H72Au4(C2N)32
_chemical_formula_sum   'Fe6 H144 Au8 C128 N64'
_cell_volume   4655.47437279
_cell_formula_units_Z   2
loop_
 _symmetry_equiv_pos_site_id
 _symmetry_equiv_pos_as_xyz
  1  'x, y, z'
loop_
 _atom_site_type_symbol
 _atom_site_label
 _atom_site_symmetry_multiplicity
 _atom_site_fract_x
 _atom_site_fract_y
 _atom_site_fract_z
 _atom_site_occupancy
 _atom_site_charge
  Fe  Fe1  1  0.375890  0.392140  0.048580  1.0  0.4452
  Fe  Fe2  1  0.624110  0.048580  0.392140  1.0  0.4395
  Fe  Fe3  1  0.624110  0.607860  0.951420  1.0  0.4385
  Fe  Fe4  1  0.375890  0.951420  0.607860  1.0  0.4409
  Fe  Fe5  1  0.500000  0.500000  0.000000  1.0  0.2679
  Fe  Fe6  1  0.500000  0.000000  0.500000  1.0  0.2676
  H  H7  1  0.303600  0.569700  0.894700  1.0  0.1088
  H  H8  1  0.176800  0.448700  0.947700  1.0  0.1024
  H  H9  1  0.121000  0.456500  0.761100  1.0  0.0953
  H  H10  1  0.164400  0.521300  0.759500  1.0  0.0766
  H  H11  1  0.099400  0.663900  0.929700  1.0  0.0936
  H  H12  1  0.150800  0.649300  0.863300  1.0  0.0767
  H  H13  1  0.649500  0.347600  0.932400  1.0  0.1078
  H  H14  1  0.523800  0.236900  0.999500  1.0  0.1053
  H  H15  1  0.745900  0.164200  0.026800  1.0  0.0998
  H  H16  1  0.651000  0.131900  0.985900  1.0  0.0834
  H  H17  1  0.898500  0.024100  0.902900  1.0  0.0576
  H  H18  1  0.747500  0.237200  0.880200  1.0  0.0891
  H  H19  1  0.804800  0.228300  0.962100  1.0  0.0905
  H  H20  1  0.568000  0.590600  0.177400  1.0  0.1034
  H  H21  1  0.440300  0.467700  0.225900  1.0  0.1022
  H  H22  1  0.480200  0.529500  0.353500  1.0  0.0764
  H  H23  1  0.578200  0.469700  0.339500  1.0  0.0843
  H  H24  1  0.737300  0.490900  0.436100  1.0  0.0808
  H  H25  1  0.682000  0.589400  0.294400  1.0  0.0934
  H  H26  1  0.702600  0.506600  0.303200  1.0  0.0831
  H  H27  1  0.879800  0.434800  0.817400  1.0  0.0941
  H  H28  1  0.777300  0.655500  0.904300  1.0  0.1021
  H  H29  1  0.920000  0.679100  0.903100  1.0  0.0678
  H  H30  1  0.855000  0.675900  0.819500  1.0  0.0764
  H  H31  1  0.991400  0.724900  0.836300  1.0  0.0745
  H  H32  1  0.052200  0.636900  0.725100  1.0  0.0684
  H  H33  1  0.938600  0.647200  0.706800  1.0  0.0691
  H  H34  1  0.012400  0.518500  0.669300  1.0  0.0774
  H  H35  1  0.943500  0.469400  0.734400  1.0  0.0852
  H  H36  1  0.868600  0.541100  0.711500  1.0  0.0842
  H  H37  1  0.039000  0.480200  0.866800  1.0  0.0743
  H  H38  1  0.031300  0.559700  0.932100  1.0  0.091
  H  H39  1  0.696400  0.894700  0.569700  1.0  0.1095
  H  H40  1  0.823200  0.947700  0.448700  1.0  0.1027
  H  H41  1  0.879000  0.761100  0.456500  1.0  0.0961
  H  H42  1  0.835600  0.759500  0.521300  1.0  0.0713
  H  H43  1  0.900600  0.929700  0.663900  1.0  0.0928
  H  H44  1  0.849200  0.863300  0.649300  1.0  0.0811
  H  H45  1  0.350500  0.932400  0.347600  1.0  0.1085
  H  H46  1  0.476200  0.999500  0.236900  1.0  0.1058
  H  H47  1  0.254100  0.026800  0.164200  1.0  0.0977
  H  H48  1  0.349000  0.985900  0.131900  1.0  0.083
  H  H49  1  0.101500  0.902900  0.024100  1.0  0.0653
  H  H50  1  0.252500  0.880200  0.237200  1.0  0.0869
  H  H51  1  0.195200  0.962100  0.228300  1.0  0.0921
  H  H52  1  0.432000  0.177400  0.590600  1.0  0.1035
  H  H53  1  0.559700  0.225900  0.467700  1.0  0.1021
  H  H54  1  0.519800  0.353500  0.529500  1.0  0.0791
  H  H55  1  0.421800  0.339500  0.469700  1.0  0.0838
  H  H56  1  0.262700  0.436100  0.490900  1.0  0.08
  H  H57  1  0.318000  0.294400  0.589400  1.0  0.0918
  H  H58  1  0.297400  0.303200  0.506600  1.0  0.0842
  H  H59  1  0.120200  0.817400  0.434800  1.0  0.0982
  H  H60  1  0.222700  0.904300  0.655500  1.0  0.1046
  H  H61  1  0.080000  0.903100  0.679100  1.0  0.0667
  H  H62  1  0.145000  0.819500  0.675900  1.0  0.0798
  H  H63  1  0.008600  0.836300  0.724900  1.0  0.0718
  H  H64  1  0.947800  0.725100  0.636900  1.0  0.0646
  H  H65  1  0.061400  0.706800  0.647200  1.0  0.0697
  H  H66  1  0.987600  0.669300  0.518500  1.0  0.082
  H  H67  1  0.056500  0.734400  0.469400  1.0  0.0824
  H  H68  1  0.131400  0.711500  0.541100  1.0  0.0897
  H  H69  1  0.961000  0.866800  0.480200  1.0  0.0726
  H  H70  1  0.968700  0.932100  0.559700  1.0  0.0887
  H  H71  1  0.696400  0.430300  0.105300  1.0  0.1085
  H  H72  1  0.823200  0.551300  0.052300  1.0  0.1019
  H  H73  1  0.879000  0.543500  0.238900  1.0  0.0947
  H  H74  1  0.835600  0.478700  0.240500  1.0  0.0769
  H  H75  1  0.900600  0.336100  0.070300  1.0  0.0933
  H  H76  1  0.849200  0.350700  0.136700  1.0  0.0755
  H  H77  1  0.350500  0.652400  0.067600  1.0  0.1084
  H  H78  1  0.476200  0.763100  0.000500  1.0  0.1044
  H  H79  1  0.254100  0.835800  0.973200  1.0  0.0979
  H  H80  1  0.349000  0.868100  0.014100  1.0  0.0818
  H  H81  1  0.101500  0.975900  0.097100  1.0  0.0614
  H  H82  1  0.252500  0.762800  0.119800  1.0  0.0906
  H  H83  1  0.195200  0.771700  0.037900  1.0  0.092
  H  H84  1  0.432000  0.409400  0.822600  1.0  0.1036
  H  H85  1  0.559700  0.532300  0.774100  1.0  0.1022
  H  H86  1  0.519800  0.470500  0.646500  1.0  0.0796
  H  H87  1  0.421800  0.530300  0.660500  1.0  0.0857
  H  H88  1  0.262700  0.509100  0.563900  1.0  0.0829
  H  H89  1  0.318000  0.410600  0.705600  1.0  0.0934
  H  H90  1  0.297400  0.493400  0.696800  1.0  0.0798
  H  H91  1  0.120200  0.565200  0.182600  1.0  0.094
  H  H92  1  0.222700  0.344500  0.095700  1.0  0.104
  H  H93  1  0.080000  0.320900  0.096900  1.0  0.0681
  H  H94  1  0.145000  0.324100  0.180500  1.0  0.077
  H  H95  1  0.008600  0.275100  0.163700  1.0  0.0739
  H  H96  1  0.947800  0.363100  0.274900  1.0  0.0697
  H  H97  1  0.061400  0.352800  0.293200  1.0  0.0677
  H  H98  1  0.987600  0.481500  0.330700  1.0  0.0758
  H  H99  1  0.056500  0.530600  0.265600  1.0  0.0835
  H  H100  1  0.131400  0.458900  0.288500  1.0  0.0845
  H  H101  1  0.961000  0.519800  0.133200  1.0  0.0767
  H  H102  1  0.968700  0.440300  0.067900  1.0  0.0905
  H  H103  1  0.303600  0.105300  0.430300  1.0  0.1088
  H  H104  1  0.176800  0.052300  0.551300  1.0  0.1024
  H  H105  1  0.121000  0.238900  0.543500  1.0  0.0989
  H  H106  1  0.164400  0.240500  0.478700  1.0  0.0723
  H  H107  1  0.099400  0.070300  0.336100  1.0  0.0943
  H  H108  1  0.150800  0.136700  0.350700  1.0  0.0784
  H  H109  1  0.649500  0.067600  0.652400  1.0  0.1074
  H  H110  1  0.523800  0.000500  0.763100  1.0  0.1055
  H  H111  1  0.745900  0.973200  0.835800  1.0  0.0979
  H  H112  1  0.651000  0.014100  0.868100  1.0  0.0848
  H  H113  1  0.898500  0.097100  0.975900  1.0  0.0662
  H  H114  1  0.747500  0.119800  0.762800  1.0  0.0879
  H  H115  1  0.804800  0.037900  0.771700  1.0  0.0907
  H  H116  1  0.568000  0.822600  0.409400  1.0  0.1028
  H  H117  1  0.440300  0.774100  0.532300  1.0  0.102
  H  H118  1  0.480200  0.646500  0.470500  1.0  0.0762
  H  H119  1  0.578200  0.660500  0.530300  1.0  0.0855
  H  H120  1  0.737300  0.563900  0.509100  1.0  0.0782
  H  H121  1  0.682000  0.705600  0.410600  1.0  0.0917
  H  H122  1  0.702600  0.696800  0.493400  1.0  0.0837
  H  H123  1  0.879800  0.182600  0.565200  1.0  0.0983
  H  H124  1  0.777300  0.095700  0.344500  1.0  0.1056
  H  H125  1  0.920000  0.096900  0.320900  1.0  0.0686
  H  H126  1  0.855000  0.180500  0.324100  1.0  0.0785
  H  H127  1  0.991400  0.163700  0.275100  1.0  0.0722
  H  H128  1  0.052200  0.274900  0.363100  1.0  0.0654
  H  H129  1  0.938600  0.293200  0.352800  1.0  0.0705
  H  H130  1  0.012400  0.330700  0.481500  1.0  0.0842
  H  H131  1  0.943500  0.265600  0.530600  1.0  0.0831
  H  H132  1  0.868600  0.288500  0.458900  1.0  0.0878
  H  H133  1  0.039000  0.133200  0.519800  1.0  0.0734
  H  H134  1  0.031300  0.067900  0.440300  1.0  0.0899
  H  H135  1  0.789500  0.027900  0.972100  1.0  0.0727
  H  H136  1  0.885100  0.133400  0.866600  1.0  0.0663
  H  H137  1  0.594700  0.186500  0.813500  1.0  0.088
  H  H138  1  0.557500  0.145900  0.854100  1.0  0.0856
  H  H139  1  0.210500  0.972100  0.027900  1.0  0.0709
  H  H140  1  0.114900  0.866600  0.133400  1.0  0.0678
  H  H141  1  0.405300  0.813500  0.186500  1.0  0.0881
  H  H142  1  0.442500  0.854100  0.145900  1.0  0.0848
  H  H143  1  0.587900  0.525300  0.474700  1.0  0.0786
  H  H144  1  0.789900  0.585200  0.414800  1.0  0.0805
  H  H145  1  0.522900  0.684900  0.315100  1.0  0.0868
  H  H146  1  0.446000  0.661400  0.338600  1.0  0.0954
  H  H147  1  0.412100  0.474700  0.525300  1.0  0.0793
  H  H148  1  0.210100  0.414800  0.585200  1.0  0.0833
  H  H149  1  0.477100  0.315100  0.684900  1.0  0.0868
  H  H150  1  0.554000  0.338600  0.661400  1.0  0.0909
  Au  Au151  1  0.673770  0.314810  0.301610  1.0  0.1487
  Au  Au152  1  0.326230  0.301610  0.314810  1.0  0.1496
  Au  Au153  1  0.326230  0.685190  0.698400  1.0  0.1494
  Au  Au154  1  0.673770  0.698400  0.685190  1.0  0.1495
  Au  Au155  1  0.280410  0.165490  0.834510  1.0  0.1649
  Au  Au156  1  0.719590  0.834510  0.165490  1.0  0.1648
  Au  Au157  1  0.500000  0.225020  0.225020  1.0  0.1641
  Au  Au158  1  0.500000  0.774980  0.774980  1.0  0.1642
  C  C159  1  0.293000  0.536880  0.915920  1.0  0.1348
  C  C160  1  0.223300  0.470480  0.945120  1.0  0.1171
  C  C161  1  0.112200  0.551500  0.857500  1.0  0.2516
  C  C162  1  0.111800  0.511800  0.772400  1.0  -0.2199
  C  C163  1  0.098400  0.638700  0.875300  1.0  -0.2421
  C  C164  1  0.607900  0.336510  0.952690  1.0  0.1171
  C  C165  1  0.538500  0.275660  0.989140  1.0  0.114
  C  C166  1  0.676500  0.191070  0.924330  1.0  0.2418
  C  C167  1  0.707900  0.139710  0.977290  1.0  -0.2533
  C  C168  1  0.766600  0.203690  0.912710  1.0  -0.2521
  C  C169  1  0.533100  0.555430  0.172170  1.0  0.1317
  C  C170  1  0.462600  0.488300  0.198900  1.0  0.1185
  C  C171  1  0.549200  0.524000  0.359400  1.0  -0.2819
  C  C172  1  0.672600  0.560730  0.323470  1.0  -0.257
  C  C173  1  0.563800  0.570110  0.314690  1.0  0.2651
  C  C174  1  0.842700  0.481300  0.842100  1.0  0.1656
  C  C175  1  0.786900  0.601960  0.889240  1.0  0.1079
  C  C176  1  0.932400  0.567600  0.829000  1.0  0.2585
  C  C177  1  0.917700  0.654700  0.848300  1.0  -0.2182
  C  C178  1  0.000300  0.669200  0.826200  1.0  0.0016
  C  C179  1  0.999800  0.627400  0.738400  1.0  -0.2231
  C  C180  1  0.012700  0.544500  0.724100  1.0  0.0646
  C  C181  1  0.931300  0.524700  0.743500  1.0  -0.2132
  C  C182  1  0.030300  0.535310  0.877490  1.0  -0.2294
  C  C183  1  0.294000  0.257160  0.925040  1.0  -0.0067
  C  C184  1  0.456200  0.290250  0.155750  1.0  0.0558
  C  C185  1  0.687300  0.326800  0.206600  1.0  0.0373
  C  C186  1  0.664900  0.309970  0.401830  1.0  0.0858
  C  C187  1  0.707000  0.915920  0.536880  1.0  0.1349
  C  C188  1  0.776700  0.945120  0.470480  1.0  0.1184
  C  C189  1  0.887800  0.857500  0.551500  1.0  0.2522
  C  C190  1  0.888200  0.772400  0.511800  1.0  -0.2227
  C  C191  1  0.901600  0.875300  0.638700  1.0  -0.2374
  C  C192  1  0.392100  0.952690  0.336510  1.0  0.1178
  C  C193  1  0.461500  0.989140  0.275660  1.0  0.1149
  C  C194  1  0.323500  0.924330  0.191070  1.0  0.239
  C  C195  1  0.292100  0.977290  0.139710  1.0  -0.2626
  C  C196  1  0.233400  0.912710  0.203690  1.0  -0.2572
  C  C197  1  0.466900  0.172170  0.555430  1.0  0.1323
  C  C198  1  0.537400  0.198900  0.488300  1.0  0.1193
  C  C199  1  0.450800  0.359400  0.524000  1.0  -0.2692
  C  C200  1  0.327400  0.323470  0.560730  1.0  -0.2603
  C  C201  1  0.436200  0.314690  0.570110  1.0  0.268
  C  C202  1  0.157300  0.842100  0.481300  1.0  0.1706
  C  C203  1  0.213100  0.889240  0.601960  1.0  0.1093
  C  C204  1  0.067600  0.829000  0.567600  1.0  0.2564
  C  C205  1  0.082300  0.848300  0.654700  1.0  -0.219
  C  C206  1  0.999700  0.826200  0.669200  1.0  0.0022
  C  C207  1  0.000200  0.738400  0.627400  1.0  -0.2206
  C  C208  1  0.987300  0.724100  0.544500  1.0  0.0629
  C  C209  1  0.068700  0.743500  0.524700  1.0  -0.2098
  C  C210  1  0.969700  0.877490  0.535310  1.0  -0.2329
  C  C211  1  0.706000  0.925040  0.257160  1.0  -0.0084
  C  C212  1  0.543800  0.155750  0.290250  1.0  0.0553
  C  C213  1  0.312700  0.206600  0.326800  1.0  0.0344
  C  C214  1  0.335100  0.401830  0.309970  1.0  0.0878
  C  C215  1  0.707000  0.463120  0.084080  1.0  0.1351
  C  C216  1  0.776700  0.529520  0.054880  1.0  0.1169
  C  C217  1  0.887800  0.448500  0.142500  1.0  0.2522
  C  C218  1  0.888200  0.488200  0.227600  1.0  -0.225
  C  C219  1  0.901600  0.361300  0.124700  1.0  -0.2397
  C  C220  1  0.392100  0.663490  0.047310  1.0  0.1173
  C  C221  1  0.461500  0.724340  0.010860  1.0  0.1147
  C  C222  1  0.323500  0.808930  0.075670  1.0  0.2378
  C  C223  1  0.292100  0.860290  0.022710  1.0  -0.2541
  C  C224  1  0.233400  0.796310  0.087290  1.0  -0.2503
  C  C225  1  0.466900  0.444570  0.827830  1.0  0.1312
  C  C226  1  0.537400  0.511700  0.801100  1.0  0.1189
  C  C227  1  0.450800  0.476000  0.640600  1.0  -0.2829
  C  C228  1  0.327400  0.439270  0.676530  1.0  -0.2583
  C  C229  1  0.436200  0.429890  0.685310  1.0  0.2657
  C  C230  1  0.157300  0.518700  0.157900  1.0  0.1633
  C  C231  1  0.213100  0.398040  0.110760  1.0  0.1074
  C  C232  1  0.067600  0.432400  0.171000  1.0  0.2562
  C  C233  1  0.082300  0.345300  0.151700  1.0  -0.2161
  C  C234  1  0.999700  0.330800  0.173800  1.0  0.0007
  C  C235  1  0.000200  0.372600  0.261600  1.0  -0.2229
  C  C236  1  0.987300  0.455500  0.275900  1.0  0.0641
  C  C237  1  0.068700  0.475300  0.256500  1.0  -0.214
  C  C238  1  0.969700  0.464690  0.122510  1.0  -0.2331
  C  C239  1  0.706000  0.742840  0.074960  1.0  -0.0066
  C  C240  1  0.543800  0.709750  0.844250  1.0  0.0588
  C  C241  1  0.312700  0.673200  0.793400  1.0  0.0366
  C  C242  1  0.335100  0.690030  0.598170  1.0  0.0859
  C  C243  1  0.293000  0.084080  0.463120  1.0  0.1345
  C  C244  1  0.223300  0.054880  0.529520  1.0  0.1206
  C  C245  1  0.112200  0.142500  0.448500  1.0  0.252
  C  C246  1  0.111800  0.227600  0.488200  1.0  -0.2209
  C  C247  1  0.098400  0.124700  0.361300  1.0  -0.238
  C  C248  1  0.607900  0.047310  0.663490  1.0  0.1173
  C  C249  1  0.538500  0.010860  0.724340  1.0  0.1143
  C  C250  1  0.676500  0.075670  0.808930  1.0  0.2372
  C  C251  1  0.707900  0.022710  0.860290  1.0  -0.2576
  C  C252  1  0.766600  0.087290  0.796310  1.0  -0.2578
  C  C253  1  0.533100  0.827830  0.444570  1.0  0.1323
  C  C254  1  0.462600  0.801100  0.511700  1.0  0.1182
  C  C255  1  0.549200  0.640600  0.476000  1.0  -0.2669
  C  C256  1  0.672600  0.676530  0.439270  1.0  -0.256
  C  C257  1  0.563800  0.685310  0.429890  1.0  0.2689
  C  C258  1  0.842700  0.157900  0.518700  1.0  0.1727
  C  C259  1  0.786900  0.110760  0.398040  1.0  0.1102
  C  C260  1  0.932400  0.171000  0.432400  1.0  0.2584
  C  C261  1  0.917700  0.151700  0.345300  1.0  -0.2194
  C  C262  1  0.000300  0.173800  0.330800  1.0  0.0015
  C  C263  1  0.999800  0.261600  0.372600  1.0  -0.2216
  C  C264  1  0.012700  0.275900  0.455500  1.0  0.0651
  C  C265  1  0.931300  0.256500  0.475300  1.0  -0.2156
  C  C266  1  0.030300  0.122510  0.464690  1.0  -0.2318
  C  C267  1  0.294000  0.074960  0.742840  1.0  -0.0114
  C  C268  1  0.456200  0.844250  0.709750  1.0  0.0552
  C  C269  1  0.687300  0.793400  0.673200  1.0  0.0329
  C  C270  1  0.664900  0.598170  0.690030  1.0  0.0862
  C  C271  1  0.769400  0.061300  0.938700  1.0  0.0573
  C  C272  1  0.859400  0.073400  0.926600  1.0  -0.1668
  C  C273  1  0.827400  0.125400  0.874600  1.0  0.0918
  C  C274  1  0.615200  0.153400  0.846600  1.0  -0.2564
  C  C275  1  0.230600  0.938700  0.061300  1.0  0.0551
  C  C276  1  0.140600  0.926600  0.073400  1.0  -0.1663
  C  C277  1  0.172600  0.874600  0.125400  1.0  0.0937
  C  C278  1  0.384800  0.846600  0.153400  1.0  -0.251
  C  C279  1  0.597400  0.554500  0.445500  1.0  0.0422
  C  C280  1  0.706800  0.545100  0.454900  1.0  -0.1964
  C  C281  1  0.720300  0.590800  0.409200  1.0  0.0887
  C  C282  1  0.515000  0.655600  0.344400  1.0  -0.2391
  C  C283  1  0.402600  0.445500  0.554500  1.0  0.0428
  C  C284  1  0.293200  0.454900  0.545100  1.0  -0.1995
  C  C285  1  0.279700  0.409200  0.590800  1.0  0.0883
  C  C286  1  0.485000  0.344400  0.655600  1.0  -0.2371
  N  N287  1  0.315400  0.456970  0.979750  1.0  -0.2768
  N  N288  1  0.489500  0.347760  0.002580  1.0  -0.2764
  N  N289  1  0.443900  0.470850  0.123170  1.0  -0.2134
  N  N290  1  0.735900  0.564340  0.901880  1.0  -0.1867
  N  N291  1  0.315300  0.310860  0.973540  1.0  -0.363
  N  N292  1  0.430200  0.328210  0.115590  1.0  -0.3224
  N  N293  1  0.360300  0.499070  0.961170  1.0  -0.1914
  N  N294  1  0.206000  0.520940  0.904860  1.0  -0.0265
  N  N295  1  0.534300  0.386700  0.980620  1.0  -0.2062
  N  N296  1  0.613500  0.266260  0.958080  1.0  -0.0346
  N  N297  1  0.490100  0.513030  0.105750  1.0  -0.224
  N  N298  1  0.519100  0.540430  0.231390  1.0  -0.0301
  N  N299  1  0.772000  0.486890  0.872110  1.0  -0.2806
  N  N300  1  0.855300  0.551680  0.851320  1.0  -0.0549
  N  N301  1  0.693000  0.337890  0.152910  1.0  -0.4743
  N  N302  1  0.664100  0.308890  0.460910  1.0  -0.416
  N  N303  1  0.684600  0.979750  0.456970  1.0  -0.2738
  N  N304  1  0.510500  0.002580  0.347760  1.0  -0.2744
  N  N305  1  0.556100  0.123170  0.470850  1.0  -0.2117
  N  N306  1  0.264100  0.901880  0.564340  1.0  -0.1858
  N  N307  1  0.684700  0.973540  0.310860  1.0  -0.3699
  N  N308  1  0.569800  0.115590  0.328210  1.0  -0.3211
  N  N309  1  0.639700  0.961170  0.499070  1.0  -0.1916
  N  N310  1  0.794000  0.904860  0.520940  1.0  -0.0275
  N  N311  1  0.465700  0.980620  0.386700  1.0  -0.2063
  N  N312  1  0.386500  0.958080  0.266260  1.0  -0.0368
  N  N313  1  0.509900  0.105750  0.513030  1.0  -0.225
  N  N314  1  0.480900  0.231390  0.540430  1.0  -0.0284
  N  N315  1  0.228000  0.872110  0.486890  1.0  -0.2838
  N  N316  1  0.144700  0.851320  0.551680  1.0  -0.0555
  N  N317  1  0.307000  0.152910  0.337890  1.0  -0.4737
  N  N318  1  0.335900  0.460910  0.308890  1.0  -0.4202
  N  N319  1  0.684600  0.543030  0.020250  1.0  -0.2771
  N  N320  1  0.510500  0.652240  0.997420  1.0  -0.2776
  N  N321  1  0.556100  0.529150  0.876830  1.0  -0.2121
  N  N322  1  0.264100  0.435660  0.098120  1.0  -0.1869
  N  N323  1  0.684700  0.689140  0.026460  1.0  -0.3644
  N  N324  1  0.569800  0.671790  0.884410  1.0  -0.3188
  N  N325  1  0.639700  0.500930  0.038830  1.0  -0.1918
  N  N326  1  0.794000  0.479060  0.095140  1.0  -0.0279
  N  N327  1  0.465700  0.613300  0.019380  1.0  -0.2059
  N  N328  1  0.386500  0.733740  0.041920  1.0  -0.0355
  N  N329  1  0.509900  0.486970  0.894250  1.0  -0.2238
  N  N330  1  0.480900  0.459570  0.768610  1.0  -0.0295
  N  N331  1  0.228000  0.513110  0.127890  1.0  -0.2821
  N  N332  1  0.144700  0.448320  0.148680  1.0  -0.0546
  N  N333  1  0.307000  0.662110  0.847090  1.0  -0.473
  N  N334  1  0.335900  0.691110  0.539090  1.0  -0.4155
  N  N335  1  0.315400  0.020250  0.543030  1.0  -0.2748
  N  N336  1  0.489500  0.997420  0.652240  1.0  -0.2762
  N  N337  1  0.443900  0.876830  0.529150  1.0  -0.2125
  N  N338  1  0.735900  0.098120  0.435660  1.0  -0.1858
  N  N339  1  0.315300  0.026460  0.689140  1.0  -0.3733
  N  N340  1  0.430200  0.884410  0.671790  1.0  -0.3226
  N  N341  1  0.360300  0.038830  0.500930  1.0  -0.1907
  N  N342  1  0.206000  0.095140  0.479060  1.0  -0.0256
  N  N343  1  0.534300  0.019380  0.613300  1.0  -0.2068
  N  N344  1  0.613500  0.041920  0.733740  1.0  -0.0363
  N  N345  1  0.490100  0.894250  0.486970  1.0  -0.2255
  N  N346  1  0.519100  0.768610  0.459570  1.0  -0.0291
  N  N347  1  0.772000  0.127890  0.513110  1.0  -0.2843
  N  N348  1  0.855300  0.148680  0.448320  1.0  -0.0551
  N  N349  1  0.693000  0.847090  0.662110  1.0  -0.477
  N  N350  1  0.664100  0.539090  0.691110  1.0  -0.4176
