# generated using pymatgen
data_Ba2TbH18C30S6N6ClO30
_symmetry_space_group_name_H-M   'P 1'
_cell_length_a   10.53100000
_cell_length_b   22.91700000
_cell_length_c   24.52500000
_cell_angle_alpha   90.00000000
_cell_angle_beta   98.59500000
_cell_angle_gamma   90.00000000
_symmetry_Int_Tables_number   1
_chemical_formula_structural   Ba2TbH18C30S6N6ClO30
_chemical_formula_sum   'Ba8 Tb4 H72 C120 S24 N24 Cl4 O120'
_cell_volume   5852.36524984
_cell_formula_units_Z   4
loop_
 _symmetry_equiv_pos_site_id
 _symmetry_equiv_pos_as_xyz
  1  'x, y, z'
loop_
 _atom_site_type_symbol
 _atom_site_label
 _atom_site_symmetry_multiplicity
 _atom_site_fract_x
 _atom_site_fract_y
 _atom_site_fract_z
 _atom_site_occupancy
 _atom_site_charge
  Ba  Ba1  1  0.057900  0.211300  0.501790  1.0  1.6322
  Ba  Ba2  1  0.734020  0.251200  0.968820  1.0  1.6117
  Ba  Ba3  1  0.442100  0.711300  0.498210  1.0  1.6321
  Ba  Ba4  1  0.765980  0.751200  0.031180  1.0  1.6099
  Ba  Ba5  1  0.942100  0.788700  0.498210  1.0  1.6322
  Ba  Ba6  1  0.265980  0.748800  0.031180  1.0  1.61
  Ba  Ba7  1  0.557900  0.288700  0.501790  1.0  1.6321
  Ba  Ba8  1  0.234020  0.248800  0.968820  1.0  1.6118
  Tb  Tb9  1  0.332120  0.004610  0.242740  1.0  2.2189
  Tb  Tb10  1  0.167880  0.504610  0.757260  1.0  2.2169
  Tb  Tb11  1  0.667880  0.995390  0.757260  1.0  2.2188
  Tb  Tb12  1  0.832120  0.495390  0.242740  1.0  2.2208
  H  H13  1  0.657500  0.092100  0.254100  1.0  0.143
  H  H14  1  0.746600  0.171800  0.306300  1.0  0.137
  H  H15  1  0.638200  0.099300  0.441800  1.0  0.1235
  H  H16  1  0.680600  0.973300  0.449600  1.0  0.1481
  H  H17  1  0.356100  0.878700  0.449400  1.0  0.1279
  H  H18  1  0.248500  0.940300  0.382400  1.0  0.1397
  H  H19  1  0.330000  0.082900  0.729900  1.0  0.1439
  H  H20  1  0.237500  0.153900  0.668200  1.0  0.1206
  H  H21  1  0.581500  0.231900  0.673600  1.0  0.1333
  H  H22  1  0.690900  0.246000  0.782500  1.0  0.1319
  H  H23  1  0.041800  0.174900  0.832200  1.0  0.1383
  H  H24  1  0.980600  0.095200  0.776700  1.0  0.1289
  H  H25  1  0.986800  0.019300  0.149100  1.0  0.1345
  H  H26  1  0.904600  0.082100  0.078700  1.0  0.125
  H  H27  1  0.234200  0.067400  0.013400  1.0  0.1377
  H  H28  1  0.297900  0.950600  0.007200  1.0  0.1228
  H  H29  1  0.650200  0.904300  0.083700  1.0  0.1286
  H  H30  1  0.620500  0.965600  0.157800  1.0  0.1352
  H  H31  1  0.842500  0.592100  0.745900  1.0  0.1436
  H  H32  1  0.753400  0.671800  0.693700  1.0  0.1364
  H  H33  1  0.861800  0.599300  0.558200  1.0  0.1245
  H  H34  1  0.819400  0.473300  0.550400  1.0  0.1486
  H  H35  1  0.143900  0.378700  0.550600  1.0  0.1275
  H  H36  1  0.251500  0.440300  0.617600  1.0  0.1395
  H  H37  1  0.170000  0.582900  0.270100  1.0  0.1447
  H  H38  1  0.262500  0.653900  0.331800  1.0  0.1218
  H  H39  1  0.918500  0.731900  0.326400  1.0  0.1331
  H  H40  1  0.809100  0.746000  0.217500  1.0  0.1321
  H  H41  1  0.458200  0.674900  0.167800  1.0  0.1383
  H  H42  1  0.519400  0.595200  0.223300  1.0  0.1288
  H  H43  1  0.513200  0.519300  0.850900  1.0  0.1343
  H  H44  1  0.595400  0.582100  0.921300  1.0  0.1254
  H  H45  1  0.265800  0.567400  0.986600  1.0  0.1379
  H  H46  1  0.202100  0.450600  0.992800  1.0  0.1229
  H  H47  1  0.849800  0.404300  0.916300  1.0  0.1286
  H  H48  1  0.879500  0.465600  0.842200  1.0  0.1356
  H  H49  1  0.342500  0.907900  0.745900  1.0  0.1436
  H  H50  1  0.253400  0.828200  0.693700  1.0  0.1365
  H  H51  1  0.361800  0.900700  0.558200  1.0  0.1244
  H  H52  1  0.319400  0.026700  0.550400  1.0  0.1485
  H  H53  1  0.643900  0.121300  0.550600  1.0  0.1274
  H  H54  1  0.751500  0.059700  0.617600  1.0  0.1396
  H  H55  1  0.670000  0.917100  0.270100  1.0  0.1448
  H  H56  1  0.762500  0.846100  0.331800  1.0  0.1215
  H  H57  1  0.418500  0.768100  0.326400  1.0  0.1333
  H  H58  1  0.309100  0.754000  0.217500  1.0  0.1315
  H  H59  1  0.958200  0.825100  0.167800  1.0  0.1386
  H  H60  1  0.019400  0.904800  0.223300  1.0  0.1289
  H  H61  1  0.013200  0.980700  0.850900  1.0  0.1345
  H  H62  1  0.095400  0.917900  0.921300  1.0  0.1255
  H  H63  1  0.765800  0.932600  0.986600  1.0  0.138
  H  H64  1  0.702100  0.049400  0.992800  1.0  0.1227
  H  H65  1  0.349800  0.095700  0.916300  1.0  0.1284
  H  H66  1  0.379500  0.034400  0.842200  1.0  0.1353
  H  H67  1  0.157500  0.407900  0.254100  1.0  0.1432
  H  H68  1  0.246600  0.328200  0.306300  1.0  0.1363
  H  H69  1  0.138200  0.400700  0.441800  1.0  0.1238
  H  H70  1  0.180600  0.526700  0.449600  1.0  0.1481
  H  H71  1  0.856100  0.621300  0.449400  1.0  0.1276
  H  H72  1  0.748500  0.559700  0.382400  1.0  0.1396
  H  H73  1  0.830000  0.417100  0.729900  1.0  0.144
  H  H74  1  0.737500  0.346100  0.668200  1.0  0.1208
  H  H75  1  0.081500  0.268100  0.673600  1.0  0.133
  H  H76  1  0.190900  0.254000  0.782500  1.0  0.1313
  H  H77  1  0.541800  0.325100  0.832200  1.0  0.1381
  H  H78  1  0.480600  0.404800  0.776700  1.0  0.1288
  H  H79  1  0.486800  0.480700  0.149100  1.0  0.1344
  H  H80  1  0.404600  0.417900  0.078700  1.0  0.1257
  H  H81  1  0.734200  0.432600  0.013400  1.0  0.1375
  H  H82  1  0.797900  0.549400  0.007200  1.0  0.1233
  H  H83  1  0.150200  0.595700  0.083700  1.0  0.1284
  H  H84  1  0.120500  0.534400  0.157800  1.0  0.1354
  C  C85  1  0.652900  0.094200  0.292400  1.0  0.0169
  C  C86  1  0.705300  0.141500  0.323300  1.0  -0.0493
  C  C87  1  0.697100  0.144100  0.378600  1.0  -0.2039
  C  C88  1  0.640500  0.098600  0.403200  1.0  -0.0374
  C  C89  1  0.588000  0.052800  0.372500  1.0  0.1378
  C  C90  1  0.526700  0.002200  0.395300  1.0  0.1193
  C  C91  1  0.592700  0.966400  0.435800  1.0  -0.0356
  C  C92  1  0.526600  0.920100  0.455600  1.0  -0.2129
  C  C93  1  0.400200  0.910400  0.435800  1.0  -0.0283
  C  C94  1  0.336700  0.946800  0.395900  1.0  0.0237
  C  C95  1  0.380700  0.113600  0.718500  1.0  0.0436
  C  C96  1  0.326600  0.155700  0.682000  1.0  0.039
  C  C97  1  0.399600  0.200000  0.665200  1.0  -0.1834
  C  C98  1  0.529700  0.201900  0.685400  1.0  -0.0352
  C  C99  1  0.584200  0.160900  0.722200  1.0  0.1837
  C  C100  1  0.714000  0.165800  0.751900  1.0  0.138
  C  C101  1  0.749400  0.214500  0.782500  1.0  -0.0212
  C  C102  1  0.870600  0.218100  0.813800  1.0  -0.246
  C  C103  1  0.958000  0.172900  0.811600  1.0  -0.0839
  C  C104  1  0.920900  0.125700  0.779300  1.0  0.0556
  C  C105  1  0.036900  0.029300  0.121300  1.0  0.0193
  C  C106  1  0.988500  0.066400  0.079800  1.0  -0.0495
  C  C107  1  0.061700  0.081400  0.039000  1.0  -0.2215
  C  C108  1  0.182900  0.057700  0.040900  1.0  -0.0188
  C  C109  1  0.228200  0.020400  0.082300  1.0  0.178
  C  C110  1  0.347400  0.987000  0.082100  1.0  0.1496
  C  C111  1  0.364100  0.952800  0.038000  1.0  -0.0554
  C  C112  1  0.478200  0.920600  0.037600  1.0  -0.16
  C  C113  1  0.572500  0.925600  0.082500  1.0  -0.0286
  C  C114  1  0.555000  0.962100  0.126900  1.0  0.02
  C  C115  1  0.847100  0.594200  0.707600  1.0  0.0147
  C  C116  1  0.794700  0.641500  0.676700  1.0  -0.0482
  C  C117  1  0.802900  0.644100  0.621400  1.0  -0.203
  C  C118  1  0.859500  0.598600  0.596800  1.0  -0.0371
  C  C119  1  0.912000  0.552800  0.627500  1.0  0.1375
  C  C120  1  0.973300  0.502200  0.604700  1.0  0.1185
  C  C121  1  0.907300  0.466400  0.564200  1.0  -0.034
  C  C122  1  0.973400  0.420100  0.544400  1.0  -0.2149
  C  C123  1  0.099800  0.410400  0.564200  1.0  -0.0271
  C  C124  1  0.163300  0.446800  0.604100  1.0  0.021
  C  C125  1  0.119300  0.613600  0.281500  1.0  0.0451
  C  C126  1  0.173400  0.655700  0.318000  1.0  0.0395
  C  C127  1  0.100400  0.700000  0.334800  1.0  -0.1805
  C  C128  1  0.970300  0.701900  0.314600  1.0  -0.0352
  C  C129  1  0.915800  0.660900  0.277800  1.0  0.1837
  C  C130  1  0.786000  0.665800  0.248100  1.0  0.1359
  C  C131  1  0.750600  0.714500  0.217500  1.0  -0.0202
  C  C132  1  0.629400  0.718100  0.186200  1.0  -0.2476
  C  C133  1  0.542000  0.672900  0.188400  1.0  -0.0841
  C  C134  1  0.579100  0.625700  0.220700  1.0  0.0539
  C  C135  1  0.463100  0.529300  0.878700  1.0  0.018
  C  C136  1  0.511500  0.566400  0.920200  1.0  -0.0476
  C  C137  1  0.438300  0.581400  0.961000  1.0  -0.2207
  C  C138  1  0.317100  0.557700  0.959100  1.0  -0.0194
  C  C139  1  0.271800  0.520400  0.917700  1.0  0.177
  C  C140  1  0.152600  0.487000  0.917900  1.0  0.15
  C  C141  1  0.135900  0.452800  0.962000  1.0  -0.0546
  C  C142  1  0.021800  0.420600  0.962400  1.0  -0.1575
  C  C143  1  0.927500  0.425600  0.917500  1.0  -0.0283
  C  C144  1  0.945000  0.462100  0.873100  1.0  0.0197
  C  C145  1  0.347100  0.905800  0.707600  1.0  0.0143
  C  C146  1  0.294700  0.858500  0.676700  1.0  -0.0473
  C  C147  1  0.302900  0.855900  0.621400  1.0  -0.204
  C  C148  1  0.359500  0.901400  0.596800  1.0  -0.0374
  C  C149  1  0.412000  0.947200  0.627500  1.0  0.1374
  C  C150  1  0.473300  0.997800  0.604700  1.0  0.1188
  C  C151  1  0.407300  0.033600  0.564200  1.0  -0.0342
  C  C152  1  0.473400  0.079900  0.544400  1.0  -0.2148
  C  C153  1  0.599800  0.089600  0.564200  1.0  -0.0272
  C  C154  1  0.663300  0.053200  0.604100  1.0  0.0214
  C  C155  1  0.619300  0.886400  0.281500  1.0  0.0454
  C  C156  1  0.673400  0.844300  0.318000  1.0  0.0397
  C  C157  1  0.600400  0.800000  0.334800  1.0  -0.1801
  C  C158  1  0.470300  0.798100  0.314600  1.0  -0.0351
  C  C159  1  0.415800  0.839100  0.277800  1.0  0.1836
  C  C160  1  0.286000  0.834200  0.248100  1.0  0.1359
  C  C161  1  0.250600  0.785500  0.217500  1.0  -0.0192
  C  C162  1  0.129400  0.781900  0.186200  1.0  -0.2474
  C  C163  1  0.042000  0.827100  0.188400  1.0  -0.0839
  C  C164  1  0.079100  0.874300  0.220700  1.0  0.0528
  C  C165  1  0.963100  0.970700  0.878700  1.0  0.0183
  C  C166  1  0.011500  0.933600  0.920200  1.0  -0.0487
  C  C167  1  0.938300  0.918600  0.961000  1.0  -0.2227
  C  C168  1  0.817100  0.942300  0.959100  1.0  -0.018
  C  C169  1  0.771800  0.979600  0.917700  1.0  0.1772
  C  C170  1  0.652600  0.013000  0.917900  1.0  0.1496
  C  C171  1  0.635900  0.047200  0.962000  1.0  -0.0544
  C  C172  1  0.521800  0.079400  0.962400  1.0  -0.1577
  C  C173  1  0.427500  0.074400  0.917500  1.0  -0.0279
  C  C174  1  0.445000  0.037900  0.873100  1.0  0.0189
  C  C175  1  0.152900  0.405800  0.292400  1.0  0.0174
  C  C176  1  0.205300  0.358500  0.323300  1.0  -0.0488
  C  C177  1  0.197100  0.355900  0.378600  1.0  -0.2043
  C  C178  1  0.140500  0.401400  0.403200  1.0  -0.0373
  C  C179  1  0.088000  0.447200  0.372500  1.0  0.1378
  C  C180  1  0.026700  0.497800  0.395300  1.0  0.1195
  C  C181  1  0.092700  0.533600  0.435800  1.0  -0.0357
  C  C182  1  0.026600  0.579900  0.455600  1.0  -0.2134
  C  C183  1  0.900200  0.589600  0.435800  1.0  -0.028
  C  C184  1  0.836700  0.553200  0.395900  1.0  0.0236
  C  C185  1  0.880700  0.386400  0.718500  1.0  0.0442
  C  C186  1  0.826600  0.344300  0.682000  1.0  0.0394
  C  C187  1  0.899600  0.300000  0.665200  1.0  -0.1836
  C  C188  1  0.029700  0.298100  0.685400  1.0  -0.0352
  C  C189  1  0.084200  0.339100  0.722200  1.0  0.1836
  C  C190  1  0.214000  0.334200  0.751900  1.0  0.138
  C  C191  1  0.249400  0.285500  0.782500  1.0  -0.0199
  C  C192  1  0.370600  0.281900  0.813800  1.0  -0.2456
  C  C193  1  0.458000  0.327100  0.811600  1.0  -0.0842
  C  C194  1  0.420900  0.374300  0.779300  1.0  0.0543
  C  C195  1  0.536900  0.470700  0.121300  1.0  0.0197
  C  C196  1  0.488500  0.433600  0.079800  1.0  -0.0477
  C  C197  1  0.561700  0.418600  0.039000  1.0  -0.224
  C  C198  1  0.682900  0.442300  0.040900  1.0  -0.0186
  C  C199  1  0.728200  0.479600  0.082300  1.0  0.1785
  C  C200  1  0.847400  0.513000  0.082100  1.0  0.1493
  C  C201  1  0.864100  0.547200  0.038000  1.0  -0.0554
  C  C202  1  0.978200  0.579400  0.037600  1.0  -0.1593
  C  C203  1  0.072500  0.574400  0.082500  1.0  -0.0284
  C  C204  1  0.055000  0.537900  0.126900  1.0  0.0202
  S  S205  1  0.758600  0.206120  0.417130  1.0  1.4154
  S  S206  1  0.612500  0.872810  0.506350  1.0  1.3876
  S  S207  1  0.335000  0.257080  0.619690  1.0  1.3703
  S  S208  1  0.905700  0.279540  0.858660  1.0  1.39
  S  S209  1  0.998600  0.127910  0.983160  1.0  1.3357
  S  S210  1  0.487600  0.873320  0.981340  1.0  1.3891
  S  S211  1  0.741400  0.706120  0.582870  1.0  1.415
  S  S212  1  0.887500  0.372810  0.493650  1.0  1.3843
  S  S213  1  0.165000  0.757080  0.380310  1.0  1.3721
  S  S214  1  0.594300  0.779540  0.141340  1.0  1.3891
  S  S215  1  0.501400  0.627910  0.016840  1.0  1.3354
  S  S216  1  0.012400  0.373320  0.018660  1.0  1.3915
  S  S217  1  0.241400  0.793880  0.582870  1.0  1.416
  S  S218  1  0.387500  0.127190  0.493650  1.0  1.385
  S  S219  1  0.665000  0.742920  0.380310  1.0  1.3728
  S  S220  1  0.094300  0.720460  0.141340  1.0  1.3884
  S  S221  1  0.001400  0.872090  0.016840  1.0  1.3362
  S  S222  1  0.512400  0.126680  0.018660  1.0  1.3923
  S  S223  1  0.258600  0.293880  0.417130  1.0  1.4165
  S  S224  1  0.112500  0.627190  0.506350  1.0  1.3873
  S  S225  1  0.835000  0.242920  0.619690  1.0  1.3707
  S  S226  1  0.405700  0.220460  0.858660  1.0  1.3897
  S  S227  1  0.498600  0.372090  0.983160  1.0  1.336
  S  S228  1  0.987600  0.626680  0.981340  1.0  1.3907
  N  N229  1  0.595700  0.051300  0.317300  1.0  0.3429
  N  N230  1  0.399200  0.991400  0.376100  1.0  0.3372
  N  N231  1  0.508700  0.117300  0.737900  1.0  0.2531
  N  N232  1  0.802500  0.121500  0.751400  1.0  0.3431
  N  N233  1  0.155100  0.007000  0.122900  1.0  0.3407
  N  N234  1  0.444400  0.991900  0.125000  1.0  0.3214
  N  N235  1  0.904300  0.551300  0.682700  1.0  0.3428
  N  N236  1  0.100800  0.491400  0.623900  1.0  0.3392
  N  N237  1  0.991300  0.617300  0.262100  1.0  0.2539
  N  N238  1  0.697500  0.621500  0.248600  1.0  0.3445
  N  N239  1  0.344900  0.507000  0.877100  1.0  0.3418
  N  N240  1  0.055600  0.491900  0.875000  1.0  0.322
  N  N241  1  0.404300  0.948700  0.682700  1.0  0.3427
  N  N242  1  0.600800  0.008600  0.623900  1.0  0.3401
  N  N243  1  0.491300  0.882700  0.262100  1.0  0.2537
  N  N244  1  0.197500  0.878500  0.248600  1.0  0.3442
  N  N245  1  0.844900  0.993000  0.877100  1.0  0.3421
  N  N246  1  0.555600  0.008100  0.875000  1.0  0.3223
  N  N247  1  0.095700  0.448700  0.317300  1.0  0.3431
  N  N248  1  0.899200  0.508600  0.376100  1.0  0.3374
  N  N249  1  0.008700  0.382700  0.737900  1.0  0.2526
  N  N250  1  0.302500  0.378500  0.751400  1.0  0.3428
  N  N251  1  0.655100  0.493000  0.122900  1.0  0.3417
  N  N252  1  0.944400  0.508100  0.125000  1.0  0.3222
  Cl  Cl253  1  0.145400  0.010650  0.765030  1.0  -0.498
  Cl  Cl254  1  0.354600  0.510650  0.234970  1.0  -0.498
  Cl  Cl255  1  0.854600  0.989350  0.234970  1.0  -0.4982
  Cl  Cl256  1  0.645400  0.489350  0.765030  1.0  -0.498
  O  O257  1  0.547700  0.006600  0.287100  1.0  -0.6196
  O  O258  1  0.337000  0.026400  0.337800  1.0  -0.6379
  O  O259  1  0.560200  0.079900  0.776800  1.0  -0.6279
  O  O260  1  0.769700  0.074300  0.721200  1.0  -0.6356
  O  O261  1  0.199700  0.969400  0.162200  1.0  -0.6317
  O  O262  1  0.430600  0.029800  0.165200  1.0  -0.6478
  O  O263  1  0.873700  0.222600  0.396500  1.0  -0.6313
  O  O264  1  0.658100  0.248800  0.407200  1.0  -0.6572
  O  O265  1  0.784600  0.187900  0.473600  1.0  -0.6775
  O  O266  1  0.721700  0.854000  0.482700  1.0  -0.643
  O  O267  1  0.523200  0.827000  0.515100  1.0  -0.7058
  O  O268  1  0.647100  0.909800  0.554800  1.0  -0.597
  O  O269  1  0.202800  0.240300  0.601300  1.0  -0.679
  O  O270  1  0.414400  0.257100  0.577500  1.0  -0.6212
  O  O271  1  0.349100  0.309500  0.652300  1.0  -0.591
  O  O272  1  0.780500  0.301700  0.867400  1.0  -0.6935
  O  O273  1  0.976700  0.256800  0.909200  1.0  -0.7282
  O  O274  1  0.978800  0.319000  0.829300  1.0  -0.6009
  O  O275  1  0.940600  0.176400  0.008400  1.0  -0.6992
  O  O276  1  0.907500  0.091100  0.948500  1.0  -0.615
  O  O277  1  0.108700  0.143900  0.957200  1.0  -0.7161
  O  O278  1  0.378600  0.835700  0.978600  1.0  -0.6657
  O  O279  1  0.611600  0.844500  0.994300  1.0  -0.6786
  O  O280  1  0.481300  0.911700  0.933200  1.0  -0.6141
  O  O281  1  0.367300  0.107800  0.245400  1.0  -0.2727
  O  O282  1  0.126100  0.048800  0.247400  1.0  -0.2401
  O  O283  1  0.713600  0.160800  0.895300  1.0  -0.2008
  O  O284  1  0.738300  0.274300  0.081200  1.0  -0.2966
  O  O285  1  0.060100  0.109900  0.425100  1.0  -0.1909
  O  O286  1  0.995500  0.120500  0.578400  1.0  -0.243
  O  O287  1  0.952300  0.506600  0.712900  1.0  -0.6205
  O  O288  1  0.163000  0.526400  0.662200  1.0  -0.6373
  O  O289  1  0.939800  0.579900  0.223200  1.0  -0.6286
  O  O290  1  0.730300  0.574300  0.278800  1.0  -0.6332
  O  O291  1  0.300300  0.469400  0.837800  1.0  -0.6296
  O  O292  1  0.069400  0.529800  0.834800  1.0  -0.6486
  O  O293  1  0.626300  0.722600  0.603500  1.0  -0.6301
  O  O294  1  0.841900  0.748800  0.592800  1.0  -0.656
  O  O295  1  0.715400  0.687900  0.526400  1.0  -0.6752
  O  O296  1  0.778300  0.354000  0.517300  1.0  -0.6428
  O  O297  1  0.976800  0.327000  0.484900  1.0  -0.7072
  O  O298  1  0.852900  0.409800  0.445200  1.0  -0.5946
  O  O299  1  0.297200  0.740300  0.398700  1.0  -0.6734
  O  O300  1  0.085600  0.757100  0.422500  1.0  -0.621
  O  O301  1  0.150900  0.809500  0.347700  1.0  -0.5926
  O  O302  1  0.719500  0.801700  0.132600  1.0  -0.6907
  O  O303  1  0.523300  0.756800  0.090800  1.0  -0.728
  O  O304  1  0.521200  0.819000  0.170700  1.0  -0.5994
  O  O305  1  0.559400  0.676400  0.991600  1.0  -0.699
  O  O306  1  0.592500  0.591100  0.051500  1.0  -0.6141
  O  O307  1  0.391300  0.643900  0.042800  1.0  -0.718
  O  O308  1  0.121400  0.335700  0.021400  1.0  -0.6648
  O  O309  1  0.888400  0.344500  0.005700  1.0  -0.6789
  O  O310  1  0.018700  0.411700  0.066800  1.0  -0.6146
  O  O311  1  0.132700  0.607800  0.754600  1.0  -0.2729
  O  O312  1  0.373900  0.548800  0.752600  1.0  -0.2398
  O  O313  1  0.786400  0.660800  0.104700  1.0  -0.2009
  O  O314  1  0.761700  0.774300  0.918800  1.0  -0.2954
  O  O315  1  0.439900  0.609900  0.574900  1.0  -0.1903
  O  O316  1  0.504500  0.620500  0.421600  1.0  -0.2441
  O  O317  1  0.452300  0.993400  0.712900  1.0  -0.6197
  O  O318  1  0.663000  0.973600  0.662200  1.0  -0.6387
  O  O319  1  0.439800  0.920100  0.223200  1.0  -0.6275
  O  O320  1  0.230300  0.925700  0.278800  1.0  -0.6343
  O  O321  1  0.800300  0.030600  0.837800  1.0  -0.6302
  O  O322  1  0.569400  0.970200  0.834800  1.0  -0.6444
  O  O323  1  0.126300  0.777400  0.603500  1.0  -0.6299
  O  O324  1  0.341900  0.751200  0.592800  1.0  -0.6585
  O  O325  1  0.215400  0.812100  0.526400  1.0  -0.6753
  O  O326  1  0.278300  0.146000  0.517300  1.0  -0.6423
  O  O327  1  0.476800  0.173000  0.484900  1.0  -0.706
  O  O328  1  0.352900  0.090200  0.445200  1.0  -0.5941
  O  O329  1  0.797200  0.759700  0.398700  1.0  -0.6742
  O  O330  1  0.585600  0.742900  0.422500  1.0  -0.6213
  O  O331  1  0.650900  0.690500  0.347700  1.0  -0.5919
  O  O332  1  0.219500  0.698300  0.132600  1.0  -0.6912
  O  O333  1  0.023300  0.743200  0.090800  1.0  -0.7276
  O  O334  1  0.021200  0.681000  0.170700  1.0  -0.5995
  O  O335  1  0.059400  0.823600  0.991600  1.0  -0.7007
  O  O336  1  0.092500  0.908900  0.051500  1.0  -0.612
  O  O337  1  0.891300  0.856100  0.042800  1.0  -0.7183
  O  O338  1  0.621400  0.164300  0.021400  1.0  -0.6625
  O  O339  1  0.388400  0.155500  0.005700  1.0  -0.678
  O  O340  1  0.518700  0.088300  0.066800  1.0  -0.6155
  O  O341  1  0.632700  0.892200  0.754600  1.0  -0.2749
  O  O342  1  0.873900  0.951200  0.752600  1.0  -0.2432
  O  O343  1  0.286400  0.839200  0.104700  1.0  -0.201
  O  O344  1  0.261700  0.725700  0.918800  1.0  -0.2955
  O  O345  1  0.939900  0.890100  0.574900  1.0  -0.1905
  O  O346  1  0.004500  0.879500  0.421600  1.0  -0.2418
  O  O347  1  0.047700  0.493400  0.287100  1.0  -0.6198
  O  O348  1  0.837000  0.473600  0.337800  1.0  -0.6373
  O  O349  1  0.060200  0.420100  0.776800  1.0  -0.6283
  O  O350  1  0.269700  0.425700  0.721200  1.0  -0.6344
  O  O351  1  0.699700  0.530600  0.162200  1.0  -0.6309
  O  O352  1  0.930600  0.470200  0.165200  1.0  -0.6443
  O  O353  1  0.373700  0.277400  0.396500  1.0  -0.6316
  O  O354  1  0.158100  0.251200  0.407200  1.0  -0.6585
  O  O355  1  0.284600  0.312100  0.473600  1.0  -0.6781
  O  O356  1  0.221700  0.646000  0.482700  1.0  -0.6423
  O  O357  1  0.023200  0.673000  0.515100  1.0  -0.7057
  O  O358  1  0.147100  0.590200  0.554800  1.0  -0.5966
  O  O359  1  0.702800  0.259700  0.601300  1.0  -0.6789
  O  O360  1  0.914400  0.242900  0.577500  1.0  -0.6215
  O  O361  1  0.849100  0.190500  0.652300  1.0  -0.5906
  O  O362  1  0.280500  0.198300  0.867400  1.0  -0.6938
  O  O363  1  0.476700  0.243200  0.909200  1.0  -0.728
  O  O364  1  0.478800  0.181000  0.829300  1.0  -0.6015
  O  O365  1  0.440600  0.323600  0.008400  1.0  -0.7018
  O  O366  1  0.407500  0.408900  0.948500  1.0  -0.6126
  O  O367  1  0.608700  0.356100  0.957200  1.0  -0.7172
  O  O368  1  0.878600  0.664300  0.978600  1.0  -0.6639
  O  O369  1  0.111600  0.655500  0.994300  1.0  -0.6795
  O  O370  1  0.981300  0.588300  0.933200  1.0  -0.6168
  O  O371  1  0.867300  0.392200  0.245400  1.0  -0.2737
  O  O372  1  0.626100  0.451200  0.247400  1.0  -0.2439
  O  O373  1  0.213600  0.339200  0.895300  1.0  -0.2007
  O  O374  1  0.238300  0.225700  0.081200  1.0  -0.2972
  O  O375  1  0.560100  0.390100  0.425100  1.0  -0.1913
  O  O376  1  0.495500  0.379500  0.578400  1.0  -0.2413
