# generated using pymatgen
data_Ba2DyH18C30S6N6ClO30
_symmetry_space_group_name_H-M   'P 1'
_cell_length_a   10.54700000
_cell_length_b   22.65100000
_cell_length_c   24.62700000
_cell_angle_alpha   90.00000000
_cell_angle_beta   98.16800000
_cell_angle_gamma   90.00000000
_symmetry_Int_Tables_number   1
_chemical_formula_structural   Ba2DyH18C30S6N6ClO30
_chemical_formula_sum   'Ba8 Dy4 H72 C120 S24 N24 Cl4 O120'
_cell_volume   5823.70999757
_cell_formula_units_Z   4
loop_
 _symmetry_equiv_pos_site_id
 _symmetry_equiv_pos_as_xyz
  1  'x, y, z'
loop_
 _atom_site_type_symbol
 _atom_site_label
 _atom_site_symmetry_multiplicity
 _atom_site_fract_x
 _atom_site_fract_y
 _atom_site_fract_z
 _atom_site_occupancy
 _atom_site_charge
  Ba  Ba1  1  0.937120  0.289930  0.997030  1.0  1.6308
  Ba  Ba2  1  0.766890  0.250360  0.534390  1.0  1.6081
  Ba  Ba3  1  0.562880  0.789930  0.002970  1.0  1.6309
  Ba  Ba4  1  0.733110  0.750360  0.465610  1.0  1.6096
  Ba  Ba5  1  0.062880  0.710070  0.002970  1.0  1.631
  Ba  Ba6  1  0.233110  0.749640  0.465610  1.0  1.6096
  Ba  Ba7  1  0.437120  0.210070  0.997030  1.0  1.6307
  Ba  Ba8  1  0.266890  0.249640  0.534390  1.0  1.608
  Dy  Dy9  1  0.669060  0.492560  0.256970  1.0  2.2401
  Dy  Dy10  1  0.830940  0.992560  0.743030  1.0  2.2425
  Dy  Dy11  1  0.330940  0.507440  0.743030  1.0  2.2395
  Dy  Dy12  1  0.169060  0.007440  0.256970  1.0  2.2381
  H  H13  1  0.344400  0.403800  0.246100  1.0  0.1348
  H  H14  1  0.252500  0.325000  0.194000  1.0  0.1402
  H  H15  1  0.356600  0.400800  0.058900  1.0  0.135
  H  H16  1  0.322000  0.527200  0.053500  1.0  0.1463
  H  H17  1  0.650000  0.620100  0.050400  1.0  0.1287
  H  H18  1  0.753100  0.558100  0.118500  1.0  0.1293
  H  H19  1  0.166400  0.082400  0.769200  1.0  0.1307
  H  H20  1  0.260400  0.151900  0.832400  1.0  0.1371
  H  H21  1  0.914800  0.231300  0.827500  1.0  0.1402
  H  H22  1  0.805800  0.245900  0.719000  1.0  0.1363
  H  H23  1  0.456400  0.174400  0.671500  1.0  0.1374
  H  H24  1  0.517200  0.093100  0.726300  1.0  0.1359
  H  H25  1  0.120200  0.030100  0.658200  1.0  0.1391
  H  H26  1  0.155200  0.090300  0.586100  1.0  0.1322
  H  H27  1  0.799300  0.051700  0.509800  1.0  0.1343
  H  H28  1  0.728800  0.933800  0.514000  1.0  0.1326
  H  H29  1  0.401700  0.916300  0.580000  1.0  0.1417
  H  H30  1  0.485100  0.979400  0.650300  1.0  0.1286
  H  H31  1  0.155600  0.903800  0.753900  1.0  0.135
  H  H32  1  0.247500  0.825000  0.806000  1.0  0.1397
  H  H33  1  0.143400  0.900800  0.941100  1.0  0.1346
  H  H34  1  0.178000  0.027200  0.946500  1.0  0.1449
  H  H35  1  0.850000  0.120100  0.949600  1.0  0.1287
  H  H36  1  0.746900  0.058100  0.881500  1.0  0.1288
  H  H37  1  0.333600  0.582400  0.230800  1.0  0.1304
  H  H38  1  0.239600  0.651900  0.167600  1.0  0.1374
  H  H39  1  0.585200  0.731300  0.172500  1.0  0.1405
  H  H40  1  0.694200  0.745900  0.281000  1.0  0.1363
  H  H41  1  0.043600  0.674400  0.328500  1.0  0.1379
  H  H42  1  0.982800  0.593100  0.273700  1.0  0.1363
  H  H43  1  0.379800  0.530100  0.341800  1.0  0.1384
  H  H44  1  0.344800  0.590300  0.413900  1.0  0.132
  H  H45  1  0.700700  0.551700  0.490200  1.0  0.1328
  H  H46  1  0.771200  0.433800  0.486000  1.0  0.1332
  H  H47  1  0.098300  0.416300  0.420000  1.0  0.1417
  H  H48  1  0.014900  0.479400  0.349700  1.0  0.1287
  H  H49  1  0.655600  0.596200  0.753900  1.0  0.1346
  H  H50  1  0.747500  0.675000  0.806000  1.0  0.1403
  H  H51  1  0.643400  0.599200  0.941100  1.0  0.1346
  H  H52  1  0.678000  0.472800  0.946500  1.0  0.1449
  H  H53  1  0.350000  0.379900  0.949600  1.0  0.1292
  H  H54  1  0.246900  0.441900  0.881500  1.0  0.1287
  H  H55  1  0.833600  0.917600  0.230800  1.0  0.1303
  H  H56  1  0.739600  0.848100  0.167600  1.0  0.1374
  H  H57  1  0.085200  0.768700  0.172500  1.0  0.1402
  H  H58  1  0.194200  0.754100  0.281000  1.0  0.1359
  H  H59  1  0.543600  0.825600  0.328500  1.0  0.1376
  H  H60  1  0.482800  0.906900  0.273700  1.0  0.1362
  H  H61  1  0.879800  0.969900  0.341800  1.0  0.1388
  H  H62  1  0.844800  0.909700  0.413900  1.0  0.1323
  H  H63  1  0.200700  0.948300  0.490200  1.0  0.1333
  H  H64  1  0.271200  0.066200  0.486000  1.0  0.1329
  H  H65  1  0.598300  0.083700  0.420000  1.0  0.1424
  H  H66  1  0.514900  0.020600  0.349700  1.0  0.1284
  H  H67  1  0.844400  0.096200  0.246100  1.0  0.1348
  H  H68  1  0.752500  0.175000  0.194000  1.0  0.1399
  H  H69  1  0.856600  0.099200  0.058900  1.0  0.1354
  H  H70  1  0.822000  0.972800  0.053500  1.0  0.1463
  H  H71  1  0.150000  0.879900  0.050400  1.0  0.1288
  H  H72  1  0.253100  0.941900  0.118500  1.0  0.1291
  H  H73  1  0.666400  0.417600  0.769200  1.0  0.131
  H  H74  1  0.760400  0.348100  0.832400  1.0  0.137
  H  H75  1  0.414800  0.268700  0.827500  1.0  0.1403
  H  H76  1  0.305800  0.254100  0.719000  1.0  0.1357
  H  H77  1  0.956400  0.325600  0.671500  1.0  0.1377
  H  H78  1  0.017200  0.406900  0.726300  1.0  0.136
  H  H79  1  0.620200  0.469900  0.658200  1.0  0.1388
  H  H80  1  0.655200  0.409700  0.586100  1.0  0.1326
  H  H81  1  0.299300  0.448300  0.509800  1.0  0.1339
  H  H82  1  0.228800  0.566200  0.514000  1.0  0.1327
  H  H83  1  0.901700  0.583700  0.580000  1.0  0.1417
  H  H84  1  0.985100  0.520600  0.650300  1.0  0.1285
  C  C85  1  0.347600  0.402700  0.207800  1.0  0.0137
  C  C86  1  0.292800  0.356100  0.177000  1.0  -0.0685
  C  C87  1  0.297000  0.355100  0.121260  1.0  -0.1943
  C  C88  1  0.355400  0.400700  0.097370  1.0  -0.0459
  C  C89  1  0.412100  0.446100  0.129040  1.0  0.1156
  C  C90  1  0.474600  0.497240  0.106300  1.0  0.1376
  C  C91  1  0.410100  0.533600  0.066400  1.0  -0.0195
  C  C92  1  0.476600  0.580200  0.045390  1.0  -0.252
  C  C93  1  0.604200  0.588900  0.064600  1.0  -0.0284
  C  C94  1  0.665300  0.551800  0.104800  1.0  0.0136
  C  C95  1  0.115700  0.113000  0.781400  1.0  0.0164
  C  C96  1  0.171800  0.154300  0.818500  1.0  -0.0522
  C  C97  1  0.097200  0.199400  0.835260  1.0  -0.1862
  C  C98  1  0.967300  0.201100  0.815710  1.0  -0.0385
  C  C99  1  0.914400  0.158320  0.778740  1.0  0.1663
  C  C100  1  0.782300  0.164140  0.749870  1.0  0.1558
  C  C101  1  0.747100  0.214070  0.719190  1.0  -0.0169
  C  C102  1  0.627400  0.217800  0.688850  1.0  -0.1908
  C  C103  1  0.540200  0.172200  0.691600  1.0  -0.0745
  C  C104  1  0.576800  0.124000  0.723500  1.0  0.0334
  C  C105  1  0.055200  0.034600  0.627600  1.0  0.0132
  C  C106  1  0.075700  0.070400  0.585200  1.0  -0.0531
  C  C107  1  0.979800  0.077880  0.540500  1.0  -0.2211
  C  C108  1  0.865300  0.047800  0.540110  1.0  -0.0569
  C  C109  1  0.847600  0.012230  0.583890  1.0  0.153
  C  C110  1  0.726200  0.980100  0.584200  1.0  0.1599
  C  C111  1  0.678400  0.942700  0.542000  1.0  -0.0397
  C  C112  1  0.558300  0.918300  0.540000  1.0  -0.1997
  C  C113  1  0.485200  0.932300  0.580800  1.0  -0.0739
  C  C114  1  0.535000  0.969500  0.622400  1.0  0.0218
  C  C115  1  0.152400  0.902700  0.792200  1.0  0.017
  C  C116  1  0.207200  0.856100  0.823000  1.0  -0.0723
  C  C117  1  0.203000  0.855100  0.878740  1.0  -0.1946
  C  C118  1  0.144600  0.900700  0.902630  1.0  -0.0461
  C  C119  1  0.087900  0.946100  0.870960  1.0  0.1161
  C  C120  1  0.025400  0.997240  0.893700  1.0  0.1386
  C  C121  1  0.089900  0.033600  0.933600  1.0  -0.0193
  C  C122  1  0.023400  0.080200  0.954610  1.0  -0.2514
  C  C123  1  0.895800  0.088900  0.935400  1.0  -0.0288
  C  C124  1  0.834700  0.051800  0.895200  1.0  0.0153
  C  C125  1  0.384300  0.613000  0.218600  1.0  0.0169
  C  C126  1  0.328200  0.654300  0.181500  1.0  -0.0518
  C  C127  1  0.402800  0.699400  0.164740  1.0  -0.188
  C  C128  1  0.532700  0.701100  0.184290  1.0  -0.0377
  C  C129  1  0.585600  0.658320  0.221260  1.0  0.1667
  C  C130  1  0.717700  0.664140  0.250130  1.0  0.1564
  C  C131  1  0.752900  0.714070  0.280810  1.0  -0.0185
  C  C132  1  0.872600  0.717800  0.311150  1.0  -0.1882
  C  C133  1  0.959800  0.672200  0.308400  1.0  -0.0745
  C  C134  1  0.923200  0.624000  0.276500  1.0  0.0331
  C  C135  1  0.444800  0.534600  0.372400  1.0  0.0127
  C  C136  1  0.424300  0.570400  0.414800  1.0  -0.0523
  C  C137  1  0.520200  0.577880  0.459500  1.0  -0.2199
  C  C138  1  0.634700  0.547800  0.459890  1.0  -0.0555
  C  C139  1  0.652400  0.512230  0.416110  1.0  0.1531
  C  C140  1  0.773800  0.480100  0.415800  1.0  0.1594
  C  C141  1  0.821600  0.442700  0.458000  1.0  -0.0393
  C  C142  1  0.941700  0.418300  0.460000  1.0  -0.1989
  C  C143  1  0.014800  0.432300  0.419200  1.0  -0.0747
  C  C144  1  0.965000  0.469500  0.377600  1.0  0.0218
  C  C145  1  0.652400  0.597300  0.792200  1.0  0.0162
  C  C146  1  0.707200  0.643900  0.823000  1.0  -0.072
  C  C147  1  0.703000  0.644900  0.878740  1.0  -0.1951
  C  C148  1  0.644600  0.599300  0.902630  1.0  -0.0461
  C  C149  1  0.587900  0.553900  0.870960  1.0  0.1163
  C  C150  1  0.525400  0.502760  0.893700  1.0  0.1389
  C  C151  1  0.589900  0.466400  0.933600  1.0  -0.0191
  C  C152  1  0.523400  0.419800  0.954610  1.0  -0.2516
  C  C153  1  0.395800  0.411100  0.935400  1.0  -0.0293
  C  C154  1  0.334700  0.448200  0.895200  1.0  0.0156
  C  C155  1  0.884300  0.887000  0.218600  1.0  0.0166
  C  C156  1  0.828200  0.845700  0.181500  1.0  -0.0519
  C  C157  1  0.902800  0.800600  0.164740  1.0  -0.1881
  C  C158  1  0.032700  0.798900  0.184290  1.0  -0.038
  C  C159  1  0.085600  0.841680  0.221260  1.0  0.1668
  C  C160  1  0.217700  0.835860  0.250130  1.0  0.1564
  C  C161  1  0.252900  0.785930  0.280810  1.0  -0.0175
  C  C162  1  0.372600  0.782200  0.311150  1.0  -0.1874
  C  C163  1  0.459800  0.827800  0.308400  1.0  -0.0749
  C  C164  1  0.423200  0.876000  0.276500  1.0  0.032
  C  C165  1  0.944800  0.965400  0.372400  1.0  0.0135
  C  C166  1  0.924300  0.929600  0.414800  1.0  -0.0523
  C  C167  1  0.020200  0.922120  0.459500  1.0  -0.2201
  C  C168  1  0.134700  0.952200  0.459890  1.0  -0.0552
  C  C169  1  0.152400  0.987770  0.416110  1.0  0.1541
  C  C170  1  0.273800  0.019900  0.415800  1.0  0.1592
  C  C171  1  0.321600  0.057300  0.458000  1.0  -0.0398
  C  C172  1  0.441700  0.081700  0.460000  1.0  -0.1966
  C  C173  1  0.514800  0.067700  0.419200  1.0  -0.073
  C  C174  1  0.465000  0.030500  0.377600  1.0  0.0212
  C  C175  1  0.847600  0.097300  0.207800  1.0  0.014
  C  C176  1  0.792800  0.143900  0.177000  1.0  -0.0693
  C  C177  1  0.797000  0.144900  0.121260  1.0  -0.194
  C  C178  1  0.855400  0.099300  0.097370  1.0  -0.0453
  C  C179  1  0.912100  0.053900  0.129040  1.0  0.1157
  C  C180  1  0.974600  0.002760  0.106300  1.0  0.1378
  C  C181  1  0.910100  0.966400  0.066400  1.0  -0.0193
  C  C182  1  0.976600  0.919800  0.045390  1.0  -0.2522
  C  C183  1  0.104200  0.911100  0.064600  1.0  -0.0279
  C  C184  1  0.165300  0.948200  0.104800  1.0  0.0132
  C  C185  1  0.615700  0.387000  0.781400  1.0  0.0162
  C  C186  1  0.671800  0.345700  0.818500  1.0  -0.0524
  C  C187  1  0.597200  0.300600  0.835260  1.0  -0.1852
  C  C188  1  0.467300  0.298900  0.815710  1.0  -0.0384
  C  C189  1  0.414400  0.341680  0.778740  1.0  0.1662
  C  C190  1  0.282300  0.335860  0.749870  1.0  0.1557
  C  C191  1  0.247100  0.285930  0.719190  1.0  -0.0161
  C  C192  1  0.127400  0.282200  0.688850  1.0  -0.1906
  C  C193  1  0.040200  0.327800  0.691600  1.0  -0.0748
  C  C194  1  0.076800  0.376000  0.723500  1.0  0.032
  C  C195  1  0.555200  0.465400  0.627600  1.0  0.0135
  C  C196  1  0.575700  0.429600  0.585200  1.0  -0.0534
  C  C197  1  0.479800  0.422120  0.540500  1.0  -0.2219
  C  C198  1  0.365300  0.452200  0.540110  1.0  -0.0568
  C  C199  1  0.347600  0.487770  0.583890  1.0  0.1541
  C  C200  1  0.226200  0.519900  0.584200  1.0  0.1592
  C  C201  1  0.178400  0.557300  0.542000  1.0  -0.0393
  C  C202  1  0.058300  0.581700  0.540000  1.0  -0.1983
  C  C203  1  0.985200  0.567700  0.580800  1.0  -0.0744
  C  C204  1  0.035000  0.530500  0.622400  1.0  0.0211
  S  S205  1  0.233790  0.293370  0.081970  1.0  1.3897
  S  S206  1  0.392100  0.626700  0.994300  1.0  1.3663
  S  S207  1  0.161330  0.257060  0.880030  1.0  1.3763
  S  S208  1  0.592920  0.279280  0.643910  1.0  1.3828
  S  S209  1  0.994260  0.126630  0.484880  1.0  1.4024
  S  S210  1  0.498210  0.871670  0.484240  1.0  1.3856
  S  S211  1  0.266210  0.793370  0.918030  1.0  1.3891
  S  S212  1  0.107900  0.126700  0.005700  1.0  1.3677
  S  S213  1  0.338670  0.757060  0.119970  1.0  1.376
  S  S214  1  0.907080  0.779280  0.356090  1.0  1.3834
  S  S215  1  0.505740  0.626630  0.515120  1.0  1.4051
  S  S216  1  0.001790  0.371670  0.515760  1.0  1.3857
  S  S217  1  0.766210  0.706630  0.918030  1.0  1.3875
  S  S218  1  0.607900  0.373300  0.005700  1.0  1.3684
  S  S219  1  0.838670  0.742940  0.119970  1.0  1.3759
  S  S220  1  0.407080  0.720720  0.356090  1.0  1.3833
  S  S221  1  0.005740  0.873370  0.515120  1.0  1.4044
  S  S222  1  0.501790  0.128330  0.515760  1.0  1.3862
  S  S223  1  0.733790  0.206630  0.081970  1.0  1.3879
  S  S224  1  0.892100  0.873300  0.994300  1.0  1.366
  S  S225  1  0.661330  0.242940  0.880030  1.0  1.3767
  S  S226  1  0.092920  0.220720  0.643910  1.0  1.3821
  S  S227  1  0.494260  0.373370  0.484880  1.0  1.4014
  S  S228  1  0.998210  0.628330  0.484240  1.0  1.3864
  N  N229  1  0.405400  0.446340  0.183900  1.0  0.3669
  N  N230  1  0.601400  0.506860  0.124750  1.0  0.3521
  N  N231  1  0.990200  0.115710  0.762470  1.0  0.3263
  N  N232  1  0.696200  0.119910  0.750840  1.0  0.3633
  N  N233  1  0.942700  0.005430  0.626310  1.0  0.3266
  N  N234  1  0.653800  0.992450  0.624270  1.0  0.3926
  N  N235  1  0.094600  0.946340  0.816100  1.0  0.3678
  N  N236  1  0.898600  0.006860  0.875250  1.0  0.35
  N  N237  1  0.509800  0.615710  0.237530  1.0  0.3266
  N  N238  1  0.803800  0.619910  0.249160  1.0  0.3626
  N  N239  1  0.557300  0.505430  0.373690  1.0  0.3279
  N  N240  1  0.846200  0.492450  0.375730  1.0  0.3921
  N  N241  1  0.594600  0.553660  0.816100  1.0  0.3672
  N  N242  1  0.398600  0.493140  0.875250  1.0  0.3502
  N  N243  1  0.009800  0.884290  0.237530  1.0  0.3264
  N  N244  1  0.303800  0.880090  0.249160  1.0  0.3625
  N  N245  1  0.057300  0.994570  0.373690  1.0  0.3287
  N  N246  1  0.346200  0.007550  0.375730  1.0  0.3918
  N  N247  1  0.905400  0.053660  0.183900  1.0  0.3669
  N  N248  1  0.101400  0.993140  0.124750  1.0  0.3513
  N  N249  1  0.490200  0.384290  0.762470  1.0  0.3265
  N  N250  1  0.196200  0.380090  0.750840  1.0  0.363
  N  N251  1  0.442700  0.494570  0.626310  1.0  0.3272
  N  N252  1  0.153800  0.507550  0.624270  1.0  0.392
  Cl  Cl253  1  0.354680  0.004330  0.736720  1.0  -0.4929
  Cl  Cl254  1  0.145320  0.504330  0.263280  1.0  -0.493
  Cl  Cl255  1  0.645320  0.995670  0.263280  1.0  -0.4924
  Cl  Cl256  1  0.854680  0.495670  0.736720  1.0  -0.4925
  O  O257  1  0.456200  0.490670  0.214320  1.0  -0.6099
  O  O258  1  0.662900  0.471260  0.162270  1.0  -0.6343
  O  O259  1  0.938800  0.078390  0.723750  1.0  -0.6382
  O  O260  1  0.729400  0.071310  0.780170  1.0  -0.6366
  O  O261  1  0.927800  0.967300  0.666040  1.0  -0.642
  O  O262  1  0.698200  0.028940  0.663980  1.0  -0.6566
  O  O263  1  0.212000  0.313300  0.025560  1.0  -0.7042
  O  O264  1  0.116500  0.278390  0.102940  1.0  -0.6864
  O  O265  1  0.329600  0.247760  0.091600  1.0  -0.7181
  O  O266  1  0.359300  0.589110  0.947050  1.0  -0.5872
  O  O267  1  0.281900  0.646110  0.017840  1.0  -0.6913
  O  O268  1  0.482300  0.672900  0.985870  1.0  -0.6993
  O  O269  1  0.081900  0.256940  0.922940  1.0  -0.6511
  O  O270  1  0.294000  0.240930  0.898670  1.0  -0.6861
  O  O271  1  0.149400  0.309910  0.847480  1.0  -0.5551
  O  O272  1  0.520500  0.319620  0.672430  1.0  -0.5436
  O  O273  1  0.717600  0.301940  0.635120  1.0  -0.7021
  O  O274  1  0.522400  0.255380  0.593910  1.0  -0.7389
  O  O275  1  0.887200  0.166560  0.483480  1.0  -0.7188
  O  O276  1  0.116700  0.154710  0.498360  1.0  -0.6445
  O  O277  1  0.986000  0.089930  0.436620  1.0  -0.5996
  O  O278  1  0.407900  0.908800  0.449800  1.0  -0.6326
  O  O279  1  0.605400  0.857900  0.457100  1.0  -0.6409
  O  O280  1  0.436200  0.824100  0.507500  1.0  -0.6422
  O  O281  1  0.787100  0.159040  0.607610  1.0  -0.2295
  O  O282  1  0.872500  0.446940  0.251220  1.0  -0.2117
  O  O283  1  0.635000  0.388740  0.255380  1.0  -0.2716
  O  O284  1  0.994500  0.381800  0.920300  1.0  -0.2393
  O  O285  1  0.933300  0.394600  0.071800  1.0  -0.1931
  O  O286  1  0.748400  0.263200  0.419600  1.0  -0.2452
  O  O287  1  0.043800  0.990670  0.785680  1.0  -0.6088
  O  O288  1  0.837100  0.971260  0.837730  1.0  -0.6343
  O  O289  1  0.561200  0.578390  0.276250  1.0  -0.6387
  O  O290  1  0.770600  0.571310  0.219830  1.0  -0.6378
  O  O291  1  0.572200  0.467300  0.333960  1.0  -0.6401
  O  O292  1  0.801800  0.528940  0.336020  1.0  -0.6558
  O  O293  1  0.288000  0.813300  0.974440  1.0  -0.7072
  O  O294  1  0.383500  0.778390  0.897060  1.0  -0.6885
  O  O295  1  0.170400  0.747760  0.908400  1.0  -0.7188
  O  O296  1  0.140700  0.089110  0.052950  1.0  -0.5883
  O  O297  1  0.218100  0.146110  0.982160  1.0  -0.6919
  O  O298  1  0.017700  0.172900  0.014130  1.0  -0.6989
  O  O299  1  0.418100  0.756940  0.077060  1.0  -0.6518
  O  O300  1  0.206000  0.740930  0.101330  1.0  -0.6889
  O  O301  1  0.350600  0.809910  0.152520  1.0  -0.5536
  O  O302  1  0.979500  0.819620  0.327570  1.0  -0.5445
  O  O303  1  0.782400  0.801940  0.364880  1.0  -0.7052
  O  O304  1  0.977600  0.755380  0.406090  1.0  -0.7394
  O  O305  1  0.612800  0.666560  0.516520  1.0  -0.7174
  O  O306  1  0.383300  0.654710  0.501640  1.0  -0.6443
  O  O307  1  0.514000  0.589930  0.563380  1.0  -0.5948
  O  O308  1  0.092100  0.408800  0.550200  1.0  -0.6319
  O  O309  1  0.894600  0.357900  0.542900  1.0  -0.642
  O  O310  1  0.063800  0.324100  0.492500  1.0  -0.6399
  O  O311  1  0.712900  0.659040  0.392390  1.0  -0.2301
  O  O312  1  0.627500  0.946940  0.748780  1.0  -0.2131
  O  O313  1  0.865000  0.888740  0.744620  1.0  -0.2707
  O  O314  1  0.505500  0.881800  0.079700  1.0  -0.2378
  O  O315  1  0.566700  0.894600  0.928200  1.0  -0.1935
  O  O316  1  0.751600  0.763200  0.580400  1.0  -0.2472
  O  O317  1  0.543800  0.509330  0.785680  1.0  -0.6083
  O  O318  1  0.337100  0.528740  0.837730  1.0  -0.6366
  O  O319  1  0.061200  0.921610  0.276250  1.0  -0.6392
  O  O320  1  0.270600  0.928690  0.219830  1.0  -0.6357
  O  O321  1  0.072200  0.032700  0.333960  1.0  -0.6455
  O  O322  1  0.301800  0.971060  0.336020  1.0  -0.6558
  O  O323  1  0.788000  0.686700  0.974440  1.0  -0.7067
  O  O324  1  0.883500  0.721610  0.897060  1.0  -0.6885
  O  O325  1  0.670400  0.752240  0.908400  1.0  -0.7178
  O  O326  1  0.640700  0.410890  0.052950  1.0  -0.5886
  O  O327  1  0.718100  0.353890  0.982160  1.0  -0.6925
  O  O328  1  0.517700  0.327100  0.014130  1.0  -0.7002
  O  O329  1  0.918100  0.743060  0.077060  1.0  -0.6522
  O  O330  1  0.706000  0.759070  0.101330  1.0  -0.6891
  O  O331  1  0.850600  0.690090  0.152520  1.0  -0.5533
  O  O332  1  0.479500  0.680380  0.327570  1.0  -0.5454
  O  O333  1  0.282400  0.698060  0.364880  1.0  -0.705
  O  O334  1  0.477600  0.744620  0.406090  1.0  -0.7393
  O  O335  1  0.112800  0.833440  0.516520  1.0  -0.719
  O  O336  1  0.883300  0.845290  0.501640  1.0  -0.645
  O  O337  1  0.014000  0.910070  0.563380  1.0  -0.5892
  O  O338  1  0.592100  0.091200  0.550200  1.0  -0.6306
  O  O339  1  0.394600  0.142100  0.542900  1.0  -0.6416
  O  O340  1  0.563800  0.175900  0.492500  1.0  -0.6379
  O  O341  1  0.212900  0.840960  0.392390  1.0  -0.2298
  O  O342  1  0.127500  0.553060  0.748780  1.0  -0.2095
  O  O343  1  0.365000  0.611260  0.744620  1.0  -0.2711
  O  O344  1  0.005500  0.618200  0.079700  1.0  -0.2396
  O  O345  1  0.066700  0.605400  0.928200  1.0  -0.1938
  O  O346  1  0.251600  0.736800  0.580400  1.0  -0.2474
  O  O347  1  0.956200  0.009330  0.214320  1.0  -0.6105
  O  O348  1  0.162900  0.028740  0.162270  1.0  -0.6342
  O  O349  1  0.438800  0.421610  0.723750  1.0  -0.637
  O  O350  1  0.229400  0.428690  0.780170  1.0  -0.6377
  O  O351  1  0.427800  0.532700  0.666040  1.0  -0.6434
  O  O352  1  0.198200  0.471060  0.663980  1.0  -0.6575
  O  O353  1  0.712000  0.186700  0.025560  1.0  -0.7041
  O  O354  1  0.616500  0.221610  0.102940  1.0  -0.6868
  O  O355  1  0.829600  0.252240  0.091600  1.0  -0.7162
  O  O356  1  0.859300  0.910890  0.947050  1.0  -0.5876
  O  O357  1  0.781900  0.853890  0.017840  1.0  -0.691
  O  O358  1  0.982300  0.827100  0.985870  1.0  -0.7006
  O  O359  1  0.581900  0.243060  0.922940  1.0  -0.6513
  O  O360  1  0.794000  0.259070  0.898670  1.0  -0.6872
  O  O361  1  0.649400  0.190090  0.847480  1.0  -0.5547
  O  O362  1  0.020500  0.180380  0.672430  1.0  -0.5441
  O  O363  1  0.217600  0.198060  0.635120  1.0  -0.7017
  O  O364  1  0.022400  0.244620  0.593910  1.0  -0.7382
  O  O365  1  0.387200  0.333440  0.483480  1.0  -0.7189
  O  O366  1  0.616700  0.345290  0.498360  1.0  -0.6453
  O  O367  1  0.486000  0.410070  0.436620  1.0  -0.5918
  O  O368  1  0.907900  0.591200  0.449800  1.0  -0.6311
  O  O369  1  0.105400  0.642100  0.457100  1.0  -0.6402
  O  O370  1  0.936200  0.675900  0.507500  1.0  -0.6397
  O  O371  1  0.287100  0.340960  0.607610  1.0  -0.2295
  O  O372  1  0.372500  0.053060  0.251220  1.0  -0.209
  O  O373  1  0.135000  0.111260  0.255380  1.0  -0.2714
  O  O374  1  0.494500  0.118200  0.920300  1.0  -0.2415
  O  O375  1  0.433300  0.105400  0.071800  1.0  -0.1936
  O  O376  1  0.248400  0.236800  0.419600  1.0  -0.2453
