# generated using pymatgen
data_Ni5H22C16(N2O9)2
_symmetry_space_group_name_H-M   'P 1'
_cell_length_a   11.70600000
_cell_length_b   18.18600000
_cell_length_c   18.18600000
_cell_angle_alpha   90.00000000
_cell_angle_beta   90.00000000
_cell_angle_gamma   90.00000000
_symmetry_Int_Tables_number   1
_chemical_formula_structural   Ni5H22C16(N2O9)2
_chemical_formula_sum   'Ni20 H88 C64 N16 O72'
_cell_volume   3871.53235678
_cell_formula_units_Z   4
loop_
 _symmetry_equiv_pos_site_id
 _symmetry_equiv_pos_as_xyz
  1  'x, y, z'
loop_
 _atom_site_type_symbol
 _atom_site_label
 _atom_site_symmetry_multiplicity
 _atom_site_fract_x
 _atom_site_fract_y
 _atom_site_fract_z
 _atom_site_occupancy
 _atom_site_charge
  Ni  Ni1  1  0.160900  0.542890  0.939400  1.0  1.1328
  Ni  Ni2  1  0.936000  0.593100  0.875760  1.0  0.9382
  Ni  Ni3  1  0.660900  0.457110  0.060600  1.0  1.1319
  Ni  Ni4  1  0.436000  0.406900  0.124240  1.0  0.9375
  Ni  Ni5  1  0.910900  0.560600  0.042890  1.0  1.1325
  Ni  Ni6  1  0.686000  0.624240  0.093100  1.0  0.938
  Ni  Ni7  1  0.410900  0.439400  0.957110  1.0  1.1344
  Ni  Ni8  1  0.186000  0.375760  0.906900  1.0  0.9378
  Ni  Ni9  1  0.589100  0.957110  0.439400  1.0  1.1421
  Ni  Ni10  1  0.814000  0.906900  0.375760  1.0  0.9374
  Ni  Ni11  1  0.089100  0.042890  0.560600  1.0  1.1425
  Ni  Ni12  1  0.314000  0.093100  0.624240  1.0  0.938
  Ni  Ni13  1  0.839100  0.939400  0.542890  1.0  1.143
  Ni  Ni14  1  0.064000  0.875760  0.593100  1.0  0.9377
  Ni  Ni15  1  0.339100  0.060600  0.457110  1.0  1.1436
  Ni  Ni16  1  0.564000  0.124240  0.406900  1.0  0.9375
  Ni  Ni17  1  0.000000  0.744400  0.744400  1.0  0.862
  Ni  Ni18  1  0.500000  0.255600  0.255600  1.0  0.8632
  Ni  Ni19  1  0.750000  0.755600  0.244400  1.0  0.8627
  Ni  Ni20  1  0.250000  0.244400  0.755600  1.0  0.8619
  H  H21  1  0.891100  0.555900  0.745900  1.0  0.3494
  H  H22  1  0.787800  0.543500  0.789100  1.0  0.3347
  H  H23  1  0.109000  0.823300  0.833300  1.0  0.325
  H  H24  1  0.162800  0.832700  0.760900  1.0  0.3021
  H  H25  1  0.889200  0.435000  0.746800  1.0  0.0968
  H  H26  1  0.817100  0.372200  0.851000  1.0  0.1561
  H  H27  1  0.728300  0.431800  0.826600  1.0  0.1606
  H  H28  1  0.264000  0.754600  0.848800  1.0  0.0814
  H  H29  1  0.333900  0.764700  0.736700  1.0  0.1284
  H  H30  1  0.346600  0.683400  0.764600  1.0  0.1565
  H  H31  1  0.284900  0.478100  0.844600  1.0  0.4362
  H  H32  1  0.391100  0.444100  0.254100  1.0  0.3483
  H  H33  1  0.287800  0.456500  0.210900  1.0  0.3347
  H  H34  1  0.609000  0.176700  0.166700  1.0  0.3283
  H  H35  1  0.662800  0.167300  0.239100  1.0  0.3007
  H  H36  1  0.389200  0.565000  0.253200  1.0  0.0966
  H  H37  1  0.317100  0.627800  0.149000  1.0  0.1547
  H  H38  1  0.228300  0.568200  0.173400  1.0  0.1615
  H  H39  1  0.764000  0.245400  0.151200  1.0  0.0804
  H  H40  1  0.833900  0.235300  0.263300  1.0  0.1285
  H  H41  1  0.846600  0.316600  0.235400  1.0  0.1539
  H  H42  1  0.784900  0.521900  0.155400  1.0  0.4344
  H  H43  1  0.641100  0.754100  0.055900  1.0  0.3489
  H  H44  1  0.537800  0.710900  0.043500  1.0  0.3343
  H  H45  1  0.859000  0.666667  0.323300  1.0  0.3281
  H  H46  1  0.912800  0.739100  0.332700  1.0  0.3029
  H  H47  1  0.639200  0.753200  0.935000  1.0  0.0951
  H  H48  1  0.567100  0.649000  0.872200  1.0  0.1485
  H  H49  1  0.478300  0.673400  0.931800  1.0  0.1632
  H  H50  1  0.014000  0.651200  0.254600  1.0  0.0825
  H  H51  1  0.083900  0.763300  0.264700  1.0  0.1292
  H  H52  1  0.096600  0.735400  0.183400  1.0  0.1568
  H  H53  1  0.034900  0.655400  0.978100  1.0  0.4342
  H  H54  1  0.141100  0.245900  0.944100  1.0  0.3515
  H  H55  1  0.037800  0.289100  0.956500  1.0  0.3334
  H  H56  1  0.359000  0.333333  0.676700  1.0  0.3284
  H  H57  1  0.412800  0.260900  0.667300  1.0  0.303
  H  H58  1  0.139200  0.246800  0.065000  1.0  0.094
  H  H59  1  0.067100  0.351000  0.127800  1.0  0.1515
  H  H60  1  0.978300  0.326600  0.068200  1.0  0.1627
  H  H61  1  0.514000  0.348800  0.745400  1.0  0.0813
  H  H62  1  0.583900  0.236700  0.735300  1.0  0.1284
  H  H63  1  0.596600  0.264600  0.816600  1.0  0.1525
  H  H64  1  0.534900  0.344600  0.021900  1.0  0.4352
  H  H65  1  0.858900  0.944100  0.245900  1.0  0.3488
  H  H66  1  0.962200  0.956500  0.289100  1.0  0.3353
  H  H67  1  0.641000  0.676700  0.333333  1.0  0.3267
  H  H68  1  0.587200  0.667300  0.260900  1.0  0.3034
  H  H69  1  0.860800  0.065000  0.246800  1.0  0.0967
  H  H70  1  0.932900  0.127800  0.351000  1.0  0.154
  H  H71  1  0.021700  0.068200  0.326600  1.0  0.1619
  H  H72  1  0.486000  0.745400  0.348800  1.0  0.0824
  H  H73  1  0.416100  0.735300  0.236700  1.0  0.1274
  H  H74  1  0.403400  0.816600  0.264600  1.0  0.1605
  H  H75  1  0.465100  0.021900  0.344600  1.0  0.4341
  H  H76  1  0.358900  0.055900  0.754100  1.0  0.3477
  H  H77  1  0.462200  0.043500  0.710900  1.0  0.3341
  H  H78  1  0.141000  0.323300  0.666667  1.0  0.3273
  H  H79  1  0.087200  0.332700  0.739100  1.0  0.3021
  H  H80  1  0.360800  0.935000  0.753200  1.0  0.0965
  H  H81  1  0.432900  0.872200  0.649000  1.0  0.1567
  H  H82  1  0.521700  0.931800  0.673400  1.0  0.1623
  H  H83  1  0.986000  0.254600  0.651200  1.0  0.081
  H  H84  1  0.916100  0.264700  0.763300  1.0  0.1288
  H  H85  1  0.903400  0.183400  0.735400  1.0  0.1627
  H  H86  1  0.965100  0.978100  0.655400  1.0  0.4333
  H  H87  1  0.108900  0.745900  0.555900  1.0  0.3502
  H  H88  1  0.212200  0.789100  0.543500  1.0  0.3334
  H  H89  1  0.891000  0.833300  0.823300  1.0  0.3276
  H  H90  1  0.837200  0.760900  0.832700  1.0  0.3024
  H  H91  1  0.110800  0.746800  0.435000  1.0  0.0939
  H  H92  1  0.182900  0.851000  0.372200  1.0  0.1507
  H  H93  1  0.271700  0.826600  0.431800  1.0  0.1635
  H  H94  1  0.736000  0.848800  0.754600  1.0  0.0824
  H  H95  1  0.666100  0.736700  0.764700  1.0  0.1288
  H  H96  1  0.653400  0.764600  0.683400  1.0  0.1616
  H  H97  1  0.715100  0.844600  0.478100  1.0  0.4345
  H  H98  1  0.608900  0.254100  0.444100  1.0  0.3491
  H  H99  1  0.712200  0.210900  0.456500  1.0  0.3339
  H  H100  1  0.391000  0.166700  0.176700  1.0  0.3283
  H  H101  1  0.337200  0.239100  0.167300  1.0  0.3027
  H  H102  1  0.610800  0.253200  0.565000  1.0  0.0945
  H  H103  1  0.682900  0.149000  0.627800  1.0  0.1502
  H  H104  1  0.771700  0.173400  0.568200  1.0  0.1635
  H  H105  1  0.236000  0.151200  0.245400  1.0  0.0818
  H  H106  1  0.166100  0.263300  0.235300  1.0  0.1274
  H  H107  1  0.153400  0.235400  0.316600  1.0  0.1604
  H  H108  1  0.215100  0.155400  0.521900  1.0  0.4331
  C  C109  1  0.009000  0.448000  0.827000  1.0  0.6329
  C  C110  1  0.894000  0.458700  0.795100  1.0  0.0805
  C  C111  1  0.804000  0.424700  0.847700  1.0  -0.3856
  C  C112  1  0.805000  0.456800  0.924300  1.0  0.7319
  C  C113  1  0.150000  0.673700  0.840600  1.0  0.6495
  C  C114  1  0.214000  0.736700  0.809000  1.0  0.0675
  C  C115  1  0.292000  0.719800  0.745200  1.0  -0.3714
  C  C116  1  0.229000  0.695000  0.685000  1.0  0.6739
  C  C117  1  0.509000  0.552000  0.173000  1.0  0.6318
  C  C118  1  0.394000  0.541300  0.204900  1.0  0.0821
  C  C119  1  0.304000  0.575300  0.152300  1.0  -0.3847
  C  C120  1  0.305000  0.543200  0.075700  1.0  0.7326
  C  C121  1  0.650000  0.326300  0.159400  1.0  0.6484
  C  C122  1  0.714000  0.263300  0.191000  1.0  0.0687
  C  C123  1  0.792000  0.280200  0.254800  1.0  -0.3714
  C  C124  1  0.729000  0.305000  0.315000  1.0  0.6746
  C  C125  1  0.759000  0.673000  0.948000  1.0  0.6318
  C  C126  1  0.644000  0.704900  0.958700  1.0  0.0788
  C  C127  1  0.554000  0.652300  0.924700  1.0  -0.3844
  C  C128  1  0.555000  0.575700  0.956800  1.0  0.7314
  C  C129  1  0.900000  0.659400  0.173700  1.0  0.6485
  C  C130  1  0.964000  0.691000  0.236700  1.0  0.067
  C  C131  1  0.042000  0.754800  0.219800  1.0  -0.3706
  C  C132  1  0.979000  0.815000  0.195000  1.0  0.6751
  C  C133  1  0.259000  0.327000  0.052000  1.0  0.6325
  C  C134  1  0.144000  0.295100  0.041300  1.0  0.0784
  C  C135  1  0.054000  0.347700  0.075300  1.0  -0.3858
  C  C136  1  0.055000  0.424300  0.043200  1.0  0.7316
  C  C137  1  0.400000  0.340600  0.826300  1.0  0.6488
  C  C138  1  0.464000  0.309000  0.763300  1.0  0.0667
  C  C139  1  0.542000  0.245200  0.780200  1.0  -0.371
  C  C140  1  0.479000  0.185000  0.805000  1.0  0.6744
  C  C141  1  0.741000  0.052000  0.327000  1.0  0.6306
  C  C142  1  0.856000  0.041300  0.295100  1.0  0.0779
  C  C143  1  0.946000  0.075300  0.347700  1.0  -0.3852
  C  C144  1  0.945000  0.043200  0.424300  1.0  0.7313
  C  C145  1  0.600000  0.826300  0.340600  1.0  0.6479
  C  C146  1  0.536000  0.763300  0.309000  1.0  0.0686
  C  C147  1  0.458000  0.780200  0.245200  1.0  -0.3696
  C  C148  1  0.521000  0.805000  0.185000  1.0  0.6738
  C  C149  1  0.241000  0.948000  0.673000  1.0  0.6301
  C  C150  1  0.356000  0.958700  0.704900  1.0  0.0817
  C  C151  1  0.446000  0.924700  0.652300  1.0  -0.3835
  C  C152  1  0.445000  0.956800  0.575700  1.0  0.7319
  C  C153  1  0.100000  0.173700  0.659400  1.0  0.65
  C  C154  1  0.036000  0.236700  0.691000  1.0  0.0684
  C  C155  1  0.958000  0.219800  0.754800  1.0  -0.3706
  C  C156  1  0.021000  0.195000  0.815000  1.0  0.6739
  C  C157  1  0.991000  0.827000  0.448000  1.0  0.6306
  C  C158  1  0.106000  0.795100  0.458700  1.0  0.0773
  C  C159  1  0.196000  0.847700  0.424700  1.0  -0.3835
  C  C160  1  0.195000  0.924300  0.456800  1.0  0.7308
  C  C161  1  0.850000  0.840600  0.673700  1.0  0.6487
  C  C162  1  0.786000  0.809000  0.736700  1.0  0.0668
  C  C163  1  0.708000  0.745200  0.719800  1.0  -0.3702
  C  C164  1  0.771000  0.685000  0.695000  1.0  0.674
  C  C165  1  0.491000  0.173000  0.552000  1.0  0.6287
  C  C166  1  0.606000  0.204900  0.541300  1.0  0.0787
  C  C167  1  0.696000  0.152300  0.575300  1.0  -0.385
  C  C168  1  0.695000  0.075700  0.543200  1.0  0.7308
  C  C169  1  0.350000  0.159400  0.326300  1.0  0.6504
  C  C170  1  0.286000  0.191000  0.263300  1.0  0.0677
  C  C171  1  0.208000  0.254800  0.280200  1.0  -0.3706
  C  C172  1  0.271000  0.315000  0.305000  1.0  0.676
  N  N173  1  0.864100  0.537800  0.788600  1.0  -0.684
  N  N174  1  0.131000  0.800000  0.792100  1.0  -0.6679
  N  N175  1  0.364100  0.462200  0.211400  1.0  -0.6858
  N  N176  1  0.631000  0.200000  0.207900  1.0  -0.6671
  N  N177  1  0.614100  0.711400  0.037800  1.0  -0.6828
  N  N178  1  0.881000  0.707900  0.300000  1.0  -0.669
  N  N179  1  0.114100  0.288600  0.962200  1.0  -0.6814
  N  N180  1  0.381000  0.292100  0.700000  1.0  -0.6705
  N  N181  1  0.885900  0.962200  0.288600  1.0  -0.6859
  N  N182  1  0.619000  0.700000  0.292100  1.0  -0.6621
  N  N183  1  0.385900  0.037800  0.711400  1.0  -0.6844
  N  N184  1  0.119000  0.300000  0.707900  1.0  -0.6672
  N  N185  1  0.135900  0.788600  0.537800  1.0  -0.6822
  N  N186  1  0.869000  0.792100  0.800000  1.0  -0.6728
  N  N187  1  0.635900  0.211400  0.462200  1.0  -0.6821
  N  N188  1  0.369000  0.207900  0.200000  1.0  -0.6722
  O  O189  1  0.054600  0.513900  0.851400  1.0  -0.6431
  O  O190  1  0.058300  0.391200  0.835500  1.0  -0.5237
  O  O191  1  0.748300  0.418700  0.972100  1.0  -0.6184
  O  O192  1  0.853100  0.515000  0.943200  1.0  -0.6197
  O  O193  1  0.043900  0.671700  0.824500  1.0  -0.5943
  O  O194  1  0.209400  0.631100  0.879100  1.0  -0.5691
  O  O195  1  0.118600  0.695900  0.680100  1.0  -0.5774
  O  O196  1  0.282000  0.655000  0.634000  1.0  -0.6452
  O  O197  1  0.273200  0.470700  0.897700  1.0  -0.9675
  O  O198  1  0.554600  0.486100  0.148600  1.0  -0.6428
  O  O199  1  0.558300  0.608800  0.164500  1.0  -0.5234
  O  O200  1  0.248300  0.581300  0.027900  1.0  -0.6178
  O  O201  1  0.353100  0.485000  0.056800  1.0  -0.6195
  O  O202  1  0.543900  0.328300  0.175500  1.0  -0.5942
  O  O203  1  0.709400  0.368900  0.120900  1.0  -0.5687
  O  O204  1  0.618600  0.304100  0.319900  1.0  -0.5769
  O  O205  1  0.782000  0.345000  0.366000  1.0  -0.6515
  O  O206  1  0.773200  0.529300  0.102300  1.0  -0.968
  O  O207  1  0.804600  0.648600  0.013900  1.0  -0.6448
  O  O208  1  0.808300  0.664500  0.891200  1.0  -0.5242
  O  O209  1  0.498300  0.527900  0.918700  1.0  -0.6187
  O  O210  1  0.603100  0.556800  0.015000  1.0  -0.6188
  O  O211  1  0.793900  0.675500  0.171700  1.0  -0.5942
  O  O212  1  0.959400  0.620900  0.131100  1.0  -0.5695
  O  O213  1  0.868600  0.819900  0.195900  1.0  -0.5754
  O  O214  1  0.032000  0.866000  0.155000  1.0  -0.6453
  O  O215  1  0.023200  0.602300  0.970700  1.0  -0.9672
  O  O216  1  0.304600  0.351400  0.986100  1.0  -0.6443
  O  O217  1  0.308300  0.335500  0.108800  1.0  -0.5237
  O  O218  1  0.998300  0.472100  0.081300  1.0  -0.6198
  O  O219  1  0.103100  0.443200  0.985000  1.0  -0.6193
  O  O220  1  0.293900  0.324500  0.828300  1.0  -0.5936
  O  O221  1  0.459400  0.379100  0.868900  1.0  -0.5689
  O  O222  1  0.368600  0.180100  0.804100  1.0  -0.5775
  O  O223  1  0.532000  0.134000  0.845000  1.0  -0.6457
  O  O224  1  0.523200  0.397700  0.029300  1.0  -0.9692
  O  O225  1  0.695400  0.986100  0.351400  1.0  -0.6428
  O  O226  1  0.691700  0.108800  0.335500  1.0  -0.5238
  O  O227  1  0.001700  0.081300  0.472100  1.0  -0.6165
  O  O228  1  0.896900  0.985000  0.443200  1.0  -0.6194
  O  O229  1  0.706100  0.828300  0.324500  1.0  -0.5948
  O  O230  1  0.540600  0.868900  0.379100  1.0  -0.5689
  O  O231  1  0.631400  0.804100  0.180100  1.0  -0.5773
  O  O232  1  0.468000  0.845000  0.134000  1.0  -0.648
  O  O233  1  0.476800  0.029300  0.397700  1.0  -0.9669
  O  O234  1  0.195400  0.013900  0.648600  1.0  -0.6432
  O  O235  1  0.191700  0.891200  0.664500  1.0  -0.5231
  O  O236  1  0.501700  0.918700  0.527900  1.0  -0.6174
  O  O237  1  0.396900  0.015000  0.556800  1.0  -0.6199
  O  O238  1  0.206100  0.171700  0.675500  1.0  -0.5943
  O  O239  1  0.040600  0.131100  0.620900  1.0  -0.5694
  O  O240  1  0.131400  0.195900  0.819900  1.0  -0.5783
  O  O241  1  0.968000  0.155000  0.866000  1.0  -0.6476
  O  O242  1  0.976800  0.970700  0.602300  1.0  -0.9677
  O  O243  1  0.945400  0.851400  0.513900  1.0  -0.6446
  O  O244  1  0.941700  0.835500  0.391200  1.0  -0.5241
  O  O245  1  0.251700  0.972100  0.418700  1.0  -0.6176
  O  O246  1  0.146900  0.943200  0.515000  1.0  -0.6197
  O  O247  1  0.956100  0.824500  0.671700  1.0  -0.5942
  O  O248  1  0.790600  0.879100  0.631100  1.0  -0.5697
  O  O249  1  0.881400  0.680100  0.695900  1.0  -0.5765
  O  O250  1  0.718000  0.634000  0.655000  1.0  -0.6389
  O  O251  1  0.726800  0.897700  0.470700  1.0  -0.9684
  O  O252  1  0.445400  0.148600  0.486100  1.0  -0.6443
  O  O253  1  0.441700  0.164500  0.608800  1.0  -0.5237
  O  O254  1  0.751700  0.027900  0.581300  1.0  -0.619
  O  O255  1  0.646900  0.056800  0.485000  1.0  -0.6189
  O  O256  1  0.456100  0.175500  0.328300  1.0  -0.5941
  O  O257  1  0.290600  0.120900  0.368900  1.0  -0.5692
  O  O258  1  0.381400  0.319900  0.304100  1.0  -0.5774
  O  O259  1  0.218000  0.366000  0.345000  1.0  -0.6444
  O  O260  1  0.226800  0.102300  0.529300  1.0  -0.967
