# generated using pymatgen
data_Ba2SmH18C30S6N6ClO30
_symmetry_space_group_name_H-M   'P 1'
_cell_length_a   10.51100000
_cell_length_b   23.01600000
_cell_length_c   24.57900000
_cell_angle_alpha   90.00000000
_cell_angle_beta   98.64300000
_cell_angle_gamma   90.00000000
_symmetry_Int_Tables_number   1
_chemical_formula_structural   Ba2SmH18C30S6N6ClO30
_chemical_formula_sum   'Ba8 Sm4 H72 C120 S24 N24 Cl4 O120'
_cell_volume   5878.65503031
_cell_formula_units_Z   4
loop_
 _symmetry_equiv_pos_site_id
 _symmetry_equiv_pos_as_xyz
  1  'x, y, z'
loop_
 _atom_site_type_symbol
 _atom_site_label
 _atom_site_symmetry_multiplicity
 _atom_site_fract_x
 _atom_site_fract_y
 _atom_site_fract_z
 _atom_site_occupancy
 _atom_site_charge
  Ba  Ba1  1  0.557290  0.788200  0.001680  1.0  1.6299
  Ba  Ba2  1  0.234360  0.749190  0.469600  1.0  1.6141
  Ba  Ba3  1  0.942710  0.288200  0.998320  1.0  1.6301
  Ba  Ba4  1  0.265640  0.249190  0.530400  1.0  1.6158
  Ba  Ba5  1  0.442710  0.211800  0.998320  1.0  1.6297
  Ba  Ba6  1  0.765640  0.250810  0.530400  1.0  1.6129
  Ba  Ba7  1  0.057290  0.711800  0.001680  1.0  1.6299
  Ba  Ba8  1  0.734360  0.750810  0.469600  1.0  1.6136
  Sm  Sm9  1  0.832360  0.995470  0.742880  1.0  2.2732
  Sm  Sm10  1  0.667640  0.495470  0.257120  1.0  2.2708
  Sm  Sm11  1  0.167640  0.004530  0.257120  1.0  2.2675
  Sm  Sm12  1  0.332360  0.504530  0.742880  1.0  2.2705
  H  H13  1  0.162600  0.910400  0.755700  1.0  0.1371
  H  H14  1  0.252100  0.830400  0.807400  1.0  0.1387
  H  H15  1  0.138700  0.900800  0.942300  1.0  0.1339
  H  H16  1  0.180700  0.026600  0.950600  1.0  0.1464
  H  H17  1  0.855500  0.121300  0.949300  1.0  0.1279
  H  H18  1  0.748500  0.059200  0.883300  1.0  0.1433
  H  H19  1  0.829200  0.915000  0.230000  1.0  0.1343
  H  H20  1  0.735700  0.845700  0.167800  1.0  0.1291
  H  H21  1  0.082200  0.768000  0.174100  1.0  0.1361
  H  H22  1  0.190100  0.753400  0.283400  1.0  0.1398
  H  H23  1  0.542300  0.823700  0.333100  1.0  0.1354
  H  H24  1  0.481600  0.904100  0.277400  1.0  0.1331
  H  H25  1  0.013900  0.481800  0.352100  1.0  0.1411
  H  H26  1  0.096600  0.419200  0.421500  1.0  0.1269
  H  H27  1  0.766400  0.433200  0.486300  1.0  0.1381
  H  H28  1  0.702100  0.550500  0.493200  1.0  0.1267
  H  H29  1  0.348300  0.595600  0.417200  1.0  0.1366
  H  H30  1  0.378100  0.535800  0.343500  1.0  0.1322
  H  H31  1  0.337400  0.410400  0.244300  1.0  0.1368
  H  H32  1  0.247900  0.330400  0.192600  1.0  0.139
  H  H33  1  0.361300  0.400800  0.057700  1.0  0.1344
  H  H34  1  0.319300  0.526600  0.049400  1.0  0.1464
  H  H35  1  0.644500  0.621300  0.050700  1.0  0.1277
  H  H36  1  0.751500  0.559200  0.116700  1.0  0.1438
  H  H37  1  0.670800  0.415000  0.770000  1.0  0.1351
  H  H38  1  0.764300  0.345700  0.832200  1.0  0.1296
  H  H39  1  0.417800  0.268000  0.825900  1.0  0.1363
  H  H40  1  0.309900  0.253400  0.716600  1.0  0.14
  H  H41  1  0.957700  0.323700  0.666900  1.0  0.1356
  H  H42  1  0.018400  0.404100  0.722600  1.0  0.1332
  H  H43  1  0.486100  0.981800  0.647900  1.0  0.1416
  H  H44  1  0.403400  0.919200  0.578500  1.0  0.1271
  H  H45  1  0.733600  0.933200  0.513700  1.0  0.1376
  H  H46  1  0.797900  0.050500  0.506800  1.0  0.128
  H  H47  1  0.151700  0.095600  0.582800  1.0  0.1366
  H  H48  1  0.121900  0.035800  0.656500  1.0  0.1335
  H  H49  1  0.837400  0.089600  0.244300  1.0  0.1368
  H  H50  1  0.747900  0.169600  0.192600  1.0  0.1388
  H  H51  1  0.861300  0.099200  0.057700  1.0  0.1346
  H  H52  1  0.819300  0.973400  0.049400  1.0  0.1465
  H  H53  1  0.144500  0.878700  0.050700  1.0  0.1278
  H  H54  1  0.251500  0.940800  0.116700  1.0  0.1436
  H  H55  1  0.170800  0.085000  0.770000  1.0  0.135
  H  H56  1  0.264300  0.154300  0.832200  1.0  0.13
  H  H57  1  0.917800  0.232000  0.825900  1.0  0.1361
  H  H58  1  0.809900  0.246600  0.716600  1.0  0.1403
  H  H59  1  0.457700  0.176300  0.666900  1.0  0.1355
  H  H60  1  0.518400  0.095900  0.722600  1.0  0.1332
  H  H61  1  0.986100  0.518200  0.647900  1.0  0.1412
  H  H62  1  0.903400  0.580800  0.578500  1.0  0.1264
  H  H63  1  0.233600  0.566800  0.513700  1.0  0.1377
  H  H64  1  0.297900  0.449500  0.506800  1.0  0.1276
  H  H65  1  0.651700  0.404400  0.582800  1.0  0.1371
  H  H66  1  0.621900  0.464200  0.656500  1.0  0.1332
  H  H67  1  0.662600  0.589600  0.755700  1.0  0.1365
  H  H68  1  0.752100  0.669600  0.807400  1.0  0.1392
  H  H69  1  0.638700  0.599200  0.942300  1.0  0.1338
  H  H70  1  0.680700  0.473400  0.950600  1.0  0.1464
  H  H71  1  0.355500  0.378700  0.949300  1.0  0.1281
  H  H72  1  0.248500  0.440800  0.883300  1.0  0.1434
  H  H73  1  0.329200  0.585000  0.230000  1.0  0.1347
  H  H74  1  0.235700  0.654300  0.167800  1.0  0.129
  H  H75  1  0.582200  0.732000  0.174100  1.0  0.1364
  H  H76  1  0.690100  0.746600  0.283400  1.0  0.1401
  H  H77  1  0.042300  0.676300  0.333100  1.0  0.1358
  H  H78  1  0.981600  0.595900  0.277400  1.0  0.1334
  H  H79  1  0.513900  0.018200  0.352100  1.0  0.1404
  H  H80  1  0.596600  0.080800  0.421500  1.0  0.1268
  H  H81  1  0.266400  0.066800  0.486300  1.0  0.1379
  H  H82  1  0.202100  0.949500  0.493200  1.0  0.127
  H  H83  1  0.848300  0.904400  0.417200  1.0  0.1368
  H  H84  1  0.878100  0.964200  0.343500  1.0  0.1325
  C  C85  1  0.157300  0.907900  0.793800  1.0  0.0222
  C  C86  1  0.210100  0.860400  0.824300  1.0  -0.0329
  C  C87  1  0.200400  0.857700  0.879500  1.0  -0.1641
  C  C88  1  0.142400  0.902000  0.903900  1.0  -0.0494
  C  C89  1  0.089900  0.948100  0.873000  1.0  0.171
  C  C90  1  0.028800  0.998300  0.896300  1.0  0.1257
  C  C91  1  0.093000  0.033800  0.936300  1.0  -0.0212
  C  C92  1  0.027300  0.080600  0.956000  1.0  -0.235
  C  C93  1  0.900200  0.089700  0.936000  1.0  -0.0299
  C  C94  1  0.837100  0.053100  0.896700  1.0  0.0171
  C  C95  1  0.880400  0.884600  0.218600  1.0  0.0342
  C  C96  1  0.824900  0.843600  0.181800  1.0  -0.0544
  C  C97  1  0.898500  0.799600  0.165100  1.0  -0.1769
  C  C98  1  0.029700  0.797800  0.185600  1.0  -0.0308
  C  C99  1  0.082800  0.839100  0.222500  1.0  0.1795
  C  C100  1  0.215500  0.833800  0.252500  1.0  0.1644
  C  C101  1  0.249300  0.784600  0.283500  1.0  -0.0301
  C  C102  1  0.371100  0.781000  0.314900  1.0  -0.2267
  C  C103  1  0.458400  0.825800  0.312500  1.0  -0.0377
  C  C104  1  0.421900  0.873600  0.279700  1.0  0.0257
  C  C105  1  0.963700  0.471600  0.379700  1.0  0.0367
  C  C106  1  0.012200  0.434500  0.420500  1.0  -0.0534
  C  C107  1  0.939000  0.418600  0.460800  1.0  -0.2034
  C  C108  1  0.817800  0.442900  0.459000  1.0  -0.0269
  C  C109  1  0.772300  0.481100  0.417700  1.0  0.1617
  C  C110  1  0.651600  0.514100  0.418900  1.0  0.149
  C  C111  1  0.635600  0.548100  0.462500  1.0  -0.0313
  C  C112  1  0.522400  0.579500  0.462500  1.0  -0.1975
  C  C113  1  0.426300  0.574600  0.418000  1.0  -0.0502
  C  C114  1  0.444000  0.538900  0.374400  1.0  0.0106
  C  C115  1  0.342700  0.407900  0.206200  1.0  0.0194
  C  C116  1  0.289900  0.360400  0.175700  1.0  -0.0285
  C  C117  1  0.299600  0.357700  0.120500  1.0  -0.1631
  C  C118  1  0.357600  0.402000  0.096100  1.0  -0.0503
  C  C119  1  0.410100  0.448100  0.127000  1.0  0.1707
  C  C120  1  0.471200  0.498300  0.103700  1.0  0.1244
  C  C121  1  0.407000  0.533800  0.063700  1.0  -0.0201
  C  C122  1  0.472700  0.580600  0.044000  1.0  -0.2365
  C  C123  1  0.599800  0.589700  0.064000  1.0  -0.0291
  C  C124  1  0.662900  0.553100  0.103300  1.0  0.0151
  C  C125  1  0.619600  0.384600  0.781400  1.0  0.0335
  C  C126  1  0.675100  0.343600  0.818200  1.0  -0.0556
  C  C127  1  0.601500  0.299600  0.834900  1.0  -0.1739
  C  C128  1  0.470300  0.297800  0.814400  1.0  -0.0295
  C  C129  1  0.417200  0.339100  0.777500  1.0  0.1788
  C  C130  1  0.284500  0.333800  0.747500  1.0  0.1633
  C  C131  1  0.250700  0.284600  0.716500  1.0  -0.0299
  C  C132  1  0.128900  0.281000  0.685100  1.0  -0.2292
  C  C133  1  0.041600  0.325800  0.687500  1.0  -0.0366
  C  C134  1  0.078100  0.373600  0.720300  1.0  0.0268
  C  C135  1  0.536300  0.971600  0.620300  1.0  0.0373
  C  C136  1  0.487800  0.934500  0.579500  1.0  -0.0508
  C  C137  1  0.561000  0.918600  0.539200  1.0  -0.2053
  C  C138  1  0.682200  0.942900  0.541000  1.0  -0.0271
  C  C139  1  0.727700  0.981100  0.582300  1.0  0.1619
  C  C140  1  0.848400  0.014100  0.581100  1.0  0.1493
  C  C141  1  0.864400  0.048100  0.537500  1.0  -0.0324
  C  C142  1  0.977600  0.079500  0.537500  1.0  -0.1991
  C  C143  1  0.073700  0.074600  0.582000  1.0  -0.0502
  C  C144  1  0.056000  0.038900  0.625600  1.0  0.0116
  C  C145  1  0.842700  0.092100  0.206200  1.0  0.0196
  C  C146  1  0.789900  0.139600  0.175700  1.0  -0.0299
  C  C147  1  0.799600  0.142300  0.120500  1.0  -0.1627
  C  C148  1  0.857600  0.098000  0.096100  1.0  -0.0499
  C  C149  1  0.910100  0.051900  0.127000  1.0  0.1711
  C  C150  1  0.971200  0.001700  0.103700  1.0  0.1243
  C  C151  1  0.907000  0.966200  0.063700  1.0  -0.0203
  C  C152  1  0.972700  0.919400  0.044000  1.0  -0.2369
  C  C153  1  0.099800  0.910300  0.064000  1.0  -0.0284
  C  C154  1  0.162900  0.946900  0.103300  1.0  0.0145
  C  C155  1  0.119600  0.115400  0.781400  1.0  0.034
  C  C156  1  0.175100  0.156400  0.818200  1.0  -0.0557
  C  C157  1  0.101500  0.200400  0.834900  1.0  -0.1742
  C  C158  1  0.970300  0.202200  0.814400  1.0  -0.0299
  C  C159  1  0.917200  0.160900  0.777500  1.0  0.1788
  C  C160  1  0.784500  0.166200  0.747500  1.0  0.1634
  C  C161  1  0.750700  0.215400  0.716500  1.0  -0.03
  C  C162  1  0.628900  0.219000  0.685100  1.0  -0.2291
  C  C163  1  0.541600  0.174200  0.687500  1.0  -0.0364
  C  C164  1  0.578100  0.126400  0.720300  1.0  0.027
  C  C165  1  0.036300  0.528400  0.620300  1.0  0.0376
  C  C166  1  0.987800  0.565500  0.579500  1.0  -0.0532
  C  C167  1  0.061000  0.581400  0.539200  1.0  -0.203
  C  C168  1  0.182200  0.557100  0.541000  1.0  -0.0268
  C  C169  1  0.227700  0.518900  0.582300  1.0  0.1617
  C  C170  1  0.348400  0.485900  0.581100  1.0  0.1494
  C  C171  1  0.364400  0.451900  0.537500  1.0  -0.0324
  C  C172  1  0.477600  0.420500  0.537500  1.0  -0.1993
  C  C173  1  0.573700  0.425400  0.582000  1.0  -0.0507
  C  C174  1  0.556000  0.461100  0.625600  1.0  0.0116
  C  C175  1  0.657300  0.592100  0.793800  1.0  0.0217
  C  C176  1  0.710100  0.639600  0.824300  1.0  -0.0326
  C  C177  1  0.700400  0.642300  0.879500  1.0  -0.1638
  C  C178  1  0.642400  0.598000  0.903900  1.0  -0.0498
  C  C179  1  0.589900  0.551900  0.873000  1.0  0.1712
  C  C180  1  0.528800  0.501700  0.896300  1.0  0.1255
  C  C181  1  0.593000  0.466200  0.936300  1.0  -0.0214
  C  C182  1  0.527300  0.419400  0.956000  1.0  -0.2346
  C  C183  1  0.400200  0.410300  0.936000  1.0  -0.0294
  C  C184  1  0.337100  0.446900  0.896700  1.0  0.0168
  C  C185  1  0.380400  0.615400  0.218600  1.0  0.0346
  C  C186  1  0.324900  0.656400  0.181800  1.0  -0.0548
  C  C187  1  0.398500  0.700400  0.165100  1.0  -0.1763
  C  C188  1  0.529700  0.702200  0.185600  1.0  -0.0311
  C  C189  1  0.582800  0.660900  0.222500  1.0  0.1793
  C  C190  1  0.715500  0.666200  0.252500  1.0  0.1645
  C  C191  1  0.749300  0.715400  0.283500  1.0  -0.0305
  C  C192  1  0.871100  0.719000  0.314900  1.0  -0.227
  C  C193  1  0.958400  0.674200  0.312500  1.0  -0.0373
  C  C194  1  0.921900  0.626400  0.279700  1.0  0.0258
  C  C195  1  0.463700  0.028400  0.379700  1.0  0.0367
  C  C196  1  0.512200  0.065500  0.420500  1.0  -0.0529
  C  C197  1  0.439000  0.081400  0.460800  1.0  -0.2016
  C  C198  1  0.317800  0.057100  0.459000  1.0  -0.0277
  C  C199  1  0.272300  0.018900  0.417700  1.0  0.1615
  C  C200  1  0.151600  0.985900  0.418900  1.0  0.1492
  C  C201  1  0.135600  0.951900  0.462500  1.0  -0.0313
  C  C202  1  0.022400  0.920500  0.462500  1.0  -0.1976
  C  C203  1  0.926300  0.925400  0.418000  1.0  -0.0506
  C  C204  1  0.944000  0.961100  0.374400  1.0  0.0112
  S  S205  1  0.258010  0.794230  0.917510  1.0  1.396
  S  S206  1  0.113300  0.127550  0.006640  1.0  1.3836
  S  S207  1  0.834520  0.742580  0.119740  1.0  1.3688
  S  S208  1  0.405300  0.720620  0.359430  1.0  1.3989
  S  S209  1  0.512540  0.626910  0.519110  1.0  1.3875
  S  S210  1  0.000130  0.371820  0.516250  1.0  1.3537
  S  S211  1  0.241990  0.294230  0.082490  1.0  1.3961
  S  S212  1  0.386700  0.627550  0.993360  1.0  1.382
  S  S213  1  0.665480  0.242580  0.880260  1.0  1.3706
  S  S214  1  0.094700  0.220620  0.640570  1.0  1.3982
  S  S215  1  0.987460  0.126910  0.480890  1.0  1.3861
  S  S216  1  0.499870  0.871820  0.483750  1.0  1.3532
  S  S217  1  0.741990  0.205770  0.082490  1.0  1.3948
  S  S218  1  0.886700  0.872450  0.993360  1.0  1.3817
  S  S219  1  0.165480  0.257420  0.880260  1.0  1.3703
  S  S220  1  0.594700  0.279380  0.640570  1.0  1.3988
  S  S221  1  0.487460  0.373090  0.480890  1.0  1.3863
  S  S222  1  0.999870  0.628180  0.483750  1.0  1.3543
  S  S223  1  0.758010  0.705770  0.917510  1.0  1.395
  S  S224  1  0.613300  0.372450  0.006640  1.0  1.3844
  S  S225  1  0.334520  0.757420  0.119740  1.0  1.369
  S  S226  1  0.905300  0.779380  0.359430  1.0  1.3989
  S  S227  1  0.012540  0.873090  0.519110  1.0  1.3884
  S  S228  1  0.500130  0.128180  0.516250  1.0  1.354
  N  N229  1  0.098600  0.950100  0.818800  1.0  0.3605
  N  N230  1  0.900500  0.008500  0.877000  1.0  0.3473
  N  N231  1  0.006800  0.881900  0.238400  1.0  0.3185
  N  N232  1  0.301800  0.877100  0.250900  1.0  0.3687
  N  N233  1  0.845500  0.494000  0.378200  1.0  0.3673
  N  N234  1  0.553900  0.508600  0.375500  1.0  0.3291
  N  N235  1  0.401400  0.450100  0.181200  1.0  0.3606
  N  N236  1  0.599500  0.508500  0.123000  1.0  0.3489
  N  N237  1  0.493200  0.381900  0.761600  1.0  0.3179
  N  N238  1  0.198200  0.377100  0.749100  1.0  0.371
  N  N239  1  0.654500  0.994000  0.621800  1.0  0.3671
  N  N240  1  0.946100  0.008600  0.624500  1.0  0.3284
  N  N241  1  0.901400  0.049900  0.181200  1.0  0.3602
  N  N242  1  0.099500  0.991500  0.123000  1.0  0.3474
  N  N243  1  0.993200  0.118100  0.761600  1.0  0.318
  N  N244  1  0.698200  0.122900  0.749100  1.0  0.3714
  N  N245  1  0.154500  0.506000  0.621800  1.0  0.3669
  N  N246  1  0.446100  0.491400  0.624500  1.0  0.3285
  N  N247  1  0.598600  0.549900  0.818800  1.0  0.36
  N  N248  1  0.400500  0.491500  0.877000  1.0  0.3467
  N  N249  1  0.506800  0.618100  0.238400  1.0  0.3189
  N  N250  1  0.801800  0.622900  0.250900  1.0  0.3687
  N  N251  1  0.345500  0.006000  0.378200  1.0  0.3673
  N  N252  1  0.053900  0.991400  0.375500  1.0  0.3293
  Cl  Cl253  1  0.354130  0.011460  0.734250  1.0  -0.502
  Cl  Cl254  1  0.145870  0.511460  0.265750  1.0  -0.5019
  Cl  Cl255  1  0.645870  0.988540  0.265750  1.0  -0.5021
  Cl  Cl256  1  0.854130  0.488540  0.734250  1.0  -0.5024
  O  O257  1  0.050100  0.994500  0.788910  1.0  -0.6177
  O  O258  1  0.838700  0.973350  0.839340  1.0  -0.6507
  O  O259  1  0.057800  0.918910  0.276900  1.0  -0.6451
  O  O260  1  0.269600  0.924240  0.220630  1.0  -0.6363
  O  O261  1  0.801100  0.531770  0.338830  1.0  -0.6507
  O  O262  1  0.567000  0.471430  0.335670  1.0  -0.6571
  O  O263  1  0.373900  0.776900  0.896500  1.0  -0.6878
  O  O264  1  0.155200  0.752000  0.907100  1.0  -0.7271
  O  O265  1  0.283500  0.812200  0.974700  1.0  -0.7243
  O  O266  1  0.147100  0.091000  0.055040  1.0  -0.5997
  O  O267  1  0.022300  0.173070  0.014700  1.0  -0.706
  O  O268  1  0.224000  0.146200  0.983100  1.0  -0.6773
  O  O269  1  0.702400  0.759300  0.100600  1.0  -0.6829
  O  O270  1  0.914300  0.742800  0.077200  1.0  -0.6375
  O  O271  1  0.846500  0.690900  0.152500  1.0  -0.5332
  O  O272  1  0.280200  0.698560  0.368590  1.0  -0.7095
  O  O273  1  0.477200  0.680590  0.330240  1.0  -0.593
  O  O274  1  0.477800  0.743780  0.410130  1.0  -0.7432
  O  O275  1  0.390300  0.656600  0.505700  1.0  -0.6784
  O  O276  1  0.623300  0.664530  0.522080  1.0  -0.7216
  O  O277  1  0.518200  0.588870  0.566590  1.0  -0.6028
  O  O278  1  0.092500  0.407900  0.550800  1.0  -0.6199
  O  O279  1  0.891200  0.356000  0.541900  1.0  -0.6596
  O  O280  1  0.059400  0.324100  0.491500  1.0  -0.7072
  O  O281  1  0.622900  0.950500  0.746500  1.0  -0.2667
  O  O282  1  0.870500  0.891040  0.746010  1.0  -0.2726
  O  O283  1  0.212000  0.839080  0.396120  1.0  -0.1937
  O  O284  1  0.235200  0.726700  0.581800  1.0  -0.24
  O  O285  1  0.558100  0.888900  0.923800  1.0  -0.2002
  O  O286  1  0.497000  0.879000  0.077600  1.0  -0.2399
  O  O287  1  0.449900  0.494500  0.211090  1.0  -0.6176
  O  O288  1  0.661300  0.473350  0.160660  1.0  -0.6515
  O  O289  1  0.442200  0.418910  0.723100  1.0  -0.6431
  O  O290  1  0.230400  0.424240  0.779370  1.0  -0.6363
  O  O291  1  0.698900  0.031770  0.661170  1.0  -0.6504
  O  O292  1  0.933000  0.971430  0.664330  1.0  -0.6557
  O  O293  1  0.126100  0.276900  0.103500  1.0  -0.685
  O  O294  1  0.344800  0.252000  0.092900  1.0  -0.728
  O  O295  1  0.216500  0.312200  0.025300  1.0  -0.7215
  O  O296  1  0.352900  0.591000  0.944960  1.0  -0.5962
  O  O297  1  0.477700  0.673070  0.985300  1.0  -0.7065
  O  O298  1  0.276000  0.646200  0.016900  1.0  -0.6783
  O  O299  1  0.797600  0.259300  0.899400  1.0  -0.6812
  O  O300  1  0.585700  0.242800  0.922800  1.0  -0.6374
  O  O301  1  0.653500  0.190900  0.847500  1.0  -0.5348
  O  O302  1  0.219800  0.198560  0.631410  1.0  -0.7069
  O  O303  1  0.022800  0.180590  0.669760  1.0  -0.5924
  O  O304  1  0.022200  0.243780  0.589870  1.0  -0.7437
  O  O305  1  0.109700  0.156600  0.494300  1.0  -0.6782
  O  O306  1  0.876700  0.164530  0.477920  1.0  -0.7223
  O  O307  1  0.981800  0.088870  0.433410  1.0  -0.6059
  O  O308  1  0.407500  0.907900  0.449200  1.0  -0.6193
  O  O309  1  0.608800  0.856000  0.458100  1.0  -0.6582
  O  O310  1  0.440600  0.824100  0.508500  1.0  -0.7092
  O  O311  1  0.877100  0.450500  0.253500  1.0  -0.2661
  O  O312  1  0.629500  0.391040  0.253990  1.0  -0.2759
  O  O313  1  0.288000  0.339080  0.603880  1.0  -0.1941
  O  O314  1  0.264800  0.226700  0.418200  1.0  -0.2375
  O  O315  1  0.941900  0.388900  0.076200  1.0  -0.1999
  O  O316  1  0.003000  0.379000  0.922400  1.0  -0.2402
  O  O317  1  0.949900  0.005500  0.211090  1.0  -0.6186
  O  O318  1  0.161300  0.026650  0.160660  1.0  -0.6497
  O  O319  1  0.942200  0.081090  0.723100  1.0  -0.6446
  O  O320  1  0.730400  0.075760  0.779370  1.0  -0.6349
  O  O321  1  0.198900  0.468230  0.661170  1.0  -0.652
  O  O322  1  0.433000  0.528570  0.664330  1.0  -0.6585
  O  O323  1  0.626100  0.223100  0.103500  1.0  -0.6839
  O  O324  1  0.844800  0.248000  0.092900  1.0  -0.7253
  O  O325  1  0.716500  0.187800  0.025300  1.0  -0.7213
  O  O326  1  0.852900  0.909000  0.944960  1.0  -0.5968
  O  O327  1  0.977700  0.826930  0.985300  1.0  -0.7076
  O  O328  1  0.776000  0.853800  0.016900  1.0  -0.6783
  O  O329  1  0.297600  0.240700  0.899400  1.0  -0.6805
  O  O330  1  0.085700  0.257200  0.922800  1.0  -0.6372
  O  O331  1  0.153500  0.309100  0.847500  1.0  -0.5364
  O  O332  1  0.719800  0.301440  0.631410  1.0  -0.7068
  O  O333  1  0.522800  0.319410  0.669760  1.0  -0.592
  O  O334  1  0.522200  0.256220  0.589870  1.0  -0.7439
  O  O335  1  0.609700  0.343400  0.494300  1.0  -0.6773
  O  O336  1  0.376700  0.335470  0.477920  1.0  -0.7234
  O  O337  1  0.481800  0.411130  0.433410  1.0  -0.6037
  O  O338  1  0.907500  0.592100  0.449200  1.0  -0.6201
  O  O339  1  0.108800  0.644000  0.458100  1.0  -0.6572
  O  O340  1  0.940600  0.675900  0.508500  1.0  -0.707
  O  O341  1  0.377100  0.049500  0.253500  1.0  -0.2646
  O  O342  1  0.129500  0.108960  0.253990  1.0  -0.2711
  O  O343  1  0.788000  0.160920  0.603880  1.0  -0.1939
  O  O344  1  0.764800  0.273300  0.418200  1.0  -0.2374
  O  O345  1  0.441900  0.111100  0.076200  1.0  -0.1998
  O  O346  1  0.503000  0.121000  0.922400  1.0  -0.2426
  O  O347  1  0.550100  0.505500  0.788910  1.0  -0.6175
  O  O348  1  0.338700  0.526650  0.839340  1.0  -0.6512
  O  O349  1  0.557800  0.581090  0.276900  1.0  -0.6443
  O  O350  1  0.769600  0.575760  0.220630  1.0  -0.6367
  O  O351  1  0.301100  0.968230  0.338830  1.0  -0.651
  O  O352  1  0.067000  0.028570  0.335670  1.0  -0.6599
  O  O353  1  0.873900  0.723100  0.896500  1.0  -0.687
  O  O354  1  0.655200  0.748000  0.907100  1.0  -0.7244
  O  O355  1  0.783500  0.687800  0.974700  1.0  -0.7238
  O  O356  1  0.647100  0.409000  0.055040  1.0  -0.5999
  O  O357  1  0.522300  0.326930  0.014700  1.0  -0.7068
  O  O358  1  0.724000  0.353800  0.983100  1.0  -0.6783
  O  O359  1  0.202400  0.740700  0.100600  1.0  -0.6827
  O  O360  1  0.414300  0.757200  0.077200  1.0  -0.6374
  O  O361  1  0.346500  0.809100  0.152500  1.0  -0.5342
  O  O362  1  0.780200  0.801440  0.368590  1.0  -0.7096
  O  O363  1  0.977200  0.819410  0.330240  1.0  -0.5924
  O  O364  1  0.977800  0.756220  0.410130  1.0  -0.7435
  O  O365  1  0.890300  0.843400  0.505700  1.0  -0.679
  O  O366  1  0.123300  0.835470  0.522080  1.0  -0.7242
  O  O367  1  0.018200  0.911130  0.566590  1.0  -0.6039
  O  O368  1  0.592500  0.092100  0.550800  1.0  -0.6204
  O  O369  1  0.391200  0.144000  0.541900  1.0  -0.6593
  O  O370  1  0.559400  0.175900  0.491500  1.0  -0.7079
  O  O371  1  0.122900  0.549500  0.746500  1.0  -0.2648
  O  O372  1  0.370500  0.608960  0.746010  1.0  -0.2745
  O  O373  1  0.712000  0.660920  0.396120  1.0  -0.1935
  O  O374  1  0.735200  0.773300  0.581800  1.0  -0.2402
  O  O375  1  0.058100  0.611100  0.923800  1.0  -0.1997
  O  O376  1  0.997000  0.621000  0.077600  1.0  -0.2419
