# generated using pymatgen
data_Ba2GdH18C30S6N6ClO30
_symmetry_space_group_name_H-M   'P 1'
_cell_length_a   10.49800000
_cell_length_b   22.99500000
_cell_length_c   24.42300000
_cell_angle_alpha   90.00000000
_cell_angle_beta   98.54000000
_cell_angle_gamma   90.00000000
_symmetry_Int_Tables_number   1
_chemical_formula_structural   Ba2GdH18C30S6N6ClO30
_chemical_formula_sum   'Ba8 Gd4 H72 C120 S24 N24 Cl4 O120'
_cell_volume   5830.37955942
_cell_formula_units_Z   4
loop_
 _symmetry_equiv_pos_site_id
 _symmetry_equiv_pos_as_xyz
  1  'x, y, z'
loop_
 _atom_site_type_symbol
 _atom_site_label
 _atom_site_symmetry_multiplicity
 _atom_site_fract_x
 _atom_site_fract_y
 _atom_site_fract_z
 _atom_site_occupancy
 _atom_site_charge
  Ba  Ba1  1  0.443650  0.788240  0.499610  1.0  1.6417
  Ba  Ba2  1  0.766360  0.748910  0.029420  1.0  1.6305
  Ba  Ba3  1  0.056350  0.288240  0.500390  1.0  1.6419
  Ba  Ba4  1  0.733640  0.248910  0.970580  1.0  1.6312
  Ba  Ba5  1  0.556350  0.211760  0.500390  1.0  1.6418
  Ba  Ba6  1  0.233640  0.251090  0.970580  1.0  1.6314
  Ba  Ba7  1  0.943650  0.711760  0.499610  1.0  1.6415
  Ba  Ba8  1  0.266360  0.751090  0.029420  1.0  1.6307
  Gd  Gd9  1  0.832220  0.003290  0.243140  1.0  2.1669
  Gd  Gd10  1  0.667780  0.503290  0.756860  1.0  2.1652
  Gd  Gd11  1  0.167780  0.996710  0.756860  1.0  2.1655
  Gd  Gd12  1  0.332220  0.496710  0.243140  1.0  2.1675
  H  H13  1  0.748300  0.939600  0.383700  1.0  0.1424
  H  H14  1  0.856700  0.877400  0.450600  1.0  0.131
  H  H15  1  0.181500  0.974100  0.451400  1.0  0.1521
  H  H16  1  0.139500  0.099800  0.442900  1.0  0.1416
  H  H17  1  0.248500  0.168700  0.305100  1.0  0.1456
  H  H18  1  0.161500  0.089200  0.254100  1.0  0.1462
  H  H19  1  0.172600  0.913500  0.268800  1.0  0.137
  H  H20  1  0.265500  0.846000  0.333000  1.0  0.1369
  H  H21  1  0.919800  0.766900  0.326600  1.0  0.1379
  H  H22  1  0.810100  0.753500  0.216400  1.0  0.1427
  H  H23  1  0.458600  0.823600  0.166800  1.0  0.1387
  H  H24  1  0.517100  0.903800  0.223500  1.0  0.143
  H  H25  1  0.486100  0.015500  0.148900  1.0  0.1314
  H  H26  1  0.401500  0.080400  0.079700  1.0  0.1436
  H  H27  1  0.734100  0.067100  0.014000  1.0  0.1392
  H  H28  1  0.796600  0.948700  0.006800  1.0  0.1419
  H  H29  1  0.153900  0.904300  0.083300  1.0  0.145
  H  H30  1  0.122700  0.964900  0.156900  1.0  0.1362
  H  H31  1  0.751700  0.439600  0.616300  1.0  0.1426
  H  H32  1  0.643300  0.377400  0.549400  1.0  0.1301
  H  H33  1  0.318500  0.474100  0.548600  1.0  0.152
  H  H34  1  0.360500  0.599800  0.557100  1.0  0.143
  H  H35  1  0.251500  0.668700  0.694900  1.0  0.1454
  H  H36  1  0.338500  0.589200  0.745900  1.0  0.147
  H  H37  1  0.327400  0.413500  0.731200  1.0  0.1375
  H  H38  1  0.234500  0.346000  0.667000  1.0  0.1369
  H  H39  1  0.580200  0.266900  0.673400  1.0  0.1376
  H  H40  1  0.689900  0.253500  0.783600  1.0  0.1426
  H  H41  1  0.041400  0.323600  0.833200  1.0  0.1384
  H  H42  1  0.982900  0.403800  0.776500  1.0  0.1431
  H  H43  1  0.013900  0.515500  0.851100  1.0  0.1317
  H  H44  1  0.098500  0.580400  0.920300  1.0  0.1429
  H  H45  1  0.765900  0.567100  0.986000  1.0  0.1397
  H  H46  1  0.703400  0.448700  0.993200  1.0  0.1417
  H  H47  1  0.346100  0.404300  0.916700  1.0  0.1449
  H  H48  1  0.377300  0.464900  0.843100  1.0  0.1359
  H  H49  1  0.251700  0.060400  0.616300  1.0  0.1427
  H  H50  1  0.143300  0.122600  0.549400  1.0  0.1301
  H  H51  1  0.818500  0.025900  0.548600  1.0  0.1519
  H  H52  1  0.860500  0.900200  0.557100  1.0  0.1433
  H  H53  1  0.751500  0.831300  0.694900  1.0  0.1454
  H  H54  1  0.838500  0.910800  0.745900  1.0  0.1472
  H  H55  1  0.827400  0.086500  0.731200  1.0  0.1379
  H  H56  1  0.734500  0.154000  0.667000  1.0  0.1367
  H  H57  1  0.080200  0.233100  0.673400  1.0  0.1378
  H  H58  1  0.189900  0.246500  0.783600  1.0  0.1429
  H  H59  1  0.541400  0.176400  0.833200  1.0  0.1387
  H  H60  1  0.482900  0.096200  0.776500  1.0  0.1435
  H  H61  1  0.513900  0.984500  0.851100  1.0  0.1318
  H  H62  1  0.598500  0.919600  0.920300  1.0  0.1428
  H  H63  1  0.265900  0.932900  0.986000  1.0  0.1398
  H  H64  1  0.203400  0.051300  0.993200  1.0  0.1414
  H  H65  1  0.846100  0.095700  0.916700  1.0  0.1446
  H  H66  1  0.877300  0.035100  0.843100  1.0  0.1356
  H  H67  1  0.248300  0.560400  0.383700  1.0  0.1423
  H  H68  1  0.356700  0.622600  0.450600  1.0  0.1307
  H  H69  1  0.681500  0.525900  0.451400  1.0  0.1521
  H  H70  1  0.639500  0.400200  0.442900  1.0  0.1422
  H  H71  1  0.748500  0.331300  0.305100  1.0  0.1451
  H  H72  1  0.661500  0.410800  0.254100  1.0  0.147
  H  H73  1  0.672600  0.586500  0.268800  1.0  0.1369
  H  H74  1  0.765500  0.654000  0.333000  1.0  0.1368
  H  H75  1  0.419800  0.733100  0.326600  1.0  0.1377
  H  H76  1  0.310100  0.746500  0.216400  1.0  0.1431
  H  H77  1  0.958600  0.676400  0.166800  1.0  0.1385
  H  H78  1  0.017100  0.596200  0.223500  1.0  0.1428
  H  H79  1  0.986100  0.484500  0.148900  1.0  0.1314
  H  H80  1  0.901500  0.419600  0.079700  1.0  0.144
  H  H81  1  0.234100  0.432900  0.014000  1.0  0.1391
  H  H82  1  0.296600  0.551300  0.006800  1.0  0.1423
  H  H83  1  0.653900  0.595700  0.083300  1.0  0.1446
  H  H84  1  0.622700  0.535100  0.156900  1.0  0.1366
  C  C85  1  0.836800  0.945900  0.397200  1.0  0.0236
  C  C86  1  0.900500  0.909300  0.437100  1.0  -0.0313
  C  C87  1  0.029000  0.919600  0.457200  1.0  -0.249
  C  C88  1  0.093800  0.966500  0.437300  1.0  -0.0186
  C  C89  1  0.027900  0.001300  0.396800  1.0  0.1223
  C  C90  1  0.090400  0.051400  0.373200  1.0  0.1221
  C  C91  1  0.142800  0.098100  0.404300  1.0  -0.0408
  C  C92  1  0.199300  0.142000  0.378600  1.0  -0.1949
  C  C93  1  0.207400  0.138600  0.322600  1.0  -0.0334
  C  C94  1  0.156100  0.091800  0.292500  1.0  0.0179
  C  C95  1  0.121100  0.883700  0.281100  1.0  0.0399
  C  C96  1  0.176500  0.843300  0.318600  1.0  -0.0529
  C  C97  1  0.103600  0.799000  0.335400  1.0  -0.1502
  C  C98  1  0.972100  0.796800  0.314900  1.0  -0.0305
  C  C99  1  0.918000  0.838700  0.277400  1.0  0.1488
  C  C100  1  0.785300  0.833200  0.247700  1.0  0.148
  C  C101  1  0.750900  0.784800  0.216600  1.0  -0.0103
  C  C102  1  0.629500  0.781200  0.185400  1.0  -0.2081
  C  C103  1  0.542300  0.825800  0.187800  1.0  0.0305
  C  C104  1  0.577200  0.873400  0.220800  1.0  0.0208
  C  C105  1  0.536000  0.026600  0.121200  1.0  0.0213
  C  C106  1  0.485700  0.065000  0.080400  1.0  -0.0538
  C  C107  1  0.561500  0.081200  0.039400  1.0  -0.2677
  C  C108  1  0.682500  0.057100  0.041400  1.0  -0.0177
  C  C109  1  0.728600  0.018900  0.082700  1.0  0.1506
  C  C110  1  0.850000  0.985800  0.081900  1.0  0.1652
  C  C111  1  0.863800  0.951500  0.037400  1.0  -0.0403
  C  C112  1  0.978800  0.920400  0.037700  1.0  -0.2042
  C  C113  1  0.075700  0.925200  0.082500  1.0  -0.0678
  C  C114  1  0.056700  0.961200  0.126000  1.0  0.0139
  C  C115  1  0.663200  0.445900  0.602800  1.0  0.0227
  C  C116  1  0.599500  0.409300  0.562900  1.0  -0.03
  C  C117  1  0.471000  0.419600  0.542800  1.0  -0.2506
  C  C118  1  0.406200  0.466500  0.562700  1.0  -0.0172
  C  C119  1  0.472100  0.501300  0.603200  1.0  0.1211
  C  C120  1  0.409600  0.551400  0.626800  1.0  0.1214
  C  C121  1  0.357200  0.598100  0.595700  1.0  -0.0399
  C  C122  1  0.300700  0.642000  0.621400  1.0  -0.1933
  C  C123  1  0.292600  0.638600  0.677400  1.0  -0.0319
  C  C124  1  0.343900  0.591800  0.707500  1.0  0.0167
  C  C125  1  0.378900  0.383700  0.718900  1.0  0.0388
  C  C126  1  0.323500  0.343300  0.681400  1.0  -0.0524
  C  C127  1  0.396400  0.299000  0.664600  1.0  -0.1532
  C  C128  1  0.527900  0.296800  0.685100  1.0  -0.0309
  C  C129  1  0.582000  0.338700  0.722600  1.0  0.1494
  C  C130  1  0.714700  0.333200  0.752300  1.0  0.1495
  C  C131  1  0.749100  0.284800  0.783400  1.0  -0.0107
  C  C132  1  0.870500  0.281200  0.814600  1.0  -0.2066
  C  C133  1  0.957700  0.325800  0.812200  1.0  0.03
  C  C134  1  0.922800  0.373400  0.779200  1.0  0.0213
  C  C135  1  0.964000  0.526600  0.878800  1.0  0.0236
  C  C136  1  0.014300  0.565000  0.919600  1.0  -0.0532
  C  C137  1  0.938500  0.581200  0.960600  1.0  -0.2669
  C  C138  1  0.817500  0.557100  0.958600  1.0  -0.0187
  C  C139  1  0.771400  0.518900  0.917300  1.0  0.1502
  C  C140  1  0.650000  0.485800  0.918100  1.0  0.1653
  C  C141  1  0.636200  0.451500  0.962600  1.0  -0.0394
  C  C142  1  0.521200  0.420400  0.962300  1.0  -0.2007
  C  C143  1  0.424300  0.425200  0.917500  1.0  -0.0684
  C  C144  1  0.443300  0.461200  0.874000  1.0  0.0118
  C  C145  1  0.163200  0.054100  0.602800  1.0  0.0231
  C  C146  1  0.099500  0.090700  0.562900  1.0  -0.0304
  C  C147  1  0.971000  0.080400  0.542800  1.0  -0.2501
  C  C148  1  0.906200  0.033500  0.562700  1.0  -0.0173
  C  C149  1  0.972100  0.998700  0.603200  1.0  0.1215
  C  C150  1  0.909600  0.948600  0.626800  1.0  0.122
  C  C151  1  0.857200  0.901900  0.595700  1.0  -0.0404
  C  C152  1  0.800700  0.858000  0.621400  1.0  -0.1942
  C  C153  1  0.792600  0.861400  0.677400  1.0  -0.0302
  C  C154  1  0.843900  0.908200  0.707500  1.0  0.0163
  C  C155  1  0.878900  0.116300  0.718900  1.0  0.039
  C  C156  1  0.823500  0.156700  0.681400  1.0  -0.0523
  C  C157  1  0.896400  0.201000  0.664600  1.0  -0.1524
  C  C158  1  0.027900  0.203200  0.685100  1.0  -0.0309
  C  C159  1  0.082000  0.161300  0.722600  1.0  0.149
  C  C160  1  0.214700  0.166800  0.752300  1.0  0.1496
  C  C161  1  0.249100  0.215200  0.783400  1.0  -0.0121
  C  C162  1  0.370500  0.218800  0.814600  1.0  -0.2076
  C  C163  1  0.457700  0.174200  0.812200  1.0  0.0302
  C  C164  1  0.422800  0.126600  0.779200  1.0  0.0216
  C  C165  1  0.464000  0.973400  0.878800  1.0  0.024
  C  C166  1  0.514300  0.935000  0.919600  1.0  -0.0541
  C  C167  1  0.438500  0.918800  0.960600  1.0  -0.2698
  C  C168  1  0.317500  0.942900  0.958600  1.0  -0.0182
  C  C169  1  0.271400  0.981100  0.917300  1.0  0.1502
  C  C170  1  0.150000  0.014200  0.918100  1.0  0.1647
  C  C171  1  0.136200  0.048500  0.962600  1.0  -0.0393
  C  C172  1  0.021200  0.079600  0.962300  1.0  -0.2005
  C  C173  1  0.924300  0.074800  0.917500  1.0  -0.0676
  C  C174  1  0.943300  0.038800  0.874000  1.0  0.0115
  C  C175  1  0.336800  0.554100  0.397200  1.0  0.0238
  C  C176  1  0.400500  0.590700  0.437100  1.0  -0.0312
  C  C177  1  0.529000  0.580400  0.457200  1.0  -0.2491
  C  C178  1  0.593800  0.533500  0.437300  1.0  -0.0187
  C  C179  1  0.527900  0.498700  0.396800  1.0  0.1227
  C  C180  1  0.590400  0.448600  0.373200  1.0  0.1227
  C  C181  1  0.642800  0.401900  0.404300  1.0  -0.0406
  C  C182  1  0.699300  0.358000  0.378600  1.0  -0.1949
  C  C183  1  0.707400  0.361400  0.322600  1.0  -0.033
  C  C184  1  0.656100  0.408200  0.292500  1.0  0.0186
  C  C185  1  0.621100  0.616300  0.281100  1.0  0.0404
  C  C186  1  0.676500  0.656700  0.318600  1.0  -0.0526
  C  C187  1  0.603600  0.701000  0.335400  1.0  -0.1501
  C  C188  1  0.472100  0.703200  0.314900  1.0  -0.0308
  C  C189  1  0.418000  0.661300  0.277400  1.0  0.1485
  C  C190  1  0.285300  0.666800  0.247700  1.0  0.1481
  C  C191  1  0.250900  0.715200  0.216600  1.0  -0.0116
  C  C192  1  0.129500  0.718800  0.185400  1.0  -0.2085
  C  C193  1  0.042300  0.674200  0.187800  1.0  0.0303
  C  C194  1  0.077200  0.626600  0.220800  1.0  0.0211
  C  C195  1  0.036000  0.473400  0.121200  1.0  0.0216
  C  C196  1  0.985700  0.435000  0.080400  1.0  -0.0519
  C  C197  1  0.061500  0.418800  0.039400  1.0  -0.271
  C  C198  1  0.182500  0.442900  0.041400  1.0  -0.0185
  C  C199  1  0.228600  0.481100  0.082700  1.0  0.151
  C  C200  1  0.350000  0.514200  0.081900  1.0  0.1644
  C  C201  1  0.363800  0.548500  0.037400  1.0  -0.0402
  C  C202  1  0.478800  0.579600  0.037700  1.0  -0.2035
  C  C203  1  0.575700  0.574800  0.082500  1.0  -0.0668
  C  C204  1  0.556700  0.538800  0.126000  1.0  0.0143
  S  S205  1  0.114910  0.872480  0.507840  1.0  1.3901
  S  S206  1  0.257720  0.205460  0.416270  1.0  1.4005
  S  S207  1  0.167060  0.742740  0.381110  1.0  1.3822
  S  S208  1  0.595340  0.720540  0.140010  1.0  1.3962
  S  S209  1  0.988140  0.873250  0.980070  1.0  1.3834
  S  S210  1  0.498440  0.127810  0.984240  1.0  1.3665
  S  S211  1  0.385090  0.372480  0.492160  1.0  1.3882
  S  S212  1  0.242280  0.705460  0.583730  1.0  1.4003
  S  S213  1  0.332940  0.242740  0.618890  1.0  1.3811
  S  S214  1  0.904660  0.220540  0.859990  1.0  1.3968
  S  S215  1  0.511860  0.373250  0.019930  1.0  1.386
  S  S216  1  0.001560  0.627810  0.015760  1.0  1.3662
  S  S217  1  0.885090  0.127520  0.492160  1.0  1.3891
  S  S218  1  0.742280  0.794540  0.583730  1.0  1.4015
  S  S219  1  0.832940  0.257260  0.618890  1.0  1.3816
  S  S220  1  0.404660  0.279460  0.859990  1.0  1.3969
  S  S221  1  0.011860  0.126750  0.019930  1.0  1.3861
  S  S222  1  0.501560  0.872190  0.015760  1.0  1.3672
  S  S223  1  0.614910  0.627520  0.507840  1.0  1.39
  S  S224  1  0.757720  0.294540  0.416270  1.0  1.4017
  S  S225  1  0.667060  0.757260  0.381110  1.0  1.3819
  S  S226  1  0.095340  0.779460  0.140010  1.0  1.3968
  S  S227  1  0.488140  0.626750  0.980070  1.0  1.3846
  S  S228  1  0.998440  0.372190  0.984240  1.0  1.367
  N  N229  1  0.899500  0.990400  0.377600  1.0  0.3583
  N  N230  1  0.097600  0.049400  0.318100  1.0  0.3546
  N  N231  1  0.994300  0.881500  0.261700  1.0  0.3047
  N  N232  1  0.697800  0.876700  0.249300  1.0  0.3588
  N  N233  1  0.946600  0.990600  0.125200  1.0  0.3587
  N  N234  1  0.653600  0.004900  0.122300  1.0  0.3571
  N  N235  1  0.600500  0.490400  0.622400  1.0  0.3597
  N  N236  1  0.402400  0.549400  0.681900  1.0  0.3539
  N  N237  1  0.505700  0.381500  0.738300  1.0  0.3048
  N  N238  1  0.802200  0.376700  0.750700  1.0  0.3585
  N  N239  1  0.553400  0.490600  0.874800  1.0  0.3596
  N  N240  1  0.846400  0.504900  0.877700  1.0  0.3576
  N  N241  1  0.100500  0.009600  0.622400  1.0  0.3609
  N  N242  1  0.902400  0.950600  0.681900  1.0  0.3549
  N  N243  1  0.005700  0.118500  0.738300  1.0  0.3052
  N  N244  1  0.302200  0.123300  0.750700  1.0  0.3592
  N  N245  1  0.053400  0.009400  0.874800  1.0  0.3589
  N  N246  1  0.346400  0.995100  0.877700  1.0  0.3582
  N  N247  1  0.399500  0.509600  0.377600  1.0  0.3588
  N  N248  1  0.597600  0.450600  0.318100  1.0  0.3556
  N  N249  1  0.494300  0.618500  0.261700  1.0  0.305
  N  N250  1  0.197800  0.623300  0.249300  1.0  0.3595
  N  N251  1  0.446600  0.509400  0.125200  1.0  0.3583
  N  N252  1  0.153600  0.495100  0.122300  1.0  0.3577
  Cl  Cl253  1  0.354060  0.987820  0.235560  1.0  -0.4991
  Cl  Cl254  1  0.145940  0.487820  0.764440  1.0  -0.4988
  Cl  Cl255  1  0.645940  0.012180  0.764440  1.0  -0.4989
  Cl  Cl256  1  0.854060  0.512180  0.235560  1.0  -0.499
  O  O257  1  0.837100  0.025500  0.339320  1.0  -0.6435
  O  O258  1  0.049400  0.004460  0.288600  1.0  -0.6067
  O  O259  1  0.941800  0.918740  0.222700  1.0  -0.6359
  O  O260  1  0.730700  0.923970  0.279920  1.0  -0.6262
  O  O261  1  0.700200  0.967300  0.161680  1.0  -0.6384
  O  O262  1  0.932300  0.027900  0.165370  1.0  -0.6482
  O  O263  1  0.225400  0.852800  0.483500  1.0  -0.725
  O  O264  1  0.024400  0.826800  0.516800  1.0  -0.7013
  O  O265  1  0.150400  0.909000  0.556300  1.0  -0.6061
  O  O266  1  0.283800  0.187400  0.473400  1.0  -0.6957
  O  O267  1  0.156200  0.247600  0.406200  1.0  -0.6545
  O  O268  1  0.372600  0.223200  0.394200  1.0  -0.6878
  O  O269  1  0.088700  0.744100  0.424800  1.0  -0.6637
  O  O270  1  0.299400  0.759400  0.400000  1.0  -0.6675
  O  O271  1  0.154300  0.689800  0.349000  1.0  -0.6135
  O  O272  1  0.521800  0.680700  0.169240  1.0  -0.5969
  O  O273  1  0.720000  0.698300  0.131200  1.0  -0.6991
  O  O274  1  0.523700  0.743930  0.089300  1.0  -0.7375
  O  O275  1  0.877900  0.835300  0.977100  1.0  -0.7328
  O  O276  1  0.112200  0.844100  0.992700  1.0  -0.6743
  O  O277  1  0.981800  0.911500  0.932000  1.0  -0.6008
  O  O278  1  0.607800  0.144000  0.958500  1.0  -0.6558
  O  O279  1  0.405800  0.092200  0.949200  1.0  -0.6107
  O  O280  1  0.440300  0.176200  0.010200  1.0  -0.7228
  O  O281  1  0.624300  0.047500  0.247200  1.0  -0.2532
  O  O282  1  0.867900  0.106700  0.245400  1.0  -0.2324
  O  O283  1  0.787700  0.838300  0.103700  1.0  -0.2051
  O  O284  1  0.437200  0.888500  0.579200  1.0  -0.1846
  O  O285  1  0.766500  0.725400  0.916100  1.0  -0.2989
  O  O286  1  0.508000  0.879700  0.425500  1.0  -0.2225
  O  O287  1  0.662900  0.525500  0.660680  1.0  -0.6431
  O  O288  1  0.450600  0.504460  0.711400  1.0  -0.6084
  O  O289  1  0.558200  0.418740  0.777300  1.0  -0.6387
  O  O290  1  0.769300  0.423970  0.720080  1.0  -0.6253
  O  O291  1  0.799800  0.467300  0.838320  1.0  -0.6373
  O  O292  1  0.567700  0.527900  0.834630  1.0  -0.6481
  O  O293  1  0.274600  0.352800  0.516500  1.0  -0.7262
  O  O294  1  0.475600  0.326800  0.483200  1.0  -0.702
  O  O295  1  0.349600  0.409000  0.443700  1.0  -0.6027
  O  O296  1  0.216200  0.687400  0.526600  1.0  -0.6938
  O  O297  1  0.343800  0.747600  0.593800  1.0  -0.6541
  O  O298  1  0.127400  0.723200  0.605800  1.0  -0.6836
  O  O299  1  0.411300  0.244100  0.575200  1.0  -0.6623
  O  O300  1  0.200600  0.259400  0.600000  1.0  -0.6658
  O  O301  1  0.345700  0.189800  0.651000  1.0  -0.6125
  O  O302  1  0.978200  0.180700  0.830760  1.0  -0.5986
  O  O303  1  0.780000  0.198300  0.868800  1.0  -0.7029
  O  O304  1  0.976300  0.243930  0.910700  1.0  -0.7376
  O  O305  1  0.622100  0.335300  0.022900  1.0  -0.7348
  O  O306  1  0.387800  0.344100  0.007300  1.0  -0.6765
  O  O307  1  0.518200  0.411500  0.068000  1.0  -0.601
  O  O308  1  0.892200  0.644000  0.041500  1.0  -0.6571
  O  O309  1  0.094200  0.592200  0.050800  1.0  -0.6105
  O  O310  1  0.059700  0.676200  0.989800  1.0  -0.7234
  O  O311  1  0.875700  0.547500  0.752800  1.0  -0.254
  O  O312  1  0.632100  0.606700  0.754600  1.0  -0.2325
  O  O313  1  0.712300  0.338300  0.896300  1.0  -0.2047
  O  O314  1  0.062800  0.388500  0.420800  1.0  -0.1849
  O  O315  1  0.733500  0.225400  0.083900  1.0  -0.2998
  O  O316  1  0.992000  0.379700  0.574500  1.0  -0.2228
  O  O317  1  0.162900  0.974500  0.660680  1.0  -0.6442
  O  O318  1  0.950600  0.995540  0.711400  1.0  -0.6078
  O  O319  1  0.058200  0.081260  0.777300  1.0  -0.6384
  O  O320  1  0.269300  0.076030  0.720080  1.0  -0.6268
  O  O321  1  0.299800  0.032700  0.838320  1.0  -0.6379
  O  O322  1  0.067700  0.972100  0.834630  1.0  -0.6448
  O  O323  1  0.774600  0.147200  0.516500  1.0  -0.7265
  O  O324  1  0.975600  0.173200  0.483200  1.0  -0.7014
  O  O325  1  0.849600  0.091000  0.443700  1.0  -0.6026
  O  O326  1  0.716200  0.812600  0.526600  1.0  -0.6937
  O  O327  1  0.843800  0.752400  0.593800  1.0  -0.6552
  O  O328  1  0.627400  0.776800  0.605800  1.0  -0.6841
  O  O329  1  0.911300  0.255900  0.575200  1.0  -0.6621
  O  O330  1  0.700600  0.240600  0.600000  1.0  -0.6659
  O  O331  1  0.845700  0.310200  0.651000  1.0  -0.6124
  O  O332  1  0.478200  0.319300  0.830760  1.0  -0.5979
  O  O333  1  0.280000  0.301700  0.868800  1.0  -0.7036
  O  O334  1  0.476300  0.256070  0.910700  1.0  -0.7376
  O  O335  1  0.122100  0.164700  0.022900  1.0  -0.7305
  O  O336  1  0.887800  0.155900  0.007300  1.0  -0.6763
  O  O337  1  0.018200  0.088500  0.068000  1.0  -0.6
  O  O338  1  0.392200  0.856000  0.041500  1.0  -0.6575
  O  O339  1  0.594200  0.907800  0.050800  1.0  -0.6096
  O  O340  1  0.559700  0.823800  0.989800  1.0  -0.7245
  O  O341  1  0.375700  0.952500  0.752800  1.0  -0.2545
  O  O342  1  0.132100  0.893300  0.754600  1.0  -0.2331
  O  O343  1  0.212300  0.161700  0.896300  1.0  -0.2049
  O  O344  1  0.562800  0.111500  0.420800  1.0  -0.1853
  O  O345  1  0.233500  0.274600  0.083900  1.0  -0.2996
  O  O346  1  0.492000  0.120300  0.574500  1.0  -0.2227
  O  O347  1  0.337100  0.474500  0.339320  1.0  -0.6426
  O  O348  1  0.549400  0.495540  0.288600  1.0  -0.6067
  O  O349  1  0.441800  0.581260  0.222700  1.0  -0.6373
  O  O350  1  0.230700  0.576030  0.279920  1.0  -0.6256
  O  O351  1  0.200200  0.532700  0.161680  1.0  -0.6377
  O  O352  1  0.432300  0.472100  0.165370  1.0  -0.6448
  O  O353  1  0.725400  0.647200  0.483500  1.0  -0.7245
  O  O354  1  0.524400  0.673200  0.516800  1.0  -0.7013
  O  O355  1  0.650400  0.591000  0.556300  1.0  -0.6059
  O  O356  1  0.783800  0.312600  0.473400  1.0  -0.6962
  O  O357  1  0.656200  0.252400  0.406200  1.0  -0.6554
  O  O358  1  0.872600  0.276800  0.394200  1.0  -0.6885
  O  O359  1  0.588700  0.755900  0.424800  1.0  -0.6635
  O  O360  1  0.799400  0.740600  0.400000  1.0  -0.6671
  O  O361  1  0.654300  0.810200  0.349000  1.0  -0.6136
  O  O362  1  0.021800  0.819300  0.169240  1.0  -0.5967
  O  O363  1  0.220000  0.801700  0.131200  1.0  -0.6995
  O  O364  1  0.023700  0.756070  0.089300  1.0  -0.7379
  O  O365  1  0.377900  0.664700  0.977100  1.0  -0.7314
  O  O366  1  0.612200  0.655900  0.992700  1.0  -0.6759
  O  O367  1  0.481800  0.588500  0.932000  1.0  -0.602
  O  O368  1  0.107800  0.356000  0.958500  1.0  -0.6572
  O  O369  1  0.905800  0.407800  0.949200  1.0  -0.6093
  O  O370  1  0.940300  0.323800  0.010200  1.0  -0.7253
  O  O371  1  0.124300  0.452500  0.247200  1.0  -0.2551
  O  O372  1  0.367900  0.393300  0.245400  1.0  -0.2326
  O  O373  1  0.287700  0.661700  0.103700  1.0  -0.205
  O  O374  1  0.937200  0.611500  0.579200  1.0  -0.1851
  O  O375  1  0.266500  0.774600  0.916100  1.0  -0.2987
  O  O376  1  0.008000  0.620300  0.425500  1.0  -0.2231
