# generated using pymatgen
data_MnH3(CO2)3
_symmetry_space_group_name_H-M   'P 1'
_cell_length_a   7.81210000
_cell_length_b   7.96120000
_cell_length_c   13.17280000
_cell_angle_alpha   90.00000000
_cell_angle_beta   90.00000000
_cell_angle_gamma   90.00000000
_symmetry_Int_Tables_number   1
_chemical_formula_structural   MnH3(CO2)3
_chemical_formula_sum   'Mn4 H12 C12 O24'
_cell_volume   819.26504648
_cell_formula_units_Z   4
loop_
 _symmetry_equiv_pos_site_id
 _symmetry_equiv_pos_as_xyz
  1  'x, y, z'
loop_
 _atom_site_type_symbol
 _atom_site_label
 _atom_site_symmetry_multiplicity
 _atom_site_fract_x
 _atom_site_fract_y
 _atom_site_fract_z
 _atom_site_occupancy
 _atom_site_charge
  Mn  Mn1  1  0.553350  0.494610  0.085430  1.0  1.0571
  Mn  Mn2  1  0.946650  0.505390  0.585430  1.0  1.057
  Mn  Mn3  1  0.446650  0.994610  0.414570  1.0  1.0587
  Mn  Mn4  1  0.053350  0.005390  0.914570  1.0  1.0584
  H  H5  1  0.520200  0.173600  0.221500  1.0  0.0527
  H  H6  1  0.356900  0.779100  0.973100  1.0  0.0397
  H  H7  1  0.239000  0.295200  0.013400  1.0  0.0515
  H  H8  1  0.979800  0.826400  0.721500  1.0  0.0529
  H  H9  1  0.143100  0.220900  0.473100  1.0  0.0394
  H  H10  1  0.261000  0.704800  0.513400  1.0  0.0516
  H  H11  1  0.479800  0.673600  0.278500  1.0  0.052
  H  H12  1  0.643100  0.279100  0.526900  1.0  0.0403
  H  H13  1  0.761000  0.795200  0.486600  1.0  0.0522
  H  H14  1  0.020200  0.326400  0.778500  1.0  0.0521
  H  H15  1  0.856900  0.720900  0.026900  1.0  0.0404
  H  H16  1  0.739000  0.204800  0.986600  1.0  0.0522
  C  C17  1  0.415800  0.224900  0.235290  1.0  0.748
  C  C18  1  0.293100  0.772200  0.032570  1.0  0.7591
  C  C19  1  0.311900  0.276800  0.958700  1.0  0.734
  C  C20  1  0.084200  0.775100  0.735290  1.0  0.7477
  C  C21  1  0.206900  0.227800  0.532570  1.0  0.7546
  C  C22  1  0.188100  0.723200  0.458700  1.0  0.7349
  C  C23  1  0.584200  0.724900  0.264710  1.0  0.7511
  C  C24  1  0.706900  0.272200  0.467430  1.0  0.7595
  C  C25  1  0.688100  0.776800  0.541300  1.0  0.7348
  C  C26  1  0.915800  0.275100  0.764710  1.0  0.7508
  C  C27  1  0.793100  0.727800  0.967430  1.0  0.7596
  C  C28  1  0.811900  0.223200  0.041300  1.0  0.7342
  O  O29  1  0.385500  0.360100  0.191450  1.0  -0.5755
  O  O30  1  0.317900  0.151700  0.296510  1.0  -0.5871
  O  O31  1  0.342300  0.670000  0.094590  1.0  -0.5612
  O  O32  1  0.168800  0.868300  0.038390  1.0  -0.5755
  O  O33  1  0.451100  0.350500  0.960430  1.0  -0.5604
  O  O34  1  0.259300  0.180000  0.890680  1.0  -0.5828
  O  O35  1  0.114500  0.639900  0.691450  1.0  -0.5753
  O  O36  1  0.182100  0.848300  0.796510  1.0  -0.5859
  O  O37  1  0.157700  0.330000  0.594590  1.0  -0.5624
  O  O38  1  0.331200  0.131700  0.538390  1.0  -0.5752
  O  O39  1  0.048900  0.649500  0.460430  1.0  -0.5612
  O  O40  1  0.240700  0.820000  0.390680  1.0  -0.5833
  O  O41  1  0.614500  0.860100  0.308550  1.0  -0.5752
  O  O42  1  0.682100  0.651700  0.203490  1.0  -0.5864
  O  O43  1  0.657700  0.170000  0.405410  1.0  -0.5622
  O  O44  1  0.831200  0.368300  0.461610  1.0  -0.5741
  O  O45  1  0.548900  0.850500  0.539570  1.0  -0.5608
  O  O46  1  0.740700  0.680000  0.609320  1.0  -0.5869
  O  O47  1  0.885500  0.139900  0.808550  1.0  -0.5759
  O  O48  1  0.817900  0.348300  0.703490  1.0  -0.5864
  O  O49  1  0.842300  0.830000  0.905410  1.0  -0.5615
  O  O50  1  0.668800  0.631700  0.961610  1.0  -0.5749
  O  O51  1  0.951100  0.149500  0.039570  1.0  -0.5602
  O  O52  1  0.759300  0.320000  0.109320  1.0  -0.5861
