# generated using pymatgen
data_CoH3(CO2)3
_symmetry_space_group_name_H-M   'P 1'
_cell_length_a   7.68390000
_cell_length_b   7.75550000
_cell_length_c   13.01950000
_cell_angle_alpha   90.00000000
_cell_angle_beta   90.00000000
_cell_angle_gamma   90.00000000
_symmetry_Int_Tables_number   1
_chemical_formula_structural   CoH3(CO2)3
_chemical_formula_sum   'Co4 H12 C12 O24'
_cell_volume   775.86437734
_cell_formula_units_Z   4
loop_
 _symmetry_equiv_pos_site_id
 _symmetry_equiv_pos_as_xyz
  1  'x, y, z'
loop_
 _atom_site_type_symbol
 _atom_site_label
 _atom_site_symmetry_multiplicity
 _atom_site_fract_x
 _atom_site_fract_y
 _atom_site_fract_z
 _atom_site_occupancy
 _atom_site_charge
  Co  Co1  1  0.550480  0.494560  0.084810  1.0  1.0439
  Co  Co2  1  0.949520  0.505440  0.584810  1.0  1.0445
  Co  Co3  1  0.449520  0.994560  0.415190  1.0  1.0447
  Co  Co4  1  0.050480  0.005440  0.915190  1.0  1.0444
  H  H5  1  0.533500  0.175200  0.226200  1.0  0.0577
  H  H6  1  0.355900  0.774400  0.965200  1.0  0.05
  H  H7  1  0.246300  0.277100  0.023700  1.0  0.0508
  H  H8  1  0.966500  0.824800  0.726200  1.0  0.057
  H  H9  1  0.144100  0.225600  0.465200  1.0  0.0496
  H  H10  1  0.253700  0.722900  0.523700  1.0  0.052
  H  H11  1  0.466500  0.675200  0.273800  1.0  0.0571
  H  H12  1  0.644100  0.274400  0.534800  1.0  0.0505
  H  H13  1  0.753700  0.777100  0.476300  1.0  0.0514
  H  H14  1  0.033500  0.324800  0.773800  1.0  0.057
  H  H15  1  0.855900  0.725600  0.034800  1.0  0.0513
  H  H16  1  0.746300  0.222900  0.976300  1.0  0.0511
  C  C17  1  0.425900  0.226000  0.238400  1.0  0.7445
  C  C18  1  0.293100  0.769600  0.026200  1.0  0.7306
  C  C19  1  0.313500  0.268200  0.964500  1.0  0.735
  C  C20  1  0.074100  0.774000  0.738400  1.0  0.7438
  C  C21  1  0.206900  0.230400  0.526200  1.0  0.7314
  C  C22  1  0.186500  0.731800  0.464500  1.0  0.7338
  C  C23  1  0.574100  0.726000  0.261600  1.0  0.7466
  C  C24  1  0.706900  0.269600  0.473800  1.0  0.7311
  C  C25  1  0.686500  0.768200  0.535500  1.0  0.7337
  C  C26  1  0.925900  0.274000  0.761600  1.0  0.7466
  C  C27  1  0.793100  0.730400  0.973800  1.0  0.7302
  C  C28  1  0.813500  0.231800  0.035500  1.0  0.7348
  O  O29  1  0.392900  0.363300  0.191420  1.0  -0.5809
  O  O30  1  0.327100  0.152100  0.299780  1.0  -0.5697
  O  O31  1  0.341000  0.664600  0.090350  1.0  -0.5592
  O  O32  1  0.167800  0.871100  0.035030  1.0  -0.5735
  O  O33  1  0.451400  0.351800  0.962200  1.0  -0.5583
  O  O34  1  0.256600  0.172400  0.893910  1.0  -0.5708
  O  O35  1  0.107100  0.636700  0.691420  1.0  -0.5814
  O  O36  1  0.172900  0.847900  0.799780  1.0  -0.57
  O  O37  1  0.159000  0.335400  0.590350  1.0  -0.5604
  O  O38  1  0.332200  0.128900  0.535030  1.0  -0.5727
  O  O39  1  0.048600  0.648200  0.462200  1.0  -0.5578
  O  O40  1  0.243400  0.827600  0.393910  1.0  -0.5717
  O  O41  1  0.607100  0.863300  0.308580  1.0  -0.5809
  O  O42  1  0.672900  0.652100  0.200220  1.0  -0.5704
  O  O43  1  0.659000  0.164600  0.409650  1.0  -0.5606
  O  O44  1  0.832200  0.371100  0.464970  1.0  -0.5733
  O  O45  1  0.548600  0.851800  0.537800  1.0  -0.5566
  O  O46  1  0.743400  0.672400  0.606090  1.0  -0.5737
  O  O47  1  0.892900  0.136700  0.808580  1.0  -0.5814
  O  O48  1  0.827100  0.347900  0.700220  1.0  -0.5694
  O  O49  1  0.841000  0.835400  0.909650  1.0  -0.5596
  O  O50  1  0.667800  0.628900  0.964970  1.0  -0.5734
  O  O51  1  0.951400  0.148200  0.037800  1.0  -0.5573
  O  O52  1  0.756600  0.327600  0.106090  1.0  -0.5722
