# generated using pymatgen
data_ZnH3(CO2)3
_symmetry_space_group_name_H-M   'P 1'
_cell_length_a   7.68920000
_cell_length_b   7.73850000
_cell_length_c   13.02050000
_cell_angle_alpha   90.00000000
_cell_angle_beta   90.00000000
_cell_angle_gamma   90.00000000
_symmetry_Int_Tables_number   1
_chemical_formula_structural   ZnH3(CO2)3
_chemical_formula_sum   'Zn4 H12 C12 O24'
_cell_volume   774.75717352
_cell_formula_units_Z   4
loop_
 _symmetry_equiv_pos_site_id
 _symmetry_equiv_pos_as_xyz
  1  'x, y, z'
loop_
 _atom_site_type_symbol
 _atom_site_label
 _atom_site_symmetry_multiplicity
 _atom_site_fract_x
 _atom_site_fract_y
 _atom_site_fract_z
 _atom_site_occupancy
 _atom_site_charge
  Zn  Zn1  1  0.551410  0.493920  0.084010  1.0  1.0089
  Zn  Zn2  1  0.948590  0.506080  0.584010  1.0  1.0092
  Zn  Zn3  1  0.448590  0.993920  0.415990  1.0  1.0092
  Zn  Zn4  1  0.051410  0.006080  0.915990  1.0  1.0093
  H  H5  1  0.532900  0.175500  0.225100  1.0  0.0728
  H  H6  1  0.357300  0.776600  0.966400  1.0  0.0536
  H  H7  1  0.246100  0.277300  0.023000  1.0  0.0583
  H  H8  1  0.967100  0.824500  0.725100  1.0  0.0721
  H  H9  1  0.142700  0.223400  0.466400  1.0  0.0534
  H  H10  1  0.253900  0.722700  0.523000  1.0  0.0595
  H  H11  1  0.467100  0.675500  0.274900  1.0  0.0724
  H  H12  1  0.642700  0.276600  0.533600  1.0  0.0545
  H  H13  1  0.753900  0.777300  0.477000  1.0  0.0591
  H  H14  1  0.032900  0.324500  0.774900  1.0  0.0723
  H  H15  1  0.857300  0.723400  0.033600  1.0  0.0549
  H  H16  1  0.746100  0.222700  0.977000  1.0  0.0588
  C  C17  1  0.425100  0.226100  0.237110  1.0  0.717
  C  C18  1  0.294000  0.770900  0.027160  1.0  0.7349
  C  C19  1  0.313000  0.268500  0.963700  1.0  0.72
  C  C20  1  0.074900  0.773900  0.737110  1.0  0.7164
  C  C21  1  0.206000  0.229100  0.527160  1.0  0.7355
  C  C22  1  0.187000  0.731500  0.463700  1.0  0.7202
  C  C23  1  0.574900  0.726100  0.262890  1.0  0.7195
  C  C24  1  0.706000  0.270900  0.472840  1.0  0.7354
  C  C25  1  0.687000  0.768500  0.536300  1.0  0.7198
  C  C26  1  0.925100  0.273900  0.762890  1.0  0.7193
  C  C27  1  0.794000  0.729100  0.972840  1.0  0.7346
  C  C28  1  0.813000  0.231500  0.036300  1.0  0.7198
  O  O29  1  0.390130  0.362580  0.190000  1.0  -0.5626
  O  O30  1  0.325450  0.152850  0.299240  1.0  -0.5699
  O  O31  1  0.343300  0.666200  0.091530  1.0  -0.5488
  O  O32  1  0.167260  0.870290  0.035280  1.0  -0.5619
  O  O33  1  0.450450  0.350800  0.960800  1.0  -0.5522
  O  O34  1  0.256230  0.173300  0.892590  1.0  -0.5698
  O  O35  1  0.109870  0.637420  0.690000  1.0  -0.5631
  O  O36  1  0.174550  0.847150  0.799240  1.0  -0.5713
  O  O37  1  0.156700  0.333800  0.591530  1.0  -0.5498
  O  O38  1  0.332740  0.129710  0.535280  1.0  -0.5614
  O  O39  1  0.049550  0.649200  0.460800  1.0  -0.5523
  O  O40  1  0.243770  0.826700  0.392590  1.0  -0.5706
  O  O41  1  0.609870  0.862580  0.310000  1.0  -0.563
  O  O42  1  0.674550  0.652850  0.200760  1.0  -0.5712
  O  O43  1  0.656700  0.166200  0.408470  1.0  -0.55
  O  O44  1  0.832740  0.370290  0.464720  1.0  -0.5617
  O  O45  1  0.549550  0.850800  0.539200  1.0  -0.5511
  O  O46  1  0.743770  0.673300  0.607410  1.0  -0.5723
  O  O47  1  0.890130  0.137420  0.810000  1.0  -0.5647
  O  O48  1  0.825450  0.347150  0.700760  1.0  -0.5694
  O  O49  1  0.843300  0.833800  0.908470  1.0  -0.5496
  O  O50  1  0.667260  0.629710  0.964720  1.0  -0.5617
  O  O51  1  0.950450  0.149200  0.039200  1.0  -0.5514
  O  O52  1  0.756230  0.326700  0.107410  1.0  -0.571
