# generated using pymatgen
data_NiH3(CO2)3
_symmetry_space_group_name_H-M   'P 1'
_cell_length_a   7.62250000
_cell_length_b   7.78140000
_cell_length_c   12.72800000
_cell_angle_alpha   90.00000000
_cell_angle_beta   90.00000000
_cell_angle_gamma   90.00000000
_symmetry_Int_Tables_number   1
_chemical_formula_structural   NiH3(CO2)3
_chemical_formula_sum   'Ni4 H12 C12 O24'
_cell_volume   754.94504725
_cell_formula_units_Z   4
loop_
 _symmetry_equiv_pos_site_id
 _symmetry_equiv_pos_as_xyz
  1  'x, y, z'
loop_
 _atom_site_type_symbol
 _atom_site_label
 _atom_site_symmetry_multiplicity
 _atom_site_fract_x
 _atom_site_fract_y
 _atom_site_fract_z
 _atom_site_occupancy
 _atom_site_charge
  Ni  Ni1  1  0.541040  0.492490  0.081050  1.0  0.8829
  Ni  Ni2  1  0.958960  0.507510  0.581050  1.0  0.8831
  Ni  Ni3  1  0.458960  0.992490  0.418950  1.0  0.883
  Ni  Ni4  1  0.041040  0.007510  0.918950  1.0  0.8827
  H  H5  1  0.560400  0.196400  0.232400  1.0  0.0948
  H  H6  1  0.355700  0.799500  0.969200  1.0  0.0968
  H  H7  1  0.244400  0.278700  0.021800  1.0  0.0835
  H  H8  1  0.939600  0.803600  0.732400  1.0  0.095
  H  H9  1  0.144300  0.200500  0.469200  1.0  0.0961
  H  H10  1  0.255600  0.721300  0.521800  1.0  0.0844
  H  H11  1  0.439600  0.696400  0.267600  1.0  0.0948
  H  H12  1  0.644300  0.299500  0.530800  1.0  0.0962
  H  H13  1  0.755600  0.778700  0.478200  1.0  0.0839
  H  H14  1  0.060400  0.303600  0.767600  1.0  0.0943
  H  H15  1  0.855700  0.700500  0.030800  1.0  0.0968
  H  H16  1  0.744400  0.221300  0.978200  1.0  0.0836
  C  C17  1  0.446500  0.235400  0.243100  1.0  0.7063
  C  C18  1  0.279500  0.769800  0.023300  1.0  0.7272
  C  C19  1  0.317100  0.257800  0.964500  1.0  0.7326
  C  C20  1  0.053500  0.764600  0.743100  1.0  0.7062
  C  C21  1  0.220500  0.230200  0.523300  1.0  0.7278
  C  C22  1  0.182900  0.742200  0.464500  1.0  0.7329
  C  C23  1  0.553500  0.735400  0.256900  1.0  0.7063
  C  C24  1  0.720500  0.269800  0.476700  1.0  0.7269
  C  C25  1  0.682900  0.757800  0.535500  1.0  0.733
  C  C26  1  0.946500  0.264600  0.756900  1.0  0.7066
  C  C27  1  0.779500  0.730200  0.976700  1.0  0.7284
  C  C28  1  0.817100  0.242200  0.035500  1.0  0.7333
  O  O29  1  0.394700  0.360500  0.190370  1.0  -0.5584
  O  O30  1  0.353000  0.158700  0.309990  1.0  -0.5421
  O  O31  1  0.314500  0.638200  0.076380  1.0  -0.5566
  O  O32  1  0.148700  0.863300  0.038550  1.0  -0.555
  O  O33  1  0.456900  0.338700  0.960140  1.0  -0.5558
  O  O34  1  0.265100  0.149100  0.897650  1.0  -0.5566
  O  O35  1  0.105300  0.639500  0.690370  1.0  -0.5577
  O  O36  1  0.147000  0.841300  0.809990  1.0  -0.5411
  O  O37  1  0.185500  0.361800  0.576380  1.0  -0.5567
  O  O38  1  0.351300  0.136700  0.538550  1.0  -0.5546
  O  O39  1  0.043100  0.661300  0.460140  1.0  -0.5561
  O  O40  1  0.234900  0.850900  0.397650  1.0  -0.5578
  O  O41  1  0.605300  0.860500  0.309630  1.0  -0.558
  O  O42  1  0.647000  0.658700  0.190010  1.0  -0.541
  O  O43  1  0.685500  0.138200  0.423620  1.0  -0.5573
  O  O44  1  0.851300  0.363300  0.461450  1.0  -0.553
  O  O45  1  0.543100  0.838700  0.539860  1.0  -0.5562
  O  O46  1  0.734900  0.649100  0.602350  1.0  -0.5591
  O  O47  1  0.894700  0.139500  0.809630  1.0  -0.558
  O  O48  1  0.853000  0.341300  0.690010  1.0  -0.5423
  O  O49  1  0.814500  0.861800  0.923620  1.0  -0.5582
  O  O50  1  0.648700  0.636700  0.961450  1.0  -0.5535
  O  O51  1  0.956900  0.161300  0.039860  1.0  -0.5564
  O  O52  1  0.765100  0.350900  0.102350  1.0  -0.558
