# generated using pymatgen
data_MgH3(CO2)3
_symmetry_space_group_name_H-M   'P 1'
_cell_length_a   7.68830000
_cell_length_b   7.78750000
_cell_length_c   12.85580000
_cell_angle_alpha   90.00000000
_cell_angle_beta   90.00000000
_cell_angle_gamma   90.00000000
_symmetry_Int_Tables_number   1
_chemical_formula_structural   MgH3(CO2)3
_chemical_formula_sum   'Mg4 H12 C12 O24'
_cell_volume   769.71063710
_cell_formula_units_Z   4
loop_
 _symmetry_equiv_pos_site_id
 _symmetry_equiv_pos_as_xyz
  1  'x, y, z'
loop_
 _atom_site_type_symbol
 _atom_site_label
 _atom_site_symmetry_multiplicity
 _atom_site_fract_x
 _atom_site_fract_y
 _atom_site_fract_z
 _atom_site_occupancy
 _atom_site_charge
  Mg  Mg1  1  0.553630  0.494370  0.084450  1.0  1.496
  Mg  Mg2  1  0.946370  0.505630  0.584450  1.0  1.4968
  Mg  Mg3  1  0.446370  0.994370  0.415550  1.0  1.4968
  Mg  Mg4  1  0.053630  0.005630  0.915550  1.0  1.4962
  H  H5  1  0.533400  0.170600  0.221900  1.0  0.0269
  H  H6  1  0.376000  0.798900  0.971600  1.0  0.011
  H  H7  1  0.235200  0.298100  0.017900  1.0  0.016
  H  H8  1  0.966600  0.829400  0.721900  1.0  0.0264
  H  H9  1  0.124000  0.201100  0.471600  1.0  0.0107
  H  H10  1  0.264800  0.701900  0.517900  1.0  0.017
  H  H11  1  0.466600  0.670600  0.278100  1.0  0.0268
  H  H12  1  0.624000  0.298900  0.528400  1.0  0.0104
  H  H13  1  0.764800  0.798100  0.482100  1.0  0.0162
  H  H14  1  0.033400  0.329400  0.778100  1.0  0.0264
  H  H15  1  0.876000  0.701100  0.028400  1.0  0.0105
  H  H16  1  0.735200  0.201900  0.982100  1.0  0.0159
  C  C17  1  0.427500  0.223400  0.236150  1.0  0.6927
  C  C18  1  0.302800  0.778800  0.027880  1.0  0.714
  C  C19  1  0.310100  0.276000  0.962740  1.0  0.6949
  C  C20  1  0.072500  0.776600  0.736150  1.0  0.6919
  C  C21  1  0.197200  0.221200  0.527880  1.0  0.7141
  C  C22  1  0.189900  0.724000  0.462740  1.0  0.6946
  C  C23  1  0.572500  0.723400  0.263850  1.0  0.692
  C  C24  1  0.697200  0.278800  0.472120  1.0  0.7135
  C  C25  1  0.689900  0.776000  0.537260  1.0  0.6943
  C  C26  1  0.927500  0.276600  0.763850  1.0  0.6917
  C  C27  1  0.802800  0.721200  0.972120  1.0  0.7118
  C  C28  1  0.810100  0.224000  0.037260  1.0  0.6954
  O  O29  1  0.396020  0.362280  0.190840  1.0  -0.6089
  O  O30  1  0.328310  0.149950  0.298800  1.0  -0.6117
  O  O31  1  0.346940  0.664090  0.087940  1.0  -0.6128
  O  O32  1  0.171290  0.870660  0.033920  1.0  -0.6049
  O  O33  1  0.451630  0.350390  0.963520  1.0  -0.5952
  O  O34  1  0.257860  0.173260  0.894380  1.0  -0.614
  O  O35  1  0.103980  0.637720  0.690840  1.0  -0.6094
  O  O36  1  0.171690  0.850050  0.798800  1.0  -0.6118
  O  O37  1  0.153060  0.335910  0.587940  1.0  -0.6141
  O  O38  1  0.328710  0.129340  0.533920  1.0  -0.6049
  O  O39  1  0.048370  0.649610  0.463520  1.0  -0.5966
  O  O40  1  0.242140  0.826740  0.394380  1.0  -0.6146
  O  O41  1  0.603980  0.862280  0.309160  1.0  -0.6083
  O  O42  1  0.671690  0.649950  0.201200  1.0  -0.6118
  O  O43  1  0.653060  0.164090  0.412060  1.0  -0.614
  O  O44  1  0.828710  0.370660  0.466080  1.0  -0.6055
  O  O45  1  0.548370  0.850390  0.536480  1.0  -0.5959
  O  O46  1  0.742140  0.673260  0.605620  1.0  -0.6156
  O  O47  1  0.896020  0.137720  0.809160  1.0  -0.6098
  O  O48  1  0.828310  0.350050  0.701200  1.0  -0.6119
  O  O49  1  0.846940  0.835910  0.912060  1.0  -0.6144
  O  O50  1  0.671290  0.629340  0.966080  1.0  -0.6053
  O  O51  1  0.951630  0.149610  0.036480  1.0  -0.595
  O  O52  1  0.757860  0.326740  0.105620  1.0  -0.6144
