# generated using pymatgen
data_CuH17C30NO4
_symmetry_space_group_name_H-M   'P 1'
_cell_length_a   20.46300000
_cell_length_b   43.25200000
_cell_length_c   43.25200000
_cell_angle_alpha   120.00000000
_cell_angle_beta   90.00000000
_cell_angle_gamma   90.00000000
_symmetry_Int_Tables_number   1
_chemical_formula_structural   CuH17C30NO4
_chemical_formula_sum   'Cu12 H204 C360 N12 O48'
_cell_volume   33152.19777422
_cell_formula_units_Z   12
loop_
 _symmetry_equiv_pos_site_id
 _symmetry_equiv_pos_as_xyz
  1  'x, y, z'
loop_
 _atom_site_type_symbol
 _atom_site_label
 _atom_site_symmetry_multiplicity
 _atom_site_fract_x
 _atom_site_fract_y
 _atom_site_fract_z
 _atom_site_occupancy
 _atom_site_charge
  Cu  Cu1  1  0.951300  0.680870  0.027370  1.0  0.9326
  Cu  Cu2  1  0.951300  0.346500  0.319130  1.0  0.9355
  Cu  Cu3  1  0.951300  0.972630  0.653500  1.0  0.9342
  Cu  Cu4  1  0.451300  0.319130  0.972630  1.0  0.9356
  Cu  Cu5  1  0.451300  0.653500  0.680870  1.0  0.9356
  Cu  Cu6  1  0.451300  0.027370  0.346500  1.0  0.9339
  Cu  Cu7  1  0.048700  0.653500  0.972630  1.0  0.9358
  Cu  Cu8  1  0.048700  0.027370  0.680870  1.0  0.9333
  Cu  Cu9  1  0.048700  0.319130  0.346500  1.0  0.9334
  Cu  Cu10  1  0.548700  0.346500  0.027370  1.0  0.9348
  Cu  Cu11  1  0.548700  0.972630  0.319130  1.0  0.9335
  Cu  Cu12  1  0.548700  0.680870  0.653500  1.0  0.9331
  H  H13  1  0.952400  0.549200  0.912500  1.0  0.1357
  H  H14  1  0.747800  0.550800  0.959500  1.0  0.126
  H  H15  1  0.813100  0.601400  0.985900  1.0  0.129
  H  H16  1  0.932100  0.488800  0.864400  1.0  0.1289
  H  H17  1  0.853500  0.436600  0.845000  1.0  0.0854
  H  H18  1  0.787400  0.361500  0.809700  1.0  0.1301
  H  H19  1  0.763900  0.331600  0.751600  1.0  0.1326
  H  H20  1  0.231100  0.790500  0.011300  1.0  0.125
  H  H21  1  0.166300  0.751700  0.011000  1.0  0.1344
  H  H22  1  0.030100  0.775500  0.086600  1.0  0.131
  H  H23  1  0.067800  0.833900  0.117500  1.0  0.1325
  H  H24  1  0.278000  0.848900  0.034700  1.0  0.134
  H  H25  1  0.712800  0.493600  0.911100  1.0  0.1817
  H  H26  1  0.150000  0.884100  0.120100  1.0  0.1406
  H  H27  1  0.338400  0.983500  0.066500  1.0  0.1589
  H  H28  1  0.342900  0.945300  0.093900  1.0  0.1477
  H  H29  1  0.952400  0.363300  0.450800  1.0  0.1357
  H  H30  1  0.747800  0.408700  0.449200  1.0  0.1261
  H  H31  1  0.813100  0.384500  0.398600  1.0  0.1295
  H  H32  1  0.932100  0.375600  0.511200  1.0  0.1291
  H  H33  1  0.853500  0.408400  0.563400  1.0  0.085
  H  H34  1  0.787400  0.448200  0.638500  1.0  0.1299
  H  H35  1  0.763900  0.420000  0.668400  1.0  0.1324
  H  H36  1  0.231100  0.220800  0.209500  1.0  0.1244
  H  H37  1  0.166300  0.259300  0.248300  1.0  0.1337
  H  H38  1  0.030100  0.311100  0.224500  1.0  0.1318
  H  H39  1  0.067800  0.283600  0.166100  1.0  0.1324
  H  H40  1  0.278000  0.185800  0.151100  1.0  0.1351
  H  H41  1  0.712800  0.417500  0.506400  1.0  0.1826
  H  H42  1  0.150000  0.236000  0.115900  1.0  0.1412
  H  H43  1  0.338400  0.083000  0.016500  1.0  0.1588
  H  H44  1  0.342900  0.148600  0.054700  1.0  0.1486
  H  H45  1  0.952400  0.087500  0.636700  1.0  0.1353
  H  H46  1  0.747800  0.040500  0.591300  1.0  0.1268
  H  H47  1  0.813100  0.014100  0.615500  1.0  0.1285
  H  H48  1  0.932100  0.135600  0.624400  1.0  0.13
  H  H49  1  0.853500  0.155000  0.591600  1.0  0.0847
  H  H50  1  0.787400  0.190300  0.551800  1.0  0.1296
  H  H51  1  0.763900  0.248400  0.580000  1.0  0.1315
  H  H52  1  0.231100  0.988700  0.779200  1.0  0.1254
  H  H53  1  0.166300  0.989000  0.740700  1.0  0.1342
  H  H54  1  0.030100  0.913400  0.688900  1.0  0.1304
  H  H55  1  0.067800  0.882500  0.716400  1.0  0.1335
  H  H56  1  0.278000  0.965300  0.814200  1.0  0.1362
  H  H57  1  0.712800  0.088900  0.582500  1.0  0.1821
  H  H58  1  0.150000  0.879900  0.764000  1.0  0.1417
  H  H59  1  0.338400  0.933500  0.917000  1.0  0.1583
  H  H60  1  0.342900  0.906100  0.851400  1.0  0.1492
  H  H61  1  0.452400  0.450800  0.087500  1.0  0.1329
  H  H62  1  0.247800  0.449200  0.040500  1.0  0.1256
  H  H63  1  0.313100  0.398600  0.014100  1.0  0.1289
  H  H64  1  0.432100  0.511200  0.135600  1.0  0.1287
  H  H65  1  0.353500  0.563400  0.155000  1.0  0.084
  H  H66  1  0.287400  0.638500  0.190300  1.0  0.1293
  H  H67  1  0.263900  0.668400  0.248400  1.0  0.1324
  H  H68  1  0.731100  0.209500  0.988700  1.0  0.1252
  H  H69  1  0.666300  0.248300  0.989000  1.0  0.1341
  H  H70  1  0.530100  0.224500  0.913400  1.0  0.1353
  H  H71  1  0.567800  0.166100  0.882500  1.0  0.1324
  H  H72  1  0.778000  0.151100  0.965300  1.0  0.1337
  H  H73  1  0.212800  0.506400  0.088900  1.0  0.1801
  H  H74  1  0.650000  0.115900  0.879900  1.0  0.1388
  H  H75  1  0.838400  0.016500  0.933500  1.0  0.1594
  H  H76  1  0.842900  0.054700  0.906100  1.0  0.1484
  H  H77  1  0.452400  0.636700  0.549200  1.0  0.1337
  H  H78  1  0.247800  0.591300  0.550800  1.0  0.1261
  H  H79  1  0.313100  0.615500  0.601400  1.0  0.1298
  H  H80  1  0.432100  0.624400  0.488800  1.0  0.1299
  H  H81  1  0.353500  0.591600  0.436600  1.0  0.0851
  H  H82  1  0.287400  0.551800  0.361500  1.0  0.1293
  H  H83  1  0.263900  0.580000  0.331600  1.0  0.1325
  H  H84  1  0.731100  0.779200  0.790500  1.0  0.125
  H  H85  1  0.666300  0.740700  0.751700  1.0  0.1335
  H  H86  1  0.530100  0.688900  0.775500  1.0  0.1351
  H  H87  1  0.567800  0.716400  0.833900  1.0  0.1331
  H  H88  1  0.778000  0.814200  0.848900  1.0  0.1356
  H  H89  1  0.212800  0.582500  0.493600  1.0  0.1814
  H  H90  1  0.650000  0.764000  0.884100  1.0  0.1395
  H  H91  1  0.838400  0.917000  0.983500  1.0  0.1588
  H  H92  1  0.842900  0.851400  0.945300  1.0  0.1476
  H  H93  1  0.452400  0.912500  0.363300  1.0  0.1329
  H  H94  1  0.247800  0.959500  0.408700  1.0  0.1262
  H  H95  1  0.313100  0.985900  0.384500  1.0  0.1288
  H  H96  1  0.432100  0.864400  0.375600  1.0  0.1298
  H  H97  1  0.353500  0.845000  0.408400  1.0  0.0831
  H  H98  1  0.287400  0.809700  0.448200  1.0  0.1281
  H  H99  1  0.263900  0.751600  0.420000  1.0  0.1323
  H  H100  1  0.731100  0.011300  0.220800  1.0  0.126
  H  H101  1  0.666300  0.011000  0.259300  1.0  0.1337
  H  H102  1  0.530100  0.086600  0.311100  1.0  0.134
  H  H103  1  0.567800  0.117500  0.283600  1.0  0.1346
  H  H104  1  0.778000  0.034700  0.185800  1.0  0.1366
  H  H105  1  0.212800  0.911100  0.417500  1.0  0.1805
  H  H106  1  0.650000  0.120100  0.236000  1.0  0.1405
  H  H107  1  0.838400  0.066500  0.083000  1.0  0.1582
  H  H108  1  0.842900  0.093900  0.148600  1.0  0.1492
  H  H109  1  0.047600  0.636700  0.087500  1.0  0.1356
  H  H110  1  0.252200  0.591300  0.040500  1.0  0.1262
  H  H111  1  0.186900  0.615500  0.014100  1.0  0.1295
  H  H112  1  0.067900  0.624400  0.135600  1.0  0.1295
  H  H113  1  0.146500  0.591600  0.155000  1.0  0.0865
  H  H114  1  0.212600  0.551800  0.190300  1.0  0.1297
  H  H115  1  0.236100  0.580000  0.248400  1.0  0.1318
  H  H116  1  0.768900  0.779200  0.988700  1.0  0.1247
  H  H117  1  0.833700  0.740700  0.989000  1.0  0.1345
  H  H118  1  0.969900  0.688900  0.913400  1.0  0.1311
  H  H119  1  0.932200  0.716400  0.882500  1.0  0.132
  H  H120  1  0.722000  0.814200  0.965300  1.0  0.136
  H  H121  1  0.287200  0.582500  0.088900  1.0  0.1838
  H  H122  1  0.850000  0.764000  0.879900  1.0  0.1413
  H  H123  1  0.661600  0.917000  0.933500  1.0  0.1586
  H  H124  1  0.657100  0.851400  0.906100  1.0  0.1481
  H  H125  1  0.047600  0.912500  0.549200  1.0  0.1357
  H  H126  1  0.252200  0.959500  0.550800  1.0  0.127
  H  H127  1  0.186900  0.985900  0.601400  1.0  0.1285
  H  H128  1  0.067900  0.864400  0.488800  1.0  0.1297
  H  H129  1  0.146500  0.845000  0.436600  1.0  0.0844
  H  H130  1  0.212600  0.809700  0.361500  1.0  0.1289
  H  H131  1  0.236100  0.751600  0.331600  1.0  0.1315
  H  H132  1  0.768900  0.011300  0.790500  1.0  0.1256
  H  H133  1  0.833700  0.011000  0.751700  1.0  0.1341
  H  H134  1  0.969900  0.086600  0.775500  1.0  0.1309
  H  H135  1  0.932200  0.117500  0.833900  1.0  0.1335
  H  H136  1  0.722000  0.034700  0.848900  1.0  0.1365
  H  H137  1  0.287200  0.911100  0.493600  1.0  0.1837
  H  H138  1  0.850000  0.120100  0.884100  1.0  0.1412
  H  H139  1  0.661600  0.066500  0.983500  1.0  0.158
  H  H140  1  0.657100  0.093900  0.945300  1.0  0.1491
  H  H141  1  0.047600  0.450800  0.363300  1.0  0.1357
  H  H142  1  0.252200  0.449200  0.408700  1.0  0.126
  H  H143  1  0.186900  0.398600  0.384500  1.0  0.1289
  H  H144  1  0.067900  0.511200  0.375600  1.0  0.1291
  H  H145  1  0.146500  0.563400  0.408400  1.0  0.0869
  H  H146  1  0.212600  0.638500  0.448200  1.0  0.1306
  H  H147  1  0.236100  0.668400  0.420000  1.0  0.1318
  H  H148  1  0.768900  0.209500  0.220800  1.0  0.1244
  H  H149  1  0.833700  0.248300  0.259300  1.0  0.1342
  H  H150  1  0.969900  0.224500  0.311100  1.0  0.1315
  H  H151  1  0.932200  0.166100  0.283600  1.0  0.1315
  H  H152  1  0.722000  0.151100  0.185800  1.0  0.1333
  H  H153  1  0.287200  0.506400  0.417500  1.0  0.1836
  H  H154  1  0.850000  0.115900  0.236000  1.0  0.14
  H  H155  1  0.661600  0.016500  0.083000  1.0  0.1592
  H  H156  1  0.657100  0.054700  0.148600  1.0  0.1476
  H  H157  1  0.547600  0.363300  0.912500  1.0  0.1338
  H  H158  1  0.752200  0.408700  0.959500  1.0  0.126
  H  H159  1  0.686900  0.384500  0.985900  1.0  0.129
  H  H160  1  0.567900  0.375600  0.864400  1.0  0.1293
  H  H161  1  0.646500  0.408400  0.845000  1.0  0.0849
  H  H162  1  0.712600  0.448200  0.809700  1.0  0.1303
  H  H163  1  0.736100  0.420000  0.751600  1.0  0.1311
  H  H164  1  0.268900  0.220800  0.011300  1.0  0.1253
  H  H165  1  0.333700  0.259300  0.011000  1.0  0.1338
  H  H166  1  0.469900  0.311100  0.086600  1.0  0.1351
  H  H167  1  0.432200  0.283600  0.117500  1.0  0.132
  H  H168  1  0.222000  0.185800  0.034700  1.0  0.1349
  H  H169  1  0.787200  0.417500  0.911100  1.0  0.1815
  H  H170  1  0.350000  0.236000  0.120100  1.0  0.1399
  H  H171  1  0.161600  0.083000  0.066500  1.0  0.1595
  H  H172  1  0.157100  0.148600  0.093900  1.0  0.1479
  H  H173  1  0.547600  0.087500  0.450800  1.0  0.133
  H  H174  1  0.752200  0.040500  0.449200  1.0  0.1263
  H  H175  1  0.686900  0.014100  0.398600  1.0  0.1288
  H  H176  1  0.567900  0.135600  0.511200  1.0  0.1304
  H  H177  1  0.646500  0.155000  0.563400  1.0  0.0841
  H  H178  1  0.712600  0.190300  0.638500  1.0  0.1293
  H  H179  1  0.736100  0.248400  0.668400  1.0  0.1307
  H  H180  1  0.268900  0.988700  0.209500  1.0  0.1255
  H  H181  1  0.333700  0.989000  0.248300  1.0  0.1338
  H  H182  1  0.469900  0.913400  0.224500  1.0  0.1338
  H  H183  1  0.432200  0.882500  0.166100  1.0  0.1337
  H  H184  1  0.222000  0.965300  0.151100  1.0  0.1367
  H  H185  1  0.787200  0.088900  0.506400  1.0  0.1815
  H  H186  1  0.350000  0.879900  0.115900  1.0  0.1414
  H  H187  1  0.161600  0.933500  0.016500  1.0  0.158
  H  H188  1  0.157100  0.906100  0.054700  1.0  0.1489
  H  H189  1  0.547600  0.549200  0.636700  1.0  0.1333
  H  H190  1  0.752200  0.550800  0.591300  1.0  0.1258
  H  H191  1  0.686900  0.601400  0.615500  1.0  0.1293
  H  H192  1  0.567900  0.488800  0.624400  1.0  0.1293
  H  H193  1  0.646500  0.436600  0.591600  1.0  0.0846
  H  H194  1  0.712600  0.361500  0.551800  1.0  0.1293
  H  H195  1  0.736100  0.331600  0.580000  1.0  0.1324
  H  H196  1  0.268900  0.790500  0.779200  1.0  0.1255
  H  H197  1  0.333700  0.751700  0.740700  1.0  0.1344
  H  H198  1  0.469900  0.775500  0.688900  1.0  0.1347
  H  H199  1  0.432200  0.833900  0.716400  1.0  0.133
  H  H200  1  0.222000  0.848900  0.814200  1.0  0.1347
  H  H201  1  0.787200  0.493600  0.582500  1.0  0.1814
  H  H202  1  0.350000  0.884100  0.764000  1.0  0.1404
  H  H203  1  0.161600  0.983500  0.917000  1.0  0.159
  H  H204  1  0.157100  0.945300  0.851400  1.0  0.1482
  H  H205  1  0.750000  0.299900  0.700100  1.0  0.1329
  H  H206  1  0.750000  0.400200  0.700100  1.0  0.1327
  H  H207  1  0.750000  0.299900  0.599800  1.0  0.1324
  H  H208  1  0.250000  0.700100  0.299900  1.0  0.1322
  H  H209  1  0.250000  0.599800  0.299900  1.0  0.1325
  H  H210  1  0.250000  0.700100  0.400200  1.0  0.1327
  H  H211  1  0.250000  0.031600  0.063200  1.0  0.1617
  H  H212  1  0.250000  0.031600  0.968400  1.0  0.1623
  H  H213  1  0.250000  0.936800  0.968400  1.0  0.1611
  H  H214  1  0.750000  0.968400  0.936800  1.0  0.1622
  H  H215  1  0.750000  0.968400  0.031600  1.0  0.1613
  H  H216  1  0.750000  0.063200  0.031600  1.0  0.1608
  C  C217  1  0.889300  0.580300  0.951800  1.0  -0.0744
  C  C218  1  0.911400  0.549500  0.921900  1.0  -0.0841
  C  C219  1  0.872300  0.519200  0.906100  1.0  0.1434
  C  C220  1  0.811000  0.519700  0.920200  1.0  -0.0866
  C  C221  1  0.788900  0.550500  0.950100  1.0  -0.1017
  C  C222  1  0.828000  0.580800  0.965900  1.0  -0.0476
  C  C223  1  0.893000  0.490200  0.876000  1.0  -0.1244
  C  C224  1  0.842000  0.459200  0.863200  1.0  -0.1213
  C  C225  1  0.769200  0.373800  0.799300  1.0  -0.1764
  C  C226  1  0.761300  0.356400  0.763000  1.0  0.0157
  C  C227  1  0.069500  0.719600  0.025400  1.0  0.4185
  C  C228  1  0.216800  0.809200  0.033000  1.0  -0.1138
  C  C229  1  0.218100  0.868600  0.080700  1.0  0.0753
  C  C230  1  0.169100  0.803200  0.050900  1.0  0.0824
  C  C231  1  0.146600  0.768200  0.032300  1.0  -0.114
  C  C232  1  0.094500  0.757800  0.045700  1.0  -0.134
  C  C233  1  0.065000  0.782500  0.077700  1.0  -0.0785
  C  C234  1  0.087500  0.817400  0.096100  1.0  -0.0744
  C  C235  1  0.139600  0.827800  0.082700  1.0  -0.0707
  C  C236  1  0.938300  0.610800  0.965300  1.0  0.2662
  C  C237  1  0.245700  0.843400  0.046400  1.0  -0.0934
  C  C238  1  0.756300  0.492100  0.904200  1.0  -0.0398
  C  C239  1  0.790200  0.463600  0.875900  1.0  0.1084
  C  C240  1  0.166600  0.865100  0.099200  1.0  -0.0783
  C  C241  1  0.306200  0.966900  0.063100  1.0  -0.065
  C  C242  1  0.307700  0.945600  0.080600  1.0  -0.0481
  C  C243  1  0.889300  0.371500  0.419700  1.0  -0.0778
  C  C244  1  0.911400  0.372400  0.450500  1.0  -0.0842
  C  C245  1  0.872300  0.386900  0.480800  1.0  0.143
  C  C246  1  0.811000  0.400500  0.480300  1.0  -0.085
  C  C247  1  0.788900  0.399600  0.449500  1.0  -0.1036
  C  C248  1  0.828000  0.385100  0.419200  1.0  -0.0467
  C  C249  1  0.893000  0.385800  0.509800  1.0  -0.1226
  C  C250  1  0.842000  0.404000  0.540800  1.0  -0.1175
  C  C251  1  0.769200  0.425500  0.626200  1.0  -0.1798
  C  C252  1  0.761300  0.406600  0.643600  1.0  0.0195
  C  C253  1  0.069500  0.305800  0.280400  1.0  0.4209
  C  C254  1  0.216800  0.223800  0.190800  1.0  -0.1118
  C  C255  1  0.218100  0.212100  0.131400  1.0  0.0751
  C  C256  1  0.169100  0.247700  0.196800  1.0  0.0824
  C  C257  1  0.146600  0.264100  0.231800  1.0  -0.1136
  C  C258  1  0.094500  0.287900  0.242200  1.0  -0.1361
  C  C259  1  0.065000  0.295200  0.217500  1.0  -0.0772
  C  C260  1  0.087500  0.278700  0.182600  1.0  -0.0731
  C  C261  1  0.139600  0.254900  0.172200  1.0  -0.0723
  C  C262  1  0.938300  0.354500  0.389200  1.0  0.2656
  C  C263  1  0.245700  0.203000  0.156600  1.0  -0.0922
  C  C264  1  0.756300  0.412100  0.507900  1.0  -0.0402
  C  C265  1  0.790200  0.412300  0.536400  1.0  0.1074
  C  C266  1  0.166600  0.234100  0.134900  1.0  -0.078
  C  C267  1  0.306200  0.096200  0.033100  1.0  -0.064
  C  C268  1  0.307700  0.135000  0.054400  1.0  -0.0479
  C  C269  1  0.889300  0.048200  0.628500  1.0  -0.0762
  C  C270  1  0.911400  0.078100  0.627600  1.0  -0.0833
  C  C271  1  0.872300  0.093900  0.613100  1.0  0.1432
  C  C272  1  0.811000  0.079800  0.599500  1.0  -0.0863
  C  C273  1  0.788900  0.049900  0.600400  1.0  -0.1032
  C  C274  1  0.828000  0.034100  0.614900  1.0  -0.0492
  C  C275  1  0.893000  0.124000  0.614200  1.0  -0.1243
  C  C276  1  0.842000  0.136800  0.596000  1.0  -0.1195
  C  C277  1  0.769200  0.200700  0.574500  1.0  -0.1761
  C  C278  1  0.761300  0.237000  0.593400  1.0  0.0157
  C  C279  1  0.069500  0.974600  0.694200  1.0  0.4209
  C  C280  1  0.216800  0.967000  0.776200  1.0  -0.1123
  C  C281  1  0.218100  0.919300  0.787900  1.0  0.0754
  C  C282  1  0.169100  0.949100  0.752300  1.0  0.0829
  C  C283  1  0.146600  0.967700  0.735900  1.0  -0.1131
  C  C284  1  0.094500  0.954300  0.712100  1.0  -0.1362
  C  C285  1  0.065000  0.922300  0.704800  1.0  -0.0781
  C  C286  1  0.087500  0.903900  0.721300  1.0  -0.0713
  C  C287  1  0.139600  0.917300  0.745100  1.0  -0.0731
  C  C288  1  0.938300  0.034700  0.645500  1.0  0.2655
  C  C289  1  0.245700  0.953600  0.797000  1.0  -0.0949
  C  C290  1  0.756300  0.095800  0.587900  1.0  -0.04
  C  C291  1  0.790200  0.124100  0.587700  1.0  0.1094
  C  C292  1  0.166600  0.900800  0.765900  1.0  -0.0787
  C  C293  1  0.306200  0.936900  0.903800  1.0  -0.0632
  C  C294  1  0.307700  0.919400  0.865000  1.0  -0.0469
  C  C295  1  0.389300  0.419700  0.048200  1.0  -0.075
  C  C296  1  0.411400  0.450500  0.078100  1.0  -0.0814
  C  C297  1  0.372300  0.480800  0.093900  1.0  0.146
  C  C298  1  0.311000  0.480300  0.079800  1.0  -0.0855
  C  C299  1  0.288900  0.449500  0.049900  1.0  -0.1018
  C  C300  1  0.328000  0.419200  0.034100  1.0  -0.0466
  C  C301  1  0.393000  0.509800  0.124000  1.0  -0.1273
  C  C302  1  0.342000  0.540800  0.136800  1.0  -0.1189
  C  C303  1  0.269200  0.626200  0.200700  1.0  -0.1773
  C  C304  1  0.261300  0.643600  0.237000  1.0  0.0159
  C  C305  1  0.569500  0.280400  0.974600  1.0  0.4195
  C  C306  1  0.716800  0.190800  0.967000  1.0  -0.1145
  C  C307  1  0.718100  0.131400  0.919300  1.0  0.0748
  C  C308  1  0.669100  0.196800  0.949100  1.0  0.0821
  C  C309  1  0.646600  0.231800  0.967700  1.0  -0.115
  C  C310  1  0.594500  0.242200  0.954300  1.0  -0.1338
  C  C311  1  0.565000  0.217500  0.922300  1.0  -0.0764
  C  C312  1  0.587500  0.182600  0.903900  1.0  -0.0745
  C  C313  1  0.639600  0.172200  0.917300  1.0  -0.0711
  C  C314  1  0.438300  0.389200  0.034700  1.0  0.2658
  C  C315  1  0.745700  0.156600  0.953600  1.0  -0.0923
  C  C316  1  0.256300  0.507900  0.095800  1.0  -0.04
  C  C317  1  0.290200  0.536400  0.124100  1.0  0.1086
  C  C318  1  0.666667  0.134900  0.900800  1.0  -0.0772
  C  C319  1  0.806200  0.033100  0.936900  1.0  -0.063
  C  C320  1  0.807700  0.054400  0.919400  1.0  -0.0483
  C  C321  1  0.389300  0.628500  0.580300  1.0  -0.0765
  C  C322  1  0.411400  0.627600  0.549500  1.0  -0.0807
  C  C323  1  0.372300  0.613100  0.519200  1.0  0.1466
  C  C324  1  0.311000  0.599500  0.519700  1.0  -0.0864
  C  C325  1  0.288900  0.600400  0.550500  1.0  -0.1029
  C  C326  1  0.328000  0.614900  0.580800  1.0  -0.0478
  C  C327  1  0.393000  0.614200  0.490200  1.0  -0.1281
  C  C328  1  0.342000  0.596000  0.459200  1.0  -0.1173
  C  C329  1  0.269200  0.574500  0.373800  1.0  -0.1774
  C  C330  1  0.261300  0.593400  0.356400  1.0  0.0171
  C  C331  1  0.569500  0.694200  0.719600  1.0  0.4199
  C  C332  1  0.716800  0.776200  0.809200  1.0  -0.1125
  C  C333  1  0.718100  0.787900  0.868600  1.0  0.0757
  C  C334  1  0.669100  0.752300  0.803200  1.0  0.083
  C  C335  1  0.646600  0.735900  0.768200  1.0  -0.1147
  C  C336  1  0.594500  0.712100  0.757800  1.0  -0.1365
  C  C337  1  0.565000  0.704800  0.782500  1.0  -0.0774
  C  C338  1  0.587500  0.721300  0.817400  1.0  -0.073
  C  C339  1  0.639600  0.745100  0.827800  1.0  -0.0736
  C  C340  1  0.438300  0.645500  0.610800  1.0  0.2653
  C  C341  1  0.745700  0.797000  0.843400  1.0  -0.0955
  C  C342  1  0.256300  0.587900  0.492100  1.0  -0.0397
  C  C343  1  0.290200  0.587700  0.463600  1.0  0.1084
  C  C344  1  0.666667  0.765900  0.865100  1.0  -0.0774
  C  C345  1  0.806200  0.903800  0.966900  1.0  -0.0629
  C  C346  1  0.807700  0.865000  0.945600  1.0  -0.0472
  C  C347  1  0.389300  0.951800  0.371500  1.0  -0.0769
  C  C348  1  0.411400  0.921900  0.372400  1.0  -0.0806
  C  C349  1  0.372300  0.906100  0.386900  1.0  0.1462
  C  C350  1  0.311000  0.920200  0.400500  1.0  -0.0857
  C  C351  1  0.288900  0.950100  0.399600  1.0  -0.1041
  C  C352  1  0.328000  0.965900  0.385100  1.0  -0.0494
  C  C353  1  0.393000  0.876000  0.385800  1.0  -0.1301
  C  C354  1  0.342000  0.863200  0.404000  1.0  -0.1173
  C  C355  1  0.269200  0.799300  0.425500  1.0  -0.1754
  C  C356  1  0.261300  0.763000  0.406600  1.0  0.0193
  C  C357  1  0.569500  0.025400  0.305800  1.0  0.4204
  C  C358  1  0.716800  0.033000  0.223800  1.0  -0.1127
  C  C359  1  0.718100  0.080700  0.212100  1.0  0.0751
  C  C360  1  0.669100  0.050900  0.247700  1.0  0.0819
  C  C361  1  0.646600  0.032300  0.264100  1.0  -0.1136
  C  C362  1  0.594500  0.045700  0.287900  1.0  -0.1364
  C  C363  1  0.565000  0.077700  0.295200  1.0  -0.0777
  C  C364  1  0.587500  0.096100  0.278700  1.0  -0.071
  C  C365  1  0.639600  0.082700  0.254900  1.0  -0.0729
  C  C366  1  0.438300  0.965300  0.354500  1.0  0.2671
  C  C367  1  0.745700  0.046400  0.203000  1.0  -0.0933
  C  C368  1  0.256300  0.904200  0.412100  1.0  -0.0385
  C  C369  1  0.290200  0.875900  0.412300  1.0  0.1093
  C  C370  1  0.666667  0.099200  0.234100  1.0  -0.0789
  C  C371  1  0.806200  0.063100  0.096200  1.0  -0.0643
  C  C372  1  0.807700  0.080600  0.135000  1.0  -0.0468
  C  C373  1  0.110700  0.628500  0.048200  1.0  -0.0779
  C  C374  1  0.088600  0.627600  0.078100  1.0  -0.0858
  C  C375  1  0.127700  0.613100  0.093900  1.0  0.1434
  C  C376  1  0.189000  0.599500  0.079800  1.0  -0.0867
  C  C377  1  0.211100  0.600400  0.049900  1.0  -0.1009
  C  C378  1  0.172000  0.614900  0.034100  1.0  -0.0477
  C  C379  1  0.107000  0.614200  0.124000  1.0  -0.1234
  C  C380  1  0.158000  0.596000  0.136800  1.0  -0.1181
  C  C381  1  0.230800  0.574500  0.200700  1.0  -0.1732
  C  C382  1  0.238700  0.593400  0.237000  1.0  0.018
  C  C383  1  0.930500  0.694200  0.974600  1.0  0.4212
  C  C384  1  0.783200  0.776200  0.967000  1.0  -0.1147
  C  C385  1  0.781900  0.787900  0.919300  1.0  0.0751
  C  C386  1  0.830900  0.752300  0.949100  1.0  0.0842
  C  C387  1  0.853400  0.735900  0.967700  1.0  -0.1137
  C  C388  1  0.905500  0.712100  0.954300  1.0  -0.136
  C  C389  1  0.935000  0.704800  0.922300  1.0  -0.0763
  C  C390  1  0.912500  0.721300  0.903900  1.0  -0.0748
  C  C391  1  0.860400  0.745100  0.917300  1.0  -0.0728
  C  C392  1  0.061700  0.645500  0.034700  1.0  0.2657
  C  C393  1  0.754300  0.797000  0.953600  1.0  -0.0948
  C  C394  1  0.243700  0.587900  0.095800  1.0  -0.0348
  C  C395  1  0.209800  0.587700  0.124100  1.0  0.1052
  C  C396  1  0.833400  0.765900  0.900800  1.0  -0.0781
  C  C397  1  0.693800  0.903800  0.936900  1.0  -0.0648
  C  C398  1  0.692300  0.865000  0.919400  1.0  -0.0513
  C  C399  1  0.110700  0.951800  0.580300  1.0  -0.0762
  C  C400  1  0.088600  0.921900  0.549500  1.0  -0.0849
  C  C401  1  0.127700  0.906100  0.519200  1.0  0.1434
  C  C402  1  0.189000  0.920200  0.519700  1.0  -0.0876
  C  C403  1  0.211100  0.950100  0.550500  1.0  -0.1025
  C  C404  1  0.172000  0.965900  0.580800  1.0  -0.0484
  C  C405  1  0.107000  0.876000  0.490200  1.0  -0.125
  C  C406  1  0.158000  0.863200  0.459200  1.0  -0.12
  C  C407  1  0.230800  0.799300  0.373800  1.0  -0.1709
  C  C408  1  0.238700  0.763000  0.356400  1.0  0.0153
  C  C409  1  0.930500  0.025400  0.719600  1.0  0.4213
  C  C410  1  0.783200  0.033000  0.809200  1.0  -0.1138
  C  C411  1  0.781900  0.080700  0.868600  1.0  0.0751
  C  C412  1  0.830900  0.050900  0.803200  1.0  0.0831
  C  C413  1  0.853400  0.032300  0.768200  1.0  -0.1112
  C  C414  1  0.905500  0.045700  0.757800  1.0  -0.1366
  C  C415  1  0.935000  0.077700  0.782500  1.0  -0.0773
  C  C416  1  0.912500  0.096100  0.817400  1.0  -0.0715
  C  C417  1  0.860400  0.082700  0.827800  1.0  -0.0724
  C  C418  1  0.061700  0.965300  0.610800  1.0  0.2658
  C  C419  1  0.754300  0.046400  0.843400  1.0  -0.0952
  C  C420  1  0.243700  0.904200  0.492100  1.0  -0.0347
  C  C421  1  0.209800  0.875900  0.463600  1.0  0.1072
  C  C422  1  0.833400  0.099200  0.865100  1.0  -0.0794
  C  C423  1  0.693800  0.063100  0.966900  1.0  -0.0644
  C  C424  1  0.692300  0.080600  0.945600  1.0  -0.0508
  C  C425  1  0.110700  0.419700  0.371500  1.0  -0.0756
  C  C426  1  0.088600  0.450500  0.372400  1.0  -0.0859
  C  C427  1  0.127700  0.480800  0.386900  1.0  0.1437
  C  C428  1  0.189000  0.480300  0.400500  1.0  -0.0876
  C  C429  1  0.211100  0.449500  0.399600  1.0  -0.0995
  C  C430  1  0.172000  0.419200  0.385100  1.0  -0.0459
  C  C431  1  0.107000  0.509800  0.385800  1.0  -0.1223
  C  C432  1  0.158000  0.540800  0.404000  1.0  -0.1197
  C  C433  1  0.230800  0.626200  0.425500  1.0  -0.1726
  C  C434  1  0.238700  0.643600  0.406600  1.0  0.0151
  C  C435  1  0.930500  0.280400  0.305800  1.0  0.4192
  C  C436  1  0.783200  0.190800  0.223800  1.0  -0.1148
  C  C437  1  0.781900  0.131400  0.212100  1.0  0.0743
  C  C438  1  0.830900  0.196800  0.247700  1.0  0.0841
  C  C439  1  0.853400  0.231800  0.264100  1.0  -0.1123
  C  C440  1  0.905500  0.242200  0.287900  1.0  -0.134
  C  C441  1  0.935000  0.217500  0.295200  1.0  -0.0756
  C  C442  1  0.912500  0.182600  0.278700  1.0  -0.0742
  C  C443  1  0.860400  0.172200  0.254900  1.0  -0.0705
  C  C444  1  0.061700  0.389200  0.354500  1.0  0.2658
  C  C445  1  0.754300  0.156600  0.203000  1.0  -0.0941
  C  C446  1  0.243700  0.507900  0.412100  1.0  -0.0347
  C  C447  1  0.209800  0.536400  0.412300  1.0  0.1077
  C  C448  1  0.833400  0.134900  0.234100  1.0  -0.0773
  C  C449  1  0.693800  0.033100  0.096200  1.0  -0.064
  C  C450  1  0.692300  0.054400  0.135000  1.0  -0.0512
  C  C451  1  0.610700  0.371500  0.951800  1.0  -0.0766
  C  C452  1  0.588600  0.372400  0.921900  1.0  -0.0826
  C  C453  1  0.627700  0.386900  0.906100  1.0  0.1472
  C  C454  1  0.689000  0.400500  0.920200  1.0  -0.0873
  C  C455  1  0.711100  0.399600  0.950100  1.0  -0.1021
  C  C456  1  0.672000  0.385100  0.965900  1.0  -0.046
  C  C457  1  0.607000  0.385800  0.876000  1.0  -0.1276
  C  C458  1  0.658000  0.404000  0.863200  1.0  -0.1179
  C  C459  1  0.730800  0.425500  0.799300  1.0  -0.1732
  C  C460  1  0.738700  0.406600  0.763000  1.0  0.0177
  C  C461  1  0.430500  0.305800  0.025400  1.0  0.4205
  C  C462  1  0.283200  0.223800  0.033000  1.0  -0.1128
  C  C463  1  0.281900  0.212100  0.080700  1.0  0.075
  C  C464  1  0.330900  0.247700  0.050900  1.0  0.0835
  C  C465  1  0.353400  0.264100  0.032300  1.0  -0.112
  C  C466  1  0.405500  0.287900  0.045700  1.0  -0.1354
  C  C467  1  0.435000  0.295200  0.077700  1.0  -0.0756
  C  C468  1  0.412500  0.278700  0.096100  1.0  -0.0743
  C  C469  1  0.360400  0.254900  0.082700  1.0  -0.0727
  C  C470  1  0.561700  0.354500  0.965300  1.0  0.2653
  C  C471  1  0.254300  0.203000  0.046400  1.0  -0.0955
  C  C472  1  0.743700  0.412100  0.904200  1.0  -0.0337
  C  C473  1  0.709800  0.412300  0.875900  1.0  0.1079
  C  C474  1  0.333400  0.234100  0.099200  1.0  -0.0781
  C  C475  1  0.193800  0.096200  0.063100  1.0  -0.0635
  C  C476  1  0.192300  0.135000  0.080600  1.0  -0.051
  C  C477  1  0.610700  0.048200  0.419700  1.0  -0.0781
  C  C478  1  0.588600  0.078100  0.450500  1.0  -0.0822
  C  C479  1  0.627700  0.093900  0.480800  1.0  0.147
  C  C480  1  0.689000  0.079800  0.480300  1.0  -0.0877
  C  C481  1  0.711100  0.049900  0.449500  1.0  -0.1018
  C  C482  1  0.672000  0.034100  0.419200  1.0  -0.0479
  C  C483  1  0.607000  0.124000  0.509800  1.0  -0.13
  C  C484  1  0.658000  0.136800  0.540800  1.0  -0.1181
  C  C485  1  0.730800  0.200700  0.626200  1.0  -0.1705
  C  C486  1  0.738700  0.237000  0.643600  1.0  0.019
  C  C487  1  0.430500  0.974600  0.280400  1.0  0.4207
  C  C488  1  0.283200  0.967000  0.190800  1.0  -0.113
  C  C489  1  0.281900  0.919300  0.131400  1.0  0.0748
  C  C490  1  0.330900  0.949100  0.196800  1.0  0.0836
  C  C491  1  0.353400  0.967700  0.231800  1.0  -0.1118
  C  C492  1  0.405500  0.954300  0.242200  1.0  -0.1367
  C  C493  1  0.435000  0.922300  0.217500  1.0  -0.0774
  C  C494  1  0.412500  0.903900  0.182600  1.0  -0.072
  C  C495  1  0.360400  0.917300  0.172200  1.0  -0.0722
  C  C496  1  0.561700  0.034700  0.389200  1.0  0.2671
  C  C497  1  0.254300  0.953600  0.156600  1.0  -0.0959
  C  C498  1  0.743700  0.095800  0.507900  1.0  -0.0335
  C  C499  1  0.709800  0.124100  0.536400  1.0  0.1085
  C  C500  1  0.333400  0.900800  0.134900  1.0  -0.08
  C  C501  1  0.193800  0.936900  0.033100  1.0  -0.0643
  C  C502  1  0.192300  0.919400  0.054400  1.0  -0.0499
  C  C503  1  0.610700  0.580300  0.628500  1.0  -0.0748
  C  C504  1  0.588600  0.549500  0.627600  1.0  -0.0841
  C  C505  1  0.627700  0.519200  0.613100  1.0  0.1467
  C  C506  1  0.689000  0.519700  0.599500  1.0  -0.0874
  C  C507  1  0.711100  0.550500  0.600400  1.0  -0.1001
  C  C508  1  0.672000  0.580800  0.614900  1.0  -0.0475
  C  C509  1  0.607000  0.490200  0.614200  1.0  -0.1279
  C  C510  1  0.658000  0.459200  0.596000  1.0  -0.1226
  C  C511  1  0.730800  0.373800  0.574500  1.0  -0.1716
  C  C512  1  0.738700  0.356400  0.593400  1.0  0.0141
  C  C513  1  0.430500  0.719600  0.694200  1.0  0.4195
  C  C514  1  0.283200  0.809200  0.776200  1.0  -0.1168
  C  C515  1  0.281900  0.868600  0.787900  1.0  0.0749
  C  C516  1  0.330900  0.803200  0.752300  1.0  0.0821
  C  C517  1  0.353400  0.768200  0.735900  1.0  -0.1128
  C  C518  1  0.405500  0.757800  0.712100  1.0  -0.1336
  C  C519  1  0.435000  0.782500  0.704800  1.0  -0.0769
  C  C520  1  0.412500  0.817400  0.721300  1.0  -0.0762
  C  C521  1  0.360400  0.827800  0.745100  1.0  -0.0699
  C  C522  1  0.561700  0.610800  0.645500  1.0  0.2663
  C  C523  1  0.254300  0.843400  0.797000  1.0  -0.0945
  C  C524  1  0.743700  0.492100  0.587900  1.0  -0.0349
  C  C525  1  0.709800  0.463600  0.587700  1.0  0.1067
  C  C526  1  0.333400  0.865100  0.765900  1.0  -0.08
  C  C527  1  0.193800  0.966900  0.903800  1.0  -0.0647
  C  C528  1  0.192300  0.945600  0.865000  1.0  -0.052
  C  C529  1  0.750000  0.411200  0.822400  1.0  0.0821
  C  C530  1  0.750000  0.370400  0.740800  1.0  -0.0722
  C  C531  1  0.750000  0.350200  0.700400  1.0  -0.1539
  C  C532  1  0.750000  0.411200  0.588800  1.0  0.0822
  C  C533  1  0.750000  0.370400  0.629600  1.0  -0.0735
  C  C534  1  0.750000  0.350200  0.649800  1.0  -0.1538
  C  C535  1  0.750000  0.177600  0.588800  1.0  0.0817
  C  C536  1  0.750000  0.259200  0.629600  1.0  -0.0722
  C  C537  1  0.750000  0.299600  0.649800  1.0  -0.1541
  C  C538  1  0.250000  0.588800  0.177600  1.0  0.0821
  C  C539  1  0.250000  0.629600  0.259200  1.0  -0.0732
  C  C540  1  0.250000  0.649800  0.299600  1.0  -0.1539
  C  C541  1  0.250000  0.588800  0.411200  1.0  0.0822
  C  C542  1  0.250000  0.629600  0.370400  1.0  -0.0716
  C  C543  1  0.250000  0.649800  0.350200  1.0  -0.1541
  C  C544  1  0.250000  0.822400  0.411200  1.0  0.082
  C  C545  1  0.250000  0.740800  0.370400  1.0  -0.0727
  C  C546  1  0.250000  0.700400  0.350200  1.0  -0.1537
  C  C547  1  0.750000  0.312300  0.687700  1.0  -0.0721
  C  C548  1  0.750000  0.375400  0.687700  1.0  -0.0714
  C  C549  1  0.750000  0.312300  0.624600  1.0  -0.0737
  C  C550  1  0.250000  0.687700  0.312300  1.0  -0.0735
  C  C551  1  0.250000  0.624600  0.312300  1.0  -0.0708
  C  C552  1  0.250000  0.687700  0.375400  1.0  -0.0723
  C  C553  1  0.250000  0.960100  0.039900  1.0  -0.0484
  C  C554  1  0.250000  0.980150  0.019850  1.0  -0.0512
  C  C555  1  0.250000  0.925000  0.075000  1.0  0.058
  C  C556  1  0.250000  0.079800  0.039900  1.0  -0.0485
  C  C557  1  0.250000  0.039700  0.019850  1.0  -0.0505
  C  C558  1  0.250000  0.150000  0.075000  1.0  0.0575
  C  C559  1  0.250000  0.960100  0.920200  1.0  -0.0486
  C  C560  1  0.250000  0.980150  0.960300  1.0  -0.0508
  C  C561  1  0.250000  0.925000  0.850000  1.0  0.0583
  C  C562  1  0.750000  0.039900  0.960100  1.0  -0.0486
  C  C563  1  0.750000  0.019850  0.980150  1.0  -0.0507
  C  C564  1  0.750000  0.075000  0.925000  1.0  0.0581
  C  C565  1  0.750000  0.920200  0.960100  1.0  -0.0485
  C  C566  1  0.750000  0.960300  0.980150  1.0  -0.0507
  C  C567  1  0.750000  0.850000  0.925000  1.0  0.0574
  C  C568  1  0.750000  0.039900  0.079800  1.0  -0.0483
  C  C569  1  0.750000  0.019850  0.039700  1.0  -0.0511
  C  C570  1  0.750000  0.075000  0.150000  1.0  0.0578
  C  C571  1  0.250000  0.019200  0.038400  1.0  -0.0352
  C  C572  1  0.250000  0.019200  0.980800  1.0  -0.0373
  C  C573  1  0.250000  0.961600  0.980800  1.0  -0.0379
  C  C574  1  0.750000  0.980800  0.961600  1.0  -0.0365
  C  C575  1  0.750000  0.980800  0.019200  1.0  -0.0351
  C  C576  1  0.750000  0.038400  0.019200  1.0  -0.0387
  N  N577  1  0.750000  0.429200  0.858400  1.0  -0.173
  N  N578  1  0.750000  0.429200  0.570800  1.0  -0.1732
  N  N579  1  0.750000  0.141600  0.570800  1.0  -0.1733
  N  N580  1  0.250000  0.570800  0.141600  1.0  -0.173
  N  N581  1  0.250000  0.570800  0.429200  1.0  -0.1727
  N  N582  1  0.250000  0.858400  0.429200  1.0  -0.1729
  N  N583  1  0.250000  0.904900  0.095100  1.0  -0.1648
  N  N584  1  0.250000  0.190200  0.095100  1.0  -0.1648
  N  N585  1  0.250000  0.904900  0.809800  1.0  -0.1649
  N  N586  1  0.750000  0.095100  0.904900  1.0  -0.1647
  N  N587  1  0.750000  0.809800  0.904900  1.0  -0.1649
  N  N588  1  0.750000  0.095100  0.190200  1.0  -0.1646
  O  O589  1  0.015300  0.723000  0.046000  1.0  -0.5842
  O  O590  1  0.098400  0.697300  0.995000  1.0  -0.5692
  O  O591  1  0.904500  0.636300  0.997800  1.0  -0.6249
  O  O592  1  0.999200  0.611600  0.954000  1.0  -0.5322
  O  O593  1  0.015300  0.323000  0.277000  1.0  -0.5834
  O  O594  1  0.098400  0.297700  0.302700  1.0  -0.5691
  O  O595  1  0.904500  0.361500  0.363700  1.0  -0.6248
  O  O596  1  0.999200  0.342400  0.388400  1.0  -0.5327
  O  O597  1  0.015300  0.954000  0.677000  1.0  -0.5833
  O  O598  1  0.098400  0.005000  0.702300  1.0  -0.5688
  O  O599  1  0.904500  0.002200  0.638500  1.0  -0.625
  O  O600  1  0.999200  0.046000  0.657600  1.0  -0.5324
  O  O601  1  0.515300  0.277000  0.954000  1.0  -0.5827
  O  O602  1  0.598400  0.302700  0.005000  1.0  -0.5688
  O  O603  1  0.404500  0.363700  0.002200  1.0  -0.6251
  O  O604  1  0.499200  0.388400  0.046000  1.0  -0.5334
  O  O605  1  0.515300  0.677000  0.723000  1.0  -0.5835
  O  O606  1  0.598400  0.702300  0.697300  1.0  -0.569
  O  O607  1  0.404500  0.638500  0.636300  1.0  -0.6245
  O  O608  1  0.499200  0.657600  0.611600  1.0  -0.5325
  O  O609  1  0.515300  0.046000  0.323000  1.0  -0.5827
  O  O610  1  0.598400  0.995000  0.297700  1.0  -0.5688
  O  O611  1  0.404500  0.997800  0.361500  1.0  -0.6254
  O  O612  1  0.499200  0.954000  0.342400  1.0  -0.5329
  O  O613  1  0.984700  0.677000  0.954000  1.0  -0.5836
  O  O614  1  0.901600  0.702300  0.005000  1.0  -0.5698
  O  O615  1  0.095500  0.638500  0.002200  1.0  -0.6252
  O  O616  1  0.000800  0.657600  0.046000  1.0  -0.5351
  O  O617  1  0.984700  0.046000  0.723000  1.0  -0.5818
  O  O618  1  0.901600  0.995000  0.697300  1.0  -0.569
  O  O619  1  0.095500  0.997800  0.636300  1.0  -0.6253
  O  O620  1  0.000800  0.954000  0.611600  1.0  -0.5345
  O  O621  1  0.984700  0.277000  0.323000  1.0  -0.5827
  O  O622  1  0.901600  0.302700  0.297700  1.0  -0.5698
  O  O623  1  0.095500  0.363700  0.361500  1.0  -0.6248
  O  O624  1  0.000800  0.388400  0.342400  1.0  -0.5341
  O  O625  1  0.484700  0.323000  0.046000  1.0  -0.5825
  O  O626  1  0.401600  0.297700  0.995000  1.0  -0.5703
  O  O627  1  0.595500  0.361500  0.997800  1.0  -0.6252
  O  O628  1  0.500800  0.342400  0.954000  1.0  -0.5348
  O  O629  1  0.484700  0.954000  0.277000  1.0  -0.5819
  O  O630  1  0.401600  0.005000  0.302700  1.0  -0.5701
  O  O631  1  0.595500  0.002200  0.363700  1.0  -0.625
  O  O632  1  0.500800  0.046000  0.388400  1.0  -0.5345
  O  O633  1  0.484700  0.723000  0.677000  1.0  -0.5834
  O  O634  1  0.401600  0.697300  0.702300  1.0  -0.5693
  O  O635  1  0.595500  0.636300  0.638500  1.0  -0.6253
  O  O636  1  0.500800  0.611600  0.657600  1.0  -0.5349
