# generated using pymatgen
data_Dy4H72C144N12(ClO8)3
_symmetry_space_group_name_H-M   'P 1'
_cell_length_a   16.15580000
_cell_length_b   16.15580000
_cell_length_c   30.95980000
_cell_angle_alpha   100.81900000
_cell_angle_beta   100.81900000
_cell_angle_gamma   95.83100000
_symmetry_Int_Tables_number   1
_chemical_formula_structural   Dy4H72C144N12(ClO8)3
_chemical_formula_sum   'Dy8 H144 C288 N24 Cl6 O48'
_cell_volume   7717.28909591
_cell_formula_units_Z   2
loop_
 _symmetry_equiv_pos_site_id
 _symmetry_equiv_pos_as_xyz
  1  'x, y, z'
loop_
 _atom_site_type_symbol
 _atom_site_label
 _atom_site_symmetry_multiplicity
 _atom_site_fract_x
 _atom_site_fract_y
 _atom_site_fract_z
 _atom_site_occupancy
 _atom_site_charge
  Dy  Dy1  1  0.186440  0.640290  0.698840  1.0  2.2841
  Dy  Dy2  1  0.014300  0.631860  0.587350  1.0  2.205
  Dy  Dy3  1  0.359710  0.813560  0.801160  1.0  2.2831
  Dy  Dy4  1  0.368140  0.985700  0.912650  1.0  2.2061
  Dy  Dy5  1  0.813550  0.359710  0.301160  1.0  2.2881
  Dy  Dy6  1  0.985700  0.368140  0.412650  1.0  2.2062
  Dy  Dy7  1  0.640290  0.186440  0.198840  1.0  2.2868
  Dy  Dy8  1  0.631860  0.014300  0.087350  1.0  2.2064
  H  H9  1  0.483100  0.304900  0.445200  1.0  0.1188
  H  H10  1  0.399900  0.370300  0.497600  1.0  0.1301
  H  H11  1  0.300000  0.283400  0.640600  1.0  0.1268
  H  H12  1  0.353500  0.194100  0.693300  1.0  0.1175
  H  H13  1  0.637400  0.047800  0.716000  1.0  0.1182
  H  H14  1  0.728100  0.989700  0.664800  1.0  0.123
  H  H15  1  0.678700  0.930500  0.482800  1.0  0.1206
  H  H16  1  0.624500  0.016500  0.428000  1.0  0.1343
  H  H17  1  0.225500  0.276500  0.531900  1.0  0.095
  H  H18  1  0.127700  0.367100  0.543200  1.0  0.113
  H  H19  1  0.317700  0.544900  0.622700  1.0  0.0962
  H  H20  1  0.415300  0.452300  0.610300  1.0  0.1262
  H  H21  1  0.582100  0.173300  0.761800  1.0  0.0867
  H  H22  1  0.552300  0.140300  0.827900  1.0  0.1098
  H  H23  1  0.334900  0.993700  0.756400  1.0  0.11
  H  H24  1  0.365600  0.025400  0.689800  1.0  0.1155
  H  H25  1  0.658200  0.851200  0.600200  1.0  0.0887
  H  H26  1  0.753400  0.753800  0.605900  1.0  0.1304
  H  H27  1  0.911900  0.898700  0.552300  1.0  0.1231
  H  H28  1  0.815100  0.996300  0.550500  1.0  0.0998
  H  H29  1  0.665200  0.272600  0.450900  1.0  0.0992
  H  H30  1  0.702100  0.293300  0.383200  1.0  0.1078
  H  H31  1  0.518600  0.100200  0.314400  1.0  0.1073
  H  H32  1  0.482600  0.079400  0.380500  1.0  0.0987
  H  H33  1  0.975400  0.058200  0.667700  1.0  0.1242
  H  H34  1  0.912600  0.142200  0.614500  1.0  0.1157
  H  H35  1  0.680900  0.351100  0.611100  1.0  0.1189
  H  H36  1  0.592800  0.412400  0.663100  1.0  0.1292
  H  H37  1  0.904000  0.921800  0.705500  1.0  0.1027
  H  H38  1  0.999900  0.822700  0.705000  1.0  0.1021
  H  H39  1  0.723000  0.166800  0.562600  1.0  0.0769
  H  H40  1  0.753800  0.174600  0.494100  1.0  0.1051
  H  H41  1  0.935500  0.374700  0.554200  1.0  0.1041
  H  H42  1  0.909200  0.357400  0.624100  1.0  0.1076
  H  H43  1  0.468500  0.357100  0.704200  1.0  0.0835
  H  H44  1  0.373600  0.454000  0.702600  1.0  0.1091
  H  H45  1  0.695100  0.516900  0.054800  1.0  0.1166
  H  H46  1  0.629700  0.600100  0.002400  1.0  0.1283
  H  H47  1  0.716600  0.700000  0.859400  1.0  0.1283
  H  H48  1  0.805900  0.646500  0.806700  1.0  0.1199
  H  H49  1  0.952200  0.362600  0.784000  1.0  0.1172
  H  H50  1  0.010300  0.271900  0.835200  1.0  0.1227
  H  H51  1  0.069500  0.321300  0.017200  1.0  0.1209
  H  H52  1  0.983500  0.375500  0.072000  1.0  0.1338
  H  H53  1  0.723500  0.774500  0.968100  1.0  0.095
  H  H54  1  0.632900  0.872300  0.956800  1.0  0.1135
  H  H55  1  0.455100  0.682300  0.877300  1.0  0.095
  H  H56  1  0.547700  0.584700  0.889700  1.0  0.1258
  H  H57  1  0.826700  0.417900  0.738200  1.0  0.0866
  H  H58  1  0.859700  0.447700  0.672100  1.0  0.1094
  H  H59  1  0.006300  0.665100  0.743600  1.0  0.1097
  H  H60  1  0.974600  0.634400  0.810200  1.0  0.1146
  H  H61  1  0.148800  0.341800  0.899800  1.0  0.089
  H  H62  1  0.246200  0.246600  0.894100  1.0  0.1313
  H  H63  1  0.101300  0.088100  0.947700  1.0  0.1229
  H  H64  1  0.003700  0.184900  0.949500  1.0  0.0988
  H  H65  1  0.727400  0.334800  0.049100  1.0  0.1003
  H  H66  1  0.706700  0.297900  0.116800  1.0  0.1082
  H  H67  1  0.899800  0.481400  0.185600  1.0  0.1076
  H  H68  1  0.920600  0.517400  0.119500  1.0  0.0968
  H  H69  1  0.941800  0.024600  0.832300  1.0  0.1251
  H  H70  1  0.857800  0.087400  0.885500  1.0  0.1164
  H  H71  1  0.648900  0.319100  0.888900  1.0  0.1175
  H  H72  1  0.587600  0.407200  0.836900  1.0  0.1291
  H  H73  1  0.078200  0.096000  0.794500  1.0  0.1017
  H  H74  1  0.177300  0.000100  0.795000  1.0  0.1017
  H  H75  1  0.833200  0.277000  0.937400  1.0  0.0767
  H  H76  1  0.825400  0.246200  0.005900  1.0  0.1052
  H  H77  1  0.625300  0.064500  0.945800  1.0  0.1031
  H  H78  1  0.642600  0.090800  0.875900  1.0  0.1079
  H  H79  1  0.642900  0.531500  0.795800  1.0  0.0826
  H  H80  1  0.546000  0.626400  0.797400  1.0  0.108
  H  H81  1  0.516900  0.695100  0.554800  1.0  0.1165
  H  H82  1  0.600100  0.629700  0.502400  1.0  0.1296
  H  H83  1  0.700000  0.716600  0.359400  1.0  0.1276
  H  H84  1  0.646500  0.805900  0.306700  1.0  0.1182
  H  H85  1  0.362600  0.952200  0.284000  1.0  0.1181
  H  H86  1  0.271900  0.010300  0.335200  1.0  0.1237
  H  H87  1  0.321300  0.069500  0.517200  1.0  0.1208
  H  H88  1  0.375500  0.983500  0.572000  1.0  0.1332
  H  H89  1  0.774500  0.723500  0.468100  1.0  0.0946
  H  H90  1  0.872300  0.632900  0.456800  1.0  0.1131
  H  H91  1  0.682300  0.455100  0.377300  1.0  0.0959
  H  H92  1  0.584700  0.547700  0.389700  1.0  0.1248
  H  H93  1  0.417900  0.826700  0.238200  1.0  0.0864
  H  H94  1  0.447700  0.859700  0.172100  1.0  0.1098
  H  H95  1  0.665100  0.006300  0.243600  1.0  0.11
  H  H96  1  0.634400  0.974600  0.310200  1.0  0.1146
  H  H97  1  0.341800  0.148800  0.399800  1.0  0.0878
  H  H98  1  0.246600  0.246200  0.394100  1.0  0.1302
  H  H99  1  0.088100  0.101300  0.447700  1.0  0.1229
  H  H100  1  0.184900  0.003700  0.449500  1.0  0.1002
  H  H101  1  0.334800  0.727400  0.549100  1.0  0.0997
  H  H102  1  0.297900  0.706700  0.616800  1.0  0.1077
  H  H103  1  0.481400  0.899800  0.685600  1.0  0.1074
  H  H104  1  0.517400  0.920600  0.619500  1.0  0.097
  H  H105  1  0.024600  0.941800  0.332300  1.0  0.1246
  H  H106  1  0.087400  0.857800  0.385500  1.0  0.1149
  H  H107  1  0.319100  0.648900  0.388900  1.0  0.1184
  H  H108  1  0.407200  0.587600  0.336900  1.0  0.1296
  H  H109  1  0.096000  0.078200  0.294500  1.0  0.1031
  H  H110  1  0.000100  0.177300  0.295000  1.0  0.1023
  H  H111  1  0.277000  0.833200  0.437400  1.0  0.0763
  H  H112  1  0.246200  0.825400  0.505900  1.0  0.1052
  H  H113  1  0.064500  0.625300  0.445800  1.0  0.1037
  H  H114  1  0.090800  0.642600  0.375900  1.0  0.1078
  H  H115  1  0.531500  0.642900  0.295800  1.0  0.084
  H  H116  1  0.626400  0.546000  0.297400  1.0  0.1083
  H  H117  1  0.304900  0.483100  0.945200  1.0  0.1189
  H  H118  1  0.370300  0.399900  0.997600  1.0  0.1287
  H  H119  1  0.283400  0.300000  0.140600  1.0  0.1282
  H  H120  1  0.194100  0.353500  0.193300  1.0  0.1186
  H  H121  1  0.047800  0.637400  0.216000  1.0  0.1172
  H  H122  1  0.989700  0.728100  0.164800  1.0  0.123
  H  H123  1  0.930500  0.678700  0.982800  1.0  0.1215
  H  H124  1  0.016500  0.624500  0.928000  1.0  0.1354
  H  H125  1  0.276500  0.225500  0.031900  1.0  0.0947
  H  H126  1  0.367100  0.127700  0.043200  1.0  0.1131
  H  H127  1  0.544900  0.317700  0.122700  1.0  0.0949
  H  H128  1  0.452300  0.415300  0.110300  1.0  0.1263
  H  H129  1  0.173300  0.582100  0.261800  1.0  0.0863
  H  H130  1  0.140300  0.552300  0.327900  1.0  0.1094
  H  H131  1  0.993700  0.334900  0.256400  1.0  0.1097
  H  H132  1  0.025400  0.365600  0.189800  1.0  0.1138
  H  H133  1  0.851200  0.658200  0.100200  1.0  0.0895
  H  H134  1  0.753800  0.753400  0.105900  1.0  0.1311
  H  H135  1  0.898700  0.911900  0.052300  1.0  0.1225
  H  H136  1  0.996300  0.815100  0.050500  1.0  0.0991
  H  H137  1  0.272600  0.665200  0.950900  1.0  0.0995
  H  H138  1  0.293300  0.702100  0.883200  1.0  0.1081
  H  H139  1  0.100200  0.518600  0.814400  1.0  0.1074
  H  H140  1  0.079400  0.482600  0.880500  1.0  0.0978
  H  H141  1  0.058200  0.975400  0.167700  1.0  0.1247
  H  H142  1  0.142200  0.912600  0.114500  1.0  0.1187
  H  H143  1  0.351100  0.680900  0.111100  1.0  0.1187
  H  H144  1  0.412400  0.592800  0.163100  1.0  0.1298
  H  H145  1  0.921800  0.904000  0.205500  1.0  0.1016
  H  H146  1  0.822700  0.999900  0.205000  1.0  0.1018
  H  H147  1  0.166800  0.723000  0.062600  1.0  0.0769
  H  H148  1  0.174600  0.753800  0.994100  1.0  0.1042
  H  H149  1  0.374700  0.935500  0.054200  1.0  0.1037
  H  H150  1  0.357400  0.909200  0.124100  1.0  0.1083
  H  H151  1  0.357100  0.468500  0.204200  1.0  0.0829
  H  H152  1  0.454000  0.373600  0.202600  1.0  0.1086
  C  C153  1  0.508200  0.218000  0.488750  1.0  0.2074
  C  C154  1  0.474600  0.287400  0.471900  1.0  -0.1584
  C  C155  1  0.429500  0.322900  0.500100  1.0  -0.1517
  C  C156  1  0.434100  0.275700  0.535500  1.0  0.2014
  C  C157  1  0.388400  0.288000  0.570400  1.0  -0.0666
  C  C158  1  0.394300  0.240700  0.604080  1.0  0.2009
  C  C159  1  0.344600  0.249800  0.638600  1.0  -0.1716
  C  C160  1  0.374100  0.201300  0.667200  1.0  -0.1788
  C  C161  1  0.442200  0.162200  0.651480  1.0  0.1729
  C  C162  1  0.497300  0.118100  0.675670  1.0  -0.094
  C  C163  1  0.568100  0.086700  0.660370  1.0  0.209
  C  C164  1  0.630700  0.049500  0.685100  1.0  -0.0782
  C  C165  1  0.679700  0.016900  0.657200  1.0  -0.1753
  C  C166  1  0.643800  0.031800  0.613400  1.0  0.2066
  C  C167  1  0.665000  0.995000  0.573000  1.0  -0.1106
  C  C168  1  0.631400  0.015200  0.531380  1.0  0.1416
  C  C169  1  0.650300  0.978700  0.488700  1.0  -0.1592
  C  C170  1  0.620400  0.025000  0.458700  1.0  -0.1706
  C  C171  1  0.580700  0.090700  0.482990  1.0  0.1514
  C  C172  1  0.551300  0.159700  0.466170  1.0  -0.0806
  C  C173  1  0.328900  0.352500  0.571800  1.0  0.0568
  C  C174  1  0.244100  0.330900  0.551200  1.0  -0.0842
  C  C175  1  0.185900  0.384500  0.557530  1.0  -0.0994
  C  C176  1  0.212100  0.466100  0.585340  1.0  -0.1061
  C  C177  1  0.298400  0.489600  0.604400  1.0  -0.0365
  C  C178  1  0.356600  0.434400  0.597500  1.0  -0.1275
  C  C179  1  0.148600  0.524200  0.592810  1.0  0.6941
  C  C180  1  0.479200  0.100600  0.718530  1.0  0.0363
  C  C181  1  0.532400  0.135000  0.760200  1.0  -0.1307
  C  C182  1  0.515500  0.115300  0.799700  1.0  -0.1101
  C  C183  1  0.444200  0.059000  0.797320  1.0  -0.1123
  C  C184  1  0.386600  0.028200  0.757100  1.0  -0.0561
  C  C185  1  0.404600  0.048000  0.717700  1.0  -0.0876
  C  C186  1  0.428400  0.028400  0.838460  1.0  0.6981
  C  C187  1  0.726700  0.932300  0.574300  1.0  0.0355
  C  C188  1  0.710200  0.860800  0.590600  1.0  -0.0629
  C  C189  1  0.765800  0.802000  0.593500  1.0  -0.1223
  C  C190  1  0.842500  0.814700  0.577700  1.0  -0.0538
  C  C191  1  0.860300  0.887900  0.562100  1.0  -0.0932
  C  C192  1  0.802100  0.945900  0.560900  1.0  -0.108
  C  C193  1  0.902000  0.749200  0.581000  1.0  0.6907
  C  C194  1  0.571300  0.172300  0.422770  1.0  0.0813
  C  C195  1  0.636000  0.236600  0.423100  1.0  -0.1247
  C  C196  1  0.658700  0.248700  0.382800  1.0  -0.0349
  C  C197  1  0.617600  0.195400  0.343060  1.0  -0.1238
  C  C198  1  0.549800  0.134000  0.342270  1.0  -0.0258
  C  C199  1  0.528000  0.122400  0.381400  1.0  -0.1079
  C  C200  1  0.645500  0.204700  0.300900  1.0  0.7172
  C  C201  1  0.898800  0.116000  0.711980  1.0  0.1952
  C  C202  1  0.935200  0.096400  0.672300  1.0  -0.1445
  C  C203  1  0.901600  0.142400  0.643630  1.0  -0.1596
  C  C204  1  0.845000  0.192800  0.664860  1.0  0.2064
  C  C205  1  0.795700  0.246700  0.644420  1.0  -0.0763
  C  C206  1  0.734100  0.288500  0.662290  1.0  0.1894
  C  C207  1  0.681800  0.341400  0.640500  1.0  -0.1516
  C  C208  1  0.633800  0.375400  0.668800  1.0  -0.175
  C  C209  1  0.657700  0.343700  0.710300  1.0  0.151
  C  C210  1  0.959600  0.937800  0.723800  1.0  -0.1425
  C  C211  1  0.017200  0.878200  0.723400  1.0  -0.0626
  C  C212  1  0.811600  0.260400  0.599800  1.0  0.0506
  C  C213  1  0.767900  0.208500  0.561200  1.0  -0.0904
  C  C214  1  0.785400  0.213600  0.520300  1.0  -0.1238
  C  C215  1  0.849100  0.275300  0.516400  1.0  -0.0966
  C  C216  1  0.893300  0.330300  0.555600  1.0  -0.0606
  C  C217  1  0.876100  0.321300  0.597300  1.0  -0.149
  C  C218  1  0.867800  0.279800  0.470500  1.0  0.7433
  C  C219  1  0.485200  0.412400  0.722800  1.0  -0.0636
  C  C220  1  0.428000  0.469600  0.722200  1.0  -0.0712
  C  C221  1  0.782000  0.491800  0.011250  1.0  0.2077
  C  C222  1  0.712600  0.525400  0.028100  1.0  -0.1623
  C  C223  1  0.677100  0.570500  0.999900  1.0  -0.1536
  C  C224  1  0.724300  0.565900  0.964500  1.0  0.2034
  C  C225  1  0.712000  0.611600  0.929600  1.0  -0.066
  C  C226  1  0.759300  0.605700  0.895920  1.0  0.2011
  C  C227  1  0.750200  0.655400  0.861400  1.0  -0.1724
  C  C228  1  0.798700  0.625900  0.832800  1.0  -0.1728
  C  C229  1  0.837800  0.557800  0.848520  1.0  0.1727
  C  C230  1  0.881900  0.502700  0.824330  1.0  -0.0941
  C  C231  1  0.913300  0.431900  0.839630  1.0  0.2092
  C  C232  1  0.950500  0.369300  0.814900  1.0  -0.0769
  C  C233  1  0.983100  0.320300  0.842800  1.0  -0.1752
  C  C234  1  0.968200  0.356200  0.886600  1.0  0.2071
  C  C235  1  0.005000  0.335000  0.927000  1.0  -0.1106
  C  C236  1  0.984800  0.368600  0.968620  1.0  0.1429
  C  C237  1  0.021300  0.349700  0.011300  1.0  -0.1581
  C  C238  1  0.975000  0.379600  0.041300  1.0  -0.172
  C  C239  1  0.909300  0.419300  0.017010  1.0  0.1509
  C  C240  1  0.840300  0.448700  0.033830  1.0  -0.0798
  C  C241  1  0.647500  0.671100  0.928200  1.0  0.0563
  C  C242  1  0.669100  0.755900  0.948800  1.0  -0.0861
  C  C243  1  0.615500  0.814100  0.942470  1.0  -0.1001
  C  C244  1  0.533900  0.787900  0.914660  1.0  -0.1037
  C  C245  1  0.510400  0.701600  0.895600  1.0  -0.0351
  C  C246  1  0.565600  0.643400  0.902500  1.0  -0.1271
  C  C247  1  0.475800  0.851400  0.907190  1.0  0.6959
  C  C248  1  0.899400  0.520800  0.781470  1.0  0.0386
  C  C249  1  0.865000  0.467600  0.739800  1.0  -0.1333
  C  C250  1  0.884700  0.484500  0.700300  1.0  -0.111
  C  C251  1  0.941000  0.555800  0.702680  1.0  -0.1116
  C  C252  1  0.971800  0.613400  0.742900  1.0  -0.0607
  C  C253  1  0.952000  0.595400  0.782300  1.0  -0.0903
  C  C254  1  0.971600  0.571600  0.661540  1.0  0.6988
  C  C255  1  0.067700  0.273300  0.925700  1.0  0.0354
  C  C256  1  0.139200  0.289800  0.909400  1.0  -0.0601
  C  C257  1  0.198000  0.234200  0.906500  1.0  -0.1212
  C  C258  1  0.185300  0.157500  0.922300  1.0  -0.0526
  C  C259  1  0.112100  0.139700  0.937900  1.0  -0.0939
  C  C260  1  0.054100  0.197900  0.939100  1.0  -0.1097
  C  C261  1  0.250800  0.098000  0.919000  1.0  0.6899
  C  C262  1  0.827700  0.428700  0.077230  1.0  0.0804
  C  C263  1  0.763400  0.364000  0.076900  1.0  -0.1214
  C  C264  1  0.751300  0.341300  0.117200  1.0  -0.0361
  C  C265  1  0.804600  0.382400  0.156940  1.0  -0.1255
  C  C266  1  0.866000  0.450200  0.157730  1.0  -0.025
  C  C267  1  0.877600  0.472000  0.118600  1.0  -0.1072
  C  C268  1  0.795300  0.354500  0.199100  1.0  0.717
  C  C269  1  0.884000  0.101200  0.788020  1.0  0.1952
  C  C270  1  0.903600  0.064800  0.827700  1.0  -0.1481
  C  C271  1  0.857600  0.098400  0.856370  1.0  -0.1585
  C  C272  1  0.807200  0.155000  0.835140  1.0  0.205
  C  C273  1  0.753300  0.204300  0.855580  1.0  -0.078
  C  C274  1  0.711500  0.265900  0.837710  1.0  0.1894
  C  C275  1  0.658600  0.318200  0.859500  1.0  -0.1519
  C  C276  1  0.624600  0.366200  0.831200  1.0  -0.1745
  C  C277  1  0.656300  0.342300  0.789700  1.0  0.1503
  C  C278  1  0.062200  0.040400  0.776200  1.0  -0.142
  C  C279  1  0.121800  0.982800  0.776600  1.0  -0.0692
  C  C280  1  0.739600  0.188400  0.900200  1.0  0.0497
  C  C281  1  0.791500  0.232100  0.938800  1.0  -0.0907
  C  C282  1  0.786400  0.214600  0.979700  1.0  -0.123
  C  C283  1  0.724700  0.150900  0.983600  1.0  -0.0937
  C  C284  1  0.669700  0.106700  0.944400  1.0  -0.0608
  C  C285  1  0.678700  0.123900  0.902700  1.0  -0.1499
  C  C286  1  0.720200  0.132200  0.029500  1.0  0.7432
  C  C287  1  0.587600  0.514800  0.777200  1.0  -0.0618
  C  C288  1  0.530400  0.572000  0.777800  1.0  -0.0723
  C  C289  1  0.491800  0.782000  0.511250  1.0  0.2051
  C  C290  1  0.525400  0.712600  0.528100  1.0  -0.1583
  C  C291  1  0.570500  0.677100  0.499900  1.0  -0.1504
  C  C292  1  0.565900  0.724300  0.464500  1.0  0.2017
  C  C293  1  0.611600  0.712000  0.429600  1.0  -0.0668
  C  C294  1  0.605700  0.759300  0.395920  1.0  0.202
  C  C295  1  0.655400  0.750200  0.361400  1.0  -0.1692
  C  C296  1  0.625900  0.798700  0.332800  1.0  -0.177
  C  C297  1  0.557800  0.837800  0.348520  1.0  0.1752
  C  C298  1  0.502700  0.881900  0.324330  1.0  -0.0938
  C  C299  1  0.431900  0.913300  0.339630  1.0  0.2093
  C  C300  1  0.369300  0.950500  0.314900  1.0  -0.0781
  C  C301  1  0.320300  0.983100  0.342800  1.0  -0.1735
  C  C302  1  0.356200  0.968200  0.386600  1.0  0.2061
  C  C303  1  0.335000  0.005000  0.427000  1.0  -0.1107
  C  C304  1  0.368600  0.984800  0.468620  1.0  0.1418
  C  C305  1  0.349700  0.021300  0.511300  1.0  -0.1585
  C  C306  1  0.379600  0.975000  0.541300  1.0  -0.1695
  C  C307  1  0.419300  0.909300  0.517010  1.0  0.1499
  C  C308  1  0.448700  0.840300  0.533830  1.0  -0.0811
  C  C309  1  0.671100  0.647500  0.428200  1.0  0.0578
  C  C310  1  0.755900  0.669100  0.448800  1.0  -0.0849
  C  C311  1  0.814100  0.615500  0.442470  1.0  -0.0991
  C  C312  1  0.787900  0.533900  0.414660  1.0  -0.1053
  C  C313  1  0.701600  0.510400  0.395600  1.0  -0.0372
  C  C314  1  0.643400  0.565600  0.402500  1.0  -0.1267
  C  C315  1  0.851400  0.475800  0.407190  1.0  0.6943
  C  C316  1  0.520800  0.899400  0.281470  1.0  0.0368
  C  C317  1  0.467600  0.865000  0.239800  1.0  -0.1319
  C  C318  1  0.484500  0.884700  0.200300  1.0  -0.1102
  C  C319  1  0.555800  0.941000  0.202680  1.0  -0.113
  C  C320  1  0.613400  0.971800  0.242900  1.0  -0.0574
  C  C321  1  0.595400  0.952000  0.282300  1.0  -0.0871
  C  C322  1  0.571600  0.971600  0.161540  1.0  0.6987
  C  C323  1  0.273300  0.067700  0.425700  1.0  0.0341
  C  C324  1  0.289800  0.139200  0.409400  1.0  -0.0663
  C  C325  1  0.234200  0.198000  0.406500  1.0  -0.1215
  C  C326  1  0.157500  0.185300  0.422300  1.0  -0.0526
  C  C327  1  0.139700  0.112100  0.437900  1.0  -0.095
  C  C328  1  0.197900  0.054100  0.439100  1.0  -0.1085
  C  C329  1  0.098000  0.250800  0.419000  1.0  0.692
  C  C330  1  0.428700  0.827700  0.577230  1.0  0.0814
  C  C331  1  0.364000  0.763400  0.576900  1.0  -0.1247
  C  C332  1  0.341300  0.751300  0.617200  1.0  -0.0354
  C  C333  1  0.382400  0.804600  0.656940  1.0  -0.1239
  C  C334  1  0.450200  0.866000  0.657730  1.0  -0.0269
  C  C335  1  0.472000  0.877600  0.618600  1.0  -0.1101
  C  C336  1  0.354500  0.795300  0.699100  1.0  0.717
  C  C337  1  0.101200  0.884000  0.288020  1.0  0.194
  C  C338  1  0.064800  0.903600  0.327700  1.0  -0.1448
  C  C339  1  0.098400  0.857600  0.356370  1.0  -0.1596
  C  C340  1  0.155000  0.807200  0.335140  1.0  0.2068
  C  C341  1  0.204300  0.753300  0.355580  1.0  -0.0779
  C  C342  1  0.265900  0.711500  0.337710  1.0  0.1897
  C  C343  1  0.318200  0.658600  0.359500  1.0  -0.151
  C  C344  1  0.366200  0.624600  0.331200  1.0  -0.1758
  C  C345  1  0.342300  0.656300  0.289700  1.0  0.151
  C  C346  1  0.040400  0.062200  0.276200  1.0  -0.1426
  C  C347  1  0.982800  0.121800  0.276600  1.0  -0.0637
  C  C348  1  0.188400  0.739600  0.400200  1.0  0.0499
  C  C349  1  0.232100  0.791500  0.438800  1.0  -0.0902
  C  C350  1  0.214600  0.786400  0.479700  1.0  -0.1252
  C  C351  1  0.150900  0.724700  0.483600  1.0  -0.0957
  C  C352  1  0.106700  0.669700  0.444400  1.0  -0.06
  C  C353  1  0.123900  0.678700  0.402700  1.0  -0.1485
  C  C354  1  0.132200  0.720200  0.529500  1.0  0.7448
  C  C355  1  0.514800  0.587600  0.277200  1.0  -0.0612
  C  C356  1  0.572000  0.530400  0.277800  1.0  -0.0726
  C  C357  1  0.218000  0.508200  0.988750  1.0  0.2095
  C  C358  1  0.287400  0.474600  0.971900  1.0  -0.1626
  C  C359  1  0.322900  0.429500  0.000100  1.0  -0.1525
  C  C360  1  0.275700  0.434100  0.035500  1.0  0.2036
  C  C361  1  0.288000  0.388400  0.070400  1.0  -0.0656
  C  C362  1  0.240700  0.394300  0.104080  1.0  0.2009
  C  C363  1  0.249800  0.344600  0.138600  1.0  -0.1726
  C  C364  1  0.201300  0.374100  0.167200  1.0  -0.1723
  C  C365  1  0.162200  0.442200  0.151480  1.0  0.1724
  C  C366  1  0.118100  0.497300  0.175670  1.0  -0.0951
  C  C367  1  0.086700  0.568100  0.160370  1.0  0.2098
  C  C368  1  0.049500  0.630700  0.185100  1.0  -0.0776
  C  C369  1  0.016900  0.679700  0.157200  1.0  -0.1762
  C  C370  1  0.031800  0.643800  0.113400  1.0  0.2063
  C  C371  1  0.995000  0.665000  0.073000  1.0  -0.1106
  C  C372  1  0.015200  0.631400  0.031380  1.0  0.1421
  C  C373  1  0.978700  0.650300  0.988700  1.0  -0.1596
  C  C374  1  0.025000  0.620400  0.958700  1.0  -0.1722
  C  C375  1  0.090700  0.580700  0.982990  1.0  0.1506
  C  C376  1  0.159700  0.551300  0.966170  1.0  -0.08
  C  C377  1  0.352500  0.328900  0.071800  1.0  0.0595
  C  C378  1  0.330900  0.244100  0.051200  1.0  -0.085
  C  C379  1  0.384500  0.185900  0.057530  1.0  -0.1014
  C  C380  1  0.466100  0.212100  0.085340  1.0  -0.1049
  C  C381  1  0.489600  0.298400  0.104400  1.0  -0.0347
  C  C382  1  0.434400  0.356600  0.097500  1.0  -0.1292
  C  C383  1  0.524200  0.148600  0.092810  1.0  0.6954
  C  C384  1  0.100600  0.479200  0.218530  1.0  0.0386
  C  C385  1  0.135000  0.532400  0.260200  1.0  -0.1316
  C  C386  1  0.115300  0.515500  0.299700  1.0  -0.1103
  C  C387  1  0.059000  0.444200  0.297320  1.0  -0.1116
  C  C388  1  0.028200  0.386600  0.257100  1.0  -0.0612
  C  C389  1  0.048000  0.404600  0.217700  1.0  -0.09
  C  C390  1  0.028400  0.428400  0.338460  1.0  0.6987
  C  C391  1  0.932300  0.726700  0.074300  1.0  0.0344
  C  C392  1  0.860800  0.710200  0.090600  1.0  -0.0606
  C  C393  1  0.802000  0.765800  0.093500  1.0  -0.1205
  C  C394  1  0.814700  0.842500  0.077700  1.0  -0.0523
  C  C395  1  0.887900  0.860300  0.062100  1.0  -0.0928
  C  C396  1  0.945900  0.802100  0.060900  1.0  -0.1125
  C  C397  1  0.749200  0.902000  0.081000  1.0  0.692
  C  C398  1  0.172300  0.571300  0.922770  1.0  0.0814
  C  C399  1  0.236600  0.636000  0.923100  1.0  -0.1234
  C  C400  1  0.248700  0.658700  0.882800  1.0  -0.036
  C  C401  1  0.195400  0.617600  0.843060  1.0  -0.1247
  C  C402  1  0.134000  0.549800  0.842270  1.0  -0.023
  C  C403  1  0.122400  0.528000  0.881400  1.0  -0.1058
  C  C404  1  0.204700  0.645500  0.800900  1.0  0.7173
  C  C405  1  0.116000  0.898800  0.211980  1.0  0.1947
  C  C406  1  0.096400  0.935200  0.172300  1.0  -0.1473
  C  C407  1  0.142400  0.901600  0.143630  1.0  -0.1569
  C  C408  1  0.192800  0.845000  0.164860  1.0  0.2054
  C  C409  1  0.246700  0.795700  0.144420  1.0  -0.0761
  C  C410  1  0.288500  0.734100  0.162290  1.0  0.1888
  C  C411  1  0.341400  0.681800  0.140500  1.0  -0.151
  C  C412  1  0.375400  0.633800  0.168800  1.0  -0.1734
  C  C413  1  0.343700  0.657700  0.210300  1.0  0.1515
  C  C414  1  0.937800  0.959600  0.223800  1.0  -0.142
  C  C415  1  0.878200  0.017200  0.223400  1.0  -0.0689
  C  C416  1  0.260400  0.811600  0.099800  1.0  0.0505
  C  C417  1  0.208500  0.767900  0.061200  1.0  -0.0912
  C  C418  1  0.213600  0.785400  0.020300  1.0  -0.1231
  C  C419  1  0.275300  0.849100  0.016400  1.0  -0.0936
  C  C420  1  0.330300  0.893300  0.055600  1.0  -0.0608
  C  C421  1  0.321300  0.876100  0.097300  1.0  -0.1502
  C  C422  1  0.279800  0.867800  0.970500  1.0  0.7426
  C  C423  1  0.412400  0.485200  0.222800  1.0  -0.0614
  C  C424  1  0.469600  0.428000  0.222200  1.0  -0.072
  C  C425  1  0.918600  0.081400  0.750000  1.0  -0.0775
  C  C426  1  0.628800  0.371200  0.750000  1.0  -0.0788
  C  C427  1  0.981500  0.018500  0.750000  1.0  0.038
  C  C428  1  0.099800  0.900200  0.750000  1.0  -0.1021
  C  C429  1  0.160700  0.839300  0.750000  1.0  0.7264
  C  C430  1  0.567400  0.432600  0.750000  1.0  0.1009
  C  C431  1  0.449100  0.550900  0.750000  1.0  -0.0959
  C  C432  1  0.385900  0.614100  0.750000  1.0  0.742
  C  C433  1  0.081400  0.918600  0.250000  1.0  -0.0771
  C  C434  1  0.371200  0.628800  0.250000  1.0  -0.08
  C  C435  1  0.018500  0.981500  0.250000  1.0  0.0363
  C  C436  1  0.900200  0.099800  0.250000  1.0  -0.1012
  C  C437  1  0.839300  0.160700  0.250000  1.0  0.7278
  C  C438  1  0.432600  0.567400  0.250000  1.0  0.1023
  C  C439  1  0.550900  0.449100  0.250000  1.0  -0.096
  C  C440  1  0.614100  0.385900  0.250000  1.0  0.7411
  N  N441  1  0.484560  0.214040  0.528850  1.0  -0.3772
  N  N442  1  0.451900  0.186700  0.612080  1.0  -0.4003
  N  N443  1  0.579400  0.080000  0.617170  1.0  -0.3741
  N  N444  1  0.583770  0.080830  0.526580  1.0  -0.3829
  N  N445  1  0.843880  0.174920  0.706670  1.0  -0.3826
  N  N446  1  0.717910  0.289490  0.704550  1.0  -0.3833
  N  N447  1  0.785960  0.515440  0.971150  1.0  -0.3798
  N  N448  1  0.813300  0.548100  0.887920  1.0  -0.3964
  N  N449  1  0.920000  0.420600  0.882830  1.0  -0.3731
  N  N450  1  0.919170  0.416230  0.973420  1.0  -0.3841
  N  N451  1  0.825080  0.156120  0.793330  1.0  -0.3821
  N  N452  1  0.710510  0.282090  0.795450  1.0  -0.3831
  N  N453  1  0.515440  0.785960  0.471150  1.0  -0.3785
  N  N454  1  0.548100  0.813300  0.387920  1.0  -0.3989
  N  N455  1  0.420600  0.920000  0.382830  1.0  -0.3726
  N  N456  1  0.416230  0.919170  0.473420  1.0  -0.3823
  N  N457  1  0.156120  0.825080  0.293330  1.0  -0.3839
  N  N458  1  0.282090  0.710510  0.295450  1.0  -0.3842
  N  N459  1  0.214040  0.484560  0.028850  1.0  -0.3798
  N  N460  1  0.186700  0.451900  0.112080  1.0  -0.3962
  N  N461  1  0.080000  0.579400  0.117170  1.0  -0.373
  N  N462  1  0.080830  0.583770  0.026580  1.0  -0.3838
  N  N463  1  0.174920  0.843880  0.206670  1.0  -0.3809
  N  N464  1  0.289490  0.717910  0.204550  1.0  -0.3864
  Cl  Cl465  1  0.525380  0.140900  0.571510  1.0  0.1635
  Cl  Cl466  1  0.859100  0.474620  0.928490  1.0  0.163
  Cl  Cl467  1  0.474620  0.859100  0.428490  1.0  0.1646
  Cl  Cl468  1  0.140900  0.525380  0.071510  1.0  0.1645
  Cl  Cl469  1  0.775070  0.224930  0.750000  1.0  -0.0831
  Cl  Cl470  1  0.224930  0.775070  0.250000  1.0  -0.0854
  O  O471  1  0.074610  0.504190  0.572330  1.0  -0.6082
  O  O472  1  0.174180  0.596360  0.621170  1.0  -0.7848
  O  O473  1  0.465420  0.069660  0.877110  1.0  -0.6238
  O  O474  1  0.376350  0.960930  0.833760  1.0  -0.7478
  O  O475  1  0.902980  0.705220  0.609900  1.0  -0.6181
  O  O476  1  0.951800  0.742200  0.553300  1.0  -0.6344
  O  O477  1  0.709320  0.259680  0.302910  1.0  -0.7827
  O  O478  1  0.604990  0.158610  0.263790  1.0  -0.611
  O  O479  1  0.137040  0.765280  0.726120  1.0  -0.6666
  O  O480  1  0.839700  0.216500  0.439500  1.0  -0.5516
  O  O481  1  0.911230  0.346770  0.467220  1.0  -0.628
  O  O482  1  0.312040  0.589620  0.725460  1.0  -0.7204
  O  O483  1  0.495810  0.925390  0.927670  1.0  -0.606
  O  O484  1  0.403640  0.825820  0.878830  1.0  -0.7807
  O  O485  1  0.930340  0.534580  0.622890  1.0  -0.6242
  O  O486  1  0.039070  0.623650  0.666240  1.0  -0.747
  O  O487  1  0.294780  0.097020  0.890100  1.0  -0.6177
  O  O488  1  0.257800  0.048200  0.946700  1.0  -0.6326
  O  O489  1  0.740320  0.290680  0.197090  1.0  -0.7832
  O  O490  1  0.841390  0.395010  0.236210  1.0  -0.6139
  O  O491  1  0.234720  0.862960  0.773880  1.0  -0.6649
  O  O492  1  0.783500  0.160300  0.060500  1.0  -0.5563
  O  O493  1  0.653230  0.088770  0.032780  1.0  -0.629
  O  O494  1  0.410380  0.687960  0.774540  1.0  -0.7209
  O  O495  1  0.925390  0.495810  0.427670  1.0  -0.6099
  O  O496  1  0.825820  0.403640  0.378830  1.0  -0.7841
  O  O497  1  0.534580  0.930340  0.122890  1.0  -0.6265
  O  O498  1  0.623650  0.039070  0.166240  1.0  -0.747
  O  O499  1  0.097020  0.294780  0.390100  1.0  -0.6171
  O  O500  1  0.048200  0.257800  0.446700  1.0  -0.6319
  O  O501  1  0.290680  0.740320  0.697090  1.0  -0.7826
  O  O502  1  0.395010  0.841390  0.736210  1.0  -0.6101
  O  O503  1  0.862960  0.234720  0.273880  1.0  -0.6661
  O  O504  1  0.160300  0.783500  0.560500  1.0  -0.5542
  O  O505  1  0.088770  0.653230  0.532780  1.0  -0.6312
  O  O506  1  0.687960  0.410380  0.274540  1.0  -0.7208
  O  O507  1  0.504190  0.074610  0.072330  1.0  -0.6062
  O  O508  1  0.596360  0.174180  0.121170  1.0  -0.7808
  O  O509  1  0.069660  0.465420  0.377110  1.0  -0.6254
  O  O510  1  0.960930  0.376350  0.333760  1.0  -0.7468
  O  O511  1  0.705220  0.902980  0.109900  1.0  -0.6163
  O  O512  1  0.742200  0.951800  0.053300  1.0  -0.6335
  O  O513  1  0.259680  0.709320  0.802910  1.0  -0.7834
  O  O514  1  0.158610  0.604990  0.763790  1.0  -0.6123
  O  O515  1  0.765280  0.137040  0.226120  1.0  -0.6643
  O  O516  1  0.216500  0.839700  0.939500  1.0  -0.552
  O  O517  1  0.346770  0.911230  0.967220  1.0  -0.6283
  O  O518  1  0.589620  0.312040  0.225460  1.0  -0.7234
