# generated using pymatgen
data_PrH13C25(NO3)2
_symmetry_space_group_name_H-M   'P 1'
_cell_length_a   9.49020000
_cell_length_b   13.91230000
_cell_length_c   16.74370000
_cell_angle_alpha   83.04400000
_cell_angle_beta   75.80200000
_cell_angle_gamma   88.30900000
_symmetry_Int_Tables_number   1
_chemical_formula_structural   PrH13C25(NO3)2
_chemical_formula_sum   'Pr2 H26 C50 N4 O12'
_cell_volume   2127.37681589
_cell_formula_units_Z   2
loop_
 _symmetry_equiv_pos_site_id
 _symmetry_equiv_pos_as_xyz
  1  'x, y, z'
loop_
 _atom_site_type_symbol
 _atom_site_label
 _atom_site_symmetry_multiplicity
 _atom_site_fract_x
 _atom_site_fract_y
 _atom_site_fract_z
 _atom_site_occupancy
 _atom_site_charge
  Pr  Pr1  1  0.705400  0.061300  0.446730  1.0  2.1587
  Pr  Pr2  1  0.294600  0.938700  0.553270  1.0  2.1649
  H  H3  1  0.684900  0.800600  0.954400  1.0  0.1247
  H  H4  1  0.679500  0.786000  0.103200  1.0  0.1225
  H  H5  1  0.911200  0.545600  0.309200  1.0  0.1245
  H  H6  1  0.071000  0.403300  0.294600  1.0  0.1256
  H  H7  1  0.997600  0.493400  0.071900  1.0  0.2674
  H  H8  1  0.971800  0.789300  0.745100  1.0  0.1127
  H  H9  1  0.872400  0.890500  0.651600  1.0  0.0885
  H  H10  1  0.477200  0.777500  0.758400  1.0  0.1108
  H  H11  1  0.573400  0.684300  0.857900  1.0  0.1158
  H  H12  1  0.566000  0.618500  0.246700  1.0  0.1228
  H  H13  1  0.438900  0.707700  0.350300  1.0  0.1092
  H  H14  1  0.805400  0.847900  0.346800  1.0  0.1049
  H  H15  1  0.931300  0.762200  0.240300  1.0  0.1132
  H  H16  1  0.315100  0.199400  0.045600  1.0  0.1243
  H  H17  1  0.320500  0.214000  0.896800  1.0  0.1217
  H  H18  1  0.088800  0.454400  0.690800  1.0  0.1264
  H  H19  1  0.929000  0.596700  0.705400  1.0  0.1248
  H  H20  1  0.002400  0.506600  0.928100  1.0  0.267
  H  H21  1  0.028200  0.210700  0.254900  1.0  0.1127
  H  H22  1  0.127600  0.109500  0.348400  1.0  0.0892
  H  H23  1  0.522800  0.222500  0.241600  1.0  0.1106
  H  H24  1  0.426600  0.315700  0.142100  1.0  0.1158
  H  H25  1  0.434000  0.381500  0.753300  1.0  0.1226
  H  H26  1  0.561100  0.292300  0.649700  1.0  0.1093
  H  H27  1  0.194600  0.152100  0.653200  1.0  0.1047
  H  H28  1  0.068700  0.237800  0.759700  1.0  0.1151
  C  C29  1  0.817000  0.673100  0.949800  1.0  0.2315
  C  C30  1  0.731200  0.751900  0.983800  1.0  -0.18
  C  C31  1  0.728500  0.744000  0.064700  1.0  -0.1672
  C  C32  1  0.813300  0.660300  0.082900  1.0  0.2277
  C  C33  1  0.839000  0.630300  0.161100  1.0  -0.1162
  C  C34  1  0.926500  0.551000  0.179100  1.0  0.15
  C  C35  1  0.950000  0.517500  0.259400  1.0  -0.1682
  C  C36  1  0.036200  0.439600  0.251600  1.0  -0.1742
  C  C37  1  0.066900  0.420400  0.166300  1.0  0.1624
  C  C38  1  0.847100  0.655600  0.867200  1.0  -0.1162
  C  C39  1  0.783500  0.722800  0.809000  1.0  0.1075
  C  C40  1  0.870600  0.786500  0.748600  1.0  -0.1566
  C  C41  1  0.811000  0.846800  0.692500  1.0  -0.0264
  C  C42  1  0.666500  0.844400  0.695300  1.0  -0.1309
  C  C43  1  0.577900  0.781300  0.756200  1.0  -0.0309
  C  C44  1  0.636200  0.723700  0.814100  1.0  -0.1579
  C  C45  1  0.604400  0.905600  0.630800  1.0  0.7978
  C  C46  1  0.763200  0.682900  0.231200  1.0  0.1121
  C  C47  1  0.615300  0.666100  0.265800  1.0  -0.162
  C  C48  1  0.540100  0.718700  0.328300  1.0  -0.0144
  C  C49  1  0.608900  0.786700  0.359000  1.0  -0.1578
  C  C50  1  0.755500  0.802100  0.326100  1.0  -0.0428
  C  C51  1  0.830400  0.750400  0.262600  1.0  -0.1656
  C  C52  1  0.520600  0.842800  0.424000  1.0  0.7644
  C  C53  1  0.999500  0.047100  0.520000  1.0  0.5749
  C  C54  1  0.183000  0.326900  0.050200  1.0  0.2336
  C  C55  1  0.268800  0.248100  0.016200  1.0  -0.1796
  C  C56  1  0.271500  0.256000  0.935300  1.0  -0.1672
  C  C57  1  0.186700  0.339700  0.917100  1.0  0.2278
  C  C58  1  0.161000  0.369700  0.838900  1.0  -0.1166
  C  C59  1  0.073500  0.449000  0.820900  1.0  0.1507
  C  C60  1  0.050000  0.482500  0.740600  1.0  -0.1667
  C  C61  1  0.963800  0.560400  0.748400  1.0  -0.1738
  C  C62  1  0.933100  0.579600  0.833700  1.0  0.1627
  C  C63  1  0.152900  0.344400  0.132800  1.0  -0.1148
  C  C64  1  0.216500  0.277200  0.191000  1.0  0.1071
  C  C65  1  0.129400  0.213500  0.251400  1.0  -0.1557
  C  C66  1  0.189000  0.153200  0.307500  1.0  -0.0236
  C  C67  1  0.333500  0.155600  0.304700  1.0  -0.1297
  C  C68  1  0.422100  0.218700  0.243800  1.0  -0.0281
  C  C69  1  0.363800  0.276300  0.185900  1.0  -0.1564
  C  C70  1  0.395600  0.094400  0.369200  1.0  0.7967
  C  C71  1  0.236800  0.317100  0.768800  1.0  0.112
  C  C72  1  0.384700  0.333900  0.734200  1.0  -0.1607
  C  C73  1  0.459900  0.281300  0.671700  1.0  -0.0146
  C  C74  1  0.391100  0.213300  0.641000  1.0  -0.157
  C  C75  1  0.244500  0.197900  0.673900  1.0  -0.0422
  C  C76  1  0.169600  0.249600  0.737400  1.0  -0.1654
  C  C77  1  0.479400  0.157200  0.576000  1.0  0.7644
  C  C78  1  0.000500  0.952900  0.480000  1.0  0.5754
  N  N79  1  0.866300  0.618200  0.011900  1.0  -0.4746
  N  N80  1  0.997100  0.489400  0.124800  1.0  -0.258
  N  N81  1  0.133700  0.381800  0.988100  1.0  -0.4762
  N  N82  1  0.002900  0.510600  0.875200  1.0  -0.2551
  O  O83  1  0.685500  0.969300  0.583900  1.0  -0.6781
  O  O84  1  0.475300  0.886100  0.629300  1.0  -0.7842
  O  O85  1  0.577600  0.914500  0.445000  1.0  -0.8388
  O  O86  1  0.394100  0.816500  0.456800  1.0  -0.6706
  O  O87  1  0.912100  0.111400  0.502700  1.0  -0.6301
  O  O88  1  0.085300  0.053600  0.564800  1.0  -0.6356
  O  O89  1  0.314500  0.030700  0.416100  1.0  -0.6786
  O  O90  1  0.524700  0.113900  0.370700  1.0  -0.7849
  O  O91  1  0.422400  0.085500  0.555000  1.0  -0.8401
  O  O92  1  0.605900  0.183500  0.543200  1.0  -0.6777
  O  O93  1  0.087900  0.888600  0.497300  1.0  -0.6322
  O  O94  1  0.914700  0.946400  0.435200  1.0  -0.635
