# generated using pymatgen
data_Nd2H39C72(NO2)6
_symmetry_space_group_name_H-M   'P 1'
_cell_length_a   16.15120000
_cell_length_b   16.15300000
_cell_length_c   31.29910000
_cell_angle_alpha   99.87700000
_cell_angle_beta   99.84200000
_cell_angle_gamma   96.67240000
_symmetry_Int_Tables_number   1
_chemical_formula_structural   Nd2H39C72(NO2)6
_chemical_formula_sum   'Nd8 H156 C288 N24 O48'
_cell_volume   7836.64335165
_cell_formula_units_Z   4
loop_
 _symmetry_equiv_pos_site_id
 _symmetry_equiv_pos_as_xyz
  1  'x, y, z'
loop_
 _atom_site_type_symbol
 _atom_site_label
 _atom_site_symmetry_multiplicity
 _atom_site_fract_x
 _atom_site_fract_y
 _atom_site_fract_z
 _atom_site_occupancy
 _atom_site_charge
  Nd  Nd1  1  0.857140  0.814310  0.800290  1.0  2.3036
  Nd  Nd2  1  0.685770  0.643150  0.699730  1.0  2.3069
  Nd  Nd3  1  0.520340  0.641220  0.586380  1.0  2.2383
  Nd  Nd4  1  0.858850  0.979650  0.913630  1.0  2.2366
  Nd  Nd5  1  0.142860  0.185690  0.199710  1.0  2.3048
  Nd  Nd6  1  0.314230  0.356850  0.300270  1.0  2.3089
  Nd  Nd7  1  0.479660  0.358780  0.413620  1.0  2.2387
  Nd  Nd8  1  0.141150  0.020350  0.086370  1.0  2.2252
  H  H9  1  0.516300  0.281500  0.837400  1.0  0.1101
  H  H10  1  0.452400  0.365700  0.784400  1.0  0.1341
  H  H11  1  0.301400  0.647500  0.807000  1.0  0.1193
  H  H12  1  0.210800  0.701100  0.860100  1.0  0.1344
  H  H13  1  0.133900  0.610200  0.007300  1.0  0.1159
  H  H14  1  0.198100  0.524000  0.058800  1.0  0.1153
  H  H15  1  0.476300  0.373000  0.069500  1.0  0.1246
  H  H16  1  0.564800  0.319800  0.016400  1.0  0.1347
  H  H17  1  0.395900  0.450200  0.902600  1.0  0.2528
  H  H18  1  0.319200  0.504300  0.956400  1.0  0.2588
  H  H19  1  0.324600  0.418700  0.741100  1.0  0.1033
  H  H20  1  0.357700  0.452200  0.675400  1.0  0.0942
  H  H21  1  0.507600  0.667000  0.743800  1.0  0.1132
  H  H22  1  0.465600  0.639900  0.807800  1.0  0.1028
  H  H23  1  0.220200  0.776100  0.970100  1.0  0.1172
  H  H24  1  0.122100  0.868700  0.958900  1.0  0.0988
  H  H25  1  0.952200  0.678300  0.878300  1.0  0.0993
  H  H26  1  0.052000  0.583200  0.888100  1.0  0.1206
  H  H27  1  0.421300  0.517000  0.114900  1.0  0.1107
  H  H28  1  0.406400  0.481200  0.182900  1.0  0.098
  H  H29  1  0.208700  0.298800  0.121600  1.0  0.1087
  H  H30  1  0.223700  0.335100  0.053900  1.0  0.098
  H  H31  1  0.648900  0.342700  0.901000  1.0  0.0886
  H  H32  1  0.743400  0.246900  0.896600  1.0  0.1285
  H  H33  1  0.594200  0.088900  0.950100  1.0  0.1221
  H  H34  1  0.497500  0.188000  0.951800  1.0  0.1066
  H  H35  1  0.450600  0.041300  0.836000  1.0  0.1288
  H  H36  1  0.360400  0.098000  0.886200  1.0  0.1095
  H  H37  1  0.136700  0.313000  0.885400  1.0  0.1193
  H  H38  1  0.084300  0.407100  0.835600  1.0  0.1321
  H  H39  1  0.096800  0.417000  0.664700  1.0  0.112
  H  H40  1  0.183900  0.359700  0.613400  1.0  0.1342
  H  H41  1  0.404200  0.140300  0.614100  1.0  0.1178
  H  H42  1  0.463200  0.051800  0.666100  1.0  0.1311
  H  H43  1  0.305400  0.187800  0.775300  1.0  0.243
  H  H44  1  0.237000  0.264100  0.723700  1.0  0.2699
  H  H45  1  0.144400  0.083400  0.868400  1.0  0.1158
  H  H46  1  0.120400  0.043100  0.932900  1.0  0.0972
  H  H47  1  0.292500  0.241500  0.005400  1.0  0.1084
  H  H48  1  0.318100  0.282300  0.938900  1.0  0.0971
  H  H49  1  0.972700  0.363600  0.701000  1.0  0.0813
  H  H50  1  0.873900  0.456300  0.702600  1.0  0.1223
  H  H51  1  0.043300  0.623600  0.798100  1.0  0.1175
  H  H52  1  0.134300  0.523400  0.799500  1.0  0.0757
  H  H53  1  0.418000  0.351100  0.631500  1.0  0.1007
  H  H54  1  0.456400  0.382700  0.567400  1.0  0.1122
  H  H55  1  0.258700  0.213300  0.495200  1.0  0.0931
  H  H56  1  0.217100  0.176800  0.559700  1.0  0.1026
  H  H57  1  0.491700  0.822000  0.711900  1.0  0.1156
  H  H58  1  0.395000  0.920500  0.714200  1.0  0.1104
  H  H59  1  0.678300  0.010400  0.785900  1.0  0.1149
  H  H60  1  0.578800  0.104000  0.788000  1.0  0.0973
  H  H61  1  0.221200  0.986400  0.664600  1.0  0.1374
  H  H62  1  0.133200  0.049300  0.715300  1.0  0.1164
  H  H63  1  0.853300  0.201200  0.694200  1.0  0.1175
  H  H64  1  0.799400  0.290700  0.640200  1.0  0.1283
  H  H65  1  0.890700  0.365100  0.493200  1.0  0.1207
  H  H66  1  0.976900  0.303100  0.441900  1.0  0.109
  H  H67  1  0.129900  0.022500  0.431200  1.0  0.1336
  H  H68  1  0.180400  0.935100  0.484900  1.0  0.1373
  H  H69  1  0.051000  0.105000  0.597000  1.0  0.2718
  H  H70  1  0.996900  0.183900  0.543800  1.0  0.2456
  H  H71  1  0.860200  0.032400  0.691200  1.0  0.1285
  H  H72  1  0.834500  0.992700  0.757200  1.0  0.0979
  H  H73  1  0.050600  0.141500  0.824600  1.0  0.0881
  H  H74  1  0.079800  0.179500  0.759400  1.0  0.1033
  H  H75  1  0.724700  0.278400  0.530200  1.0  0.1133
  H  H76  1  0.628700  0.375600  0.541300  1.0  0.1073
  H  H77  1  0.819200  0.548000  0.621300  1.0  0.1078
  H  H78  1  0.915800  0.449100  0.611500  1.0  0.114
  H  H79  1  0.985300  0.076700  0.385800  1.0  0.0896
  H  H80  1  0.017900  0.091200  0.316500  1.0  0.1061
  H  H81  1  0.200700  0.289800  0.380100  1.0  0.096
  H  H82  1  0.164400  0.274500  0.446500  1.0  0.1107
  H  H83  1  0.157100  0.854300  0.599600  1.0  0.1051
  H  H84  1  0.253200  0.761300  0.605300  1.0  0.1043
  H  H85  1  0.412700  0.904700  0.550600  1.0  0.1158
  H  H86  1  0.313700  0.004700  0.548400  1.0  0.1128
  H  H87  1  0.483700  0.718500  0.162600  1.0  0.1111
  H  H88  1  0.547600  0.634300  0.215600  1.0  0.1332
  H  H89  1  0.698600  0.352500  0.193000  1.0  0.1169
  H  H90  1  0.789200  0.298900  0.139900  1.0  0.1335
  H  H91  1  0.866100  0.389800  0.992700  1.0  0.1166
  H  H92  1  0.801900  0.476000  0.941200  1.0  0.1176
  H  H93  1  0.523700  0.627000  0.930500  1.0  0.1252
  H  H94  1  0.435200  0.680200  0.983600  1.0  0.1358
  H  H95  1  0.604100  0.549800  0.097400  1.0  0.2523
  H  H96  1  0.680800  0.495700  0.043600  1.0  0.2574
  H  H97  1  0.675400  0.581300  0.258900  1.0  0.1036
  H  H98  1  0.642300  0.547800  0.324600  1.0  0.0944
  H  H99  1  0.492400  0.333000  0.256200  1.0  0.1128
  H  H100  1  0.534400  0.360100  0.192200  1.0  0.1031
  H  H101  1  0.779800  0.223900  0.029900  1.0  0.1165
  H  H102  1  0.877900  0.131300  0.041100  1.0  0.0993
  H  H103  1  0.047800  0.321700  0.121700  1.0  0.1003
  H  H104  1  0.948000  0.416800  0.111900  1.0  0.1198
  H  H105  1  0.578700  0.483000  0.885100  1.0  0.1109
  H  H106  1  0.593600  0.518800  0.817100  1.0  0.0977
  H  H107  1  0.791300  0.701200  0.878400  1.0  0.1089
  H  H108  1  0.776300  0.664900  0.946100  1.0  0.0981
  H  H109  1  0.351100  0.657300  0.099000  1.0  0.0895
  H  H110  1  0.256600  0.753100  0.103400  1.0  0.1279
  H  H111  1  0.405800  0.911100  0.049900  1.0  0.1223
  H  H112  1  0.502500  0.812000  0.048200  1.0  0.1068
  H  H113  1  0.549400  0.958700  0.164000  1.0  0.1294
  H  H114  1  0.639600  0.902000  0.113800  1.0  0.1128
  H  H115  1  0.863300  0.687000  0.114600  1.0  0.1201
  H  H116  1  0.915700  0.592900  0.164400  1.0  0.1327
  H  H117  1  0.903200  0.583000  0.335300  1.0  0.1127
  H  H118  1  0.816100  0.640300  0.386600  1.0  0.1336
  H  H119  1  0.595800  0.859700  0.385900  1.0  0.117
  H  H120  1  0.536800  0.948200  0.333900  1.0  0.1314
  H  H121  1  0.694600  0.812200  0.224700  1.0  0.2433
  H  H122  1  0.763000  0.735900  0.276300  1.0  0.2706
  H  H123  1  0.855600  0.916600  0.131600  1.0  0.1155
  H  H124  1  0.879600  0.956900  0.067100  1.0  0.0976
  H  H125  1  0.707500  0.758500  0.994600  1.0  0.1081
  H  H126  1  0.681900  0.717700  0.061100  1.0  0.0969
  H  H127  1  0.027300  0.636400  0.299000  1.0  0.0817
  H  H128  1  0.126100  0.543700  0.297400  1.0  0.1218
  H  H129  1  0.956700  0.376400  0.201900  1.0  0.1173
  H  H130  1  0.865700  0.476600  0.200500  1.0  0.0751
  H  H131  1  0.582000  0.648900  0.368500  1.0  0.1014
  H  H132  1  0.543600  0.617300  0.432600  1.0  0.1118
  H  H133  1  0.741300  0.786700  0.504800  1.0  0.0927
  H  H134  1  0.782900  0.823200  0.440300  1.0  0.1019
  H  H135  1  0.508300  0.178000  0.288100  1.0  0.1153
  H  H136  1  0.605000  0.079500  0.285800  1.0  0.1104
  H  H137  1  0.321700  0.989600  0.214100  1.0  0.1148
  H  H138  1  0.421200  0.896000  0.212000  1.0  0.0972
  H  H139  1  0.778800  0.013600  0.335400  1.0  0.137
  H  H140  1  0.866800  0.950700  0.284700  1.0  0.1168
  H  H141  1  0.146700  0.798800  0.305800  1.0  0.1179
  H  H142  1  0.200600  0.709300  0.359800  1.0  0.1276
  H  H143  1  0.109300  0.634900  0.506800  1.0  0.1203
  H  H144  1  0.023100  0.696900  0.558100  1.0  0.1076
  H  H145  1  0.870100  0.977500  0.568800  1.0  0.1329
  H  H146  1  0.819600  0.064900  0.515100  1.0  0.1371
  H  H147  1  0.949000  0.895000  0.403000  1.0  0.2719
  H  H148  1  0.003100  0.816100  0.456200  1.0  0.2456
  H  H149  1  0.139800  0.967600  0.308800  1.0  0.1279
  H  H150  1  0.165500  0.007300  0.242800  1.0  0.098
  H  H151  1  0.949400  0.858500  0.175400  1.0  0.0883
  H  H152  1  0.920200  0.820500  0.240600  1.0  0.1033
  H  H153  1  0.275300  0.721600  0.469800  1.0  0.1128
  H  H154  1  0.371300  0.624400  0.458700  1.0  0.1069
  H  H155  1  0.180800  0.452000  0.378700  1.0  0.1079
  H  H156  1  0.084200  0.550900  0.388500  1.0  0.1149
  H  H157  1  0.014700  0.923300  0.614200  1.0  0.0896
  H  H158  1  0.982100  0.908800  0.683500  1.0  0.106
  H  H159  1  0.799300  0.710200  0.619900  1.0  0.096
  H  H160  1  0.835600  0.725500  0.553500  1.0  0.1104
  H  H161  1  0.842900  0.145700  0.400400  1.0  0.1048
  H  H162  1  0.746800  0.238700  0.394700  1.0  0.1032
  H  H163  1  0.587300  0.095300  0.449400  1.0  0.1155
  H  H164  1  0.686300  0.995300  0.451600  1.0  0.1133
  C  C165  1  0.466700  0.356700  0.886200  1.0  0.1501
  C  C166  1  0.485000  0.326700  0.844200  1.0  -0.174
  C  C167  1  0.450400  0.373000  0.815000  1.0  -0.1819
  C  C168  1  0.410600  0.435000  0.839600  1.0  0.1665
  C  C169  1  0.377800  0.505200  0.825000  1.0  -0.0894
  C  C170  1  0.332600  0.558000  0.848300  1.0  0.18
  C  C171  1  0.293900  0.626700  0.832900  1.0  -0.1525
  C  C172  1  0.244500  0.656900  0.861800  1.0  -0.1568
  C  C173  1  0.255600  0.604800  0.896100  1.0  0.1079
  C  C174  1  0.210600  0.613500  0.931800  1.0  -0.0168
  C  C175  1  0.222900  0.573200  0.966900  1.0  0.1425
  C  C176  1  0.179300  0.578900  0.003500  1.0  -0.1504
  C  C177  1  0.214700  0.531300  0.031800  1.0  -0.142
  C  C178  1  0.281200  0.494000  0.014100  1.0  0.1596
  C  C179  1  0.337600  0.449300  0.034200  1.0  -0.1171
  C  C180  1  0.404500  0.416000  0.016700  1.0  0.1617
  C  C181  1  0.468400  0.377200  0.039200  1.0  -0.1566
  C  C182  1  0.516400  0.347200  0.010200  1.0  -0.18
  C  C183  1  0.478700  0.365300  0.966900  1.0  0.1408
  C  C184  1  0.499400  0.334400  0.926000  1.0  -0.1049
  C  C185  1  0.394600  0.524400  0.781400  1.0  0.0541
  C  C186  1  0.361400  0.469600  0.741900  1.0  -0.1417
  C  C187  1  0.382100  0.489100  0.702900  1.0  -0.0267
  C  C188  1  0.437900  0.561800  0.703900  1.0  -0.0897
  C  C189  1  0.469600  0.617000  0.742900  1.0  -0.0912
  C  C190  1  0.446100  0.599500  0.781000  1.0  -0.1225
  C  C191  1  0.466700  0.575500  0.662200  1.0  0.7171
  C  C192  1  0.146400  0.671100  0.929500  1.0  -0.0349
  C  C193  1  0.166700  0.756100  0.950900  1.0  -0.0827
  C  C194  1  0.108600  0.811000  0.944000  1.0  -0.0367
  C  C195  1  0.029300  0.782600  0.915000  1.0  -0.1034
  C  C196  1  0.007200  0.698500  0.895900  1.0  -0.0384
  C  C197  1  0.066400  0.641300  0.902200  1.0  -0.1066
  C  C198  1  0.973500  0.848700  0.907200  1.0  0.696
  C  C199  1  0.325600  0.428200  0.077800  1.0  0.0475
  C  C200  1  0.378700  0.472100  0.116000  1.0  -0.1353
  C  C201  1  0.369800  0.450500  0.156500  1.0  -0.001
  C  C202  1  0.308700  0.385100  0.158600  1.0  -0.1328
  C  C203  1  0.252600  0.342300  0.120300  1.0  -0.0205
  C  C204  1  0.261700  0.364200  0.080200  1.0  -0.117
  C  C205  1  0.303700  0.362400  0.202400  1.0  0.7156
  C  C206  1  0.562800  0.273200  0.924500  1.0  0.0212
  C  C207  1  0.636400  0.289900  0.909800  1.0  -0.0634
  C  C208  1  0.692800  0.233600  0.907300  1.0  -0.1148
  C  C209  1  0.675700  0.155800  0.920600  1.0  -0.1064
  C  C210  1  0.604300  0.139200  0.938800  1.0  -0.0732
  C  C211  1  0.547300  0.198900  0.940100  1.0  -0.0935
  C  C212  1  0.738500  0.094700  0.917900  1.0  0.7006
  C  C213  1  0.385100  0.105300  0.789400  1.0  0.1461
  C  C214  1  0.408700  0.076600  0.829800  1.0  -0.1721
  C  C215  1  0.360500  0.108700  0.857300  1.0  -0.1395
  C  C216  1  0.309500  0.161200  0.836300  1.0  0.1696
  C  C217  1  0.253900  0.209200  0.854500  1.0  -0.0767
  C  C218  1  0.209600  0.268900  0.837400  1.0  0.1554
  C  C219  1  0.151200  0.316200  0.857500  1.0  -0.1615
  C  C220  1  0.120600  0.365900  0.829900  1.0  -0.1737
  C  C221  1  0.153100  0.344700  0.790400  1.0  0.1669
  C  C222  1  0.127500  0.373200  0.750700  1.0  -0.0189
  C  C223  1  0.154800  0.347400  0.710200  1.0  0.1123
  C  C224  1  0.136300  0.379100  0.670200  1.0  -0.1336
  C  C225  1  0.182900  0.347300  0.641900  1.0  -0.1759
  C  C226  1  0.231400  0.290700  0.662600  1.0  0.1704
  C  C227  1  0.290700  0.245000  0.644500  1.0  -0.0646
  C  C228  1  0.338500  0.190300  0.664700  1.0  0.2182
  C  C229  1  0.393300  0.140000  0.643000  1.0  -0.1523
  C  C230  1  0.426300  0.092600  0.671300  1.0  -0.1595
  C  C231  1  0.394200  0.116200  0.711000  1.0  0.1937
  C  C232  1  0.416900  0.084100  0.749700  1.0  -0.0594
  C  C233  1  0.235100  0.186100  0.897900  1.0  -0.0168
  C  C234  1  0.174900  0.115200  0.896100  1.0  -0.1712
  C  C235  1  0.160400  0.092000  0.934400  1.0  -0.0323
  C  C236  1  0.201800  0.137200  0.974500  1.0  -0.12
  C  C237  1  0.262800  0.209800  0.977400  1.0  -0.0577
  C  C238  1  0.278100  0.233600  0.937900  1.0  -0.076
  C  C239  1  0.189300  0.112200  0.016100  1.0  0.5363
  C  C240  1  0.066600  0.432700  0.749800  1.0  0.0909
  C  C241  1  0.987000  0.416200  0.721500  1.0  -0.1157
  C  C242  1  0.928200  0.471800  0.721500  1.0  -0.1333
  C  C243  1  0.949800  0.551300  0.749800  1.0  -0.143
  C  C244  1  0.027600  0.570100  0.778500  1.0  -0.1285
  C  C245  1  0.082400  0.510200  0.778400  1.0  -0.1118
  C  C246  1  0.886600  0.610100  0.749400  1.0  0.7445
  C  C247  1  0.312200  0.264800  0.602000  1.0  -0.0072
  C  C248  1  0.384900  0.323100  0.603600  1.0  -0.1649
  C  C249  1  0.409100  0.340500  0.565800  1.0  -0.0245
  C  C250  1  0.363900  0.295700  0.525000  1.0  -0.1687
  C  C251  1  0.291900  0.239600  0.523400  1.0  -0.0608
  C  C252  1  0.264500  0.218900  0.561500  1.0  -0.1823
  C  C253  1  0.385200  0.311200  0.481400  1.0  0.6112
  C  C254  1  0.479500  0.023600  0.750600  1.0  0.0383
  C  C255  1  0.509600  0.878800  0.727600  1.0  -0.0417
  C  C256  1  0.452700  0.938100  0.728600  1.0  -0.0986
  C  C257  1  0.594500  0.905900  0.750500  1.0  -0.122
  C  C258  1  0.620700  0.991100  0.771800  1.0  -0.0628
  C  C259  1  0.561300  0.047300  0.772100  1.0  -0.0959
  C  C260  1  0.656800  0.843100  0.750400  1.0  0.7511
  C  C261  1  0.140900  0.033300  0.613600  1.0  0.1198
  C  C262  1  0.174800  0.015900  0.657200  1.0  -0.1875
  C  C263  1  0.126500  0.050400  0.684700  1.0  -0.1369
  C  C264  1  0.063500  0.088900  0.660200  1.0  0.1545
  C  C265  1  0.995300  0.122200  0.675400  1.0  -0.1026
  C  C266  1  0.941700  0.166400  0.650900  1.0  0.1599
  C  C267  1  0.873100  0.207600  0.667800  1.0  -0.1568
  C  C268  1  0.843400  0.256700  0.638500  1.0  -0.1554
  C  C269  1  0.895000  0.244900  0.603600  1.0  0.1906
  C  C270  1  0.885600  0.287000  0.568500  1.0  -0.0876
  C  C271  1  0.927200  0.274500  0.532200  1.0  0.1421
  C  C272  1  0.922000  0.319500  0.496600  1.0  -0.1619
  C  C273  1  0.969500  0.285600  0.468600  1.0  -0.1395
  C  C274  1  0.006800  0.219100  0.485700  1.0  0.1396
  C  C275  1  0.049900  0.161200  0.465200  1.0  -0.0249
  C  C276  1  0.084000  0.093700  0.484000  1.0  0.0915
  C  C277  1  0.124400  0.030100  0.461300  1.0  -0.1692
  C  C278  1  0.152800  0.983600  0.490500  1.0  -0.1881
  C  C279  1  0.133700  0.021300  0.532100  1.0  0.1775
  C  C280  1  0.163800  0.000000  0.573100  1.0  -0.0898
  C  C281  1  0.975400  0.106100  0.718800  1.0  0.0593
  C  C282  1  0.900100  0.053000  0.718100  1.0  -0.118
  C  C283  1  0.884300  0.030600  0.757600  1.0  -0.0194
  C  C284  1  0.940300  0.063000  0.797100  1.0  -0.1318
  C  C285  1  0.012500  0.118400  0.797400  1.0  -0.0172
  C  C286  1  0.030400  0.140700  0.758600  1.0  -0.1258
  C  C287  1  0.923400  0.034000  0.837700  1.0  0.6933
  C  C288  1  0.829800  0.354000  0.570900  1.0  -0.0245
  C  C289  1  0.743800  0.332100  0.549200  1.0  -0.0885
  C  C290  1  0.686500  0.390000  0.555900  1.0  -0.0818
  C  C291  1  0.714800  0.468400  0.583900  1.0  -0.1042
  C  C292  1  0.799900  0.492800  0.603800  1.0  -0.0411
  C  C293  1  0.857700  0.433800  0.597500  1.0  -0.1009
  C  C294  1  0.650600  0.528400  0.593100  1.0  0.6553
  C  C295  1  0.069400  0.173600  0.421900  1.0  0.0513
  C  C296  1  0.028700  0.120600  0.384400  1.0  -0.0983
  C  C297  1  0.048500  0.128200  0.342800  1.0  -0.065
  C  C298  1  0.114300  0.191500  0.341200  1.0  -0.1284
  C  C299  1  0.156500  0.246100  0.380800  1.0  -0.0457
  C  C300  1  0.134900  0.237200  0.420100  1.0  -0.1286
  C  C301  1  0.138700  0.199100  0.299100  1.0  0.696
  C  C302  1  0.227000  0.937700  0.574500  1.0  0.0309
  C  C303  1  0.209600  0.865900  0.590400  1.0  -0.1065
  C  C304  1  0.266400  0.810300  0.593300  1.0  -0.0472
  C  C305  1  0.341900  0.822600  0.579500  1.0  -0.0859
  C  C306  1  0.361500  0.895400  0.561300  1.0  -0.036
  C  C307  1  0.301900  0.954500  0.559600  1.0  -0.1117
  C  C308  1  0.405600  0.760300  0.582300  1.0  0.6791
  C  C309  1  0.533300  0.643300  0.113800  1.0  0.1496
  C  C310  1  0.515000  0.673300  0.155800  1.0  -0.174
  C  C311  1  0.549600  0.627000  0.185000  1.0  -0.1812
  C  C312  1  0.589400  0.565000  0.160400  1.0  0.1683
  C  C313  1  0.622200  0.494800  0.175000  1.0  -0.0895
  C  C314  1  0.667400  0.442000  0.151700  1.0  0.1811
  C  C315  1  0.706100  0.373300  0.167100  1.0  -0.1533
  C  C316  1  0.755500  0.343100  0.138200  1.0  -0.1597
  C  C317  1  0.744400  0.395200  0.103900  1.0  0.1068
  C  C318  1  0.789400  0.386500  0.068200  1.0  -0.0159
  C  C319  1  0.777100  0.426800  0.033100  1.0  0.1428
  C  C320  1  0.820700  0.421100  0.996500  1.0  -0.1492
  C  C321  1  0.785300  0.468700  0.968200  1.0  -0.1433
  C  C322  1  0.718800  0.506000  0.985900  1.0  0.1583
  C  C323  1  0.662400  0.550700  0.965800  1.0  -0.1174
  C  C324  1  0.595500  0.584000  0.983300  1.0  0.1612
  C  C325  1  0.531600  0.622800  0.960800  1.0  -0.1592
  C  C326  1  0.483600  0.652800  0.989800  1.0  -0.1806
  C  C327  1  0.521300  0.634700  0.033100  1.0  0.14
  C  C328  1  0.500600  0.665600  0.074000  1.0  -0.1055
  C  C329  1  0.605400  0.475600  0.218600  1.0  0.0547
  C  C330  1  0.638600  0.530400  0.258100  1.0  -0.1416
  C  C331  1  0.617900  0.510900  0.297100  1.0  -0.0263
  C  C332  1  0.562100  0.438200  0.296100  1.0  -0.0919
  C  C333  1  0.530400  0.383000  0.257100  1.0  -0.0915
  C  C334  1  0.553900  0.400500  0.219000  1.0  -0.1222
  C  C335  1  0.533300  0.424500  0.337800  1.0  0.7166
  C  C336  1  0.853600  0.328900  0.070500  1.0  -0.0329
  C  C337  1  0.833300  0.243900  0.049100  1.0  -0.0828
  C  C338  1  0.891400  0.189000  0.056000  1.0  -0.0372
  C  C339  1  0.970700  0.217400  0.085000  1.0  -0.1032
  C  C340  1  0.992800  0.301500  0.104100  1.0  -0.0381
  C  C341  1  0.933600  0.358700  0.097800  1.0  -0.1088
  C  C342  1  0.026500  0.151300  0.092800  1.0  0.6956
  C  C343  1  0.674400  0.571800  0.922200  1.0  0.0489
  C  C344  1  0.621300  0.527900  0.884000  1.0  -0.1344
  C  C345  1  0.630200  0.549500  0.843500  1.0  -0.0003
  C  C346  1  0.691300  0.614900  0.841400  1.0  -0.1325
  C  C347  1  0.747400  0.657700  0.879700  1.0  -0.0205
  C  C348  1  0.738300  0.635800  0.919800  1.0  -0.1174
  C  C349  1  0.696300  0.637600  0.797600  1.0  0.7144
  C  C350  1  0.437200  0.726800  0.075500  1.0  0.0213
  C  C351  1  0.363600  0.710100  0.090200  1.0  -0.0643
  C  C352  1  0.307200  0.766400  0.092700  1.0  -0.1145
  C  C353  1  0.324300  0.844200  0.079400  1.0  -0.1045
  C  C354  1  0.395700  0.860800  0.061200  1.0  -0.0723
  C  C355  1  0.452700  0.801100  0.059900  1.0  -0.0945
  C  C356  1  0.261500  0.905300  0.082100  1.0  0.7005
  C  C357  1  0.614900  0.894700  0.210600  1.0  0.1452
  C  C358  1  0.591300  0.923400  0.170200  1.0  -0.1705
  C  C359  1  0.639500  0.891300  0.142700  1.0  -0.1364
  C  C360  1  0.690500  0.838800  0.163700  1.0  0.1697
  C  C361  1  0.746100  0.790800  0.145500  1.0  -0.077
  C  C362  1  0.790400  0.731100  0.162600  1.0  0.1548
  C  C363  1  0.848800  0.683800  0.142500  1.0  -0.1608
  C  C364  1  0.879400  0.634100  0.170100  1.0  -0.1733
  C  C365  1  0.846900  0.655300  0.209600  1.0  0.1664
  C  C366  1  0.872500  0.626800  0.249300  1.0  -0.0192
  C  C367  1  0.845200  0.652600  0.289800  1.0  0.1138
  C  C368  1  0.863700  0.620900  0.329800  1.0  -0.1331
  C  C369  1  0.817100  0.652700  0.358100  1.0  -0.1762
  C  C370  1  0.768600  0.709300  0.337400  1.0  0.1695
  C  C371  1  0.709300  0.755000  0.355500  1.0  -0.0655
  C  C372  1  0.661500  0.809700  0.335300  1.0  0.2175
  C  C373  1  0.606700  0.860000  0.357000  1.0  -0.1514
  C  C374  1  0.573700  0.907400  0.328700  1.0  -0.1583
  C  C375  1  0.605800  0.883800  0.289000  1.0  0.191
  C  C376  1  0.583100  0.915900  0.250300  1.0  -0.0598
  C  C377  1  0.764900  0.813900  0.102100  1.0  -0.0156
  C  C378  1  0.825100  0.884800  0.103900  1.0  -0.1718
  C  C379  1  0.839600  0.908000  0.065600  1.0  -0.0329
  C  C380  1  0.798200  0.862800  0.025500  1.0  -0.1203
  C  C381  1  0.737200  0.790200  0.022600  1.0  -0.0584
  C  C382  1  0.721900  0.766400  0.062100  1.0  -0.0752
  C  C383  1  0.810700  0.887800  0.983900  1.0  0.5362
  C  C384  1  0.933400  0.567300  0.250200  1.0  0.0919
  C  C385  1  0.013000  0.583800  0.278500  1.0  -0.1149
  C  C386  1  0.071800  0.528200  0.278500  1.0  -0.1341
  C  C387  1  0.050200  0.448700  0.250200  1.0  -0.1436
  C  C388  1  0.972400  0.429900  0.221500  1.0  -0.1295
  C  C389  1  0.917600  0.489800  0.221600  1.0  -0.1097
  C  C390  1  0.113400  0.389900  0.250600  1.0  0.7433
  C  C391  1  0.687800  0.735200  0.398000  1.0  -0.0073
  C  C392  1  0.615100  0.676900  0.396400  1.0  -0.1659
  C  C393  1  0.590900  0.659500  0.434200  1.0  -0.0237
  C  C394  1  0.636100  0.704300  0.475000  1.0  -0.1682
  C  C395  1  0.708100  0.760400  0.476600  1.0  -0.0617
  C  C396  1  0.735500  0.781100  0.438500  1.0  -0.1825
  C  C397  1  0.614800  0.688800  0.518600  1.0  0.6122
  C  C398  1  0.520500  0.976400  0.249400  1.0  0.0373
  C  C399  1  0.490400  0.121200  0.272400  1.0  -0.0429
  C  C400  1  0.547300  0.061900  0.271400  1.0  -0.0992
  C  C401  1  0.405500  0.094100  0.249500  1.0  -0.1219
  C  C402  1  0.379300  0.008900  0.228200  1.0  -0.0639
  C  C403  1  0.438700  0.952700  0.227900  1.0  -0.0967
  C  C404  1  0.343200  0.156900  0.249600  1.0  0.752
  C  C405  1  0.859100  0.966700  0.386400  1.0  0.1178
  C  C406  1  0.825200  0.984100  0.342800  1.0  -0.1883
  C  C407  1  0.873500  0.949600  0.315300  1.0  -0.137
  C  C408  1  0.936500  0.911100  0.339800  1.0  0.1546
  C  C409  1  0.004700  0.877800  0.324600  1.0  -0.1025
  C  C410  1  0.058300  0.833600  0.349100  1.0  0.1609
  C  C411  1  0.126900  0.792400  0.332200  1.0  -0.1572
  C  C412  1  0.156600  0.743300  0.361500  1.0  -0.1535
  C  C413  1  0.105000  0.755100  0.396400  1.0  0.1921
  C  C414  1  0.114400  0.713000  0.431500  1.0  -0.0868
  C  C415  1  0.072800  0.725500  0.467800  1.0  0.1427
  C  C416  1  0.078000  0.680500  0.503400  1.0  -0.1603
  C  C417  1  0.030500  0.714400  0.531400  1.0  -0.1376
  C  C418  1  0.993200  0.780900  0.514300  1.0  0.141
  C  C419  1  0.950100  0.838800  0.534800  1.0  -0.0249
  C  C420  1  0.916000  0.906300  0.516000  1.0  0.0905
  C  C421  1  0.875600  0.969900  0.538700  1.0  -0.1669
  C  C422  1  0.847200  0.016400  0.509500  1.0  -0.1871
  C  C423  1  0.866300  0.978700  0.467900  1.0  0.1797
  C  C424  1  0.836200  0.000000  0.426900  1.0  -0.0905
  C  C425  1  0.024600  0.893900  0.281200  1.0  0.0595
  C  C426  1  0.099900  0.947000  0.281900  1.0  -0.1172
  C  C427  1  0.115700  0.969400  0.242400  1.0  -0.0192
  C  C428  1  0.059700  0.937000  0.202900  1.0  -0.1317
  C  C429  1  0.987500  0.881600  0.202600  1.0  -0.0168
  C  C430  1  0.969600  0.859300  0.241400  1.0  -0.1258
  C  C431  1  0.076600  0.966000  0.162300  1.0  0.6939
  C  C432  1  0.170200  0.646000  0.429100  1.0  -0.0242
  C  C433  1  0.256200  0.667900  0.450800  1.0  -0.0893
  C  C434  1  0.313500  0.610000  0.444100  1.0  -0.0801
  C  C435  1  0.285200  0.531600  0.416100  1.0  -0.1046
  C  C436  1  0.200100  0.507200  0.396200  1.0  -0.0411
  C  C437  1  0.142300  0.566200  0.402500  1.0  -0.1
  C  C438  1  0.349400  0.471600  0.406900  1.0  0.6549
  C  C439  1  0.930600  0.826400  0.578100  1.0  0.0506
  C  C440  1  0.971300  0.879400  0.615600  1.0  -0.0999
  C  C441  1  0.951500  0.871800  0.657200  1.0  -0.0653
  C  C442  1  0.885700  0.808500  0.658800  1.0  -0.1269
  C  C443  1  0.843500  0.753900  0.619200  1.0  -0.0446
  C  C444  1  0.865100  0.762800  0.579900  1.0  -0.1267
  C  C445  1  0.861300  0.800900  0.700900  1.0  0.6964
  C  C446  1  0.773000  0.062300  0.425500  1.0  0.0313
  C  C447  1  0.790400  0.134100  0.409600  1.0  -0.1086
  C  C448  1  0.733600  0.189700  0.406700  1.0  -0.0473
  C  C449  1  0.658100  0.177400  0.420500  1.0  -0.0853
  C  C450  1  0.638500  0.104600  0.438700  1.0  -0.0395
  C  C451  1  0.698100  0.045500  0.440400  1.0  -0.1134
  C  C452  1  0.594400  0.239700  0.417700  1.0  0.6787
  N  N453  1  0.417900  0.422200  0.881700  1.0  -0.3084
  N  N454  1  0.309900  0.548700  0.888800  1.0  -0.4576
  N  N455  1  0.284500  0.519400  0.974200  1.0  -0.3108
  N  N456  1  0.414400  0.414700  0.973500  1.0  -0.4343
  N  N457  1  0.327300  0.159300  0.794800  1.0  -0.2723
  N  N458  1  0.209400  0.286500  0.795700  1.0  -0.4509
  N  N459  1  0.214400  0.292500  0.704200  1.0  -0.2777
  N  N460  1  0.339300  0.174000  0.705900  1.0  -0.4958
  N  N461  1  0.077800  0.082100  0.617800  1.0  -0.2783
  N  N462  1  0.951700  0.191500  0.611400  1.0  -0.4662
  N  N463  1  0.980800  0.217300  0.525500  1.0  -0.2451
  N  N464  1  0.085500  0.085200  0.527100  1.0  -0.4419
  N  N465  1  0.582100  0.577800  0.118300  1.0  -0.3088
  N  N466  1  0.690100  0.451300  0.111200  1.0  -0.4569
  N  N467  1  0.715500  0.480600  0.025800  1.0  -0.3093
  N  N468  1  0.585600  0.585300  0.026500  1.0  -0.4348
  N  N469  1  0.672700  0.840700  0.205200  1.0  -0.2727
  N  N470  1  0.790600  0.713500  0.204300  1.0  -0.4529
  N  N471  1  0.785600  0.707500  0.295800  1.0  -0.2785
  N  N472  1  0.660700  0.826000  0.294100  1.0  -0.4957
  N  N473  1  0.922200  0.917900  0.382200  1.0  -0.2782
  N  N474  1  0.048300  0.808500  0.388600  1.0  -0.465
  N  N475  1  0.019200  0.782700  0.474500  1.0  -0.246
  N  N476  1  0.914500  0.914800  0.472900  1.0  -0.4421
  O  O477  1  0.536000  0.627500  0.666800  1.0  -0.7941
  O  O478  1  0.425500  0.539800  0.625200  1.0  -0.613
  O  O479  1  0.905300  0.824200  0.879500  1.0  -0.7548
  O  O480  1  0.995300  0.922900  0.926100  1.0  -0.6851
  O  O481  1  0.249800  0.296900  0.202500  1.0  -0.7747
  O  O482  1  0.350700  0.407000  0.235800  1.0  -0.658
  O  O483  1  0.787700  0.096300  0.891900  1.0  -0.6056
  O  O484  1  0.741100  0.039800  0.943500  1.0  -0.6506
  O  O485  1  0.222700  0.142000  0.050500  1.0  -0.5623
  O  O486  1  0.128300  0.051500  0.012000  1.0  -0.6918
  O  O487  1  0.910800  0.684600  0.774700  1.0  -0.6998
  O  O488  1  0.815700  0.589400  0.725700  1.0  -0.7097
  O  O489  1  0.447700  0.369500  0.486600  1.0  -0.6313
  O  O490  1  0.355800  0.271200  0.447500  1.0  -0.5054
  O  O491  1  0.630700  0.768700  0.729900  1.0  -0.6987
  O  O492  1  0.731700  0.871000  0.770900  1.0  -0.7192
  O  O493  1  0.873500  0.964800  0.833600  1.0  -0.7792
  O  O494  1  0.961200  0.075400  0.875400  1.0  -0.6716
  O  O495  1  0.677000  0.596700  0.621400  1.0  -0.7448
  O  O496  1  0.577300  0.503900  0.573200  1.0  -0.5868
  O  O497  1  0.202500  0.250200  0.297100  1.0  -0.8124
  O  O498  1  0.093800  0.149800  0.264200  1.0  -0.6882
  O  O499  1  0.459300  0.759100  0.555500  1.0  -0.6214
  O  O500  1  0.404300  0.712800  0.608900  1.0  -0.5957
  O  O501  1  0.464000  0.372500  0.333200  1.0  -0.7929
  O  O502  1  0.574500  0.460200  0.374800  1.0  -0.6128
  O  O503  1  0.094700  0.175800  0.120500  1.0  -0.7546
  O  O504  1  0.004700  0.077100  0.073900  1.0  -0.6852
  O  O505  1  0.750200  0.703100  0.797500  1.0  -0.7744
  O  O506  1  0.649300  0.593000  0.764200  1.0  -0.6569
  O  O507  1  0.212300  0.903700  0.108100  1.0  -0.6052
  O  O508  1  0.258900  0.960200  0.056500  1.0  -0.6516
  O  O509  1  0.777300  0.858000  0.949500  1.0  -0.5615
  O  O510  1  0.871700  0.948500  0.988000  1.0  -0.6934
  O  O511  1  0.089200  0.315400  0.225300  1.0  -0.7023
  O  O512  1  0.184300  0.410600  0.274300  1.0  -0.7087
  O  O513  1  0.552300  0.630500  0.513400  1.0  -0.6286
  O  O514  1  0.644200  0.728800  0.552500  1.0  -0.5055
  O  O515  1  0.369300  0.231300  0.270100  1.0  -0.6972
  O  O516  1  0.268300  0.129000  0.229100  1.0  -0.7177
  O  O517  1  0.126500  0.035200  0.166400  1.0  -0.7783
  O  O518  1  0.038800  0.924600  0.124600  1.0  -0.6718
  O  O519  1  0.323000  0.403300  0.378600  1.0  -0.744
  O  O520  1  0.422700  0.496100  0.426800  1.0  -0.5865
  O  O521  1  0.797500  0.749800  0.702900  1.0  -0.8146
  O  O522  1  0.906200  0.850200  0.735800  1.0  -0.6894
  O  O523  1  0.540700  0.240900  0.444500  1.0  -0.6198
  O  O524  1  0.595700  0.287200  0.391100  1.0  -0.5979
