# generated using pymatgen
data_Zn3H64(C53O8)2
_symmetry_space_group_name_H-M   'P 1'
_cell_length_a   20.65360000
_cell_length_b   20.79260000
_cell_length_c   33.49740000
_cell_angle_alpha   90.00000000
_cell_angle_beta   90.00000000
_cell_angle_gamma   118.61900000
_symmetry_Int_Tables_number   1
_chemical_formula_structural   Zn3H64(C53O8)2
_chemical_formula_sum   'Zn6 H128 C212 O32'
_cell_volume   12627.66938623
_cell_formula_units_Z   2
loop_
 _symmetry_equiv_pos_site_id
 _symmetry_equiv_pos_as_xyz
  1  'x, y, z'
loop_
 _atom_site_type_symbol
 _atom_site_label
 _atom_site_symmetry_multiplicity
 _atom_site_fract_x
 _atom_site_fract_y
 _atom_site_fract_z
 _atom_site_occupancy
 _atom_site_charge
  Zn  Zn1  1  0.652710  0.817260  0.001920  1.0  1.0765
  Zn  Zn2  1  0.842930  0.188730  0.939920  1.0  1.0692
  Zn  Zn3  1  0.749120  0.001870  0.969940  1.0  0.2751
  Zn  Zn4  1  0.347190  0.182620  0.501740  1.0  1.0753
  Zn  Zn5  1  0.156870  0.811030  0.439800  1.0  1.0682
  Zn  Zn6  1  0.251140  0.997890  0.470290  1.0  0.2446
  H  H7  1  0.895540  0.242670  0.060230  1.0  0.1305
  H  H8  1  0.902630  0.244920  0.132570  1.0  0.1297
  H  H9  1  0.693680  0.045620  0.138020  1.0  0.1266
  H  H10  1  0.688670  0.041440  0.065480  1.0  0.1173
  H  H11  1  0.357730  0.841490  0.396560  1.0  0.1255
  H  H12  1  0.482160  0.887250  0.369860  1.0  0.1311
  H  H13  1  0.505670  0.105110  0.363630  1.0  0.1296
  H  H14  1  0.380570  0.058580  0.387420  1.0  0.1124
  H  H15  1  0.192830  0.042380  0.375120  1.0  0.1191
  H  H16  1  0.196960  0.048140  0.303000  1.0  0.1227
  H  H17  1  0.416420  0.234350  0.308670  1.0  0.1285
  H  H18  1  0.409150  0.231500  0.381000  1.0  0.1254
  H  H19  1  0.854880  0.847570  0.048640  1.0  0.1268
  H  H20  1  0.979630  0.896410  0.075160  1.0  0.1296
  H  H21  1  0.997360  0.111830  0.081740  1.0  0.1281
  H  H22  1  0.872680  0.062810  0.056650  1.0  0.1142
  H  H23  1  0.101730  0.971000  0.053810  1.0  0.1308
  H  H24  1  0.229130  0.024370  0.071370  1.0  0.1258
  H  H25  1  0.204820  0.177380  0.149830  1.0  0.1295
  H  H26  1  0.074180  0.118310  0.134070  1.0  0.1296
  H  H27  1  0.858340  0.262840  0.191800  1.0  0.1292
  H  H28  1  0.866860  0.263910  0.262920  1.0  0.1234
  H  H29  1  0.757730  0.026680  0.264030  1.0  0.1295
  H  H30  1  0.751410  0.026400  0.191730  1.0  0.132
  H  H31  1  0.961390  0.248780  0.315670  1.0  0.1295
  H  H32  1  0.021340  0.370890  0.345370  1.0  0.1302
  H  H33  1  0.809130  0.339600  0.384790  1.0  0.1302
  H  H34  1  0.751900  0.216810  0.361520  1.0  0.1246
  H  H35  1  0.701670  0.164390  0.289680  1.0  0.1259
  H  H36  1  0.734860  0.014930  0.366640  1.0  0.1263
  H  H37  1  0.348280  0.141190  0.044870  1.0  0.1296
  H  H38  1  0.408570  0.079170  0.014030  1.0  0.1273
  H  H39  1  0.432750  0.000240  0.129300  1.0  0.1335
  H  H40  1  0.373970  0.062430  0.160530  1.0  0.1239
  H  H41  1  0.263200  0.235840  0.081240  1.0  0.1265
  H  H42  1  0.334460  0.358160  0.055920  1.0  0.1305
  H  H43  1  0.534120  0.364480  0.099480  1.0  0.1286
  H  H44  1  0.462970  0.240640  0.124580  1.0  0.1259
  H  H45  1  0.404260  0.483390  0.071430  1.0  0.1271
  H  H46  1  0.478370  0.607020  0.045080  1.0  0.1319
  H  H47  1  0.653200  0.556990  0.016680  1.0  0.1292
  H  H48  1  0.578000  0.432500  0.041210  1.0  0.129
  H  H49  1  0.240030  0.025940  0.246570  1.0  0.1306
  H  H50  1  0.381280  0.260460  0.250340  1.0  0.1262
  H  H51  1  0.573170  0.105120  0.308380  1.0  0.1308
  H  H52  1  0.608330  0.961170  0.387610  1.0  0.1338
  H  H53  1  0.846110  0.131410  0.395150  1.0  0.1315
  H  H54  1  0.909950  0.071780  0.425110  1.0  0.1273
  H  H55  1  0.956560  0.017590  0.307940  1.0  0.1284
  H  H56  1  0.893040  0.076010  0.277900  1.0  0.1252
  H  H57  1  0.945990  0.916970  0.342990  1.0  0.1278
  H  H58  1  0.421320  0.903160  0.087640  1.0  0.1293
  H  H59  1  0.385060  0.264830  0.179470  1.0  0.1264
  H  H60  1  0.239930  0.030380  0.174430  1.0  0.1325
  H  H61  1  0.497600  0.854360  0.059060  1.0  0.1238
  H  H62  1  0.594550  0.037780  0.977690  1.0  0.1106
  H  H63  1  0.522680  0.088710  0.007700  1.0  0.1272
  H  H64  1  0.019180  0.864680  0.371060  1.0  0.1243
  H  H65  1  0.090100  0.023630  0.466480  1.0  0.1145
  H  H66  1  0.021410  0.079020  0.437290  1.0  0.1279
  H  H67  1  0.879470  0.410840  0.435820  1.0  0.1293
  H  H68  1  0.929940  0.534050  0.462870  1.0  0.1288
  H  H69  1  0.094970  0.614370  0.370020  1.0  0.1289
  H  H70  1  0.041380  0.491780  0.341170  1.0  0.1281
  H  H71  1  0.105050  0.757970  0.559970  1.0  0.128
  H  H72  1  0.097570  0.755450  0.632280  1.0  0.1291
  H  H73  1  0.306450  0.954830  0.638030  1.0  0.1276
  H  H74  1  0.311820  0.959240  0.565500  1.0  0.1169
  H  H75  1  0.642150  0.158710  0.896480  1.0  0.1278
  H  H76  1  0.517730  0.112870  0.869720  1.0  0.1304
  H  H77  1  0.494290  0.895070  0.863520  1.0  0.1279
  H  H78  1  0.619540  0.941720  0.887280  1.0  0.1121
  H  H79  1  0.807750  0.958340  0.875020  1.0  0.1191
  H  H80  1  0.802970  0.951910  0.802890  1.0  0.1218
  H  H81  1  0.583230  0.766070  0.809380  1.0  0.1279
  H  H82  1  0.591480  0.769400  0.881590  1.0  0.1255
  H  H83  1  0.145160  0.152730  0.548760  1.0  0.1287
  H  H84  1  0.020460  0.103800  0.575400  1.0  0.1262
  H  H85  1  0.002930  0.888440  0.581940  1.0  0.1259
  H  H86  1  0.127710  0.937670  0.556840  1.0  0.1147
  H  H87  1  0.898450  0.029130  0.553740  1.0  0.1322
  H  H88  1  0.770980  0.975720  0.571150  1.0  0.1246
  H  H89  1  0.794950  0.822620  0.649660  1.0  0.1298
  H  H90  1  0.925620  0.881630  0.634100  1.0  0.1321
  H  H91  1  0.141700  0.737290  0.691620  1.0  0.1294
  H  H92  1  0.133120  0.736110  0.762790  1.0  0.1244
  H  H93  1  0.242230  0.973330  0.763960  1.0  0.1304
  H  H94  1  0.248620  0.973700  0.691690  1.0  0.1318
  H  H95  1  0.038560  0.751200  0.815660  1.0  0.1285
  H  H96  1  0.978620  0.629110  0.845370  1.0  0.1287
  H  H97  1  0.190840  0.660440  0.884800  1.0  0.131
  H  H98  1  0.248050  0.783230  0.861510  1.0  0.1251
  H  H99  1  0.298190  0.835600  0.789670  1.0  0.1266
  H  H100  1  0.264950  0.985040  0.866610  1.0  0.1255
  H  H101  1  0.651820  0.858910  0.544640  1.0  0.1303
  H  H102  1  0.591340  0.920880  0.513870  1.0  0.1272
  H  H103  1  0.567240  0.999630  0.629220  1.0  0.1327
  H  H104  1  0.626510  0.937910  0.660330  1.0  0.1231
  H  H105  1  0.736730  0.764250  0.581160  1.0  0.1252
  H  H106  1  0.665420  0.641900  0.555960  1.0  0.1298
  H  H107  1  0.465890  0.635690  0.599660  1.0  0.1324
  H  H108  1  0.537220  0.759540  0.624840  1.0  0.1247
  H  H109  1  0.595720  0.516720  0.571430  1.0  0.1258
  H  H110  1  0.521640  0.393130  0.545040  1.0  0.1333
  H  H111  1  0.346740  0.443080  0.516730  1.0  0.1287
  H  H112  1  0.421880  0.567560  0.541330  1.0  0.1288
  H  H113  1  0.759540  0.972880  0.746590  1.0  0.1313
  H  H114  1  0.618370  0.738310  0.751610  1.0  0.1251
  H  H115  1  0.426670  0.894930  0.808310  1.0  0.1294
  H  H116  1  0.391470  0.038820  0.887600  1.0  0.1332
  H  H117  1  0.153870  0.868600  0.895130  1.0  0.1315
  H  H118  1  0.090030  0.928230  0.925080  1.0  0.1275
  H  H119  1  0.043480  0.982440  0.807900  1.0  0.1291
  H  H120  1  0.106980  0.924020  0.777870  1.0  0.1215
  H  H121  1  0.054270  0.083140  0.842900  1.0  0.1277
  H  H122  1  0.578840  0.096920  0.587620  1.0  0.1312
  H  H123  1  0.613710  0.731950  0.680450  1.0  0.1251
  H  H124  1  0.760310  0.969410  0.674710  1.0  0.1334
  H  H125  1  0.502280  0.145650  0.559160  1.0  0.12
  H  H126  1  0.405610  0.962190  0.477730  1.0  0.1114
  H  H127  1  0.477300  0.911380  0.507700  1.0  0.125
  H  H128  1  0.980930  0.135450  0.870940  1.0  0.1255
  H  H129  1  0.910140  0.976370  0.966340  1.0  0.1151
  H  H130  1  0.978720  0.921100  0.937180  1.0  0.1277
  H  H131  1  0.120540  0.589140  0.935800  1.0  0.1288
  H  H132  1  0.070040  0.465940  0.962860  1.0  0.128
  H  H133  1  0.905010  0.385630  0.870010  1.0  0.1282
  H  H134  1  0.958610  0.508210  0.841160  1.0  0.1272
  C  C135  1  0.793200  0.133630  0.013310  1.0  0.6637
  C  C136  1  0.792450  0.140690  0.057120  1.0  -0.0656
  C  C137  1  0.851150  0.199150  0.076860  1.0  -0.0858
  C  C138  1  0.854860  0.200820  0.118480  1.0  -0.0997
  C  C139  1  0.799300  0.144820  0.141360  1.0  0.0528
  C  C140  1  0.738670  0.088480  0.121480  1.0  -0.1549
  C  C141  1  0.735400  0.086350  0.079860  1.0  -0.0989
  C  C142  1  0.286980  0.921180  0.413270  1.0  0.6723
  C  C143  1  0.359380  0.946680  0.394050  1.0  -0.1163
  C  C144  1  0.389140  0.898910  0.388670  1.0  -0.0726
  C  C145  1  0.460770  0.925260  0.373940  1.0  -0.1198
  C  C146  1  0.503970  0.999900  0.364660  1.0  0.0443
  C  C147  1  0.473500  0.047030  0.369670  1.0  -0.1417
  C  C148  1  0.401840  0.020540  0.383680  1.0  -0.0896
  C  C149  1  0.298750  0.129880  0.427640  1.0  0.6663
  C  C150  1  0.300630  0.136270  0.383740  1.0  -0.0731
  C  C151  1  0.241590  0.084950  0.360890  1.0  -0.0776
  C  C152  1  0.244560  0.087760  0.319330  1.0  -0.1309
  C  C153  1  0.307410  0.141100  0.299390  1.0  0.0566
  C  C154  1  0.366480  0.192890  0.322510  1.0  -0.12
  C  C155  1  0.362720  0.190990  0.364170  1.0  -0.0874
  C  C156  1  0.783220  0.925100  0.028860  1.0  0.6738
  C  C157  1  0.854320  0.951640  0.049890  1.0  -0.1209
  C  C158  1  0.885140  0.905160  0.056300  1.0  -0.0765
  C  C159  1  0.956850  0.933280  0.071210  1.0  -0.1279
  C  C160  1  0.998960  0.008340  0.080150  1.0  0.0545
  C  C161  1  0.966490  0.053770  0.075520  1.0  -0.1243
  C  C162  1  0.895000  0.025710  0.060790  1.0  -0.0863
  C  C163  1  0.077530  0.040380  0.092350  1.0  0.0568
  C  C164  1  0.123340  0.015320  0.075310  1.0  -0.1085
  C  C165  1  0.198170  0.048100  0.084930  1.0  -0.1416
  C  C166  1  0.230620  0.109000  0.111130  1.0  0.0338
  C  C167  1  0.183260  0.132240  0.128860  1.0  -0.1157
  C  C168  1  0.108220  0.098560  0.119690  1.0  -0.1104
  C  C169  1  0.805130  0.144730  0.185640  1.0  0.0768
  C  C170  1  0.838300  0.210820  0.207000  1.0  -0.1216
  C  C171  1  0.843800  0.211150  0.248490  1.0  -0.1203
  C  C172  1  0.816950  0.145080  0.270340  1.0  0.0361
  C  C173  1  0.781840  0.078840  0.248570  1.0  -0.1218
  C  C174  1  0.777090  0.078640  0.207010  1.0  -0.1057
  C  C175  1  0.850780  0.221360  0.334740  1.0  0.0365
  C  C176  1  0.927730  0.267740  0.331290  1.0  -0.1139
  C  C177  1  0.962010  0.338410  0.347780  1.0  -0.0903
  C  C178  1  0.920290  0.365860  0.367680  1.0  0.0546
  C  C179  1  0.843810  0.320330  0.370730  1.0  -0.122
  C  C180  1  0.810120  0.249060  0.355820  1.0  -0.1334
  C  C181  1  0.731960  0.098520  0.327910  1.0  0.0367
  C  C182  1  0.682330  0.119380  0.310680  1.0  -0.1005
  C  C183  1  0.702100  0.037620  0.354140  1.0  -0.131
  C  C184  1  0.313560  0.147250  0.123270  1.0  -0.0753
  C  C185  1  0.352470  0.105700  0.105380  1.0  0.0366
  C  C186  1  0.365680  0.110130  0.063840  1.0  -0.1111
  C  C187  1  0.400520  0.074520  0.046050  1.0  -0.1221
  C  C188  1  0.424710  0.033850  0.069070  1.0  0.0601
  C  C189  1  0.413000  0.029550  0.110470  1.0  -0.1056
  C  C190  1  0.378380  0.065650  0.128470  1.0  -0.1246
  C  C191  1  0.356130  0.227010  0.106620  1.0  0.0371
  C  C192  1  0.321860  0.262430  0.086390  1.0  -0.1333
  C  C193  1  0.363250  0.333700  0.071430  1.0  -0.114
  C  C194  1  0.440460  0.371930  0.075420  1.0  0.0745
  C  C195  1  0.475010  0.336800  0.095050  1.0  -0.1241
  C  C196  1  0.433890  0.265700  0.109900  1.0  -0.1163
  C  C197  1  0.485100  0.447610  0.058840  1.0  0.0684
  C  C198  1  0.458090  0.498280  0.059110  1.0  -0.107
  C  C199  1  0.500970  0.569590  0.044340  1.0  -0.0747
  C  C200  1  0.572110  0.592370  0.029030  1.0  -0.0711
  C  C201  1  0.598740  0.541540  0.028260  1.0  -0.0658
  C  C202  1  0.555800  0.470200  0.042810  1.0  -0.0928
  C  C203  1  0.310780  0.142890  0.254850  1.0  0.0685
  C  C204  1  0.271480  0.078630  0.232260  1.0  -0.1198
  C  C205  1  0.351830  0.209230  0.234390  1.0  -0.1196
  C  C206  1  0.580850  0.029680  0.350200  1.0  0.0562
  C  C207  1  0.608470  0.085870  0.321730  1.0  -0.115
  C  C208  1  0.628010  0.004750  0.365660  1.0  -0.1032
  C  C209  1  0.815090  0.142550  0.316700  1.0  -0.0713
  C  C210  1  0.859380  0.105830  0.333910  1.0  0.0318
  C  C211  1  0.869250  0.106130  0.375630  1.0  -0.1205
  C  C212  1  0.906510  0.072210  0.392890  1.0  -0.1218
  C  C213  1  0.937510  0.038450  0.369050  1.0  0.0861
  C  C214  1  0.931140  0.040690  0.327400  1.0  -0.1049
  C  C215  1  0.893580  0.074470  0.310060  1.0  -0.1345
  C  C216  1  0.978260  0.003100  0.387470  1.0  0.0492
  C  C217  1  0.977960  0.941580  0.369640  1.0  -0.1192
  C  C218  1  0.466080  0.000140  0.050080  1.0  0.0504
  C  C219  1  0.459340  0.933290  0.063810  1.0  -0.1275
  C  C220  1  0.315260  0.147110  0.169730  1.0  0.0316
  C  C221  1  0.353940  0.211460  0.192780  1.0  -0.1319
  C  C222  1  0.272390  0.080970  0.190610  1.0  -0.1158
  C  C223  1  0.605490  0.918880  0.002290  1.0  0.6851
  C  C224  1  0.502540  0.905000  0.047210  1.0  -0.0783
  C  C225  1  0.552730  0.942770  0.016380  1.0  -0.1096
  C  C226  1  0.556760  0.007530  0.001480  1.0  -0.0913
  C  C227  1  0.514810  0.036390  0.018470  1.0  -0.1259
  C  C228  1  0.109450  0.912410  0.436460  1.0  0.674
  C  C229  1  0.019090  0.910840  0.385980  1.0  -0.0701
  C  C230  1  0.060730  0.940340  0.420790  1.0  -0.1069
  C  C231  1  0.059030  0.999980  0.439400  1.0  -0.0869
  C  C232  1  0.018890  0.031360  0.422810  1.0  -0.1352
  C  C233  1  0.955280  0.440950  0.385740  1.0  0.0369
  C  C234  1  0.925560  0.454860  0.420530  1.0  -0.1094
  C  C235  1  0.955110  0.525630  0.436420  1.0  -0.0632
  C  C236  1  0.016530  0.584410  0.418580  1.0  -0.0668
  C  C237  1  0.047560  0.570400  0.384470  1.0  -0.0736
  C  C238  1  0.017150  0.499780  0.368110  1.0  -0.0957
  C  C239  1  0.618310  0.668930  0.014510  1.0  0.5512
  C  C240  1  0.048720  0.659920  0.435320  1.0  0.5698
  C  C241  1  0.207110  0.865750  0.513180  1.0  0.6725
  C  C242  1  0.208230  0.859430  0.557020  1.0  -0.0593
  C  C243  1  0.149410  0.801250  0.576710  1.0  -0.0852
  C  C244  1  0.145420  0.799630  0.618280  1.0  -0.0991
  C  C245  1  0.200860  0.855570  0.641230  1.0  0.0535
  C  C246  1  0.261580  0.911990  0.621410  1.0  -0.1465
  C  C247  1  0.265120  0.914080  0.579780  1.0  -0.1006
  C  C248  1  0.712730  0.079080  0.913470  1.0  0.6686
  C  C249  1  0.640300  0.053450  0.894260  1.0  -0.114
  C  C250  1  0.610620  0.101210  0.888740  1.0  -0.077
  C  C251  1  0.539140  0.074880  0.873860  1.0  -0.1186
  C  C252  1  0.495970  0.000250  0.864530  1.0  0.0369
  C  C253  1  0.526460  0.953140  0.869570  1.0  -0.1418
  C  C254  1  0.598040  0.979630  0.883720  1.0  -0.0909
  C  C255  1  0.701780  0.869570  0.927810  1.0  0.6678
  C  C256  1  0.700130  0.863870  0.883920  1.0  -0.0705
  C  C257  1  0.758900  0.915470  0.860950  1.0  -0.0757
  C  C258  1  0.755470  0.912500  0.819380  1.0  -0.1339
  C  C259  1  0.692370  0.858940  0.799630  1.0  0.0553
  C  C260  1  0.633440  0.807570  0.822970  1.0  -0.1237
  C  C261  1  0.637760  0.809530  0.864550  1.0  -0.0852
  C  C262  1  0.216560  0.075150  0.528710  1.0  0.6729
  C  C263  1  0.145560  0.048610  0.549780  1.0  -0.1194
  C  C264  1  0.114830  0.095080  0.556330  1.0  -0.0823
  C  C265  1  0.043270  0.066960  0.571400  1.0  -0.1272
  C  C266  1  0.001210  0.991880  0.580340  1.0  0.0533
  C  C267  1  0.033720  0.946500  0.575690  1.0  -0.1218
  C  C268  1  0.105120  0.974600  0.560840  1.0  -0.0862
  C  C269  1  0.922550  0.959760  0.592390  1.0  0.0595
  C  C270  1  0.876800  0.984800  0.575240  1.0  -0.1106
  C  C271  1  0.801950  0.952030  0.584760  1.0  -0.1404
  C  C272  1  0.769430  0.891150  0.610960  1.0  0.0311
  C  C273  1  0.816670  0.867820  0.628740  1.0  -0.1167
  C  C274  1  0.891720  0.901480  0.619660  1.0  -0.1081
  C  C275  1  0.194930  0.855450  0.685540  1.0  0.0777
  C  C276  1  0.161740  0.789280  0.706860  1.0  -0.1198
  C  C277  1  0.156190  0.788880  0.748370  1.0  -0.1205
  C  C278  1  0.182990  0.854920  0.770250  1.0  0.0344
  C  C279  1  0.218130  0.921190  0.748510  1.0  -0.1226
  C  C280  1  0.222940  0.921460  0.706950  1.0  -0.103
  C  C281  1  0.149180  0.778610  0.834680  1.0  0.0359
  C  C282  1  0.072230  0.732230  0.831250  1.0  -0.1145
  C  C283  1  0.037960  0.661580  0.847760  1.0  -0.0914
  C  C284  1  0.079690  0.634150  0.867670  1.0  0.0549
  C  C285  1  0.156160  0.679700  0.870730  1.0  -0.1216
  C  C286  1  0.189840  0.750950  0.855790  1.0  -0.1344
  C  C287  1  0.267910  0.901490  0.827870  1.0  0.0377
  C  C288  1  0.317540  0.880640  0.810640  1.0  -0.1048
  C  C289  1  0.297750  0.962380  0.854100  1.0  -0.1337
  C  C290  1  0.686560  0.852980  0.623060  1.0  -0.0794
  C  C291  1  0.647620  0.894400  0.605170  1.0  0.031
  C  C292  1  0.634340  0.889900  0.563630  1.0  -0.1183
  C  C293  1  0.599460  0.925500  0.545880  1.0  -0.1193
  C  C294  1  0.575330  0.966200  0.568950  1.0  0.0646
  C  C295  1  0.587060  0.970440  0.610340  1.0  -0.1091
  C  C296  1  0.621830  0.934490  0.628280  1.0  -0.1166
  C  C297  1  0.643940  0.773080  0.606730  1.0  0.0376
  C  C298  1  0.678100  0.737630  0.586440  1.0  -0.1239
  C  C299  1  0.636670  0.666350  0.571510  1.0  -0.1125
  C  C300  1  0.559470  0.628150  0.575550  1.0  0.0739
  C  C301  1  0.525010  0.663310  0.595250  1.0  -0.1248
  C  C302  1  0.566220  0.734380  0.610160  1.0  -0.1118
  C  C303  1  0.514800  0.552470  0.558950  1.0  0.0608
  C  C304  1  0.541860  0.501830  0.559150  1.0  -0.107
  C  C305  1  0.499020  0.430540  0.544350  1.0  -0.0732
  C  C306  1  0.427880  0.407720  0.529070  1.0  -0.0732
  C  C307  1  0.401190  0.458540  0.528320  1.0  -0.0653
  C  C308  1  0.444100  0.529870  0.542920  1.0  -0.0982
  C  C309  1  0.688660  0.856150  0.755070  1.0  0.0473
  C  C310  1  0.728040  0.920240  0.732260  1.0  -0.1197
  C  C311  1  0.647350  0.789090  0.735200  1.0  -0.1174
  C  C312  1  0.419030  0.970420  0.850110  1.0  0.056
  C  C313  1  0.391410  0.914200  0.821660  1.0  -0.1152
  C  C314  1  0.371840  0.995280  0.865620  1.0  -0.1017
  C  C315  1  0.184800  0.857420  0.816640  1.0  -0.0698
  C  C316  1  0.140510  0.894080  0.833870  1.0  0.0311
  C  C317  1  0.130660  0.893790  0.875600  1.0  -0.1184
  C  C318  1  0.093450  0.927760  0.892860  1.0  -0.1221
  C  C319  1  0.062540  0.961600  0.869000  1.0  0.0882
  C  C320  1  0.068850  0.959290  0.827360  1.0  -0.1057
  C  C321  1  0.106360  0.925490  0.810020  1.0  -0.1341
  C  C322  1  0.021970  0.997060  0.887390  1.0  0.0496
  C  C323  1  0.022310  0.058610  0.869550  1.0  -0.119
  C  C324  1  0.534070  0.000000  0.550030  1.0  0.0499
  C  C325  1  0.540840  0.066860  0.563790  1.0  -0.1252
  C  C326  1  0.684750  0.853140  0.669390  1.0  0.0274
  C  C327  1  0.644340  0.785470  0.693740  1.0  -0.1403
  C  C328  1  0.727580  0.918560  0.690610  1.0  -0.1196
  C  C329  1  0.394070  0.080390  0.502620  1.0  0.7026
  C  C330  1  0.497420  0.095020  0.547280  1.0  -0.0834
  C  C331  1  0.447060  0.057040  0.516580  1.0  -0.1066
  C  C332  1  0.443310  0.992450  0.501520  1.0  -0.0885
  C  C333  1  0.485340  0.963730  0.518460  1.0  -0.1271
  C  C334  1  0.890160  0.086810  0.936180  1.0  0.6753
  C  C335  1  0.980970  0.089220  0.885850  1.0  -0.0711
  C  C336  1  0.939100  0.059440  0.920550  1.0  -0.1044
  C  C337  1  0.941090  0.000000  0.939270  1.0  -0.088
  C  C338  1  0.981350  0.968780  0.922710  1.0  -0.1289
  C  C339  1  0.044700  0.559060  0.885720  1.0  0.0374
  C  C340  1  0.074430  0.545140  0.920520  1.0  -0.1089
  C  C341  1  0.044870  0.474370  0.936410  1.0  -0.0582
  C  C342  1  0.983430  0.415590  0.918570  1.0  -0.068
  C  C343  1  0.952410  0.429610  0.884470  1.0  -0.0719
  C  C344  1  0.982830  0.500220  0.868100  1.0  -0.0976
  C  C345  1  0.381720  0.331160  0.514510  1.0  0.5728
  C  C346  1  0.951300  0.340070  0.935310  1.0  0.5706
  O  O347  1  0.347950  0.181190  0.448520  1.0  -0.573
  O  O348  1  0.246920  0.073390  0.444260  1.0  -0.6034
  O  O349  1  0.249340  0.854250  0.422710  1.0  -0.5816
  O  O350  1  0.263610  0.966520  0.420920  1.0  -0.5955
  O  O351  1  0.150040  0.943940  0.466520  1.0  -0.5953
  O  O352  1  0.109180  0.856820  0.420220  1.0  -0.5832
  O  O353  1  0.609120  0.867010  0.020260  1.0  -0.5853
  O  O354  1  0.647850  0.952150  0.972910  1.0  -0.5928
  O  O355  1  0.743030  0.076170  0.996460  1.0  -0.5971
  O  O356  1  0.843150  0.185400  0.992960  1.0  -0.5854
  O  O357  1  0.744990  0.857360  0.020390  1.0  -0.5788
  O  O358  1  0.761220  0.970920  0.019360  1.0  -0.6043
  O  O359  1  0.115620  0.714810  0.420590  1.0  -0.5675
  O  O360  1  0.595490  0.721340  0.020890  1.0  -0.557
  O  O361  1  0.676680  0.686670  0.997590  1.0  -0.4249
  O  O362  1  0.017760  0.674080  0.462170  1.0  -0.4278
  O  O363  1  0.652400  0.818440  0.948640  1.0  -0.5785
  O  O364  1  0.753530  0.925820  0.944510  1.0  -0.6018
  O  O365  1  0.750230  0.145900  0.923130  1.0  -0.5838
  O  O366  1  0.736370  0.033710  0.920740  1.0  -0.5952
  O  O367  1  0.849410  0.054590  0.966120  1.0  -0.5943
  O  O368  1  0.890310  0.142630  0.920340  1.0  -0.5959
  O  O369  1  0.390510  0.132640  0.520130  1.0  -0.5772
  O  O370  1  0.351450  0.046210  0.473460  1.0  -0.5919
  O  O371  1  0.257240  0.922830  0.496160  1.0  -0.5949
  O  O372  1  0.156900  0.814170  0.492920  1.0  -0.5852
  O  O373  1  0.254660  0.142780  0.519920  1.0  -0.579
  O  O374  1  0.238690  0.029160  0.519530  1.0  -0.6004
  O  O375  1  0.884420  0.285070  0.920580  1.0  -0.5706
  O  O376  1  0.404480  0.278670  0.520840  1.0  -0.5584
  O  O377  1  0.323390  0.313470  0.497570  1.0  -0.4258
  O  O378  1  0.982320  0.325980  0.962160  1.0  -0.4312
