# generated using pymatgen
data_Co5H96(C79O11)2
_symmetry_space_group_name_H-M   'P 1'
_cell_length_a   20.73080000
_cell_length_b   34.37440000
_cell_length_c   19.37720000
_cell_angle_alpha   90.00000000
_cell_angle_beta   115.43200000
_cell_angle_gamma   90.00000000
_symmetry_Int_Tables_number   1
_chemical_formula_structural   Co5H96(C79O11)2
_chemical_formula_sum   'Co10 H192 C316 O44'
_cell_volume   12470.27214012
_cell_formula_units_Z   2
loop_
 _symmetry_equiv_pos_site_id
 _symmetry_equiv_pos_as_xyz
  1  'x, y, z'
loop_
 _atom_site_type_symbol
 _atom_site_label
 _atom_site_symmetry_multiplicity
 _atom_site_fract_x
 _atom_site_fract_y
 _atom_site_fract_z
 _atom_site_occupancy
 _atom_site_charge
  Co  Co1  1  0.339560  0.570470  0.716080  1.0  0.958
  Co  Co2  1  0.660440  0.070470  0.283920  1.0  0.9593
  Co  Co3  1  0.191400  0.443640  0.857740  1.0  1.0801
  Co  Co4  1  0.808600  0.943640  0.142260  1.0  1.076
  Co  Co5  1  0.279230  0.483860  0.750110  1.0  0.9896
  Co  Co6  1  0.720770  0.983860  0.249890  1.0  0.9876
  Co  Co7  1  0.287150  0.576380  0.529310  1.0  1.0033
  Co  Co8  1  0.712850  0.076380  0.470690  1.0  1.0039
  Co  Co9  1  0.235640  0.591250  0.350040  1.0  0.8797
  Co  Co10  1  0.764360  0.091250  0.649960  1.0  0.877
  H  H11  1  0.758230  0.190090  0.250590  1.0  0.0959
  H  H12  1  0.241770  0.690090  0.749410  1.0  0.0953
  H  H13  1  0.893620  0.186220  0.126010  1.0  0.1183
  H  H14  1  0.106380  0.686220  0.873990  1.0  0.1195
  H  H15  1  0.088530  0.392300  0.174740  1.0  0.1012
  H  H16  1  0.911470  0.892300  0.825260  1.0  0.1
  H  H17  1  0.173360  0.423580  0.115390  1.0  0.1042
  H  H18  1  0.826640  0.923580  0.884610  1.0  0.1043
  H  H19  1  0.053320  0.373500  0.686930  1.0  0.1048
  H  H20  1  0.946680  0.873500  0.313070  1.0  0.1055
  H  H21  1  0.129150  0.447310  0.549380  1.0  0.1011
  H  H22  1  0.870850  0.947310  0.450620  1.0  0.1022
  H  H23  1  0.035830  0.418810  0.426920  1.0  0.1041
  H  H24  1  0.964170  0.918810  0.573080  1.0  0.1031
  H  H25  1  0.957740  0.344020  0.555720  1.0  0.094
  H  H26  1  0.042260  0.844020  0.444280  1.0  0.0954
  H  H27  1  0.886690  0.269480  0.327100  1.0  0.0931
  H  H28  1  0.113310  0.769480  0.672900  1.0  0.0935
  H  H29  1  0.831340  0.388850  0.228050  1.0  0.1038
  H  H30  1  0.168660  0.888850  0.771950  1.0  0.104
  H  H31  1  0.960410  0.300550  0.459550  1.0  0.0991
  H  H32  1  0.039590  0.800550  0.540450  1.0  0.0977
  H  H33  1  0.912230  0.417850  0.356280  1.0  0.1089
  H  H34  1  0.087770  0.917850  0.643720  1.0  0.109
  H  H35  1  0.731510  0.347690  0.240210  1.0  0.0877
  H  H36  1  0.268490  0.847690  0.759790  1.0  0.0879
  H  H37  1  0.741610  0.288650  0.047560  1.0  0.0935
  H  H38  1  0.258390  0.788650  0.952440  1.0  0.0943
  H  H39  1  0.603590  0.370270  0.158220  1.0  0.0929
  H  H40  1  0.396410  0.870270  0.841780  1.0  0.0927
  H  H41  1  0.554190  0.362990  0.911440  1.0  0.1814
  H  H42  1  0.445810  0.862990  0.088560  1.0  0.1817
  H  H43  1  0.610750  0.312630  0.958120  1.0  0.106
  H  H44  1  0.389250  0.812630  0.041880  1.0  0.1064
  H  H45  1  0.365770  0.378420  0.009150  1.0  0.1225
  H  H46  1  0.634230  0.878420  0.990850  1.0  0.1218
  H  H47  1  0.429800  0.396830  0.823220  1.0  0.1001
  H  H48  1  0.570200  0.896830  0.176780  1.0  0.1001
  H  H49  1  0.050900  0.333480  0.189210  1.0  0.1053
  H  H50  1  0.949100  0.833480  0.810790  1.0  0.105
  H  H51  1  0.784040  0.359650  0.052610  1.0  0.1003
  H  H52  1  0.215960  0.859650  0.947390  1.0  0.1013
  H  H53  1  0.968850  0.306930  0.245130  1.0  0.077
  H  H54  1  0.031150  0.806930  0.754870  1.0  0.0779
  H  H55  1  0.866260  0.389090  0.001610  1.0  0.0938
  H  H56  1  0.133740  0.889090  0.998390  1.0  0.0922
  H  H57  1  0.014930  0.395480  0.881960  1.0  0.1087
  H  H58  1  0.985070  0.895480  0.118040  1.0  0.1082
  H  H59  1  0.519620  0.520580  0.202720  1.0  0.1043
  H  H60  1  0.480380  0.020580  0.797280  1.0  0.1037
  H  H61  1  0.600310  0.496030  0.342850  1.0  0.0922
  H  H62  1  0.399690  0.996030  0.657150  1.0  0.0918
  H  H63  1  0.714070  0.418920  0.256100  1.0  0.0931
  H  H64  1  0.285930  0.918920  0.743900  1.0  0.0919
  H  H65  1  0.646150  0.442550  0.118570  1.0  0.1609
  H  H66  1  0.353850  0.942550  0.881430  1.0  0.164
  H  H67  1  0.883570  0.518940  0.369140  1.0  0.098
  H  H68  1  0.116430  0.018940  0.630860  1.0  0.0987
  H  H69  1  0.763180  0.486340  0.307810  1.0  0.0954
  H  H70  1  0.236820  0.986340  0.692190  1.0  0.0955
  H  H71  1  0.932200  0.453190  0.589480  1.0  0.1025
  H  H72  1  0.067800  0.953190  0.410520  1.0  0.1016
  H  H73  1  0.804430  0.426610  0.528820  1.0  0.1075
  H  H74  1  0.195570  0.926610  0.471180  1.0  0.1089
  H  H75  1  0.802480  0.310040  0.431900  1.0  0.098
  H  H76  1  0.197520  0.810040  0.568100  1.0  0.0979
  H  H77  1  0.586550  0.393890  0.285950  1.0  0.1072
  H  H78  1  0.413450  0.893890  0.714050  1.0  0.1077
  H  H79  1  0.813590  0.382910  0.446080  1.0  0.1001
  H  H80  1  0.186410  0.882910  0.553920  1.0  0.0995
  H  H81  1  0.574360  0.320560  0.286250  1.0  0.1085
  H  H82  1  0.425640  0.820560  0.713750  1.0  0.1081
  H  H83  1  0.125050  0.532630  0.471850  1.0  0.1008
  H  H84  1  0.874950  0.032630  0.528150  1.0  0.1005
  H  H85  1  0.122490  0.534460  0.695750  1.0  0.0834
  H  H86  1  0.877510  0.034460  0.304250  1.0  0.0847
  H  H87  1  0.997660  0.500780  0.410080  1.0  0.095
  H  H88  1  0.002340  0.000780  0.589920  1.0  0.0967
  H  H89  1  0.991600  0.504970  0.631710  1.0  0.1569
  H  H90  1  0.008400  0.004970  0.368290  1.0  0.1546
  H  H91  1  0.658550  0.530920  0.539560  1.0  0.0934
  H  H92  1  0.341450  0.030920  0.460440  1.0  0.0937
  H  H93  1  0.714200  0.508870  0.453470  1.0  0.0948
  H  H94  1  0.285800  0.008870  0.546530  1.0  0.0947
  H  H95  1  0.607390  0.394800  0.427940  1.0  0.08
  H  H96  1  0.392610  0.894800  0.572060  1.0  0.0799
  H  H97  1  0.550810  0.417730  0.510850  1.0  0.1004
  H  H98  1  0.449190  0.917730  0.489150  1.0  0.0998
  H  H99  1  0.379150  0.494290  0.553070  1.0  0.0946
  H  H100  1  0.620850  0.994290  0.446930  1.0  0.0951
  H  H101  1  0.568850  0.556810  0.705780  1.0  0.1
  H  H102  1  0.431150  0.056810  0.294220  1.0  0.0998
  H  H103  1  0.451020  0.469270  0.481140  1.0  0.1099
  H  H104  1  0.548980  0.969270  0.518860  1.0  0.1088
  H  H105  1  0.650560  0.521800  0.652930  1.0  0.0961
  H  H106  1  0.349440  0.021800  0.347070  1.0  0.0955
  H  H107  1  0.629860  0.189320  0.233630  1.0  0.1055
  H  H108  1  0.370140  0.689320  0.766370  1.0  0.1046
  H  H109  1  0.718780  0.187290  0.483500  1.0  0.1538
  H  H110  1  0.281220  0.687290  0.516500  1.0  0.1524
  H  H111  1  0.626930  0.264650  0.230360  1.0  0.1014
  H  H112  1  0.373070  0.764650  0.769640  1.0  0.0946
  H  H113  1  0.442090  0.464110  0.888170  1.0  0.094
  H  H114  1  0.557910  0.964110  0.111830  1.0  0.0949
  H  H115  1  0.532760  0.443690  0.021430  1.0  0.0876
  H  H116  1  0.467240  0.943690  0.978570  1.0  0.0873
  H  H117  1  0.456670  0.583980  0.972000  1.0  0.1009
  H  H118  1  0.543330  0.083980  0.028000  1.0  0.0996
  H  H119  1  0.529080  0.557520  0.112700  1.0  0.0924
  H  H120  1  0.470920  0.057520  0.887300  1.0  0.0918
  H  H121  1  0.756340  0.263560  0.243800  1.0  0.0933
  H  H122  1  0.243660  0.763560  0.756200  1.0  0.0934
  H  H123  1  0.892720  0.265330  0.123140  1.0  0.1329
  H  H124  1  0.107280  0.765330  0.876860  1.0  0.135
  H  H125  1  0.918620  0.058420  0.182070  1.0  0.0977
  H  H126  1  0.081380  0.558420  0.817930  1.0  0.0964
  H  H127  1  0.932670  0.135040  0.200830  1.0  0.0893
  H  H128  1  0.067330  0.635040  0.799170  1.0  0.089
  H  H129  1  0.699420  0.064590  0.145900  1.0  0.0942
  H  H130  1  0.300580  0.564590  0.854100  1.0  0.0941
  H  H131  1  0.933910  0.365470  0.939460  1.0  0.0947
  H  H132  1  0.066090  0.865470  0.060540  1.0  0.0956
  H  H133  1  0.707850  0.141880  0.163750  1.0  0.0933
  H  H134  1  0.292150  0.641880  0.836250  1.0  0.0925
  H  H135  1  0.731880  0.265170  0.481240  1.0  0.1038
  H  H136  1  0.268120  0.765170  0.518760  1.0  0.1028
  H  H137  1  0.168730  0.611320  0.183500  1.0  0.0955
  H  H138  1  0.831270  0.111320  0.816500  1.0  0.0951
  H  H139  1  0.091830  0.669910  0.185950  1.0  0.1123
  H  H140  1  0.908170  0.169910  0.814050  1.0  0.1102
  H  H141  1  0.182990  0.591440  0.071310  1.0  0.111
  H  H142  1  0.817010  0.091440  0.928690  1.0  0.1101
  H  H143  1  0.883440  0.659380  0.465490  1.0  0.1648
  H  H144  1  0.116560  0.159380  0.534510  1.0  0.1625
  H  H145  1  0.080890  0.702790  0.652900  1.0  0.1239
  H  H146  1  0.919110  0.202790  0.347100  1.0  0.1236
  H  H147  1  0.015590  0.728760  0.722140  1.0  0.0793
  H  H148  1  0.984410  0.228760  0.277860  1.0  0.08
  H  H149  1  0.815930  0.679950  0.540520  1.0  0.0906
  H  H150  1  0.184070  0.179950  0.459480  1.0  0.0905
  H  H151  1  0.190490  0.650060  0.515280  1.0  0.1034
  H  H152  1  0.809510  0.150060  0.484720  1.0  0.1031
  H  H153  1  0.005210  0.586620  0.370000  1.0  0.2024
  H  H154  1  0.994790  0.086620  0.630000  1.0  0.2009
  H  H155  1  0.114480  0.695460  0.580730  1.0  0.1436
  H  H156  1  0.885520  0.195460  0.419270  1.0  0.1443
  H  H157  1  0.631290  0.716740  0.487810  1.0  0.1306
  H  H158  1  0.368710  0.216740  0.512190  1.0  0.1333
  H  H159  1  0.756100  0.746970  0.546670  1.0  0.0978
  H  H160  1  0.243900  0.246970  0.453330  1.0  0.0973
  H  H161  1  0.674030  0.648500  0.687630  1.0  0.1279
  H  H162  1  0.325970  0.148500  0.312370  1.0  0.1281
  H  H163  1  0.804200  0.668620  0.744480  1.0  0.0876
  H  H164  1  0.195800  0.168620  0.255520  1.0  0.0866
  H  H165  1  0.545650  0.697300  0.443520  1.0  0.0961
  H  H166  1  0.454350  0.197300  0.556480  1.0  0.1011
  H  H167  1  0.424560  0.665100  0.379210  1.0  0.1074
  H  H168  1  0.575440  0.165100  0.620790  1.0  0.1067
  H  H169  1  0.472620  0.595570  0.585130  1.0  0.0783
  H  H170  1  0.527380  0.095570  0.414870  1.0  0.079
  H  H171  1  0.593750  0.627950  0.649620  1.0  0.1309
  H  H172  1  0.406250  0.127950  0.350380  1.0  0.1317
  H  H173  1  0.928530  0.776510  0.612860  1.0  0.0954
  H  H174  1  0.071470  0.276510  0.387140  1.0  0.0957
  H  H175  1  0.905340  0.851900  0.599600  1.0  0.1192
  H  H176  1  0.094660  0.351900  0.400400  1.0  0.1193
  H  H177  1  0.762480  0.837910  0.710540  1.0  0.1036
  H  H178  1  0.237520  0.337910  0.289460  1.0  0.1047
  H  H179  1  0.795510  0.765710  0.738640  1.0  0.0945
  H  H180  1  0.204490  0.265710  0.261360  1.0  0.0931
  H  H181  1  0.790840  0.962780  0.502910  1.0  0.1042
  H  H182  1  0.209160  0.462780  0.497090  1.0  0.1038
  H  H183  1  0.767230  0.973780  0.717660  1.0  0.1058
  H  H184  1  0.232770  0.473780  0.282340  1.0  0.1053
  H  H185  1  0.825940  0.891270  0.526630  1.0  0.103
  H  H186  1  0.174060  0.391270  0.473370  1.0  0.1033
  H  H187  1  0.800310  0.899060  0.742280  1.0  0.1092
  H  H188  1  0.199690  0.399060  0.257720  1.0  0.1079
  H  H189  1  0.909250  0.649520  0.723160  1.0  0.1004
  H  H190  1  0.090750  0.149520  0.276840  1.0  0.1004
  H  H191  1  0.981860  0.622260  0.860140  1.0  0.1733
  H  H192  1  0.018140  0.122260  0.139860  1.0  0.1721
  H  H193  1  0.004840  0.737750  0.953520  1.0  0.1025
  H  H194  1  0.995160  0.237750  0.046480  1.0  0.103
  H  H195  1  0.931380  0.768880  0.823720  1.0  0.0998
  H  H196  1  0.068620  0.268880  0.176280  1.0  0.0991
  H  H197  1  0.090940  0.623730  0.933040  1.0  0.1247
  H  H198  1  0.909060  0.123730  0.066960  1.0  0.125
  H  H199  1  0.935310  0.624250  0.446260  1.0  0.1376
  H  H200  1  0.064690  0.124250  0.553740  1.0  0.1373
  H  H201  1  0.998430  0.703530  0.054510  1.0  0.1201
  H  H202  1  0.001570  0.203530  0.945490  1.0  0.1192
  C  C203  1  0.821400  0.184300  0.182300  1.0  0.0047
  C  C204  1  0.178600  0.684300  0.817700  1.0  0.0046
  C  C205  1  0.786700  0.206000  0.220000  1.0  -0.1255
  C  C206  1  0.213300  0.706000  0.780000  1.0  -0.1246
  C  C207  1  0.862000  0.203600  0.151200  1.0  -0.0527
  C  C208  1  0.138000  0.703600  0.848800  1.0  -0.0504
  C  C209  1  0.006700  0.378000  0.056800  1.0  0.0041
  C  C210  1  0.993300  0.878000  0.943200  1.0  0.004
  C  C211  1  0.074200  0.393200  0.111000  1.0  -0.0104
  C  C212  1  0.925800  0.893200  0.889000  1.0  -0.0115
  C  C213  1  0.120400  0.409200  0.077200  1.0  0.013
  C  C214  1  0.879600  0.909200  0.922800  1.0  0.0113
  C  C215  1  0.046100  0.383400  0.627900  1.0  -0.0237
  C  C216  1  0.953900  0.883400  0.372100  1.0  -0.0229
  C  C217  1  0.089300  0.414500  0.620700  1.0  -0.1767
  C  C218  1  0.910700  0.914500  0.379300  1.0  -0.1765
  C  C219  1  0.088800  0.425200  0.550900  1.0  -0.1274
  C  C220  1  0.911200  0.925200  0.449100  1.0  -0.1291
  C  C221  1  0.992800  0.379800  0.486600  1.0  0.0162
  C  C222  1  0.007200  0.879800  0.513400  1.0  0.0161
  C  C223  1  0.039300  0.408800  0.484500  1.0  -0.155
  C  C224  1  0.960700  0.908800  0.515500  1.0  -0.1544
  C  C225  1  0.996700  0.367700  0.556900  1.0  -0.1173
  C  C226  1  0.003300  0.867700  0.443100  1.0  -0.1211
  C  C227  1  0.144300  0.432700  0.698200  1.0  0.6222
  C  C228  1  0.855700  0.932700  0.301800  1.0  0.6222
  C  C229  1  0.892600  0.302400  0.334000  1.0  -0.1066
  C  C230  1  0.107400  0.802400  0.666000  1.0  -0.1054
  C  C231  1  0.858900  0.327000  0.269400  1.0  -0.092
  C  C232  1  0.141100  0.827000  0.730600  1.0  -0.0922
  C  C233  1  0.940600  0.361400  0.413300  1.0  -0.0389
  C  C234  1  0.059400  0.861400  0.586700  1.0  -0.0398
  C  C235  1  0.863000  0.369200  0.278800  1.0  -0.0404
  C  C236  1  0.137000  0.869200  0.721200  1.0  -0.0375
  C  C237  1  0.933500  0.319700  0.406800  1.0  -0.0804
  C  C238  1  0.066500  0.819700  0.593200  1.0  -0.0823
  C  C239  1  0.906000  0.384900  0.350400  1.0  -0.144
  C  C240  1  0.094000  0.884900  0.649600  1.0  -0.1444
  C  C241  1  0.826100  0.309600  0.189200  1.0  0.0143
  C  C242  1  0.173900  0.809600  0.810800  1.0  0.0153
  C  C243  1  0.704700  0.341300  0.176300  1.0  -0.1617
  C  C244  1  0.295300  0.841300  0.823700  1.0  -0.1663
  C  C245  1  0.741800  0.322700  0.142400  1.0  -0.0318
  C  C246  1  0.258200  0.822700  0.857600  1.0  -0.0341
  C  C247  1  0.710400  0.308700  0.069100  1.0  -0.0478
  C  C248  1  0.289600  0.808700  0.930900  1.0  -0.0457
  C  C249  1  0.633500  0.352400  0.131700  1.0  -0.1357
  C  C250  1  0.366500  0.852400  0.868300  1.0  -0.1365
  C  C251  1  0.394800  0.392100  0.915800  1.0  -0.115
  C  C252  1  0.605200  0.892100  0.084200  1.0  -0.1147
  C  C253  1  0.512000  0.368100  0.933500  1.0  -0.081
  C  C254  1  0.488000  0.868100  0.066500  1.0  -0.0786
  C  C255  1  0.636900  0.320500  0.021400  1.0  -0.063
  C  C256  1  0.363100  0.820500  0.978600  1.0  -0.0632
  C  C257  1  0.408700  0.377300  0.987200  1.0  0.0942
  C  C258  1  0.591300  0.877300  0.012800  1.0  0.0935
  C  C259  1  0.600300  0.341900  0.057200  1.0  -0.023
  C  C260  1  0.399700  0.841900  0.942800  1.0  -0.0205
  C  C261  1  0.443900  0.386800  0.884100  1.0  -0.0437
  C  C262  1  0.556100  0.886800  0.115900  1.0  -0.039
  C  C263  1  0.476500  0.360200  0.035900  1.0  -0.0362
  C  C264  1  0.523500  0.860200  0.964100  1.0  -0.0361
  C  C265  1  0.528300  0.356000  0.007300  1.0  -0.042
  C  C266  1  0.471700  0.856000  0.992700  1.0  -0.0423
  C  C267  1  0.870200  0.327300  0.151200  1.0  0.0126
  C  C268  1  0.129800  0.827300  0.848800  1.0  0.0122
  C  C269  1  0.990900  0.339000  0.159400  1.0  -0.133
  C  C270  1  0.009100  0.839000  0.840600  1.0  -0.1377
  C  C271  1  0.843500  0.352800  0.083600  1.0  -0.0641
  C  C272  1  0.156500  0.852800  0.916400  1.0  -0.0624
  C  C273  1  0.961700  0.361800  0.091900  1.0  -0.0267
  C  C274  1  0.038300  0.861800  0.908100  1.0  -0.0268
  C  C275  1  0.945600  0.323500  0.188700  1.0  -0.0694
  C  C276  1  0.054400  0.823500  0.811300  1.0  -0.0685
  C  C277  1  0.889400  0.369700  0.054400  1.0  -0.1296
  C  C278  1  0.110600  0.869700  0.945600  1.0  -0.1283
  C  C279  1  0.032600  0.393800  0.946300  1.0  -0.1373
  C  C280  1  0.967400  0.893800  0.053700  1.0  -0.1367
  C  C281  1  0.100500  0.407200  0.996700  1.0  -0.199
  C  C282  1  0.899500  0.907200  0.003300  1.0  -0.1993
  C  C283  1  0.144700  0.422800  0.950500  1.0  0.5554
  C  C284  1  0.855300  0.922800  0.049500  1.0  0.5565
  C  C285  1  0.402400  0.540500  0.845700  1.0  0.646
  C  C286  1  0.597600  0.040500  0.154300  1.0  0.6468
  C  C287  1  0.653600  0.452700  0.299500  1.0  0.0921
  C  C288  1  0.346400  0.952700  0.700500  1.0  0.0923
  C  C289  1  0.576300  0.484200  0.152900  1.0  -0.06
  C  C290  1  0.423700  0.984200  0.847100  1.0  -0.0598
  C  C291  1  0.563200  0.498000  0.213600  1.0  -0.1189
  C  C292  1  0.436800  0.998000  0.786400  1.0  -0.1178
  C  C293  1  0.605100  0.483600  0.290700  1.0  -0.0409
  C  C294  1  0.394900  0.983600  0.709300  1.0  -0.0397
  C  C295  1  0.669300  0.440900  0.243900  1.0  -0.0556
  C  C296  1  0.330700  0.940900  0.756100  1.0  -0.0575
  C  C297  1  0.631600  0.454700  0.164800  1.0  0.0054
  C  C298  1  0.368400  0.954700  0.835200  1.0  0.0064
  C  C299  1  0.772500  0.454400  0.412100  1.0  -0.0025
  C  C300  1  0.227500  0.954400  0.587900  1.0  -0.003
  C  C301  1  0.867600  0.497400  0.403800  1.0  -0.0394
  C  C302  1  0.132400  0.997400  0.596200  1.0  -0.0402
  C  C303  1  0.798300  0.479600  0.370500  1.0  -0.0816
  C  C304  1  0.201700  0.979600  0.629500  1.0  -0.0801
  C  C305  1  0.914800  0.486900  0.481400  1.0  -0.168
  C  C306  1  0.085200  0.986900  0.518600  1.0  -0.1692
  C  C307  1  0.892900  0.460500  0.528400  1.0  0.074
  C  C308  1  0.107100  0.960500  0.471600  1.0  0.0719
  C  C309  1  0.822300  0.445900  0.492400  1.0  -0.0283
  C  C310  1  0.177700  0.945900  0.507600  1.0  -0.03
  C  C311  1  0.699000  0.394500  0.374000  1.0  0.0142
  C  C312  1  0.301000  0.894500  0.626000  1.0  0.0146
  C  C313  1  0.752500  0.328500  0.401400  1.0  -0.1026
  C  C314  1  0.247500  0.828500  0.598600  1.0  -0.101
  C  C315  1  0.689900  0.311400  0.359100  1.0  0.0708
  C  C316  1  0.310100  0.811400  0.640900  1.0  0.069
  C  C317  1  0.634800  0.375800  0.324200  1.0  -0.0506
  C  C318  1  0.365200  0.875800  0.675800  1.0  -0.0513
  C  C319  1  0.758800  0.369900  0.409700  1.0  -0.0883
  C  C320  1  0.241200  0.869900  0.590300  1.0  -0.0908
  C  C321  1  0.628600  0.334700  0.320400  1.0  -0.1156
  C  C322  1  0.371400  0.834700  0.679600  1.0  -0.1102
  C  C323  1  0.696000  0.437600  0.378400  1.0  -0.0397
  C  C324  1  0.304000  0.937600  0.621600  1.0  -0.0402
  C  C325  1  0.093400  0.525600  0.506000  1.0  -0.0722
  C  C326  1  0.906600  0.025600  0.494000  1.0  -0.0764
  C  C327  1  0.123800  0.532900  0.586200  1.0  -0.0905
  C  C328  1  0.876200  0.032900  0.413800  1.0  -0.0885
  C  C329  1  0.092700  0.527200  0.632400  1.0  -0.0229
  C  C330  1  0.907300  0.027200  0.367600  1.0  -0.0271
  C  C331  1  0.988500  0.505000  0.517800  1.0  -0.0355
  C  C332  1  0.011500  0.005000  0.482200  1.0  -0.0357
  C  C333  1  0.024200  0.509700  0.472800  1.0  -0.1633
  C  C334  1  0.975800  0.009700  0.527200  1.0  -0.1611
  C  C335  1  0.022100  0.511900  0.596300  1.0  -0.0821
  C  C336  1  0.977900  0.011900  0.403700  1.0  -0.0804
  C  C337  1  0.663100  0.448400  0.434100  1.0  0.0008
  C  C338  1  0.336900  0.948400  0.565900  1.0  0.0025
  C  C339  1  0.597700  0.478100  0.522900  1.0  -0.1024
  C  C340  1  0.402300  0.978100  0.477100  1.0  -0.1024
  C  C341  1  0.644900  0.501000  0.511600  1.0  -0.1118
  C  C342  1  0.355100  0.001000  0.488400  1.0  -0.1098
  C  C343  1  0.677200  0.488500  0.466100  1.0  -0.0744
  C  C344  1  0.322800  0.988500  0.533900  1.0  -0.0754
  C  C345  1  0.619100  0.425800  0.450900  1.0  -0.069
  C  C346  1  0.380900  0.925800  0.549100  1.0  -0.0691
  C  C347  1  0.586200  0.437900  0.495300  1.0  -0.1217
  C  C348  1  0.413800  0.937900  0.504700  1.0  -0.1227
  C  C349  1  0.471700  0.526300  0.628100  1.0  -0.0603
  C  C350  1  0.528300  0.026300  0.371900  1.0  -0.0592
  C  C351  1  0.437600  0.501800  0.570200  1.0  -0.0705
  C  C352  1  0.562400  0.001800  0.429800  1.0  -0.0714
  C  C353  1  0.551800  0.493800  0.563400  1.0  -0.1523
  C  C354  1  0.448200  0.993800  0.436600  1.0  -0.1509
  C  C355  1  0.544100  0.535000  0.657100  1.0  -0.1238
  C  C356  1  0.455900  0.035000  0.342900  1.0  -0.1256
  C  C357  1  0.477500  0.487400  0.535400  1.0  -0.1345
  C  C358  1  0.522500  0.987400  0.464600  1.0  -0.1335
  C  C359  1  0.590200  0.518300  0.629800  1.0  0.0163
  C  C360  1  0.409800  0.018300  0.370200  1.0  0.0166
  C  C361  1  0.676900  0.188900  0.360500  1.0  -0.1086
  C  C362  1  0.323100  0.688900  0.639500  1.0  -0.1089
  C  C363  1  0.650600  0.207500  0.288100  1.0  -0.0798
  C  C364  1  0.349400  0.707500  0.711900  1.0  -0.0755
  C  C365  1  0.681900  0.268600  0.354700  1.0  -0.0046
  C  C366  1  0.318100  0.768600  0.645300  1.0  -0.0034
  C  C367  1  0.703000  0.205900  0.430000  1.0  -0.0701
  C  C368  1  0.297000  0.705900  0.570000  1.0  -0.0692
  C  C369  1  0.651400  0.248300  0.287000  1.0  -0.1173
  C  C370  1  0.348600  0.748300  0.713000  1.0  -0.1166
  C  C371  1  0.450300  0.524900  0.923700  1.0  -0.1244
  C  C372  1  0.549700  0.024900  0.076300  1.0  -0.1242
  C  C373  1  0.466100  0.485900  0.937000  1.0  -0.1104
  C  C374  1  0.533900  0.985900  0.063000  1.0  -0.1089
  C  C375  1  0.532800  0.498600  0.071600  1.0  0.0156
  C  C376  1  0.467200  0.998600  0.928400  1.0  0.0153
  C  C377  1  0.512700  0.475000  0.013000  1.0  -0.0556
  C  C378  1  0.487300  0.975000  0.987000  1.0  -0.0562
  C  C379  1  0.471800  0.552000  0.984400  1.0  -0.0634
  C  C380  1  0.528200  0.052000  0.015600  1.0  -0.0638
  C  C381  1  0.513000  0.537400  0.061200  1.0  -0.0987
  C  C382  1  0.487000  0.037400  0.938800  1.0  -0.0987
  C  C383  1  0.428000  0.546500  0.662800  1.0  0.6204
  C  C384  1  0.572000  0.046500  0.337200  1.0  0.6203
  C  C385  1  0.675800  0.142700  0.359900  1.0  0.6532
  C  C386  1  0.324200  0.642700  0.640100  1.0  0.6531
  C  C387  1  0.327400  0.417800  0.868300  1.0  0.6771
  C  C388  1  0.672600  0.917800  0.131700  1.0  0.6754
  C  C389  1  0.788100  0.246100  0.218900  1.0  -0.1166
  C  C390  1  0.211900  0.746100  0.781100  1.0  -0.1172
  C  C391  1  0.827900  0.265000  0.187700  1.0  0.0222
  C  C392  1  0.172100  0.765000  0.812300  1.0  0.0242
  C  C393  1  0.864300  0.247000  0.150700  1.0  -0.0323
  C  C394  1  0.135700  0.747000  0.849300  1.0  -0.0277
  C  C395  1  0.801300  0.016300  0.156500  1.0  0.6567
  C  C396  1  0.198700  0.516300  0.843500  1.0  0.6569
  C  C397  1  0.817900  0.140800  0.177900  1.0  0.0255
  C  C398  1  0.182100  0.640800  0.822100  1.0  0.0248
  C  C399  1  0.872000  0.077200  0.178600  1.0  -0.0817
  C  C400  1  0.128000  0.577200  0.821400  1.0  -0.083
  C  C401  1  0.880300  0.119200  0.187300  1.0  -0.039
  C  C402  1  0.119700  0.619200  0.812700  1.0  -0.0399
  C  C403  1  0.751200  0.080900  0.158700  1.0  -0.1005
  C  C404  1  0.248800  0.580900  0.841300  1.0  -0.101
  C  C405  1  0.809100  0.061500  0.166600  1.0  -0.0252
  C  C406  1  0.190900  0.561500  0.833400  1.0  -0.0254
  C  C407  1  0.200400  0.549800  0.618600  1.0  0.6485
  C  C408  1  0.799600  0.049800  0.381400  1.0  0.6491
  C  C409  1  0.987600  0.378100  0.980500  1.0  -0.1018
  C  C410  1  0.012400  0.878100  0.019500  1.0  -0.0992
  C  C411  1  0.754600  0.123400  0.166600  1.0  -0.0867
  C  C412  1  0.245400  0.623400  0.833400  1.0  -0.0841
  C  C413  1  0.707100  0.248400  0.425100  1.0  -0.0803
  C  C414  1  0.292900  0.748400  0.574900  1.0  -0.0804
  C  C415  1  0.135200  0.627700  0.128500  1.0  -0.0664
  C  C416  1  0.864800  0.127700  0.871500  1.0  -0.0642
  C  C417  1  0.090000  0.659300  0.129400  1.0  0.031
  C  C418  1  0.910000  0.159300  0.870600  1.0  0.0314
  C  C419  1  0.142100  0.614900  0.065500  1.0  -0.004
  C  C420  1  0.857900  0.114900  0.934500  1.0  -0.0027
  C  C421  1  0.369800  0.605700  0.444400  1.0  0.6746
  C  C422  1  0.630200  0.105700  0.555600  1.0  0.6719
  C  C423  1  0.138900  0.602700  0.409000  1.0  0.6055
  C  C424  1  0.861100  0.102700  0.591000  1.0  0.6043
  C  C425  1  0.982900  0.678100  0.558600  1.0  -0.1791
  C  C426  1  0.017100  0.178100  0.441400  1.0  -0.1785
  C  C427  1  0.910400  0.673500  0.524300  1.0  -0.0706
  C  C428  1  0.089600  0.173500  0.475700  1.0  -0.0699
  C  C429  1  0.909000  0.709100  0.638900  1.0  0.0144
  C  C430  1  0.091000  0.209100  0.361100  1.0  0.0146
  C  C431  1  0.020600  0.698700  0.629100  1.0  -0.0394
  C  C432  1  0.979400  0.198700  0.370900  1.0  -0.0396
  C  C433  1  0.985700  0.712700  0.665800  1.0  0.0137
  C  C434  1  0.014300  0.212700  0.334200  1.0  0.0125
  C  C435  1  0.875400  0.687000  0.566100  1.0  -0.0311
  C  C436  1  0.124600  0.187000  0.433900  1.0  -0.0286
  C  C437  1  0.025900  0.656600  0.515700  1.0  -0.0103
  C  C438  1  0.974100  0.156600  0.484300  1.0  -0.0111
  C  C439  1  0.131100  0.646000  0.498800  1.0  -0.0308
  C  C440  1  0.868900  0.146000  0.501200  1.0  -0.0308
  C  C441  1  0.026700  0.609000  0.418000  1.0  -0.0207
  C  C442  1  0.973300  0.109000  0.582000  1.0  -0.0174
  C  C443  1  0.094400  0.670200  0.538700  1.0  -0.0053
  C  C444  1  0.905600  0.170200  0.461300  1.0  -0.0033
  C  C445  1  0.100400  0.621300  0.447900  1.0  0.0101
  C  C446  1  0.899600  0.121300  0.552100  1.0  0.0091
  C  C447  1  0.791800  0.707000  0.650600  1.0  0.0133
  C  C448  1  0.208200  0.207000  0.349400  1.0  0.0145
  C  C449  1  0.672400  0.706600  0.546200  1.0  -0.1292
  C  C450  1  0.327600  0.206600  0.453800  1.0  -0.1283
  C  C451  1  0.742000  0.722800  0.578100  1.0  -0.0382
  C  C452  1  0.258000  0.222800  0.421900  1.0  -0.0392
  C  C453  1  0.653500  0.679000  0.584100  1.0  0.0154
  C  C454  1  0.346500  0.179000  0.415900  1.0  0.0149
  C  C455  1  0.695800  0.667900  0.654800  1.0  -0.1088
  C  C456  1  0.304200  0.167900  0.345200  1.0  -0.1102
  C  C457  1  0.766800  0.680900  0.686300  1.0  -0.1312
  C  C458  1  0.233200  0.180900  0.313700  1.0  -0.133
  C  C459  1  0.869900  0.723300  0.682600  1.0  -0.0868
  C  C460  1  0.130100  0.223300  0.317400  1.0  -0.0868
  C  C461  1  0.575700  0.664300  0.549900  1.0  -0.0168
  C  C462  1  0.424300  0.164300  0.450100  1.0  -0.018
  C  C463  1  0.529200  0.674430  0.475500  1.0  -0.1039
  C  C464  1  0.470800  0.174430  0.524500  1.0  -0.1045
  C  C465  1  0.462700  0.656700  0.440100  1.0  -0.1127
  C  C466  1  0.537300  0.156700  0.559900  1.0  -0.1116
  C  C467  1  0.442700  0.628700  0.479000  1.0  -0.1367
  C  C468  1  0.557300  0.128700  0.521000  1.0  -0.1364
  C  C469  1  0.489100  0.618500  0.553300  1.0  -0.1121
  C  C470  1  0.510900  0.118500  0.446700  1.0  -0.1127
  C  C471  1  0.555600  0.636300  0.588700  1.0  -0.1342
  C  C472  1  0.444400  0.136300  0.411300  1.0  -0.1313
  C  C473  1  0.836500  0.848300  0.652900  1.0  0.0358
  C  C474  1  0.163500  0.348300  0.347100  1.0  0.0386
  C  C475  1  0.893600  0.790800  0.637800  1.0  -0.0945
  C  C476  1  0.106400  0.290800  0.362200  1.0  -0.0953
  C  C477  1  0.864800  0.768700  0.676900  1.0  -0.0719
  C  C478  1  0.135200  0.268700  0.323100  1.0  -0.0717
  C  C479  1  0.878900  0.833000  0.628500  1.0  -0.0521
  C  C480  1  0.121100  0.333000  0.371500  1.0  -0.053
  C  C481  1  0.802400  0.824200  0.691700  1.0  -0.0746
  C  C482  1  0.197600  0.324200  0.308300  1.0  -0.0768
  C  C483  1  0.817800  0.784900  0.706000  1.0  -0.0343
  C  C484  1  0.182200  0.284900  0.294000  1.0  -0.0341
  C  C485  1  0.792900  0.948600  0.557000  1.0  -0.0523
  C  C486  1  0.207100  0.448600  0.443000  1.0  -0.0519
  C  C487  1  0.776700  0.970700  0.609100  1.0  -0.115
  C  C488  1  0.223300  0.470700  0.390900  1.0  -0.1163
  C  C489  1  0.779300  0.954800  0.676400  1.0  -0.0952
  C  C490  1  0.220700  0.454800  0.323600  1.0  -0.0986
  C  C491  1  0.813600  0.890600  0.636200  1.0  -0.0972
  C  C492  1  0.186400  0.390600  0.363800  1.0  -0.0962
  C  C493  1  0.812400  0.907900  0.569600  1.0  0.0417
  C  C494  1  0.187600  0.407900  0.430400  1.0  0.0412
  C  C495  1  0.797700  0.914200  0.688800  1.0  -0.0415
  C  C496  1  0.202300  0.414200  0.311200  1.0  -0.0419
  C  C497  1  0.914100  0.709500  0.763800  1.0  -0.0206
  C  C498  1  0.085900  0.209500  0.236200  1.0  -0.0176
  C  C499  1  0.929300  0.670000  0.774400  1.0  -0.0563
  C  C500  1  0.070700  0.170000  0.225600  1.0  -0.0578
  C  C501  1  0.970900  0.654800  0.851100  1.0  -0.1216
  C  C502  1  0.029100  0.154800  0.148900  1.0  -0.122
  C  C503  1  0.996100  0.679400  0.910800  1.0  0.0216
  C  C504  1  0.003900  0.179400  0.089200  1.0  0.0243
  C  C505  1  0.982900  0.717600  0.901800  1.0  -0.0988
  C  C506  1  0.017100  0.217600  0.098200  1.0  -0.1012
  C  C507  1  0.940600  0.736100  0.827300  1.0  0.001
  C  C508  1  0.059400  0.236100  0.172700  1.0  0.0013
  C  C509  1  0.048200  0.664400  0.991800  1.0  -0.091
  C  C510  1  0.951800  0.164400  0.008200  1.0  -0.0885
  C  C511  1  0.091600  0.634300  0.989100  1.0  0.0413
  C  C512  1  0.908400  0.134300  0.010900  1.0  0.0429
  C  C513  1  0.761400  0.012700  0.592100  1.0  0.6789
  C  C514  1  0.238600  0.512700  0.407900  1.0  0.6802
  C  C515  1  0.993700  0.629800  0.459600  1.0  -0.0548
  C  C516  1  0.006300  0.129800  0.540400  1.0  -0.0558
  C  C517  1  0.036700  0.680200  0.052600  1.0  0.1902
  C  C518  1  0.963300  0.180200  0.947400  1.0  0.1884
  O  O519  1  0.671700  0.127110  0.300100  1.0  -0.5845
  O  O520  1  0.328300  0.627110  0.699900  1.0  -0.5838
  O  O521  1  0.242500  0.541280  0.689400  1.0  -0.6563
  O  O522  1  0.757500  0.041280  0.310600  1.0  -0.6563
  O  O523  1  0.218300  0.570350  0.577100  1.0  -0.6307
  O  O524  1  0.781700  0.070350  0.422900  1.0  -0.6306
  O  O525  1  0.677300  0.127600  0.420800  1.0  -0.6303
  O  O526  1  0.322700  0.627600  0.579200  1.0  -0.6306
  O  O527  1  0.397300  0.574800  0.833100  1.0  -0.5924
  O  O528  1  0.602700  0.074800  0.166900  1.0  -0.5936
  O  O529  1  0.359200  0.542060  0.630500  1.0  -0.6726
  O  O530  1  0.640800  0.042060  0.369500  1.0  -0.6726
  O  O531  1  0.454900  0.568300  0.719700  1.0  -0.6304
  O  O532  1  0.545100  0.068300  0.280300  1.0  -0.6271
  O  O533  1  0.287900  0.418500  0.903600  1.0  -0.6026
  O  O534  1  0.712100  0.918500  0.096400  1.0  -0.6014
  O  O535  1  0.374900  0.514500  0.792800  1.0  -0.6759
  O  O536  1  0.625100  0.014500  0.207200  1.0  -0.6768
  O  O537  1  0.326600  0.434040  0.812900  1.0  -0.5912
  O  O538  1  0.673400  0.934040  0.187100  1.0  -0.5891
  O  O539  1  0.749800  0.001800  0.162800  1.0  -0.6308
  O  O540  1  0.250200  0.501800  0.837200  1.0  -0.6291
  O  O541  1  0.136400  0.423900  0.750500  1.0  -0.5968
  O  O542  1  0.863600  0.923900  0.249500  1.0  -0.5966
  O  O543  1  0.127800  0.413400  0.892500  1.0  -0.5853
  O  O544  1  0.872200  0.913400  0.107500  1.0  -0.5827
  O  O545  1  0.188700  0.454000  0.683300  1.0  -0.6504
  O  O546  1  0.811300  0.954000  0.316700  1.0  -0.6511
  O  O547  1  0.195900  0.441100  0.000500  1.0  -0.5765
  O  O548  1  0.804100  0.941100  0.999500  1.0  -0.5769
  O  O549  1  0.846300  0.997700  0.142000  1.0  -0.613
  O  O550  1  0.153700  0.497700  0.858000  1.0  -0.611
  O  O551  1  0.747100  0.023020  0.526000  1.0  -0.586
  O  O552  1  0.252900  0.523020  0.474000  1.0  -0.5863
  O  O553  1  0.760000  0.031470  0.645400  1.0  -0.6008
  O  O554  1  0.240000  0.531470  0.354600  1.0  -0.6026
  O  O555  1  0.206400  0.608160  0.431400  1.0  -0.6964
  O  O556  1  0.793600  0.108160  0.568600  1.0  -0.6953
  O  O557  1  0.359600  0.582520  0.484900  1.0  -0.6175
  O  O558  1  0.640400  0.082520  0.515100  1.0  -0.6176
  O  O559  1  0.329300  0.616800  0.378700  1.0  -0.6034
  O  O560  1  0.670700  0.116800  0.621300  1.0  -0.6033
  O  O561  1  0.106100  0.579500  0.353800  1.0  -0.5883
  O  O562  1  0.893900  0.079500  0.646200  1.0  -0.5929
