# generated using pymatgen
data_CdH24C25(NO)4
_symmetry_space_group_name_H-M   'P 1'
_cell_length_a   17.12500000
_cell_length_b   22.10150000
_cell_length_c   24.93800000
_cell_angle_alpha   90.00000000
_cell_angle_beta   90.00000000
_cell_angle_gamma   112.79400000
_symmetry_Int_Tables_number   1
_chemical_formula_structural   CdH24C25(NO)4
_chemical_formula_sum   'Cd8 H192 C200 N32 O32'
_cell_volume   8701.60812813
_cell_formula_units_Z   8
loop_
 _symmetry_equiv_pos_site_id
 _symmetry_equiv_pos_as_xyz
  1  'x, y, z'
loop_
 _atom_site_type_symbol
 _atom_site_label
 _atom_site_symmetry_multiplicity
 _atom_site_fract_x
 _atom_site_fract_y
 _atom_site_fract_z
 _atom_site_occupancy
 _atom_site_charge
  Cd  Cd1  1  0.750000  0.500000  0.932260  1.0  0.7091
  Cd  Cd2  1  0.250000  0.500000  0.432260  1.0  0.7091
  Cd  Cd3  1  0.750000  0.000000  0.439290  1.0  0.682
  Cd  Cd4  1  0.750000  0.000000  0.939290  1.0  0.682
  Cd  Cd5  1  0.750000  0.500000  0.567740  1.0  0.7095
  Cd  Cd6  1  0.250000  0.500000  0.067740  1.0  0.7095
  Cd  Cd7  1  0.250000  0.000000  0.060710  1.0  0.6823
  Cd  Cd8  1  0.250000  0.000000  0.560710  1.0  0.6823
  H  H9  1  0.775300  0.877200  0.494500  1.0  0.0581
  H  H10  1  0.725800  0.800400  0.561700  1.0  0.102
  H  H11  1  0.562900  0.880200  0.599800  1.0  0.1039
  H  H12  1  0.614800  0.952200  0.530900  1.0  0.0531
  H  H13  1  0.649900  0.721400  0.614500  1.0  0.0392
  H  H14  1  0.704100  0.770000  0.659100  1.0  0.0468
  H  H15  1  0.476200  0.689800  0.654000  1.0  0.0292
  H  H16  1  0.469400  0.632400  0.693700  1.0  0.0532
  H  H17  1  0.360900  0.618400  0.616300  1.0  0.1088
  H  H18  1  0.270200  0.576200  0.545700  1.0  0.067
  H  H19  1  0.441400  0.538600  0.467300  1.0  0.0451
  H  H20  1  0.536300  0.576000  0.537400  1.0  0.1111
  H  H21  1  0.541500  0.715200  0.763500  1.0  0.0735
  H  H22  1  0.549600  0.772400  0.723000  1.0  0.0569
  H  H23  1  0.557600  0.821000  0.803200  1.0  0.0919
  H  H24  1  0.590900  0.895800  0.873300  1.0  0.0545
  H  H25  1  0.824200  0.929600  0.860400  1.0  0.0471
  H  H26  1  0.797900  0.852800  0.792700  1.0  0.1088
  H  H27  1  0.689300  0.687400  0.725000  1.0  0.058
  H  H28  1  0.649200  0.638000  0.677800  1.0  0.0607
  H  H29  1  0.741400  0.633200  0.763700  1.0  0.0958
  H  H30  1  0.790400  0.585200  0.829300  1.0  0.0453
  H  H31  1  0.563700  0.480400  0.876700  1.0  0.0498
  H  H32  1  0.508300  0.524000  0.811000  1.0  0.0995
  H  H33  1  0.724700  0.122800  0.494500  1.0  0.058
  H  H34  1  0.774200  0.199600  0.561700  1.0  0.1012
  H  H35  1  0.937100  0.119800  0.599800  1.0  0.1039
  H  H36  1  0.885200  0.047800  0.530900  1.0  0.0533
  H  H37  1  0.850100  0.278600  0.614500  1.0  0.0389
  H  H38  1  0.795900  0.230000  0.659100  1.0  0.0456
  H  H39  1  0.023800  0.310200  0.654000  1.0  0.0285
  H  H40  1  0.030600  0.367600  0.693700  1.0  0.0523
  H  H41  1  0.139100  0.381600  0.616300  1.0  0.1084
  H  H42  1  0.229800  0.423800  0.545700  1.0  0.0656
  H  H43  1  0.058600  0.461400  0.467300  1.0  0.0452
  H  H44  1  0.963700  0.424000  0.537400  1.0  0.1123
  H  H45  1  0.958500  0.284800  0.763500  1.0  0.0726
  H  H46  1  0.950400  0.227600  0.723000  1.0  0.0565
  H  H47  1  0.942400  0.179000  0.803200  1.0  0.0929
  H  H48  1  0.909100  0.104200  0.873300  1.0  0.0552
  H  H49  1  0.675800  0.070400  0.860400  1.0  0.0466
  H  H50  1  0.702100  0.147200  0.792700  1.0  0.109
  H  H51  1  0.810700  0.312600  0.725000  1.0  0.059
  H  H52  1  0.850800  0.362000  0.677800  1.0  0.0671
  H  H53  1  0.758600  0.366800  0.763700  1.0  0.0952
  H  H54  1  0.709600  0.414800  0.829300  1.0  0.0451
  H  H55  1  0.936300  0.519600  0.876700  1.0  0.0496
  H  H56  1  0.991700  0.476000  0.811000  1.0  0.1006
  H  H57  1  0.898100  0.122800  0.994500  1.0  0.0571
  H  H58  1  0.925400  0.199600  0.061700  1.0  0.1016
  H  H59  1  0.682700  0.119800  0.099800  1.0  0.1042
  H  H60  1  0.662600  0.047800  0.030900  1.0  0.0531
  H  H61  1  0.928500  0.278600  0.114500  1.0  0.0389
  H  H62  1  0.934100  0.230000  0.159100  1.0  0.0462
  H  H63  1  0.786400  0.310200  0.154000  1.0  0.0277
  H  H64  1  0.837000  0.367600  0.193700  1.0  0.0524
  H  H65  1  0.742500  0.381600  0.116300  1.0  0.109
  H  H66  1  0.694000  0.423800  0.045700  1.0  0.0669
  H  H67  1  0.902800  0.461400  0.967300  1.0  0.0454
  H  H68  1  0.960300  0.424000  0.037400  1.0  0.111
  H  H69  1  0.826300  0.284800  0.263500  1.0  0.073
  H  H70  1  0.777200  0.227600  0.223000  1.0  0.0563
  H  H71  1  0.736600  0.179000  0.303200  1.0  0.0917
  H  H72  1  0.695100  0.104200  0.373300  1.0  0.0569
  H  H73  1  0.894600  0.070400  0.360400  1.0  0.0469
  H  H74  1  0.945100  0.147200  0.292700  1.0  0.1087
  H  H75  1  0.001900  0.312600  0.225000  1.0  0.0579
  H  H76  1  0.011200  0.362000  0.177800  1.0  0.0621
  H  H77  1  0.108200  0.366800  0.263700  1.0  0.0955
  H  H78  1  0.205200  0.414800  0.329300  1.0  0.0455
  H  H79  1  0.083300  0.519600  0.376700  1.0  0.0493
  H  H80  1  0.984300  0.476000  0.311000  1.0  0.0999
  H  H81  1  0.601900  0.877200  0.994500  1.0  0.0569
  H  H82  1  0.574600  0.800400  0.061700  1.0  0.1013
  H  H83  1  0.817300  0.880200  0.099800  1.0  0.1037
  H  H84  1  0.837400  0.952200  0.030900  1.0  0.0534
  H  H85  1  0.571500  0.721400  0.114500  1.0  0.0394
  H  H86  1  0.565900  0.770000  0.159100  1.0  0.0454
  H  H87  1  0.713600  0.689800  0.154000  1.0  0.0299
  H  H88  1  0.663000  0.632400  0.193700  1.0  0.0525
  H  H89  1  0.757500  0.618400  0.116300  1.0  0.1083
  H  H90  1  0.806000  0.576200  0.045700  1.0  0.0656
  H  H91  1  0.597200  0.538600  0.967300  1.0  0.0452
  H  H92  1  0.539700  0.576000  0.037400  1.0  0.1121
  H  H93  1  0.673700  0.715200  0.263500  1.0  0.0724
  H  H94  1  0.722800  0.772400  0.223000  1.0  0.0571
  H  H95  1  0.763400  0.821000  0.303200  1.0  0.0928
  H  H96  1  0.804900  0.895800  0.373300  1.0  0.0569
  H  H97  1  0.605400  0.929600  0.360400  1.0  0.0463
  H  H98  1  0.554900  0.852800  0.292700  1.0  0.109
  H  H99  1  0.498100  0.687400  0.225000  1.0  0.058
  H  H100  1  0.488800  0.638000  0.177800  1.0  0.0655
  H  H101  1  0.391800  0.633200  0.263700  1.0  0.0959
  H  H102  1  0.294800  0.585200  0.329300  1.0  0.0454
  H  H103  1  0.416700  0.480400  0.376700  1.0  0.0499
  H  H104  1  0.515700  0.524000  0.311000  1.0  0.1003
  H  H105  1  0.101900  0.877200  0.005500  1.0  0.0579
  H  H106  1  0.074600  0.800400  0.938300  1.0  0.1017
  H  H107  1  0.317300  0.880200  0.900200  1.0  0.1045
  H  H108  1  0.337400  0.952200  0.969100  1.0  0.0536
  H  H109  1  0.071500  0.721400  0.885500  1.0  0.0392
  H  H110  1  0.065900  0.770000  0.840900  1.0  0.0455
  H  H111  1  0.213600  0.689800  0.846000  1.0  0.0297
  H  H112  1  0.163000  0.632400  0.806300  1.0  0.0517
  H  H113  1  0.257500  0.618400  0.883700  1.0  0.108
  H  H114  1  0.306000  0.576200  0.954300  1.0  0.066
  H  H115  1  0.097200  0.538600  0.032700  1.0  0.0443
  H  H116  1  0.039700  0.576000  0.962600  1.0  0.1115
  H  H117  1  0.173700  0.715200  0.736500  1.0  0.0726
  H  H118  1  0.222800  0.772400  0.777000  1.0  0.0566
  H  H119  1  0.263400  0.821000  0.696800  1.0  0.0921
  H  H120  1  0.304900  0.895800  0.626700  1.0  0.0556
  H  H121  1  0.105400  0.929600  0.639600  1.0  0.0464
  H  H122  1  0.054900  0.852800  0.707300  1.0  0.1086
  H  H123  1  0.998100  0.687400  0.775000  1.0  0.0581
  H  H124  1  0.988800  0.638000  0.822200  1.0  0.0665
  H  H125  1  0.891800  0.633200  0.736300  1.0  0.0965
  H  H126  1  0.794800  0.585200  0.670700  1.0  0.0457
  H  H127  1  0.916700  0.480400  0.623300  1.0  0.0495
  H  H128  1  0.015700  0.524000  0.689000  1.0  0.1001
  H  H129  1  0.398100  0.122800  0.005500  1.0  0.0576
  H  H130  1  0.425400  0.199600  0.938300  1.0  0.1011
  H  H131  1  0.182700  0.119800  0.900200  1.0  0.1043
  H  H132  1  0.162600  0.047800  0.969100  1.0  0.0532
  H  H133  1  0.428500  0.278600  0.885500  1.0  0.0377
  H  H134  1  0.434100  0.230000  0.840900  1.0  0.0461
  H  H135  1  0.286400  0.310200  0.846000  1.0  0.0281
  H  H136  1  0.337000  0.367600  0.806300  1.0  0.0524
  H  H137  1  0.242500  0.381600  0.883700  1.0  0.1081
  H  H138  1  0.194000  0.423800  0.954300  1.0  0.0672
  H  H139  1  0.402800  0.461400  0.032700  1.0  0.0448
  H  H140  1  0.460300  0.424000  0.962600  1.0  0.1107
  H  H141  1  0.326300  0.284800  0.736500  1.0  0.0731
  H  H142  1  0.277200  0.227600  0.777000  1.0  0.0562
  H  H143  1  0.236600  0.179000  0.696800  1.0  0.0914
  H  H144  1  0.195100  0.104200  0.626700  1.0  0.0548
  H  H145  1  0.394600  0.070400  0.639600  1.0  0.0469
  H  H146  1  0.445100  0.147200  0.707300  1.0  0.1087
  H  H147  1  0.501900  0.312600  0.775000  1.0  0.0573
  H  H148  1  0.511200  0.362000  0.822200  1.0  0.0626
  H  H149  1  0.608200  0.366800  0.736300  1.0  0.0962
  H  H150  1  0.705200  0.414800  0.670700  1.0  0.0451
  H  H151  1  0.583300  0.519600  0.623300  1.0  0.0491
  H  H152  1  0.484300  0.476000  0.689000  1.0  0.0994
  H  H153  1  0.224700  0.122800  0.505500  1.0  0.0564
  H  H154  1  0.274200  0.199600  0.438300  1.0  0.1009
  H  H155  1  0.437100  0.119800  0.400200  1.0  0.1042
  H  H156  1  0.385200  0.047800  0.469100  1.0  0.0537
  H  H157  1  0.350100  0.278600  0.385500  1.0  0.0381
  H  H158  1  0.295900  0.230000  0.340900  1.0  0.0455
  H  H159  1  0.523800  0.310200  0.346000  1.0  0.0286
  H  H160  1  0.530600  0.367600  0.306300  1.0  0.0522
  H  H161  1  0.639100  0.381600  0.383700  1.0  0.1079
  H  H162  1  0.729800  0.423800  0.454300  1.0  0.0659
  H  H163  1  0.558600  0.461400  0.532700  1.0  0.0447
  H  H164  1  0.463700  0.424000  0.462600  1.0  0.1117
  H  H165  1  0.458500  0.284800  0.236500  1.0  0.0733
  H  H166  1  0.450400  0.227600  0.277000  1.0  0.0562
  H  H167  1  0.442400  0.179000  0.196800  1.0  0.0921
  H  H168  1  0.409100  0.104200  0.126700  1.0  0.0574
  H  H169  1  0.175800  0.070400  0.139600  1.0  0.0466
  H  H170  1  0.202100  0.147200  0.207300  1.0  0.1088
  H  H171  1  0.310700  0.312600  0.275000  1.0  0.0584
  H  H172  1  0.350800  0.362000  0.322200  1.0  0.0675
  H  H173  1  0.258600  0.366800  0.236300  1.0  0.0959
  H  H174  1  0.209600  0.414800  0.170700  1.0  0.0453
  H  H175  1  0.436300  0.519600  0.123300  1.0  0.0494
  H  H176  1  0.491700  0.476000  0.189000  1.0  0.1002
  H  H177  1  0.275300  0.877200  0.505500  1.0  0.0569
  H  H178  1  0.225800  0.800400  0.438300  1.0  0.1022
  H  H179  1  0.062900  0.880200  0.400200  1.0  0.1045
  H  H180  1  0.114800  0.952200  0.469100  1.0  0.053
  H  H181  1  0.149900  0.721400  0.385500  1.0  0.0384
  H  H182  1  0.204100  0.770000  0.340900  1.0  0.0467
  H  H183  1  0.976200  0.689800  0.346000  1.0  0.0292
  H  H184  1  0.969400  0.632400  0.306300  1.0  0.0523
  H  H185  1  0.860900  0.618400  0.383700  1.0  0.108
  H  H186  1  0.770200  0.576200  0.454300  1.0  0.0673
  H  H187  1  0.941400  0.538600  0.532700  1.0  0.0442
  H  H188  1  0.036300  0.576000  0.462600  1.0  0.1102
  H  H189  1  0.041500  0.715200  0.236500  1.0  0.073
  H  H190  1  0.049600  0.772400  0.277000  1.0  0.0565
  H  H191  1  0.057600  0.821000  0.196800  1.0  0.0916
  H  H192  1  0.090900  0.895800  0.126700  1.0  0.0565
  H  H193  1  0.324200  0.929600  0.139600  1.0  0.0473
  H  H194  1  0.297900  0.852800  0.207300  1.0  0.1085
  H  H195  1  0.189300  0.687400  0.275000  1.0  0.0578
  H  H196  1  0.149200  0.638000  0.322200  1.0  0.0617
  H  H197  1  0.241400  0.633200  0.236300  1.0  0.0965
  H  H198  1  0.290400  0.585200  0.170700  1.0  0.0453
  H  H199  1  0.063700  0.480400  0.123300  1.0  0.0491
  H  H200  1  0.008300  0.524000  0.189000  1.0  0.0993
  C  C201  1  0.731200  0.877800  0.516060  1.0  0.1449
  C  C202  1  0.702310  0.831620  0.556910  1.0  -0.3151
  C  C203  1  0.639900  0.832400  0.589640  1.0  0.3606
  C  C204  1  0.606810  0.878220  0.578940  1.0  -0.2399
  C  C205  1  0.638520  0.921440  0.537280  1.0  0.1596
  C  C206  1  0.647210  0.746820  0.645590  1.0  0.0411
  C  C207  1  0.591650  0.702560  0.688450  1.0  -0.0086
  C  C208  1  0.504240  0.661680  0.666360  1.0  0.0511
  C  C209  1  0.458110  0.601820  0.584160  1.0  0.3151
  C  C210  1  0.378460  0.601720  0.586450  1.0  -0.3429
  C  C211  1  0.324690  0.576580  0.543780  1.0  0.1492
  C  C212  1  0.424540  0.554080  0.498070  1.0  0.1707
  C  C213  1  0.482670  0.577140  0.539660  1.0  -0.3006
  C  C214  1  0.576210  0.743420  0.735590  1.0  -0.0391
  C  C215  1  0.672380  0.825360  0.793420  1.0  0.3371
  C  C216  1  0.613280  0.840760  0.815100  1.0  -0.2614
  C  C217  1  0.634370  0.887540  0.856710  1.0  0.1218
  C  C218  1  0.768260  0.906720  0.849900  1.0  0.1651
  C  C219  1  0.753230  0.859860  0.808840  1.0  -0.2909
  C  C220  1  0.636390  0.660380  0.707860  1.0  -0.0003
  C  C221  1  0.618890  0.586980  0.781850  1.0  0.3536
  C  C222  1  0.703440  0.603080  0.786970  1.0  -0.3333
  C  C223  1  0.732350  0.574300  0.826960  1.0  0.1698
  C  C224  1  0.600340  0.512880  0.854500  1.0  0.1308
  C  C225  1  0.566790  0.538980  0.815130  1.0  -0.2423
  C  C226  1  0.768800  0.122200  0.516060  1.0  0.144
  C  C227  1  0.797690  0.168380  0.556910  1.0  -0.3192
  C  C228  1  0.860100  0.167600  0.589640  1.0  0.3604
  C  C229  1  0.893190  0.121780  0.578940  1.0  -0.2382
  C  C230  1  0.861480  0.078560  0.537280  1.0  0.1596
  C  C231  1  0.852790  0.253180  0.645590  1.0  0.0391
  C  C232  1  0.908350  0.297440  0.688450  1.0  -0.0074
  C  C233  1  0.995760  0.338320  0.666360  1.0  0.05
  C  C234  1  0.041890  0.398180  0.584160  1.0  0.316
  C  C235  1  0.121540  0.398280  0.586450  1.0  -0.3424
  C  C236  1  0.175310  0.423420  0.543780  1.0  0.1521
  C  C237  1  0.075460  0.445920  0.498070  1.0  0.1706
  C  C238  1  0.017330  0.422860  0.539660  1.0  -0.302
  C  C239  1  0.923790  0.256580  0.735590  1.0  -0.0346
  C  C240  1  0.827620  0.174640  0.793420  1.0  0.3376
  C  C241  1  0.886720  0.159240  0.815100  1.0  -0.2593
  C  C242  1  0.865630  0.112460  0.856710  1.0  0.1228
  C  C243  1  0.731740  0.093280  0.849900  1.0  0.1639
  C  C244  1  0.746770  0.140140  0.808840  1.0  -0.2888
  C  C245  1  0.863610  0.339620  0.707860  1.0  -0.0003
  C  C246  1  0.881110  0.413020  0.781850  1.0  0.3532
  C  C247  1  0.796560  0.396920  0.786970  1.0  -0.3341
  C  C248  1  0.767650  0.425700  0.826960  1.0  0.1711
  C  C249  1  0.899660  0.487120  0.854500  1.0  0.132
  C  C250  1  0.933210  0.461020  0.815130  1.0  -0.2405
  C  C251  1  0.853400  0.122200  0.016060  1.0  0.1451
  C  C252  1  0.870690  0.168380  0.056910  1.0  -0.3147
  C  C253  1  0.807500  0.167600  0.089640  1.0  0.3604
  C  C254  1  0.728590  0.121780  0.078940  1.0  -0.239
  C  C255  1  0.717080  0.078560  0.037280  1.0  0.1602
  C  C256  1  0.900390  0.253180  0.145590  1.0  0.0404
  C  C257  1  0.889090  0.297440  0.188450  1.0  -0.0082
  C  C258  1  0.842560  0.338320  0.166360  1.0  0.05
  C  C259  1  0.856290  0.398180  0.084160  1.0  0.3148
  C  C260  1  0.776740  0.398280  0.086450  1.0  -0.3428
  C  C261  1  0.748110  0.423420  0.043780  1.0  0.1496
  C  C262  1  0.870460  0.445920  0.998070  1.0  0.1704
  C  C263  1  0.905530  0.422860  0.039660  1.0  -0.3005
  C  C264  1  0.832790  0.256580  0.235590  1.0  -0.0382
  C  C265  1  0.847020  0.174640  0.293420  1.0  0.337
  C  C266  1  0.772520  0.159240  0.315100  1.0  -0.2609
  C  C267  1  0.746830  0.112460  0.356710  1.0  0.1224
  C  C268  1  0.861540  0.093280  0.349900  1.0  0.1651
  C  C269  1  0.893370  0.140140  0.308840  1.0  -0.2908
  C  C270  1  0.976010  0.339620  0.207860  1.0  1e-04
  C  C271  1  0.031910  0.413020  0.281850  1.0  0.3534
  C  C272  1  0.100360  0.396920  0.286970  1.0  -0.3327
  C  C273  1  0.158050  0.425700  0.326960  1.0  0.1702
  C  C274  1  0.087460  0.487120  0.354500  1.0  0.1321
  C  C275  1  0.027810  0.461020  0.315130  1.0  -0.2418
  C  C276  1  0.646600  0.877800  0.016060  1.0  0.1439
  C  C277  1  0.629310  0.831620  0.056910  1.0  -0.3192
  C  C278  1  0.692500  0.832400  0.089640  1.0  0.3602
  C  C279  1  0.771410  0.878220  0.078940  1.0  -0.2385
  C  C280  1  0.782920  0.921440  0.037280  1.0  0.1598
  C  C281  1  0.599610  0.746820  0.145590  1.0  0.0389
  C  C282  1  0.610910  0.702560  0.188450  1.0  -0.0079
  C  C283  1  0.657440  0.661680  0.166360  1.0  0.0503
  C  C284  1  0.643710  0.601820  0.084160  1.0  0.316
  C  C285  1  0.723260  0.601720  0.086450  1.0  -0.3425
  C  C286  1  0.751890  0.576580  0.043780  1.0  0.1517
  C  C287  1  0.629540  0.554080  0.998070  1.0  0.1705
  C  C288  1  0.594470  0.577140  0.039660  1.0  -0.302
  C  C289  1  0.667210  0.743420  0.235590  1.0  -0.0348
  C  C290  1  0.652980  0.825360  0.293420  1.0  0.3384
  C  C291  1  0.727480  0.840760  0.315100  1.0  -0.2602
  C  C292  1  0.753170  0.887540  0.356710  1.0  0.1225
  C  C293  1  0.638460  0.906720  0.349900  1.0  0.1633
  C  C294  1  0.606630  0.859860  0.308840  1.0  -0.2894
  C  C295  1  0.523990  0.660380  0.207860  1.0  -0.0006
  C  C296  1  0.468090  0.586980  0.281850  1.0  0.3533
  C  C297  1  0.399640  0.603080  0.286970  1.0  -0.3349
  C  C298  1  0.341950  0.574300  0.326960  1.0  0.1698
  C  C299  1  0.412540  0.512880  0.354500  1.0  0.1322
  C  C300  1  0.472190  0.538980  0.315130  1.0  -0.2411
  C  C301  1  0.146600  0.877800  0.983940  1.0  0.143
  C  C302  1  0.129310  0.831620  0.943090  1.0  -0.3202
  C  C303  1  0.192500  0.832400  0.910360  1.0  0.36
  C  C304  1  0.271410  0.878220  0.921060  1.0  -0.2386
  C  C305  1  0.282920  0.921440  0.962720  1.0  0.1588
  C  C306  1  0.099610  0.746820  0.854410  1.0  0.0398
  C  C307  1  0.110910  0.702560  0.811550  1.0  -0.0078
  C  C308  1  0.157440  0.661680  0.833640  1.0  0.0496
  C  C309  1  0.143710  0.601820  0.915840  1.0  0.3159
  C  C310  1  0.223260  0.601720  0.913550  1.0  -0.342
  C  C311  1  0.251890  0.576580  0.956220  1.0  0.1506
  C  C312  1  0.129540  0.554080  0.001930  1.0  0.1709
  C  C313  1  0.094470  0.577140  0.960340  1.0  -0.301
  C  C314  1  0.167210  0.743420  0.764410  1.0  -0.0343
  C  C315  1  0.152980  0.825360  0.706580  1.0  0.3382
  C  C316  1  0.227480  0.840760  0.684900  1.0  -0.2593
  C  C317  1  0.253170  0.887540  0.643290  1.0  0.1227
  C  C318  1  0.138460  0.906720  0.650100  1.0  0.1644
  C  C319  1  0.106630  0.859860  0.691160  1.0  -0.29
  C  C320  1  0.023990  0.660380  0.792140  1.0  -0.0008
  C  C321  1  0.968090  0.586980  0.718150  1.0  0.3531
  C  C322  1  0.899640  0.603080  0.713030  1.0  -0.3346
  C  C323  1  0.841950  0.574300  0.673040  1.0  0.1704
  C  C324  1  0.912540  0.512880  0.645500  1.0  0.1313
  C  C325  1  0.972190  0.538980  0.684870  1.0  -0.2411
  C  C326  1  0.353400  0.122200  0.983940  1.0  0.1438
  C  C327  1  0.370690  0.168380  0.943090  1.0  -0.3153
  C  C328  1  0.307500  0.167600  0.910360  1.0  0.3603
  C  C329  1  0.228590  0.121780  0.921060  1.0  -0.2387
  C  C330  1  0.217080  0.078560  0.962720  1.0  0.1596
  C  C331  1  0.400390  0.253180  0.854410  1.0  0.0423
  C  C332  1  0.389090  0.297440  0.811550  1.0  -0.0082
  C  C333  1  0.342560  0.338320  0.833640  1.0  0.0501
  C  C334  1  0.356290  0.398180  0.915840  1.0  0.3149
  C  C335  1  0.276740  0.398280  0.913550  1.0  -0.3422
  C  C336  1  0.248110  0.423420  0.956220  1.0  0.149
  C  C337  1  0.370460  0.445920  0.001930  1.0  0.1715
  C  C338  1  0.405530  0.422860  0.960340  1.0  -0.2992
  C  C339  1  0.332790  0.256580  0.764410  1.0  -0.0375
  C  C340  1  0.347020  0.174640  0.706580  1.0  0.3369
  C  C341  1  0.272520  0.159240  0.684900  1.0  -0.2606
  C  C342  1  0.246830  0.112460  0.643290  1.0  0.1224
  C  C343  1  0.361540  0.093280  0.650100  1.0  0.1651
  C  C344  1  0.393370  0.140140  0.691160  1.0  -0.2901
  C  C345  1  0.476010  0.339620  0.792140  1.0  0.0002
  C  C346  1  0.531910  0.413020  0.718150  1.0  0.3521
  C  C347  1  0.600360  0.396920  0.713030  1.0  -0.333
  C  C348  1  0.658050  0.425700  0.673040  1.0  0.1703
  C  C349  1  0.587460  0.487120  0.645500  1.0  0.1319
  C  C350  1  0.527810  0.461020  0.684870  1.0  -0.2426
  C  C351  1  0.268800  0.122200  0.483940  1.0  0.143
  C  C352  1  0.297690  0.168380  0.443090  1.0  -0.3202
  C  C353  1  0.360100  0.167600  0.410360  1.0  0.3602
  C  C354  1  0.393190  0.121780  0.421060  1.0  -0.2382
  C  C355  1  0.361480  0.078560  0.462720  1.0  0.1589
  C  C356  1  0.352790  0.253180  0.354410  1.0  0.0411
  C  C357  1  0.408350  0.297440  0.311550  1.0  -0.0074
  C  C358  1  0.495760  0.338320  0.333640  1.0  0.0493
  C  C359  1  0.541890  0.398180  0.415840  1.0  0.3156
  C  C360  1  0.621540  0.398280  0.413550  1.0  -0.3422
  C  C361  1  0.675310  0.423420  0.456220  1.0  0.1511
  C  C362  1  0.575460  0.445920  0.501930  1.0  0.1715
  C  C363  1  0.517330  0.422860  0.460340  1.0  -0.3008
  C  C364  1  0.423790  0.256580  0.264410  1.0  -0.0345
  C  C365  1  0.327620  0.174640  0.206580  1.0  0.3374
  C  C366  1  0.386720  0.159240  0.184900  1.0  -0.2583
  C  C367  1  0.365630  0.112460  0.143290  1.0  0.1224
  C  C368  1  0.231740  0.093280  0.150100  1.0  0.1648
  C  C369  1  0.246770  0.140140  0.191160  1.0  -0.2897
  C  C370  1  0.363610  0.339620  0.292140  1.0  -0.0003
  C  C371  1  0.381110  0.413020  0.218150  1.0  0.3527
  C  C372  1  0.296560  0.396920  0.213030  1.0  -0.3339
  C  C373  1  0.267650  0.425700  0.173040  1.0  0.1704
  C  C374  1  0.399660  0.487120  0.145500  1.0  0.1321
  C  C375  1  0.433210  0.461020  0.184870  1.0  -0.2411
  C  C376  1  0.231200  0.877800  0.483940  1.0  0.1438
  C  C377  1  0.202310  0.831620  0.443090  1.0  -0.3159
  C  C378  1  0.139900  0.832400  0.410360  1.0  0.3605
  C  C379  1  0.106810  0.878220  0.421060  1.0  -0.2394
  C  C380  1  0.138520  0.921440  0.462720  1.0  0.1586
  C  C381  1  0.147210  0.746820  0.354410  1.0  0.0424
  C  C382  1  0.091650  0.702560  0.311550  1.0  -0.0085
  C  C383  1  0.004240  0.661680  0.333640  1.0  0.051
  C  C384  1  0.958110  0.601820  0.415840  1.0  0.3153
  C  C385  1  0.878460  0.601720  0.413550  1.0  -0.342
  C  C386  1  0.824690  0.576580  0.456220  1.0  0.1486
  C  C387  1  0.924540  0.554080  0.501930  1.0  0.1712
  C  C388  1  0.982670  0.577140  0.460340  1.0  -0.2993
  C  C389  1  0.076210  0.743420  0.264410  1.0  -0.0378
  C  C390  1  0.172380  0.825360  0.206580  1.0  0.3372
  C  C391  1  0.113280  0.840760  0.184900  1.0  -0.2611
  C  C392  1  0.134370  0.887540  0.143290  1.0  0.122
  C  C393  1  0.268260  0.906720  0.150100  1.0  0.1653
  C  C394  1  0.253230  0.859860  0.191160  1.0  -0.2899
  C  C395  1  0.136390  0.660380  0.292140  1.0  -1e-04
  C  C396  1  0.118890  0.586980  0.218150  1.0  0.3528
  C  C397  1  0.203440  0.603080  0.213030  1.0  -0.3332
  C  C398  1  0.232350  0.574300  0.173040  1.0  0.171
  C  C399  1  0.100340  0.512880  0.145500  1.0  0.1316
  C  C400  1  0.066790  0.538980  0.184870  1.0  -0.2427
  N  N401  1  0.699660  0.921980  0.506350  1.0  -0.3544
  N  N402  1  0.347220  0.552640  0.499500  1.0  -0.3885
  N  N403  1  0.683520  0.532460  0.862100  1.0  -0.3478
  N  N404  1  0.712620  0.920060  0.873290  1.0  -0.312
  N  N405  1  0.800340  0.078020  0.506350  1.0  -0.3549
  N  N406  1  0.152780  0.447360  0.499500  1.0  -0.3887
  N  N407  1  0.816480  0.467540  0.862100  1.0  -0.3501
  N  N408  1  0.787380  0.079940  0.873290  1.0  -0.3116
  N  N409  1  0.777680  0.078020  0.006350  1.0  -0.3547
  N  N410  1  0.794580  0.447360  0.999500  1.0  -0.3886
  N  N411  1  0.151060  0.467540  0.362100  1.0  -0.3477
  N  N412  1  0.792560  0.079940  0.373290  1.0  -0.3118
  N  N413  1  0.722320  0.921980  0.006350  1.0  -0.3545
  N  N414  1  0.705420  0.552640  0.999500  1.0  -0.3888
  N  N415  1  0.348940  0.532460  0.362100  1.0  -0.3495
  N  N416  1  0.707440  0.920060  0.373290  1.0  -0.3124
  N  N417  1  0.222320  0.921980  0.993650  1.0  -0.354
  N  N418  1  0.205420  0.552640  0.000500  1.0  -0.3871
  N  N419  1  0.848940  0.532460  0.637900  1.0  -0.3513
  N  N420  1  0.207440  0.920060  0.626710  1.0  -0.3121
  N  N421  1  0.277680  0.078020  0.993650  1.0  -0.3531
  N  N422  1  0.294580  0.447360  0.000500  1.0  -0.3883
  N  N423  1  0.651060  0.467540  0.637900  1.0  -0.3497
  N  N424  1  0.292560  0.079940  0.626710  1.0  -0.3118
  N  N425  1  0.300340  0.078020  0.493650  1.0  -0.3533
  N  N426  1  0.652780  0.447360  0.500500  1.0  -0.3868
  N  N427  1  0.316480  0.467540  0.137900  1.0  -0.3511
  N  N428  1  0.287380  0.079940  0.126710  1.0  -0.3117
  N  N429  1  0.199660  0.921980  0.493650  1.0  -0.354
  N  N430  1  0.847220  0.552640  0.500500  1.0  -0.3884
  N  N431  1  0.183520  0.532460  0.137900  1.0  -0.3502
  N  N432  1  0.212620  0.920060  0.126710  1.0  -0.3115
  O  O433  1  0.608650  0.792760  0.631490  1.0  -0.2954
  O  O434  1  0.518130  0.625160  0.622710  1.0  -0.3014
  O  O435  1  0.664830  0.781440  0.754800  1.0  -0.3613
  O  O436  1  0.582030  0.612460  0.746070  1.0  -0.2969
  O  O437  1  0.891350  0.207240  0.631490  1.0  -0.2957
  O  O438  1  0.981870  0.374840  0.622710  1.0  -0.2987
  O  O439  1  0.835170  0.218560  0.754800  1.0  -0.3621
  O  O440  1  0.917970  0.387540  0.746070  1.0  -0.2926
  O  O441  1  0.815890  0.207240  0.131490  1.0  -0.2961
  O  O442  1  0.892970  0.374840  0.122710  1.0  -0.2999
  O  O443  1  0.883390  0.218560  0.254800  1.0  -0.3606
  O  O444  1  0.969570  0.387540  0.246070  1.0  -0.2959
  O  O445  1  0.684110  0.792760  0.131490  1.0  -0.2966
  O  O446  1  0.607030  0.625160  0.122710  1.0  -0.3006
  O  O447  1  0.616610  0.781440  0.254800  1.0  -0.362
  O  O448  1  0.530430  0.612460  0.246070  1.0  -0.2924
  O  O449  1  0.184110  0.792760  0.868510  1.0  -0.2979
  O  O450  1  0.107030  0.625160  0.877290  1.0  -0.3001
  O  O451  1  0.116610  0.781440  0.745200  1.0  -0.3614
  O  O452  1  0.030430  0.612460  0.753930  1.0  -0.2935
  O  O453  1  0.315890  0.207240  0.868510  1.0  -0.296
  O  O454  1  0.392970  0.374840  0.877290  1.0  -0.3001
  O  O455  1  0.383390  0.218560  0.745200  1.0  -0.361
  O  O456  1  0.469570  0.387540  0.753930  1.0  -0.2948
  O  O457  1  0.391350  0.207240  0.368510  1.0  -0.2961
  O  O458  1  0.481870  0.374840  0.377290  1.0  -0.2993
  O  O459  1  0.335170  0.218560  0.245200  1.0  -0.3628
  O  O460  1  0.417970  0.387540  0.253930  1.0  -0.293
  O  O461  1  0.108650  0.792760  0.368510  1.0  -0.2966
  O  O462  1  0.018130  0.625160  0.377290  1.0  -0.3005
  O  O463  1  0.164830  0.781440  0.245200  1.0  -0.3605
  O  O464  1  0.082030  0.612460  0.253930  1.0  -0.297
