# generated using pymatgen
data_Ni3H34C57N3O13
_symmetry_space_group_name_H-M   'P 1'
_cell_length_a   18.85230000
_cell_length_b   18.85230000
_cell_length_c   18.85230000
_cell_angle_alpha   60.51770000
_cell_angle_beta   60.51770000
_cell_angle_gamma   60.51770000
_symmetry_Int_Tables_number   1
_chemical_formula_structural   Ni3H34C57N3O13
_chemical_formula_sum   'Ni6 H68 C114 N6 O26'
_cell_volume   4793.24007900
_cell_formula_units_Z   2
loop_
 _symmetry_equiv_pos_site_id
 _symmetry_equiv_pos_as_xyz
  1  'x, y, z'
loop_
 _atom_site_type_symbol
 _atom_site_label
 _atom_site_symmetry_multiplicity
 _atom_site_fract_x
 _atom_site_fract_y
 _atom_site_fract_z
 _atom_site_occupancy
 _atom_site_charge
  Ni  Ni1  1  0.351290  0.251260  0.148320  1.0  0.7728
  Ni  Ni2  1  0.148550  0.351220  0.251100  1.0  0.7748
  Ni  Ni3  1  0.251330  0.148480  0.351070  1.0  0.7764
  Ni  Ni4  1  0.648550  0.751260  0.851070  1.0  0.7735
  Ni  Ni5  1  0.851290  0.648480  0.751110  1.0  0.7742
  Ni  Ni6  1  0.751330  0.851220  0.648320  1.0  0.774
  H  H7  1  0.744340  0.295760  0.893610  1.0  0.1361
  H  H8  1  0.801030  0.408610  0.854700  1.0  0.1331
  H  H9  1  0.548950  0.597800  0.859520  1.0  0.1319
  H  H10  1  0.491750  0.485530  0.905000  1.0  0.148
  H  H11  1  0.480590  0.348260  0.046290  1.0  0.1175
  H  H12  1  0.893830  0.744280  0.295600  1.0  0.1382
  H  H13  1  0.854920  0.800970  0.408460  1.0  0.1339
  H  H14  1  0.859750  0.548880  0.597640  1.0  0.1328
  H  H15  1  0.905230  0.491690  0.485370  1.0  0.1419
  H  H16  1  0.046520  0.480530  0.348100  1.0  0.1188
  H  H17  1  0.295830  0.893770  0.744120  1.0  0.1364
  H  H18  1  0.408680  0.854850  0.800810  1.0  0.1326
  H  H19  1  0.597870  0.859680  0.548730  1.0  0.1343
  H  H20  1  0.485590  0.905160  0.491530  1.0  0.1458
  H  H21  1  0.348330  0.046450  0.480370  1.0  0.1174
  H  H22  1  0.208590  0.752750  0.604560  1.0  0.1406
  H  H23  1  0.095230  0.696220  0.644380  1.0  0.1322
  H  H24  1  0.907010  0.949080  0.637520  1.0  0.1413
  H  H25  1  0.019560  0.005930  0.591550  1.0  0.141
  H  H26  1  0.154900  0.018110  0.451620  1.0  0.1153
  H  H27  1  0.752820  0.604720  0.208370  1.0  0.1404
  H  H28  1  0.696290  0.644530  0.095000  1.0  0.1339
  H  H29  1  0.949150  0.637680  0.906780  1.0  0.1396
  H  H30  1  0.006000  0.591710  0.019330  1.0  0.1398
  H  H31  1  0.018180  0.451780  0.154670  1.0  0.115
  H  H32  1  0.604790  0.208530  0.752600  1.0  0.1444
  H  H33  1  0.644600  0.095160  0.696060  1.0  0.1325
  H  H34  1  0.637740  0.906940  0.948920  1.0  0.1398
  H  H35  1  0.591780  0.019490  0.005770  1.0  0.1381
  H  H36  1  0.451840  0.154830  0.017950  1.0  0.1165
  H  H37  1  0.252820  0.708530  0.104560  1.0  0.1403
  H  H38  1  0.196290  0.595160  0.144370  1.0  0.1328
  H  H39  1  0.449150  0.406940  0.137520  1.0  0.1422
  H  H40  1  0.506000  0.519490  0.091550  1.0  0.1416
  H  H41  1  0.518180  0.654830  0.951620  1.0  0.1155
  H  H42  1  0.104780  0.252750  0.708370  1.0  0.1418
  H  H43  1  0.144600  0.196220  0.595000  1.0  0.1341
  H  H44  1  0.137740  0.449080  0.406780  1.0  0.1388
  H  H45  1  0.091780  0.505930  0.519330  1.0  0.1398
  H  H46  1  0.951840  0.518110  0.654670  1.0  0.1161
  H  H47  1  0.708590  0.104720  0.252600  1.0  0.1389
  H  H48  1  0.595230  0.144530  0.196060  1.0  0.1323
  H  H49  1  0.407010  0.137680  0.448920  1.0  0.1408
  H  H50  1  0.519560  0.091710  0.505770  1.0  0.1412
  H  H51  1  0.654900  0.951780  0.517960  1.0  0.1153
  H  H52  1  0.795830  0.244280  0.393610  1.0  0.1383
  H  H53  1  0.908680  0.300970  0.354700  1.0  0.1328
  H  H54  1  0.097870  0.048880  0.359520  1.0  0.1362
  H  H55  1  0.985590  0.991690  0.405000  1.0  0.1437
  H  H56  1  0.848330  0.980530  0.546290  1.0  0.1177
  H  H57  1  0.244340  0.393770  0.795600  1.0  0.1349
  H  H58  1  0.301030  0.354850  0.908460  1.0  0.1327
  H  H59  1  0.048950  0.359680  0.097640  1.0  0.1328
  H  H60  1  0.991750  0.405160  0.985370  1.0  0.1402
  H  H61  1  0.980590  0.546450  0.848100  1.0  0.1128
  H  H62  1  0.393830  0.795760  0.244120  1.0  0.1391
  H  H63  1  0.354920  0.908610  0.300810  1.0  0.1334
  H  H64  1  0.359750  0.097800  0.048730  1.0  0.1294
  H  H65  1  0.405220  0.985530  0.991530  1.0  0.1422
  H  H66  1  0.546510  0.848260  0.980370  1.0  0.1179
  H  H67  1  0.660340  0.252730  0.836190  1.0  0.1445
  H  H68  1  0.836410  0.660270  0.252580  1.0  0.1448
  H  H69  1  0.252800  0.836340  0.660110  1.0  0.1451
  H  H70  1  0.336410  0.752730  0.160110  1.0  0.1442
  H  H71  1  0.160340  0.336340  0.752570  1.0  0.1443
  H  H72  1  0.752800  0.160270  0.336190  1.0  0.1446
  H  H73  1  0.773020  0.772960  0.772800  1.0  0.1495
  H  H74  1  0.273020  0.272960  0.272800  1.0  0.1495
  C  C75  1  0.700850  0.361480  0.887100  1.0  -0.1131
  C  C76  1  0.733470  0.426580  0.864920  1.0  -0.0711
  C  C77  1  0.592290  0.531990  0.870240  1.0  -0.0881
  C  C78  1  0.559510  0.467200  0.894380  1.0  -0.0921
  C  C79  1  0.612520  0.380290  0.904070  1.0  -0.0273
  C  C80  1  0.679180  0.513250  0.858040  1.0  -0.0932
  C  C81  1  0.572640  0.311280  0.936610  1.0  -0.0249
  C  C82  1  0.499390  0.306640  0.012610  1.0  0.1558
  C  C83  1  0.710470  0.584700  0.837850  1.0  0.6988
  C  C84  1  0.887330  0.700790  0.361320  1.0  -0.1167
  C  C85  1  0.865150  0.733400  0.426420  1.0  -0.0702
  C  C86  1  0.870460  0.592230  0.531830  1.0  -0.0829
  C  C87  1  0.894610  0.559450  0.467040  1.0  -0.1115
  C  C88  1  0.904290  0.612450  0.380130  1.0  -0.028
  C  C89  1  0.858260  0.679120  0.513090  1.0  -0.0916
  C  C90  1  0.936840  0.572570  0.311120  1.0  -0.0272
  C  C91  1  0.012830  0.499330  0.306490  1.0  0.1545
  C  C92  1  0.838080  0.710410  0.584550  1.0  0.7031
  C  C93  1  0.361540  0.887260  0.700630  1.0  -0.1096
  C  C94  1  0.426650  0.865080  0.733240  1.0  -0.0648
  C  C95  1  0.532060  0.870400  0.592070  1.0  -0.0877
  C  C96  1  0.467260  0.894540  0.559290  1.0  -0.0914
  C  C97  1  0.380360  0.904230  0.612290  1.0  -0.0247
  C  C98  1  0.513320  0.858200  0.678960  1.0  -0.094
  C  C99  1  0.311350  0.936770  0.572410  1.0  -0.0269
  C  C100  1  0.306710  0.012770  0.499170  1.0  0.1561
  C  C101  1  0.584770  0.838010  0.710250  1.0  0.7
  C  C102  1  0.142950  0.796400  0.610850  1.0  -0.1214
  C  C103  1  0.077610  0.763880  0.633530  1.0  -0.0696
  C  C104  1  0.972710  0.905480  0.627140  1.0  -0.0887
  C  C105  1  0.037660  0.938100  0.602630  1.0  -0.113
  C  C106  1  0.124420  0.884850  0.593140  1.0  -0.0232
  C  C107  1  0.991100  0.818470  0.640120  1.0  -0.0949
  C  C108  1  0.193480  0.924650  0.560290  1.0  -0.0232
  C  C109  1  0.197290  0.998500  0.484780  1.0  0.1532
  C  C110  1  0.919170  0.787720  0.660840  1.0  0.6779
  C  C111  1  0.796470  0.611000  0.142730  1.0  -0.1147
  C  C112  1  0.763950  0.633690  0.077380  1.0  -0.0712
  C  C113  1  0.905540  0.627300  0.972480  1.0  -0.0854
  C  C114  1  0.938160  0.602790  0.037430  1.0  -0.1085
  C  C115  1  0.884920  0.593300  0.124200  1.0  -0.0256
  C  C116  1  0.818530  0.640280  0.990880  1.0  -0.0923
  C  C117  1  0.924710  0.560450  0.193250  1.0  -0.0231
  C  C118  1  0.998570  0.484940  0.197070  1.0  0.1548
  C  C119  1  0.787790  0.661000  0.918940  1.0  0.6789
  C  C120  1  0.611070  0.142890  0.796240  1.0  -0.1184
  C  C121  1  0.633760  0.077540  0.763720  1.0  -0.0704
  C  C122  1  0.627360  0.972640  0.905320  1.0  -0.087
  C  C123  1  0.602850  0.037590  0.937940  1.0  -0.1076
  C  C124  1  0.593370  0.124360  0.884690  1.0  -0.0261
  C  C125  1  0.640340  0.991040  0.818310  1.0  -0.0953
  C  C126  1  0.560520  0.193410  0.924490  1.0  -0.0206
  C  C127  1  0.485000  0.197220  0.998340  1.0  0.1543
  C  C128  1  0.661070  0.919100  0.787570  1.0  0.678
  C  C129  1  0.296470  0.642890  0.110850  1.0  -0.1185
  C  C130  1  0.263950  0.577540  0.133530  1.0  -0.0724
  C  C131  1  0.405550  0.472640  0.127140  1.0  -0.0895
  C  C132  1  0.438160  0.537590  0.102630  1.0  -0.1122
  C  C133  1  0.384920  0.624360  0.093140  1.0  -0.0242
  C  C134  1  0.318530  0.491040  0.140120  1.0  -0.0936
  C  C135  1  0.424710  0.693410  0.060290  1.0  -0.0214
  C  C136  1  0.498560  0.697220  0.984780  1.0  0.1585
  C  C137  1  0.287790  0.419100  0.160840  1.0  0.6779
  C  C138  1  0.111070  0.296400  0.642730  1.0  -0.1207
  C  C139  1  0.133760  0.263880  0.577380  1.0  -0.0698
  C  C140  1  0.127360  0.405480  0.472480  1.0  -0.0858
  C  C141  1  0.102850  0.438100  0.537430  1.0  -0.1114
  C  C142  1  0.093370  0.384850  0.624200  1.0  -0.0258
  C  C143  1  0.140340  0.318470  0.490880  1.0  -0.0921
  C  C144  1  0.060510  0.424650  0.693250  1.0  -0.0226
  C  C145  1  0.985000  0.498500  0.697070  1.0  0.1538
  C  C146  1  0.161070  0.287720  0.418940  1.0  0.6769
  C  C147  1  0.642950  0.111000  0.296240  1.0  -0.1183
  C  C148  1  0.577610  0.133690  0.263720  1.0  -0.0669
  C  C149  1  0.472710  0.127300  0.405320  1.0  -0.0851
  C  C150  1  0.537660  0.102790  0.437940  1.0  -0.1099
  C  C151  1  0.624420  0.093300  0.384690  1.0  -0.0255
  C  C152  1  0.491100  0.140280  0.318310  1.0  -0.0944
  C  C153  1  0.693480  0.060450  0.424490  1.0  -0.022
  C  C154  1  0.697290  0.984940  0.498340  1.0  0.1595
  C  C155  1  0.419170  0.161000  0.287570  1.0  0.6778
  C  C156  1  0.861540  0.200790  0.387100  1.0  -0.1153
  C  C157  1  0.926650  0.233400  0.364920  1.0  -0.0699
  C  C158  1  0.032060  0.092230  0.370240  1.0  -0.0875
  C  C159  1  0.967260  0.059450  0.394380  1.0  -0.0941
  C  C160  1  0.880360  0.112450  0.404070  1.0  -0.0231
  C  C161  1  0.013320  0.179120  0.358040  1.0  -0.0932
  C  C162  1  0.811350  0.072570  0.436610  1.0  -0.0256
  C  C163  1  0.806710  0.999330  0.512610  1.0  0.1561
  C  C164  1  0.084770  0.210410  0.337850  1.0  0.7003
  C  C165  1  0.200850  0.387260  0.861320  1.0  -0.1117
  C  C166  1  0.233470  0.365080  0.926420  1.0  -0.0707
  C  C167  1  0.092290  0.370400  0.031830  1.0  -0.0831
  C  C168  1  0.059510  0.394540  0.967040  1.0  -0.1088
  C  C169  1  0.112520  0.404230  0.880130  1.0  -0.0286
  C  C170  1  0.179180  0.358200  0.013090  1.0  -0.0933
  C  C171  1  0.072640  0.436770  0.811120  1.0  -0.0263
  C  C172  1  0.999390  0.512770  0.806490  1.0  0.1596
  C  C173  1  0.210470  0.338010  0.084550  1.0  0.7025
  C  C174  1  0.387330  0.861480  0.200630  1.0  -0.1124
  C  C175  1  0.365150  0.926580  0.233240  1.0  -0.0694
  C  C176  1  0.370460  0.031990  0.092070  1.0  -0.088
  C  C177  1  0.394610  0.967200  0.059290  1.0  -0.0908
  C  C178  1  0.404290  0.880290  0.112290  1.0  -0.0273
  C  C179  1  0.358260  0.013250  0.178960  1.0  -0.0947
  C  C180  1  0.436840  0.811280  0.072410  1.0  -0.0271
  C  C181  1  0.512830  0.806640  0.999170  1.0  0.1533
  C  C182  1  0.338080  0.084700  0.210250  1.0  0.7031
  C  C183  1  0.603500  0.252550  0.893310  1.0  -0.0713
  C  C184  1  0.893540  0.603440  0.252390  1.0  -0.0743
  C  C185  1  0.252610  0.893470  0.603280  1.0  -0.0748
  C  C186  1  0.393540  0.752550  0.103280  1.0  -0.0722
  C  C187  1  0.103500  0.393470  0.752390  1.0  -0.0745
  C  C188  1  0.752610  0.103440  0.393310  1.0  -0.0748
  N  N189  1  0.454270  0.251830  0.043540  1.0  -0.2615
  N  N190  1  0.043760  0.454210  0.251670  1.0  -0.2621
  N  N191  1  0.251890  0.043690  0.454050  1.0  -0.2619
  N  N192  1  0.543760  0.751830  0.954050  1.0  -0.2612
  N  N193  1  0.954270  0.543690  0.751670  1.0  -0.2607
  N  N194  1  0.751890  0.954210  0.543540  1.0  -0.2617
  O  O195  1  0.789570  0.579160  0.797240  1.0  -0.6047
  O  O196  1  0.654980  0.649480  0.862020  1.0  -0.6028
  O  O197  1  0.797460  0.789500  0.579000  1.0  -0.5956
  O  O198  1  0.862240  0.654920  0.649320  1.0  -0.6026
  O  O199  1  0.579230  0.797390  0.789340  1.0  -0.6004
  O  O200  1  0.649540  0.862170  0.654760  1.0  -0.6007
  O  O201  1  0.923390  0.708570  0.703650  1.0  -0.6059
  O  O202  1  0.854440  0.844290  0.636090  1.0  -0.5645
  O  O203  1  0.708630  0.703810  0.923160  1.0  -0.6114
  O  O204  1  0.844360  0.636250  0.854220  1.0  -0.5616
  O  O205  1  0.703880  0.923320  0.708410  1.0  -0.6114
  O  O206  1  0.636320  0.854380  0.844130  1.0  -0.5626
  O  O207  1  0.208640  0.423320  0.203650  1.0  -0.6107
  O  O208  1  0.344360  0.354380  0.136090  1.0  -0.5626
  O  O209  1  0.203880  0.208570  0.423160  1.0  -0.6092
  O  O210  1  0.136320  0.344290  0.354220  1.0  -0.5621
  O  O211  1  0.423390  0.203810  0.208410  1.0  -0.6081
  O  O212  1  0.354440  0.136250  0.344130  1.0  -0.5622
  O  O213  1  0.079230  0.289500  0.297230  1.0  -0.6015
  O  O214  1  0.149540  0.154920  0.362020  1.0  -0.6022
  O  O215  1  0.289570  0.297390  0.079000  1.0  -0.6008
  O  O216  1  0.154980  0.362170  0.149320  1.0  -0.6028
  O  O217  1  0.297460  0.079160  0.289340  1.0  -0.6007
  O  O218  1  0.362240  0.149480  0.154760  1.0  -0.6022
  O  O219  1  0.251690  0.251620  0.251460  1.0  -0.7304
  O  O220  1  0.751680  0.751620  0.751460  1.0  -0.7304
