# generated using pymatgen
data_Fe3H33C57N3O13
_symmetry_space_group_name_H-M   'P 1'
_cell_length_a   18.83130000
_cell_length_b   18.83130000
_cell_length_c   18.83130000
_cell_angle_alpha   61.45600000
_cell_angle_beta   61.45600000
_cell_angle_gamma   61.45600000
_symmetry_Int_Tables_number   1
_chemical_formula_structural   Fe3H33C57N3O13
_chemical_formula_sum   'Fe6 H66 C114 N6 O26'
_cell_volume   4876.37801362
_cell_formula_units_Z   2
loop_
 _symmetry_equiv_pos_site_id
 _symmetry_equiv_pos_as_xyz
  1  'x, y, z'
loop_
 _atom_site_type_symbol
 _atom_site_label
 _atom_site_symmetry_multiplicity
 _atom_site_fract_x
 _atom_site_fract_y
 _atom_site_fract_z
 _atom_site_occupancy
 _atom_site_charge
  Fe  Fe1  1  0.348820  0.151180  0.250000  1.0  0.8698
  Fe  Fe2  1  0.250000  0.348820  0.151180  1.0  0.8704
  Fe  Fe3  1  0.151180  0.250000  0.348820  1.0  0.8696
  Fe  Fe4  1  0.651180  0.848820  0.750000  1.0  0.87
  Fe  Fe5  1  0.750000  0.651180  0.848820  1.0  0.8695
  Fe  Fe6  1  0.848820  0.750000  0.651180  1.0  0.8703
  H  H7  1  0.481100  0.031100  0.348000  1.0  0.0764
  H  H8  1  0.496400  0.918000  0.474900  1.0  0.1177
  H  H9  1  0.550900  0.885900  0.578200  1.0  0.1066
  H  H10  1  0.792000  0.825100  0.415300  1.0  0.1113
  H  H11  1  0.737700  0.858900  0.310100  1.0  0.1144
  H  H12  1  0.348000  0.481100  0.031100  1.0  0.0776
  H  H13  1  0.474900  0.496400  0.918000  1.0  0.1184
  H  H14  1  0.578200  0.550900  0.885900  1.0  0.1085
  H  H15  1  0.415300  0.792000  0.825100  1.0  0.1104
  H  H16  1  0.310100  0.737700  0.858900  1.0  0.1145
  H  H17  1  0.031100  0.348000  0.481100  1.0  0.0773
  H  H18  1  0.918000  0.474900  0.496400  1.0  0.1183
  H  H19  1  0.885900  0.578200  0.550900  1.0  0.1084
  H  H20  1  0.825100  0.415300  0.792000  1.0  0.1111
  H  H21  1  0.858900  0.310100  0.737700  1.0  0.1136
  H  H22  1  0.468900  0.018900  0.152000  1.0  0.0773
  H  H23  1  0.582000  0.003600  0.025100  1.0  0.1187
  H  H24  1  0.614100  0.949100  0.921800  1.0  0.1063
  H  H25  1  0.674900  0.708000  0.084700  1.0  0.1119
  H  H26  1  0.641100  0.762300  0.189900  1.0  0.1142
  H  H27  1  0.018900  0.152000  0.468900  1.0  0.0759
  H  H28  1  0.003600  0.025100  0.582000  1.0  0.1181
  H  H29  1  0.949100  0.921800  0.614100  1.0  0.1087
  H  H30  1  0.708000  0.084700  0.674900  1.0  0.1119
  H  H31  1  0.762300  0.189900  0.641100  1.0  0.1137
  H  H32  1  0.152000  0.468900  0.018900  1.0  0.0769
  H  H33  1  0.025100  0.582000  0.003600  1.0  0.1182
  H  H34  1  0.921800  0.614100  0.949100  1.0  0.1073
  H  H35  1  0.084700  0.674900  0.708000  1.0  0.1109
  H  H36  1  0.189900  0.641100  0.762300  1.0  0.1141
  H  H37  1  0.518900  0.968900  0.652000  1.0  0.0768
  H  H38  1  0.503600  0.082000  0.525100  1.0  0.1176
  H  H39  1  0.449100  0.114100  0.421800  1.0  0.1067
  H  H40  1  0.208000  0.174900  0.584700  1.0  0.1113
  H  H41  1  0.262300  0.141100  0.689900  1.0  0.1144
  H  H42  1  0.652000  0.518900  0.968900  1.0  0.0769
  H  H43  1  0.525100  0.503600  0.082000  1.0  0.1192
  H  H44  1  0.421800  0.449100  0.114100  1.0  0.1077
  H  H45  1  0.584700  0.208000  0.174900  1.0  0.1107
  H  H46  1  0.689900  0.262300  0.141100  1.0  0.1139
  H  H47  1  0.968900  0.652000  0.518900  1.0  0.0773
  H  H48  1  0.082000  0.525100  0.503600  1.0  0.1185
  H  H49  1  0.114100  0.421800  0.449100  1.0  0.1079
  H  H50  1  0.174900  0.584700  0.208000  1.0  0.1117
  H  H51  1  0.141100  0.689900  0.262300  1.0  0.1138
  H  H52  1  0.531100  0.981100  0.848000  1.0  0.0771
  H  H53  1  0.418000  0.996400  0.974900  1.0  0.119
  H  H54  1  0.385900  0.050900  0.078200  1.0  0.1066
  H  H55  1  0.325100  0.292000  0.915300  1.0  0.1121
  H  H56  1  0.358900  0.237700  0.810100  1.0  0.1144
  H  H57  1  0.981100  0.848000  0.531100  1.0  0.0767
  H  H58  1  0.996400  0.974900  0.418000  1.0  0.1188
  H  H59  1  0.050900  0.078200  0.385900  1.0  0.1089
  H  H60  1  0.292000  0.915300  0.325100  1.0  0.1106
  H  H61  1  0.237700  0.810100  0.358900  1.0  0.1135
  H  H62  1  0.848000  0.531100  0.981100  1.0  0.0763
  H  H63  1  0.974900  0.418000  0.996400  1.0  0.1183
  H  H64  1  0.078200  0.385900  0.050900  1.0  0.1076
  H  H65  1  0.915300  0.325100  0.292000  1.0  0.1106
  H  H66  1  0.810100  0.358900  0.237700  1.0  0.1136
  H  H67  1  0.658050  0.841950  0.250000  1.0  0.1127
  H  H68  1  0.250000  0.658050  0.841950  1.0  0.1132
  H  H69  1  0.841950  0.250000  0.658050  1.0  0.1131
  H  H70  1  0.341950  0.158050  0.750000  1.0  0.1129
  H  H71  1  0.750000  0.341950  0.158050  1.0  0.113
  H  H72  1  0.158050  0.750000  0.341950  1.0  0.113
  C  C73  1  0.503710  0.003710  0.306910  1.0  0.1143
  C  C74  1  0.576940  0.931540  0.309240  1.0  -0.0312
  C  C75  1  0.712570  0.838350  0.570910  1.0  0.6813
  C  C76  1  0.610390  0.894590  0.381890  1.0  0.0599
  C  C77  1  0.556500  0.900100  0.462100  1.0  -0.1514
  C  C78  1  0.588940  0.880040  0.523940  1.0  -0.0521
  C  C79  1  0.676020  0.851620  0.507520  1.0  -0.1171
  C  C80  1  0.732090  0.844190  0.426990  1.0  -0.0485
  C  C81  1  0.699870  0.864870  0.364370  1.0  -0.1493
  C  C82  1  0.306910  0.503710  0.003710  1.0  0.1162
  C  C83  1  0.309240  0.576940  0.931540  1.0  -0.0301
  C  C84  1  0.570910  0.712570  0.838350  1.0  0.6821
  C  C85  1  0.381890  0.610390  0.894590  1.0  0.0595
  C  C86  1  0.462100  0.556500  0.900100  1.0  -0.1533
  C  C87  1  0.523940  0.588940  0.880040  1.0  -0.0509
  C  C88  1  0.507520  0.676020  0.851620  1.0  -0.1138
  C  C89  1  0.426990  0.732090  0.844190  1.0  -0.0483
  C  C90  1  0.364370  0.699870  0.864870  1.0  -0.1529
  C  C91  1  0.003710  0.306910  0.503710  1.0  0.1143
  C  C92  1  0.931540  0.309240  0.576940  1.0  -0.0318
  C  C93  1  0.838350  0.570910  0.712570  1.0  0.684
  C  C94  1  0.894590  0.381890  0.610390  1.0  0.0576
  C  C95  1  0.900100  0.462100  0.556500  1.0  -0.1508
  C  C96  1  0.880040  0.523940  0.588940  1.0  -0.0551
  C  C97  1  0.851620  0.507520  0.676020  1.0  -0.1161
  C  C98  1  0.844190  0.426990  0.732090  1.0  -0.0498
  C  C99  1  0.864870  0.364370  0.699870  1.0  -0.1512
  C  C100  1  0.496290  0.996290  0.193090  1.0  0.1132
  C  C101  1  0.568460  0.923060  0.190760  1.0  -0.0312
  C  C102  1  0.661650  0.787430  0.929090  1.0  0.6807
  C  C103  1  0.605410  0.889610  0.118110  1.0  0.0584
  C  C104  1  0.599900  0.943500  0.037900  1.0  -0.1508
  C  C105  1  0.619960  0.911060  0.976060  1.0  -0.0517
  C  C106  1  0.648380  0.823980  0.992480  1.0  -0.1154
  C  C107  1  0.655810  0.767910  0.073010  1.0  -0.0483
  C  C108  1  0.635130  0.800130  0.135630  1.0  -0.1514
  C  C109  1  0.996290  0.193090  0.496290  1.0  0.1147
  C  C110  1  0.923060  0.190760  0.568460  1.0  -0.031
  C  C111  1  0.787430  0.929090  0.661650  1.0  0.6832
  C  C112  1  0.889610  0.118110  0.605410  1.0  0.0586
  C  C113  1  0.943500  0.037900  0.599900  1.0  -0.1535
  C  C114  1  0.911060  0.976060  0.619960  1.0  -0.0526
  C  C115  1  0.823980  0.992480  0.648380  1.0  -0.1149
  C  C116  1  0.767910  0.073010  0.655810  1.0  -0.0499
  C  C117  1  0.800130  0.135630  0.635130  1.0  -0.1501
  C  C118  1  0.193090  0.496290  0.996290  1.0  0.1157
  C  C119  1  0.190760  0.568460  0.923060  1.0  -0.0299
  C  C120  1  0.929090  0.661650  0.787430  1.0  0.6851
  C  C121  1  0.118110  0.605410  0.889610  1.0  0.059
  C  C122  1  0.037900  0.599900  0.943500  1.0  -0.1535
  C  C123  1  0.976060  0.619960  0.911060  1.0  -0.0523
  C  C124  1  0.992480  0.648380  0.823980  1.0  -0.1167
  C  C125  1  0.073010  0.655810  0.767910  1.0  -0.0496
  C  C126  1  0.135630  0.635130  0.800130  1.0  -0.1493
  C  C127  1  0.496290  0.996290  0.693090  1.0  0.1159
  C  C128  1  0.423060  0.068460  0.690760  1.0  -0.0315
  C  C129  1  0.287430  0.161650  0.429090  1.0  0.6827
  C  C130  1  0.389610  0.105410  0.618110  1.0  0.0593
  C  C131  1  0.443500  0.099900  0.537900  1.0  -0.1516
  C  C132  1  0.411060  0.119960  0.476060  1.0  -0.0527
  C  C133  1  0.323980  0.148380  0.492480  1.0  -0.1166
  C  C134  1  0.267910  0.155810  0.573010  1.0  -0.0501
  C  C135  1  0.300130  0.135130  0.635630  1.0  -0.1514
  C  C136  1  0.693090  0.496290  0.996290  1.0  0.116
  C  C137  1  0.690760  0.423060  0.068460  1.0  -0.0291
  C  C138  1  0.429090  0.287430  0.161650  1.0  0.6809
  C  C139  1  0.618110  0.389610  0.105410  1.0  0.0604
  C  C140  1  0.537900  0.443500  0.099900  1.0  -0.1529
  C  C141  1  0.476060  0.411060  0.119960  1.0  -0.0515
  C  C142  1  0.492480  0.323980  0.148380  1.0  -0.1152
  C  C143  1  0.573010  0.267910  0.155810  1.0  -0.0492
  C  C144  1  0.635630  0.300130  0.135130  1.0  -0.1514
  C  C145  1  0.996290  0.693090  0.496290  1.0  0.1146
  C  C146  1  0.068460  0.690760  0.423060  1.0  -0.0311
  C  C147  1  0.161650  0.429090  0.287430  1.0  0.6851
  C  C148  1  0.105410  0.618110  0.389610  1.0  0.0574
  C  C149  1  0.099900  0.537900  0.443500  1.0  -0.1518
  C  C150  1  0.119960  0.476060  0.411060  1.0  -0.0523
  C  C151  1  0.148380  0.492480  0.323980  1.0  -0.1173
  C  C152  1  0.155810  0.573010  0.267910  1.0  -0.0498
  C  C153  1  0.135130  0.635630  0.300130  1.0  -0.151
  C  C154  1  0.503710  0.003710  0.806910  1.0  0.1134
  C  C155  1  0.431540  0.076940  0.809240  1.0  -0.032
  C  C156  1  0.338350  0.212570  0.070910  1.0  0.6805
  C  C157  1  0.394590  0.110390  0.881890  1.0  0.0585
  C  C158  1  0.400100  0.056500  0.962100  1.0  -0.1487
  C  C159  1  0.380040  0.088940  0.023940  1.0  -0.0509
  C  C160  1  0.351620  0.176020  0.007520  1.0  -0.1143
  C  C161  1  0.344190  0.232090  0.926990  1.0  -0.0477
  C  C162  1  0.364870  0.199870  0.864370  1.0  -0.1513
  C  C163  1  0.003710  0.806910  0.503710  1.0  0.1131
  C  C164  1  0.076940  0.809240  0.431540  1.0  -0.0314
  C  C165  1  0.212570  0.070910  0.338350  1.0  0.6821
  C  C166  1  0.110390  0.881890  0.394590  1.0  0.0576
  C  C167  1  0.056500  0.962100  0.400100  1.0  -0.153
  C  C168  1  0.088940  0.023940  0.380040  1.0  -0.0526
  C  C169  1  0.176020  0.007520  0.351620  1.0  -0.1154
  C  C170  1  0.232090  0.926990  0.344190  1.0  -0.0497
  C  C171  1  0.199870  0.864370  0.364870  1.0  -0.1506
  C  C172  1  0.806910  0.503710  0.003710  1.0  0.1174
  C  C173  1  0.809240  0.431540  0.076940  1.0  -0.0314
  C  C174  1  0.070910  0.338350  0.212570  1.0  0.683
  C  C175  1  0.881890  0.394590  0.110390  1.0  0.0587
  C  C176  1  0.962100  0.400100  0.056500  1.0  -0.1529
  C  C177  1  0.023940  0.380040  0.088940  1.0  -0.0546
  C  C178  1  0.007520  0.351620  0.176020  1.0  -0.1164
  C  C179  1  0.926990  0.344190  0.232090  1.0  -0.0488
  C  C180  1  0.864370  0.364870  0.199870  1.0  -0.1519
  C  C181  1  0.608750  0.891250  0.250000  1.0  -0.0843
  C  C182  1  0.250000  0.608750  0.891250  1.0  -0.0865
  C  C183  1  0.891250  0.250000  0.608750  1.0  -0.0865
  C  C184  1  0.391250  0.108750  0.750000  1.0  -0.0853
  C  C185  1  0.750000  0.391250  0.108750  1.0  -0.0865
  C  C186  1  0.108750  0.750000  0.391250  1.0  -0.0849
  N  N187  1  0.463750  0.036250  0.250000  1.0  -0.2279
  N  N188  1  0.250000  0.463750  0.036250  1.0  -0.2271
  N  N189  1  0.036250  0.250000  0.463750  1.0  -0.2252
  N  N190  1  0.536250  0.963750  0.750000  1.0  -0.2262
  N  N191  1  0.750000  0.536250  0.963750  1.0  -0.2285
  N  N192  1  0.963750  0.750000  0.536250  1.0  -0.2254
  O  O193  1  0.662040  0.874960  0.626770  1.0  -0.5267
  O  O194  1  0.786930  0.786970  0.568480  1.0  -0.5284
  O  O195  1  0.626770  0.662040  0.874960  1.0  -0.5271
  O  O196  1  0.568480  0.786930  0.786970  1.0  -0.5312
  O  O197  1  0.874960  0.626770  0.662040  1.0  -0.5266
  O  O198  1  0.786970  0.568480  0.786930  1.0  -0.5276
  O  O199  1  0.625040  0.837960  0.873230  1.0  -0.5267
  O  O200  1  0.713030  0.713070  0.931520  1.0  -0.5289
  O  O201  1  0.837960  0.873230  0.625040  1.0  -0.5274
  O  O202  1  0.713070  0.931520  0.713030  1.0  -0.5282
  O  O203  1  0.873230  0.625040  0.837960  1.0  -0.5268
  O  O204  1  0.931520  0.713030  0.713070  1.0  -0.5296
  O  O205  1  0.337960  0.125040  0.373230  1.0  -0.5275
  O  O206  1  0.213070  0.213030  0.431520  1.0  -0.5276
  O  O207  1  0.373230  0.337960  0.125040  1.0  -0.528
  O  O208  1  0.431520  0.213070  0.213030  1.0  -0.5323
  O  O209  1  0.125040  0.373230  0.337960  1.0  -0.5266
  O  O210  1  0.213030  0.431520  0.213070  1.0  -0.5281
  O  O211  1  0.374960  0.162040  0.126770  1.0  -0.5275
  O  O212  1  0.286970  0.286930  0.068480  1.0  -0.5295
  O  O213  1  0.162040  0.126770  0.374960  1.0  -0.5283
  O  O214  1  0.286930  0.068480  0.286970  1.0  -0.5282
  O  O215  1  0.126770  0.374960  0.162040  1.0  -0.5249
  O  O216  1  0.068480  0.286970  0.286930  1.0  -0.5294
  O  O217  1  0.250000  0.250000  0.250000  1.0  -0.6729
  O  O218  1  0.750000  0.750000  0.750000  1.0  -0.6729
