# generated using pymatgen
data_Cu4H8C24N32ClO4
_symmetry_space_group_name_H-M   'P 1'
_cell_length_a   18.59500000
_cell_length_b   18.59500000
_cell_length_c   18.59500000
_cell_angle_alpha   90.00000000
_cell_angle_beta   90.00000000
_cell_angle_gamma   90.00000000
_symmetry_Int_Tables_number   1
_chemical_formula_structural   Cu4H8C24N32ClO4
_chemical_formula_sum   'Cu12 H24 C72 N96 Cl3 O12'
_cell_volume   6429.66799487
_cell_formula_units_Z   3
loop_
 _symmetry_equiv_pos_site_id
 _symmetry_equiv_pos_as_xyz
  1  'x, y, z'
loop_
 _atom_site_type_symbol
 _atom_site_label
 _atom_site_symmetry_multiplicity
 _atom_site_fract_x
 _atom_site_fract_y
 _atom_site_fract_z
 _atom_site_occupancy
 _atom_site_charge
  Cu  Cu1  1  0.500000  0.863070  0.000000  1.0  0.6708
  Cu  Cu2  1  0.500000  0.136930  0.000000  1.0  0.6723
  Cu  Cu3  1  0.000000  0.500000  0.863070  1.0  0.6761
  Cu  Cu4  1  0.000000  0.500000  0.136930  1.0  0.6725
  Cu  Cu5  1  0.863070  0.000000  0.500000  1.0  0.675
  Cu  Cu6  1  0.136930  0.000000  0.500000  1.0  0.6741
  Cu  Cu7  1  0.863070  0.500000  0.000000  1.0  0.675
  Cu  Cu8  1  0.136930  0.500000  0.000000  1.0  0.6741
  Cu  Cu9  1  0.500000  0.000000  0.136930  1.0  0.6725
  Cu  Cu10  1  0.500000  0.000000  0.863070  1.0  0.6761
  Cu  Cu11  1  0.000000  0.863070  0.500000  1.0  0.6708
  Cu  Cu12  1  0.000000  0.136930  0.500000  1.0  0.6723
  H  H13  1  0.739000  0.739000  0.107600  1.0  0.1249
  H  H14  1  0.261000  0.261000  0.107600  1.0  0.1248
  H  H15  1  0.261000  0.739000  0.892400  1.0  0.1258
  H  H16  1  0.739000  0.261000  0.892400  1.0  0.1259
  H  H17  1  0.107600  0.739000  0.739000  1.0  0.1248
  H  H18  1  0.107600  0.261000  0.261000  1.0  0.1252
  H  H19  1  0.892400  0.261000  0.739000  1.0  0.1247
  H  H20  1  0.892400  0.739000  0.261000  1.0  0.1253
  H  H21  1  0.739000  0.107600  0.739000  1.0  0.1247
  H  H22  1  0.261000  0.107600  0.261000  1.0  0.125
  H  H23  1  0.739000  0.892400  0.261000  1.0  0.125
  H  H24  1  0.261000  0.892400  0.739000  1.0  0.1243
  H  H25  1  0.739000  0.739000  0.892400  1.0  0.1262
  H  H26  1  0.261000  0.261000  0.892400  1.0  0.1257
  H  H27  1  0.739000  0.261000  0.107600  1.0  0.1247
  H  H28  1  0.261000  0.739000  0.107600  1.0  0.1249
  H  H29  1  0.739000  0.107600  0.261000  1.0  0.1253
  H  H30  1  0.261000  0.107600  0.739000  1.0  0.1246
  H  H31  1  0.261000  0.892400  0.261000  1.0  0.125
  H  H32  1  0.739000  0.892400  0.739000  1.0  0.1245
  H  H33  1  0.107600  0.739000  0.261000  1.0  0.1254
  H  H34  1  0.107600  0.261000  0.739000  1.0  0.1248
  H  H35  1  0.892400  0.739000  0.739000  1.0  0.1248
  H  H36  1  0.892400  0.261000  0.261000  1.0  0.1252
  C  C37  1  0.663800  0.851500  0.148500  1.0  0.3298
  C  C38  1  0.727700  0.819500  0.180500  1.0  -0.0128
  C  C39  1  0.336200  0.148500  0.148500  1.0  0.3306
  C  C40  1  0.272300  0.180500  0.180500  1.0  -0.0122
  C  C41  1  0.336200  0.851500  0.851500  1.0  0.3301
  C  C42  1  0.272300  0.819500  0.819500  1.0  -0.0121
  C  C43  1  0.663800  0.148500  0.851500  1.0  0.3307
  C  C44  1  0.727700  0.180500  0.819500  1.0  -0.0128
  C  C45  1  0.148500  0.663800  0.851500  1.0  0.3301
  C  C46  1  0.180500  0.727700  0.819500  1.0  -0.0118
  C  C47  1  0.148500  0.336200  0.148500  1.0  0.3293
  C  C48  1  0.180500  0.272300  0.180500  1.0  -0.0114
  C  C49  1  0.851500  0.336200  0.851500  1.0  0.3298
  C  C50  1  0.819500  0.272300  0.819500  1.0  -0.0113
  C  C51  1  0.851500  0.663800  0.148500  1.0  0.3299
  C  C52  1  0.819500  0.727700  0.180500  1.0  -0.0117
  C  C53  1  0.851500  0.148500  0.663800  1.0  0.331
  C  C54  1  0.819500  0.180500  0.727700  1.0  -0.0133
  C  C55  1  0.148500  0.148500  0.336200  1.0  0.3303
  C  C56  1  0.180500  0.180500  0.272300  1.0  -0.0131
  C  C57  1  0.851500  0.851500  0.336200  1.0  0.33
  C  C58  1  0.819500  0.819500  0.272300  1.0  -0.0128
  C  C59  1  0.148500  0.851500  0.663800  1.0  0.33
  C  C60  1  0.180500  0.819500  0.727700  1.0  -0.0133
  C  C61  1  0.851500  0.663800  0.851500  1.0  0.3303
  C  C62  1  0.819500  0.727700  0.819500  1.0  -0.0116
  C  C63  1  0.148500  0.336200  0.851500  1.0  0.3295
  C  C64  1  0.180500  0.272300  0.819500  1.0  -0.0114
  C  C65  1  0.851500  0.336200  0.148500  1.0  0.3295
  C  C66  1  0.819500  0.272300  0.180500  1.0  -0.0112
  C  C67  1  0.148500  0.663800  0.148500  1.0  0.3298
  C  C68  1  0.180500  0.727700  0.180500  1.0  -0.0119
  C  C69  1  0.663800  0.148500  0.148500  1.0  0.3306
  C  C70  1  0.727700  0.180500  0.180500  1.0  -0.013
  C  C71  1  0.336200  0.148500  0.851500  1.0  0.3307
  C  C72  1  0.272300  0.180500  0.819500  1.0  -0.0121
  C  C73  1  0.336200  0.851500  0.148500  1.0  0.3298
  C  C74  1  0.272300  0.819500  0.180500  1.0  -0.0121
  C  C75  1  0.663800  0.851500  0.851500  1.0  0.3299
  C  C76  1  0.727700  0.819500  0.819500  1.0  -0.0127
  C  C77  1  0.148500  0.851500  0.336200  1.0  0.3295
  C  C78  1  0.180500  0.819500  0.272300  1.0  -0.013
  C  C79  1  0.148500  0.148500  0.663800  1.0  0.3306
  C  C80  1  0.180500  0.180500  0.727700  1.0  -0.0136
  C  C81  1  0.851500  0.851500  0.663800  1.0  0.3304
  C  C82  1  0.819500  0.819500  0.727700  1.0  -0.0131
  C  C83  1  0.851500  0.148500  0.336200  1.0  0.3308
  C  C84  1  0.819500  0.180500  0.272300  1.0  -0.0129
  C  C85  1  0.758700  0.758700  0.149100  1.0  0.0028
  C  C86  1  0.241300  0.241300  0.149100  1.0  0.0024
  C  C87  1  0.241300  0.758700  0.850900  1.0  0.0029
  C  C88  1  0.758700  0.241300  0.850900  1.0  0.0026
  C  C89  1  0.149100  0.758700  0.758700  1.0  -0.0016
  C  C90  1  0.149100  0.241300  0.241300  1.0  -0.0014
  C  C91  1  0.850900  0.241300  0.758700  1.0  -0.0003
  C  C92  1  0.850900  0.758700  0.241300  1.0  -0.0002
  C  C93  1  0.758700  0.149100  0.758700  1.0  -0.0021
  C  C94  1  0.241300  0.149100  0.241300  1.0  -0.0022
  C  C95  1  0.758700  0.850900  0.241300  1.0  -0.0031
  C  C96  1  0.241300  0.850900  0.758700  1.0  -0.003
  C  C97  1  0.758700  0.758700  0.850900  1.0  0.0031
  C  C98  1  0.241300  0.241300  0.850900  1.0  0.0026
  C  C99  1  0.758700  0.241300  0.149100  1.0  0.0027
  C  C100  1  0.241300  0.758700  0.149100  1.0  0.0024
  C  C101  1  0.758700  0.149100  0.241300  1.0  -0.0018
  C  C102  1  0.241300  0.149100  0.758700  1.0  -0.0018
  C  C103  1  0.241300  0.850900  0.241300  1.0  -0.0032
  C  C104  1  0.758700  0.850900  0.758700  1.0  -0.0024
  C  C105  1  0.149100  0.758700  0.241300  1.0  -0.0014
  C  C106  1  0.149100  0.241300  0.758700  1.0  -0.0017
  C  C107  1  0.850900  0.758700  0.758700  1.0  -0.0007
  C  C108  1  0.850900  0.241300  0.241300  1.0  -0.0006
  N  N109  1  0.574960  0.869910  0.079200  1.0  0.0183
  N  N110  1  0.630460  0.825300  0.089300  1.0  -0.3219
  N  N111  1  0.425040  0.130090  0.079200  1.0  0.019
  N  N112  1  0.369540  0.174700  0.089300  1.0  -0.3221
  N  N113  1  0.425040  0.869910  0.920800  1.0  0.0174
  N  N114  1  0.369540  0.825300  0.910700  1.0  -0.3221
  N  N115  1  0.574960  0.130090  0.920800  1.0  0.0182
  N  N116  1  0.630460  0.174700  0.910700  1.0  -0.3214
  N  N117  1  0.079200  0.574960  0.869910  1.0  0.0188
  N  N118  1  0.089300  0.630460  0.825300  1.0  -0.3202
  N  N119  1  0.079200  0.425040  0.130090  1.0  0.0194
  N  N120  1  0.089300  0.369540  0.174700  1.0  -0.3191
  N  N121  1  0.920800  0.425040  0.869910  1.0  0.0176
  N  N122  1  0.910700  0.369540  0.825300  1.0  -0.3208
  N  N123  1  0.920800  0.574960  0.130090  1.0  0.0184
  N  N124  1  0.910700  0.630460  0.174700  1.0  -0.3189
  N  N125  1  0.869910  0.079200  0.574960  1.0  0.0187
  N  N126  1  0.825300  0.089300  0.630460  1.0  -0.324
  N  N127  1  0.130090  0.079200  0.425040  1.0  0.0178
  N  N128  1  0.174700  0.089300  0.369540  1.0  -0.3216
  N  N129  1  0.869910  0.920800  0.425040  1.0  0.0182
  N  N130  1  0.825300  0.910700  0.369540  1.0  -0.3233
  N  N131  1  0.130090  0.920800  0.574960  1.0  0.0188
  N  N132  1  0.174700  0.910700  0.630460  1.0  -0.3224
  N  N133  1  0.869910  0.574960  0.920800  1.0  0.0187
  N  N134  1  0.825300  0.630460  0.910700  1.0  -0.3223
  N  N135  1  0.130090  0.425040  0.920800  1.0  0.0189
  N  N136  1  0.174700  0.369540  0.910700  1.0  -0.3213
  N  N137  1  0.869910  0.425040  0.079200  1.0  0.0192
  N  N138  1  0.825300  0.369540  0.089300  1.0  -0.3225
  N  N139  1  0.130090  0.574960  0.079200  1.0  0.0196
  N  N140  1  0.174700  0.630460  0.089300  1.0  -0.3217
  N  N141  1  0.574960  0.079200  0.130090  1.0  0.019
  N  N142  1  0.630460  0.089300  0.174700  1.0  -0.3208
  N  N143  1  0.425040  0.079200  0.869910  1.0  0.0183
  N  N144  1  0.369540  0.089300  0.825300  1.0  -0.322
  N  N145  1  0.425040  0.920800  0.130090  1.0  0.0193
  N  N146  1  0.369540  0.910700  0.174700  1.0  -0.3205
  N  N147  1  0.574960  0.920800  0.869910  1.0  0.0187
  N  N148  1  0.630460  0.910700  0.825300  1.0  -0.3225
  N  N149  1  0.079200  0.869910  0.425040  1.0  0.0167
  N  N150  1  0.089300  0.825300  0.369540  1.0  -0.3217
  N  N151  1  0.079200  0.130090  0.574960  1.0  0.0186
  N  N152  1  0.089300  0.174700  0.630460  1.0  -0.3216
  N  N153  1  0.920800  0.869910  0.574960  1.0  0.0158
  N  N154  1  0.910700  0.825300  0.630460  1.0  -0.3206
  N  N155  1  0.920800  0.130090  0.425040  1.0  0.0169
  N  N156  1  0.910700  0.174700  0.369540  1.0  -0.3209
  N  N157  1  0.425040  0.130090  0.920800  1.0  0.0185
  N  N158  1  0.369540  0.174700  0.910700  1.0  -0.326
  N  N159  1  0.574960  0.869910  0.920800  1.0  0.0167
  N  N160  1  0.630460  0.825300  0.910700  1.0  -0.3259
  N  N161  1  0.574960  0.130090  0.079200  1.0  0.0197
  N  N162  1  0.630460  0.174700  0.089300  1.0  -0.326
  N  N163  1  0.425040  0.869910  0.079200  1.0  0.0179
  N  N164  1  0.369540  0.825300  0.089300  1.0  -0.3261
  N  N165  1  0.920800  0.425040  0.130090  1.0  0.0184
  N  N166  1  0.910700  0.369540  0.174700  1.0  -0.3228
  N  N167  1  0.920800  0.574960  0.869910  1.0  0.0177
  N  N168  1  0.910700  0.630460  0.825300  1.0  -0.3249
  N  N169  1  0.079200  0.574960  0.130090  1.0  0.0196
  N  N170  1  0.089300  0.630460  0.174700  1.0  -0.3231
  N  N171  1  0.079200  0.425040  0.869910  1.0  0.0183
  N  N172  1  0.089300  0.369540  0.825300  1.0  -0.3242
  N  N173  1  0.130090  0.920800  0.425040  1.0  0.0181
  N  N174  1  0.174700  0.910700  0.369540  1.0  -0.3263
  N  N175  1  0.869910  0.920800  0.574960  1.0  0.0189
  N  N176  1  0.825300  0.910700  0.630460  1.0  -0.3268
  N  N177  1  0.130090  0.079200  0.574960  1.0  0.0186
  N  N178  1  0.174700  0.089300  0.630460  1.0  -0.3259
  N  N179  1  0.869910  0.079200  0.425040  1.0  0.0181
  N  N180  1  0.825300  0.089300  0.369540  1.0  -0.3273
  N  N181  1  0.130090  0.425040  0.079200  1.0  0.0194
  N  N182  1  0.174700  0.369540  0.089300  1.0  -0.3257
  N  N183  1  0.869910  0.574960  0.079200  1.0  0.0197
  N  N184  1  0.825300  0.630460  0.089300  1.0  -0.326
  N  N185  1  0.130090  0.574960  0.920800  1.0  0.0183
  N  N186  1  0.174700  0.630460  0.910700  1.0  -0.3254
  N  N187  1  0.869910  0.425040  0.920800  1.0  0.0189
  N  N188  1  0.825300  0.369540  0.910700  1.0  -0.3255
  N  N189  1  0.425040  0.920800  0.869910  1.0  0.0188
  N  N190  1  0.369540  0.910700  0.825300  1.0  -0.3267
  N  N191  1  0.574960  0.920800  0.130090  1.0  0.0193
  N  N192  1  0.630460  0.910700  0.174700  1.0  -0.3244
  N  N193  1  0.574960  0.079200  0.869910  1.0  0.0185
  N  N194  1  0.630460  0.089300  0.825300  1.0  -0.326
  N  N195  1  0.425040  0.079200  0.130090  1.0  0.0191
  N  N196  1  0.369540  0.089300  0.174700  1.0  -0.3252
  N  N197  1  0.920800  0.130090  0.574960  1.0  0.017
  N  N198  1  0.910700  0.174700  0.630460  1.0  -0.3251
  N  N199  1  0.920800  0.869910  0.425040  1.0  0.0157
  N  N200  1  0.910700  0.825300  0.369540  1.0  -0.3241
  N  N201  1  0.079200  0.130090  0.425040  1.0  0.0177
  N  N202  1  0.089300  0.174700  0.369540  1.0  -0.3254
  N  N203  1  0.079200  0.869910  0.574960  1.0  0.0176
  N  N204  1  0.089300  0.825300  0.630460  1.0  -0.3259
  Cl  Cl205  1  0.500000  0.000000  0.000000  1.0  -0.1957
  Cl  Cl206  1  0.000000  0.500000  0.000000  1.0  -0.1957
  Cl  Cl207  1  0.000000  0.000000  0.500000  1.0  -0.1957
  O  O208  1  0.500000  0.743600  0.000000  1.0  -0.29
  O  O209  1  0.500000  0.256400  0.000000  1.0  -0.2874
  O  O210  1  0.000000  0.500000  0.743600  1.0  -0.289
  O  O211  1  0.000000  0.500000  0.256400  1.0  -0.2883
  O  O212  1  0.743600  0.000000  0.500000  1.0  -0.2906
  O  O213  1  0.256400  0.000000  0.500000  1.0  -0.2897
  O  O214  1  0.743600  0.500000  0.000000  1.0  -0.2906
  O  O215  1  0.256400  0.500000  0.000000  1.0  -0.2897
  O  O216  1  0.500000  0.000000  0.256400  1.0  -0.2883
  O  O217  1  0.500000  0.000000  0.743600  1.0  -0.289
  O  O218  1  0.000000  0.743600  0.500000  1.0  -0.29
  O  O219  1  0.000000  0.256400  0.500000  1.0  -0.2874
