# generated using pymatgen
data_CoH5C11NO6
_symmetry_space_group_name_H-M   'P 1'
_cell_length_a   11.38160000
_cell_length_b   15.22140000
_cell_length_c   17.80690000
_cell_angle_alpha   115.30300000
_cell_angle_beta   90.00000000
_cell_angle_gamma   90.00000000
_symmetry_Int_Tables_number   1
_chemical_formula_structural   CoH5C11NO6
_chemical_formula_sum   'Co8 H40 C88 N8 O48'
_cell_volume   2788.96827518
_cell_formula_units_Z   8
loop_
 _symmetry_equiv_pos_site_id
 _symmetry_equiv_pos_as_xyz
  1  'x, y, z'
loop_
 _atom_site_type_symbol
 _atom_site_label
 _atom_site_symmetry_multiplicity
 _atom_site_fract_x
 _atom_site_fract_y
 _atom_site_fract_z
 _atom_site_occupancy
 _atom_site_charge
  Co  Co1  1  0.793200  0.638990  0.000000  1.0  0.8048
  Co  Co2  1  0.206800  0.361010  0.000000  1.0  0.8049
  Co  Co3  1  0.500000  0.380950  0.761900  1.0  0.8083
  Co  Co4  1  0.500000  0.619050  0.238100  1.0  0.8123
  Co  Co5  1  0.293200  0.861010  0.000000  1.0  0.8047
  Co  Co6  1  0.706800  0.138990  0.000000  1.0  0.8049
  Co  Co7  1  0.000000  0.119050  0.238100  1.0  0.8122
  Co  Co8  1  0.000000  0.880950  0.761900  1.0  0.8083
  H  H9  1  0.747700  0.589700  0.746200  1.0  0.4062
  H  H10  1  0.631800  0.189900  0.703000  1.0  0.0871
  H  H11  1  0.639000  0.036200  0.596800  1.0  0.1207
  H  H12  1  0.349300  0.097400  0.503800  1.0  0.131
  H  H13  1  0.348300  0.248500  0.613200  1.0  0.0905
  H  H14  1  0.252300  0.156500  0.746200  1.0  0.4073
  H  H15  1  0.368200  0.513100  0.703000  1.0  0.0873
  H  H16  1  0.361000  0.560600  0.596800  1.0  0.1214
  H  H17  1  0.650700  0.406400  0.503800  1.0  0.1311
  H  H18  1  0.651700  0.364700  0.613200  1.0  0.0897
  H  H19  1  0.252300  0.410300  0.253800  1.0  0.4061
  H  H20  1  0.368200  0.810100  0.297000  1.0  0.0865
  H  H21  1  0.361000  0.963800  0.403200  1.0  0.1215
  H  H22  1  0.650700  0.902600  0.496200  1.0  0.132
  H  H23  1  0.651700  0.751500  0.386800  1.0  0.0905
  H  H24  1  0.747700  0.843500  0.253800  1.0  0.4067
  H  H25  1  0.631800  0.486900  0.297000  1.0  0.0867
  H  H26  1  0.639000  0.439400  0.403200  1.0  0.1203
  H  H27  1  0.349300  0.593600  0.496200  1.0  0.1309
  H  H28  1  0.348300  0.635300  0.386800  1.0  0.0902
  H  H29  1  0.247700  0.910300  0.253800  1.0  0.4048
  H  H30  1  0.131800  0.310100  0.297000  1.0  0.0866
  H  H31  1  0.139000  0.463800  0.403200  1.0  0.1208
  H  H32  1  0.849300  0.402600  0.496200  1.0  0.1315
  H  H33  1  0.848300  0.251500  0.386800  1.0  0.09
  H  H34  1  0.752300  0.343500  0.253800  1.0  0.4051
  H  H35  1  0.868200  0.986900  0.297000  1.0  0.0867
  H  H36  1  0.861000  0.939400  0.403200  1.0  0.1205
  H  H37  1  0.150700  0.093600  0.496200  1.0  0.131
  H  H38  1  0.151700  0.135300  0.386800  1.0  0.0899
  H  H39  1  0.752300  0.089700  0.746200  1.0  0.4045
  H  H40  1  0.868200  0.689900  0.703000  1.0  0.0869
  H  H41  1  0.861000  0.536200  0.596800  1.0  0.1208
  H  H42  1  0.150700  0.597400  0.503800  1.0  0.1311
  H  H43  1  0.151700  0.748500  0.613200  1.0  0.0904
  H  H44  1  0.247700  0.656500  0.746200  1.0  0.4062
  H  H45  1  0.131800  0.013100  0.703000  1.0  0.0874
  H  H46  1  0.139000  0.060600  0.596800  1.0  0.1206
  H  H47  1  0.849300  0.906400  0.503800  1.0  0.1308
  H  H48  1  0.848300  0.864700  0.613200  1.0  0.0895
  C  C49  1  0.823400  0.540300  0.804920  1.0  0.6854
  C  C50  1  0.752700  0.364530  0.812380  1.0  0.709
  C  C51  1  0.077600  0.579630  0.794360  1.0  0.7206
  C  C52  1  0.916500  0.466680  0.799040  1.0  -0.0629
  C  C53  1  0.880900  0.379780  0.800160  1.0  -0.0739
  C  C54  1  0.036300  0.486580  0.797240  1.0  -0.0585
  C  C55  1  0.573200  0.171760  0.661120  1.0  0.1734
  C  C56  1  0.578400  0.079280  0.597160  1.0  -0.1659
  C  C57  1  0.498200  0.049250  0.534900  1.0  0.0879
  C  C58  1  0.410800  0.114770  0.543740  1.0  -0.1882
  C  C59  1  0.410700  0.205420  0.609440  1.0  0.1796
  C  C60  1  0.176600  0.264620  0.804920  1.0  0.6848
  C  C61  1  0.247300  0.447850  0.812380  1.0  0.708
  C  C62  1  0.922400  0.214730  0.794360  1.0  0.7219
  C  C63  1  0.083500  0.332360  0.799040  1.0  -0.0625
  C  C64  1  0.119100  0.420380  0.800160  1.0  -0.073
  C  C65  1  0.963700  0.310660  0.797240  1.0  -0.0587
  C  C66  1  0.426800  0.489360  0.661120  1.0  0.1749
  C  C67  1  0.421600  0.517880  0.597160  1.0  -0.1667
  C  C68  1  0.501800  0.485650  0.534900  1.0  0.0876
  C  C69  1  0.589200  0.428970  0.543740  1.0  -0.1868
  C  C70  1  0.589300  0.404020  0.609440  1.0  0.1809
  C  C71  1  0.176600  0.459700  0.195080  1.0  0.6875
  C  C72  1  0.247300  0.635470  0.187620  1.0  0.709
  C  C73  1  0.922400  0.420370  0.205640  1.0  0.7216
  C  C74  1  0.083500  0.533320  0.200960  1.0  -0.0634
  C  C75  1  0.119100  0.620220  0.199840  1.0  -0.0739
  C  C76  1  0.963700  0.513420  0.202760  1.0  -0.0589
  C  C77  1  0.426800  0.828240  0.338880  1.0  0.1736
  C  C78  1  0.421600  0.920720  0.402840  1.0  -0.1667
  C  C79  1  0.501800  0.950750  0.465100  1.0  0.0878
  C  C80  1  0.589200  0.885230  0.456260  1.0  -0.1877
  C  C81  1  0.589300  0.794580  0.390560  1.0  0.1805
  C  C82  1  0.823400  0.735380  0.195080  1.0  0.6829
  C  C83  1  0.752700  0.552150  0.187620  1.0  0.7095
  C  C84  1  0.077600  0.785270  0.205640  1.0  0.7222
  C  C85  1  0.916500  0.667640  0.200960  1.0  -0.0624
  C  C86  1  0.880900  0.579620  0.199840  1.0  -0.0737
  C  C87  1  0.036300  0.689340  0.202760  1.0  -0.0588
  C  C88  1  0.573200  0.510640  0.338880  1.0  0.1747
  C  C89  1  0.578400  0.482120  0.402840  1.0  -0.1652
  C  C90  1  0.498200  0.514350  0.465100  1.0  0.0872
  C  C91  1  0.410800  0.571030  0.456260  1.0  -0.189
  C  C92  1  0.410700  0.595980  0.390560  1.0  0.18
  C  C93  1  0.323400  0.959700  0.195080  1.0  0.6864
  C  C94  1  0.252700  0.135470  0.187620  1.0  0.7107
  C  C95  1  0.577600  0.920370  0.205640  1.0  0.7211
  C  C96  1  0.416500  0.033320  0.200960  1.0  -0.0636
  C  C97  1  0.380900  0.120220  0.199840  1.0  -0.0743
  C  C98  1  0.536300  0.013420  0.202760  1.0  -0.059
  C  C99  1  0.073200  0.328240  0.338880  1.0  0.1733
  C  C100  1  0.078400  0.420720  0.402840  1.0  -0.1656
  C  C101  1  0.998200  0.450750  0.465100  1.0  0.088
  C  C102  1  0.910800  0.385230  0.456260  1.0  -0.1885
  C  C103  1  0.910700  0.294580  0.390560  1.0  0.1805
  C  C104  1  0.676600  0.235380  0.195080  1.0  0.6841
  C  C105  1  0.747300  0.052150  0.187620  1.0  0.7086
  C  C106  1  0.422400  0.285270  0.205640  1.0  0.7224
  C  C107  1  0.583500  0.167640  0.200960  1.0  -0.0621
  C  C108  1  0.619100  0.079620  0.199840  1.0  -0.0733
  C  C109  1  0.463700  0.189340  0.202760  1.0  -0.0587
  C  C110  1  0.926800  0.010640  0.338880  1.0  0.1749
  C  C111  1  0.921600  0.982120  0.402840  1.0  -0.1666
  C  C112  1  0.001800  0.014350  0.465100  1.0  0.0872
  C  C113  1  0.089200  0.071030  0.456260  1.0  -0.1881
  C  C114  1  0.089300  0.095980  0.390560  1.0  0.1805
  C  C115  1  0.676600  0.040300  0.804920  1.0  0.6866
  C  C116  1  0.747300  0.864530  0.812380  1.0  0.71
  C  C117  1  0.422400  0.079630  0.794360  1.0  0.7207
  C  C118  1  0.583500  0.966680  0.799040  1.0  -0.0628
  C  C119  1  0.619100  0.879780  0.800160  1.0  -0.0739
  C  C120  1  0.463700  0.986580  0.797240  1.0  -0.0585
  C  C121  1  0.926800  0.671760  0.661120  1.0  0.1734
  C  C122  1  0.921600  0.579280  0.597160  1.0  -0.1671
  C  C123  1  0.001800  0.549250  0.534900  1.0  0.0877
  C  C124  1  0.089200  0.614770  0.543740  1.0  -0.1873
  C  C125  1  0.089300  0.705420  0.609440  1.0  0.18
  C  C126  1  0.323400  0.764620  0.804920  1.0  0.6835
  C  C127  1  0.252700  0.947850  0.812380  1.0  0.7079
  C  C128  1  0.577600  0.714730  0.794360  1.0  0.7216
  C  C129  1  0.416500  0.832360  0.799040  1.0  -0.0626
  C  C130  1  0.380900  0.920380  0.800160  1.0  -0.0732
  C  C131  1  0.536300  0.810660  0.797240  1.0  -0.0587
  C  C132  1  0.073200  0.989360  0.661120  1.0  0.1747
  C  C133  1  0.078400  0.017880  0.597160  1.0  -0.1655
  C  C134  1  0.998200  0.985650  0.534900  1.0  0.0876
  C  C135  1  0.910800  0.928970  0.543740  1.0  -0.1877
  C  C136  1  0.910700  0.904020  0.609440  1.0  0.1811
  N  N137  1  0.492500  0.235550  0.667340  1.0  -0.3026
  N  N138  1  0.507500  0.431790  0.667340  1.0  -0.3016
  N  N139  1  0.507500  0.764450  0.332660  1.0  -0.3021
  N  N140  1  0.492500  0.568210  0.332660  1.0  -0.3034
  N  N141  1  0.992500  0.264450  0.332660  1.0  -0.302
  N  N142  1  0.007500  0.068210  0.332660  1.0  -0.3036
  N  N143  1  0.007500  0.735550  0.667340  1.0  -0.3026
  N  N144  1  0.992500  0.931790  0.667340  1.0  -0.3017
  O  O145  1  0.773990  0.588290  0.871720  1.0  -0.654
  O  O146  1  0.798670  0.546370  0.737040  1.0  -0.4957
  O  O147  1  0.681550  0.374680  0.762800  1.0  -0.6122
  O  O148  1  0.727440  0.346930  0.873380  1.0  -0.528
  O  O149  1  0.155410  0.569760  0.740760  1.0  -0.5724
  O  O150  1  0.031690  0.657130  0.844020  1.0  -0.4938
  O  O151  1  0.226010  0.283430  0.871720  1.0  -0.649
  O  O152  1  0.201330  0.190670  0.737040  1.0  -0.4965
  O  O153  1  0.318450  0.388120  0.762800  1.0  -0.6119
  O  O154  1  0.272560  0.526450  0.873380  1.0  -0.5234
  O  O155  1  0.844590  0.171000  0.740760  1.0  -0.5726
  O  O156  1  0.968310  0.186890  0.844020  1.0  -0.4937
  O  O157  1  0.226010  0.411710  0.128280  1.0  -0.651
  O  O158  1  0.201330  0.453630  0.262960  1.0  -0.4952
  O  O159  1  0.318450  0.625320  0.237200  1.0  -0.6121
  O  O160  1  0.272560  0.653070  0.126620  1.0  -0.5221
  O  O161  1  0.844590  0.430240  0.259240  1.0  -0.5725
  O  O162  1  0.968310  0.342870  0.155980  1.0  -0.4902
  O  O163  1  0.773990  0.716570  0.128280  1.0  -0.6463
  O  O164  1  0.798670  0.809330  0.262960  1.0  -0.4953
  O  O165  1  0.681550  0.611880  0.237200  1.0  -0.6118
  O  O166  1  0.727440  0.473550  0.126620  1.0  -0.5283
  O  O167  1  0.155410  0.829000  0.259240  1.0  -0.5724
  O  O168  1  0.031690  0.813110  0.155980  1.0  -0.4931
  O  O169  1  0.273990  0.911710  0.128280  1.0  -0.6507
  O  O170  1  0.298670  0.953630  0.262960  1.0  -0.4957
  O  O171  1  0.181550  0.125320  0.237200  1.0  -0.6121
  O  O172  1  0.227440  0.153070  0.126620  1.0  -0.5227
  O  O173  1  0.655410  0.930240  0.259240  1.0  -0.5722
  O  O174  1  0.531690  0.842870  0.155980  1.0  -0.4917
  O  O175  1  0.726010  0.216570  0.128280  1.0  -0.6468
  O  O176  1  0.701330  0.309330  0.262960  1.0  -0.4957
  O  O177  1  0.818450  0.111880  0.237200  1.0  -0.6119
  O  O178  1  0.772560  0.973550  0.126620  1.0  -0.5279
  O  O179  1  0.344590  0.329000  0.259240  1.0  -0.5728
  O  O180  1  0.468310  0.313110  0.155980  1.0  -0.4921
  O  O181  1  0.726010  0.088290  0.871720  1.0  -0.6535
  O  O182  1  0.701330  0.046370  0.737040  1.0  -0.496
  O  O183  1  0.818450  0.874680  0.762800  1.0  -0.6127
  O  O184  1  0.772560  0.846930  0.873380  1.0  -0.5267
  O  O185  1  0.344590  0.069760  0.740760  1.0  -0.5725
  O  O186  1  0.468310  0.157130  0.844020  1.0  -0.4934
  O  O187  1  0.273990  0.783430  0.871720  1.0  -0.6493
  O  O188  1  0.298670  0.690670  0.737040  1.0  -0.4962
  O  O189  1  0.181550  0.888120  0.762800  1.0  -0.6114
  O  O190  1  0.227440  0.026450  0.873380  1.0  -0.5248
  O  O191  1  0.655410  0.671000  0.740760  1.0  -0.5729
  O  O192  1  0.531690  0.686890  0.844020  1.0  -0.4938
