# generated using pymatgen
data_KCdH8(C2O)8
_symmetry_space_group_name_H-M   'P 1'
_cell_length_a   20.60900000
_cell_length_b   20.60900000
_cell_length_c   28.31400000
_cell_angle_alpha   90.00000000
_cell_angle_beta   90.00000000
_cell_angle_gamma   120.00000000
_symmetry_Int_Tables_number   1
_chemical_formula_structural   KCdH8(C2O)8
_chemical_formula_sum   'K18 Cd18 H144 C288 O144'
_cell_volume   10414.67442417
_cell_formula_units_Z   18
loop_
 _symmetry_equiv_pos_site_id
 _symmetry_equiv_pos_as_xyz
  1  'x, y, z'
loop_
 _atom_site_type_symbol
 _atom_site_label
 _atom_site_symmetry_multiplicity
 _atom_site_fract_x
 _atom_site_fract_y
 _atom_site_fract_z
 _atom_site_occupancy
 _atom_site_charge
  K  K1  1  0.752830  0.147990  0.952170  1.0  0.9652
  K  K2  1  0.193050  0.922190  0.870020  1.0  0.9672
  K  K3  1  0.517220  0.576200  0.866860  1.0  0.9547
  K  K4  1  0.395160  0.247170  0.618840  1.0  0.9632
  K  K5  1  0.729140  0.806950  0.536690  1.0  0.9709
  K  K6  1  0.058980  0.482780  0.533530  1.0  0.9591
  K  K7  1  0.852010  0.604840  0.285500  1.0  0.9641
  K  K8  1  0.077810  0.270860  0.203350  1.0  0.9704
  K  K9  1  0.423800  0.941020  0.200190  1.0  0.9596
  K  K10  1  0.247170  0.852010  0.452170  1.0  0.9637
  K  K11  1  0.806950  0.077810  0.370020  1.0  0.967
  K  K12  1  0.482780  0.423800  0.366860  1.0  0.9546
  K  K13  1  0.604840  0.752830  0.118840  1.0  0.9632
  K  K14  1  0.270860  0.193050  0.036690  1.0  0.9658
  K  K15  1  0.941020  0.517220  0.033530  1.0  0.9591
  K  K16  1  0.147990  0.395160  0.785500  1.0  0.9639
  K  K17  1  0.922190  0.729140  0.703350  1.0  0.9672
  K  K18  1  0.576200  0.058980  0.700190  1.0  0.9582
  Cd  Cd19  1  0.667000  0.110660  0.824890  1.0  1.0494
  Cd  Cd20  1  0.231980  0.001130  0.998280  1.0  1.0679
  Cd  Cd21  1  0.334110  0.424240  0.824770  1.0  1.0682
  Cd  Cd22  1  0.443660  0.333000  0.491560  1.0  1.0476
  Cd  Cd23  1  0.769150  0.768020  0.664940  1.0  1.0698
  Cd  Cd24  1  0.090130  0.665890  0.491440  1.0  1.0687
  Cd  Cd25  1  0.889340  0.556340  0.158220  1.0  1.0488
  Cd  Cd26  1  0.998870  0.230850  0.331610  1.0  1.0697
  Cd  Cd27  1  0.575760  0.909870  0.158100  1.0  1.082
  Cd  Cd28  1  0.333000  0.889340  0.324890  1.0  1.0482
  Cd  Cd29  1  0.768020  0.998870  0.498280  1.0  1.0692
  Cd  Cd30  1  0.665890  0.575760  0.324770  1.0  1.0688
  Cd  Cd31  1  0.556340  0.667000  0.991560  1.0  1.0484
  Cd  Cd32  1  0.230850  0.231980  0.164940  1.0  1.0679
  Cd  Cd33  1  0.909870  0.334110  0.991440  1.0  1.0668
  Cd  Cd34  1  0.110660  0.443660  0.658220  1.0  1.05
  Cd  Cd35  1  0.001130  0.769150  0.831610  1.0  1.0693
  Cd  Cd36  1  0.424240  0.090130  0.658100  1.0  1.0861
  H  H37  1  0.872600  0.311200  0.730000  1.0  0.1269
  H  H38  1  0.843200  0.373100  0.600400  1.0  0.1263
  H  H39  1  0.715600  0.309600  0.612400  1.0  0.114
  H  H40  1  0.662900  0.236500  0.679900  1.0  0.1283
  H  H41  1  0.765800  0.966000  0.757500  1.0  0.1306
  H  H42  1  0.896800  0.891400  0.811100  1.0  0.1253
  H  H43  1  0.917800  0.962600  0.877100  1.0  0.1202
  H  H44  1  0.864300  0.038200  0.885000  1.0  0.1225
  H  H45  1  0.463900  0.120100  0.912300  1.0  0.1466
  H  H46  1  0.672800  0.259900  0.959200  1.0  0.1253
  H  H47  1  0.623600  0.282300  0.027400  1.0  0.1186
  H  H48  1  0.492800  0.230300  0.034200  1.0  0.1377
  H  H49  1  0.525400  0.626300  0.736000  1.0  0.1346
  H  H50  1  0.512500  0.696700  0.606600  1.0  0.1264
  H  H51  1  0.382400  0.638700  0.615100  1.0  0.1184
  H  H52  1  0.325100  0.555600  0.677500  1.0  0.1138
  H  H53  1  0.148500  0.444100  0.909700  1.0  0.1281
  H  H54  1  0.350700  0.585700  0.963200  1.0  0.1194
  H  H55  1  0.292700  0.618900  0.021800  1.0  0.1238
  H  H56  1  0.162300  0.550800  0.028800  1.0  0.1235
  H  H57  1  0.216000  0.191000  0.910000  1.0  0.2161
  H  H58  1  0.109200  0.170200  0.790500  1.0  0.1293
  H  H59  1  0.046600  0.044300  0.800000  1.0  0.1168
  H  H60  1  0.069600  0.987400  0.863900  1.0  0.1458
  H  H61  1  0.438600  0.127400  0.396670  1.0  0.1263
  H  H62  1  0.529900  0.156800  0.267070  1.0  0.1267
  H  H63  1  0.594000  0.284400  0.279070  1.0  0.1143
  H  H64  1  0.573600  0.337100  0.346570  1.0  0.1292
  H  H65  1  0.200200  0.234200  0.424170  1.0  0.1312
  H  H66  1  0.994600  0.103200  0.477770  1.0  0.1266
  H  H67  1  0.044800  0.082200  0.543770  1.0  0.1209
  H  H68  1  0.173900  0.135700  0.551670  1.0  0.1231
  H  H69  1  0.656200  0.536100  0.578970  1.0  0.1475
  H  H70  1  0.587100  0.327200  0.625870  1.0  0.1257
  H  H71  1  0.658700  0.376400  0.694070  1.0  0.1184
  H  H72  1  0.737500  0.507200  0.700870  1.0  0.138
  H  H73  1  0.100900  0.474600  0.402670  1.0  0.1355
  H  H74  1  0.184200  0.487500  0.273270  1.0  0.1266
  H  H75  1  0.256300  0.617600  0.281770  1.0  0.1185
  H  H76  1  0.230500  0.674900  0.344170  1.0  0.1156
  H  H77  1  0.295600  0.851500  0.576370  1.0  0.128
  H  H78  1  0.235000  0.649300  0.629870  1.0  0.1197
  H  H79  1  0.326200  0.707300  0.688470  1.0  0.1242
  H  H80  1  0.388500  0.837700  0.695470  1.0  0.1239
  H  H81  1  0.975000  0.784000  0.576670  1.0  0.2178
  H  H82  1  0.061000  0.890800  0.457170  1.0  0.1288
  H  H83  1  0.997700  0.953400  0.466670  1.0  0.116
  H  H84  1  0.917800  0.930400  0.530570  1.0  0.1473
  H  H85  1  0.688800  0.561400  0.063330  1.0  0.1277
  H  H86  1  0.626900  0.470100  0.933730  1.0  0.1269
  H  H87  1  0.690400  0.406000  0.945730  1.0  0.1151
  H  H88  1  0.763500  0.426400  0.013230  1.0  0.1294
  H  H89  1  0.034000  0.799800  0.090830  1.0  0.13
  H  H90  1  0.108600  0.005400  0.144430  1.0  0.1267
  H  H91  1  0.037400  0.955200  0.210430  1.0  0.1207
  H  H92  1  0.961800  0.826100  0.218330  1.0  0.1233
  H  H93  1  0.879900  0.343800  0.245630  1.0  0.1471
  H  H94  1  0.740100  0.412900  0.292530  1.0  0.1243
  H  H95  1  0.717700  0.341300  0.360730  1.0  0.1179
  H  H96  1  0.769700  0.262500  0.367530  1.0  0.1374
  H  H97  1  0.373700  0.899100  0.069330  1.0  0.1356
  H  H98  1  0.303300  0.815800  0.939930  1.0  0.1259
  H  H99  1  0.361300  0.743700  0.948430  1.0  0.1189
  H  H100  1  0.444400  0.769500  0.010830  1.0  0.1147
  H  H101  1  0.555900  0.704400  0.243030  1.0  0.1276
  H  H102  1  0.414300  0.765000  0.296530  1.0  0.1186
  H  H103  1  0.381100  0.673800  0.355130  1.0  0.1233
  H  H104  1  0.449200  0.611500  0.362130  1.0  0.1238
  H  H105  1  0.809000  0.025000  0.243330  1.0  0.2164
  H  H106  1  0.829800  0.939000  0.123830  1.0  0.1284
  H  H107  1  0.955700  0.002300  0.133330  1.0  0.1157
  H  H108  1  0.012600  0.082200  0.197230  1.0  0.1469
  H  H109  1  0.127400  0.688800  0.230000  1.0  0.1263
  H  H110  1  0.156800  0.626900  0.100400  1.0  0.1264
  H  H111  1  0.284400  0.690400  0.112400  1.0  0.1137
  H  H112  1  0.337100  0.763500  0.179900  1.0  0.1279
  H  H113  1  0.234200  0.034000  0.257500  1.0  0.1308
  H  H114  1  0.103200  0.108600  0.311100  1.0  0.125
  H  H115  1  0.082200  0.037400  0.377100  1.0  0.1205
  H  H116  1  0.135700  0.961800  0.385000  1.0  0.123
  H  H117  1  0.536100  0.879900  0.412300  1.0  0.1472
  H  H118  1  0.327200  0.740100  0.459200  1.0  0.1253
  H  H119  1  0.376400  0.717700  0.527400  1.0  0.1187
  H  H120  1  0.507200  0.769700  0.534200  1.0  0.1378
  H  H121  1  0.474600  0.373700  0.236000  1.0  0.1352
  H  H122  1  0.487500  0.303300  0.106600  1.0  0.126
  H  H123  1  0.617600  0.361300  0.115100  1.0  0.1191
  H  H124  1  0.674900  0.444400  0.177500  1.0  0.1135
  H  H125  1  0.851500  0.555900  0.409700  1.0  0.1281
  H  H126  1  0.649300  0.414300  0.463200  1.0  0.1194
  H  H127  1  0.707300  0.381100  0.521800  1.0  0.1234
  H  H128  1  0.837700  0.449200  0.528800  1.0  0.1241
  H  H129  1  0.784000  0.809000  0.410000  1.0  0.2179
  H  H130  1  0.890800  0.829800  0.290500  1.0  0.1293
  H  H131  1  0.953400  0.955700  0.300000  1.0  0.1166
  H  H132  1  0.930400  0.012600  0.363900  1.0  0.1465
  H  H133  1  0.561400  0.872600  0.896670  1.0  0.1267
  H  H134  1  0.470100  0.843200  0.767070  1.0  0.1264
  H  H135  1  0.406000  0.715600  0.779070  1.0  0.1149
  H  H136  1  0.426400  0.662900  0.846570  1.0  0.1281
  H  H137  1  0.799800  0.765800  0.924170  1.0  0.1304
  H  H138  1  0.005400  0.896800  0.977770  1.0  0.127
  H  H139  1  0.955200  0.917800  0.043770  1.0  0.1205
  H  H140  1  0.826100  0.864300  0.051670  1.0  0.123
  H  H141  1  0.343800  0.463900  0.078970  1.0  0.1472
  H  H142  1  0.412900  0.672800  0.125870  1.0  0.126
  H  H143  1  0.341300  0.623600  0.194070  1.0  0.1187
  H  H144  1  0.262500  0.492800  0.200870  1.0  0.1381
  H  H145  1  0.899100  0.525400  0.902670  1.0  0.1356
  H  H146  1  0.815800  0.512500  0.773270  1.0  0.1263
  H  H147  1  0.743700  0.382400  0.781770  1.0  0.1199
  H  H148  1  0.769500  0.325100  0.844170  1.0  0.1144
  H  H149  1  0.704400  0.148500  0.076370  1.0  0.1279
  H  H150  1  0.765000  0.350700  0.129870  1.0  0.12
  H  H151  1  0.673800  0.292700  0.188470  1.0  0.1241
  H  H152  1  0.611500  0.162300  0.195470  1.0  0.1245
  H  H153  1  0.025000  0.216000  0.076670  1.0  0.2179
  H  H154  1  0.939000  0.109200  0.957170  1.0  0.1287
  H  H155  1  0.002300  0.046600  0.966670  1.0  0.1167
  H  H156  1  0.082200  0.069600  0.030570  1.0  0.1477
  H  H157  1  0.311200  0.438600  0.563330  1.0  0.127
  H  H158  1  0.373100  0.529900  0.433730  1.0  0.1266
  H  H159  1  0.309600  0.594000  0.445730  1.0  0.115
  H  H160  1  0.236500  0.573600  0.513230  1.0  0.1287
  H  H161  1  0.966000  0.200200  0.590830  1.0  0.1306
  H  H162  1  0.891400  0.994600  0.644430  1.0  0.1266
  H  H163  1  0.962600  0.044800  0.710430  1.0  0.1207
  H  H164  1  0.038200  0.173900  0.718330  1.0  0.1234
  H  H165  1  0.120100  0.656200  0.745630  1.0  0.147
  H  H166  1  0.259900  0.587100  0.792530  1.0  0.125
  H  H167  1  0.282300  0.658700  0.860730  1.0  0.1177
  H  H168  1  0.230300  0.737500  0.867530  1.0  0.1373
  H  H169  1  0.626300  0.100900  0.569330  1.0  0.1356
  H  H170  1  0.696700  0.184200  0.439930  1.0  0.1262
  H  H171  1  0.638700  0.256300  0.448430  1.0  0.1199
  H  H172  1  0.555600  0.230500  0.510830  1.0  0.1147
  H  H173  1  0.444100  0.295600  0.743030  1.0  0.1277
  H  H174  1  0.585700  0.235000  0.796530  1.0  0.119
  H  H175  1  0.618900  0.326200  0.855130  1.0  0.1237
  H  H176  1  0.550800  0.388500  0.862130  1.0  0.1236
  H  H177  1  0.191000  0.975000  0.743330  1.0  0.2166
  H  H178  1  0.170200  0.061000  0.623830  1.0  0.1288
  H  H179  1  0.044300  0.997700  0.633330  1.0  0.116
  H  H180  1  0.987400  0.917800  0.697230  1.0  0.1465
  C  C181  1  0.841000  0.310200  0.706300  1.0  0.0498
  C  C182  1  0.872800  0.351000  0.664300  1.0  -0.1617
  C  C183  1  0.823800  0.348000  0.628800  1.0  -0.0564
  C  C184  1  0.746700  0.308100  0.635600  1.0  -0.0843
  C  C185  1  0.714600  0.265800  0.676400  1.0  -0.1
  C  C186  1  0.765300  0.269400  0.713000  1.0  -0.1629
  C  C187  1  0.954900  0.394700  0.658300  1.0  0.7271
  C  C188  1  0.734300  0.220000  0.756200  1.0  0.718
  C  C189  1  0.795400  0.965100  0.782000  1.0  0.0403
  C  C190  1  0.828700  0.921500  0.778100  1.0  -0.1292
  C  C191  1  0.874600  0.921000  0.814000  1.0  -0.046
  C  C192  1  0.887100  0.963400  0.853300  1.0  -0.0716
  C  C193  1  0.854300  0.008300  0.858300  1.0  -0.0461
  C  C194  1  0.806200  0.008300  0.822900  1.0  -0.1421
  C  C195  1  0.809300  0.868700  0.735900  1.0  0.7338
  C  C196  1  0.765600  0.052000  0.828600  1.0  0.7458
  C  C197  1  0.495500  0.150500  0.936100  1.0  -0.0287
  C  C198  1  0.572900  0.183800  0.931700  1.0  -0.1366
  C  C199  1  0.621300  0.235500  0.964100  1.0  -0.0645
  C  C200  1  0.591800  0.250400  0.004100  1.0  -0.076
  C  C201  1  0.513200  0.217000  0.009300  1.0  -0.0901
  C  C202  1  0.467200  0.163800  0.976200  1.0  -0.1066
  C  C203  1  0.602200  0.160300  0.891100  1.0  0.6879
  C  C204  1  0.380900  0.119900  0.985800  1.0  0.7549
  C  C205  1  0.496500  0.626300  0.710700  1.0  0.0071
  C  C206  1  0.532800  0.670000  0.671200  1.0  -0.1484
  C  C207  1  0.489600  0.670800  0.634200  1.0  -0.0255
  C  C208  1  0.411200  0.632700  0.638100  1.0  -0.066
  C  C209  1  0.377000  0.585700  0.676700  1.0  -0.0371
  C  C210  1  0.419600  0.583300  0.713800  1.0  -0.1448
  C  C211  1  0.615900  0.710900  0.666500  1.0  0.706
  C  C212  1  0.384900  0.530800  0.754200  1.0  0.6979
  C  C213  1  0.177700  0.477000  0.933500  1.0  0.0267
  C  C214  1  0.256600  0.512900  0.930100  1.0  -0.0947
  C  C215  1  0.298700  0.563200  0.964100  1.0  -0.022
  C  C216  1  0.264100  0.581200  0.000300  1.0  -0.1037
  C  C217  1  0.185600  0.541400  0.003700  1.0  -0.0338
  C  C218  1  0.143300  0.489400  0.970600  1.0  -0.1103
  C  C219  1  0.289500  0.491100  0.891100  1.0  0.6966
  C  C220  1  0.058900  0.441300  0.977100  1.0  0.7011
  C  C221  1  0.182900  0.162400  0.890900  1.0  0.0476
  C  C222  1  0.171600  0.196400  0.849600  1.0  -0.1567
  C  C223  1  0.119100  0.149600  0.816800  1.0  -0.0707
  C  C224  1  0.081700  0.073900  0.822600  1.0  -0.0836
  C  C225  1  0.094000  0.039200  0.861000  1.0  -0.1235
  C  C226  1  0.146100  0.087600  0.895800  1.0  -0.103
  C  C227  1  0.220800  0.279500  0.844200  1.0  0.7256
  C  C228  1  0.168700  0.054400  0.936400  1.0  0.7007
  C  C229  1  0.469200  0.159000  0.372970  1.0  0.0498
  C  C230  1  0.478200  0.127200  0.330970  1.0  -0.1564
  C  C231  1  0.524200  0.176200  0.295470  1.0  -0.0565
  C  C232  1  0.561400  0.253300  0.302270  1.0  -0.0846
  C  C233  1  0.551200  0.285400  0.343070  1.0  -0.1018
  C  C234  1  0.504100  0.234700  0.379670  1.0  -0.1617
  C  C235  1  0.439800  0.045100  0.324970  1.0  0.7279
  C  C236  1  0.485700  0.265700  0.422870  1.0  0.7168
  C  C237  1  0.169700  0.204600  0.448670  1.0  0.0425
  C  C238  1  0.092800  0.171300  0.444770  1.0  -0.1266
  C  C239  1  0.046400  0.125400  0.480670  1.0  -0.0463
  C  C240  1  0.076300  0.112900  0.519970  1.0  -0.0722
  C  C241  1  0.154000  0.145700  0.524970  1.0  -0.0479
  C  C242  1  0.202100  0.193800  0.489570  1.0  -0.142
  C  C243  1  0.059400  0.190700  0.402570  1.0  0.7297
  C  C244  1  0.286400  0.234400  0.495270  1.0  0.7467
  C  C245  1  0.655000  0.504500  0.602770  1.0  -0.0282
  C  C246  1  0.610900  0.427100  0.598370  1.0  -0.1375
  C  C247  1  0.614200  0.378700  0.630770  1.0  -0.0636
  C  C248  1  0.658600  0.408200  0.670770  1.0  -0.0762
  C  C249  1  0.703800  0.486800  0.675970  1.0  -0.0913
  C  C250  1  0.696600  0.532800  0.642870  1.0  -0.1056
  C  C251  1  0.558100  0.397800  0.557770  1.0  0.6901
  C  C252  1  0.739000  0.619100  0.652470  1.0  0.7508
  C  C253  1  0.129800  0.503500  0.377370  1.0  0.0049
  C  C254  1  0.137200  0.467200  0.337870  1.0  -0.1461
  C  C255  1  0.181200  0.510400  0.300870  1.0  -0.0265
  C  C256  1  0.221500  0.588800  0.304770  1.0  -0.067
  C  C257  1  0.208700  0.623000  0.343370  1.0  -0.0373
  C  C258  1  0.163700  0.580400  0.380470  1.0  -0.1412
  C  C259  1  0.095000  0.384100  0.333170  1.0  0.707
  C  C260  1  0.145900  0.615100  0.420870  1.0  0.6982
  C  C261  1  0.299300  0.822300  0.600170  1.0  0.0287
  C  C262  1  0.256300  0.743400  0.596770  1.0  -0.0957
  C  C263  1  0.264500  0.701300  0.630770  1.0  -0.0202
  C  C264  1  0.317100  0.735900  0.666970  1.0  -0.1029
  C  C265  1  0.355800  0.814400  0.670370  1.0  -0.0378
  C  C266  1  0.346100  0.856700  0.637270  1.0  -0.1091
  C  C267  1  0.201600  0.710500  0.557770  1.0  0.6969
  C  C268  1  0.382400  0.941100  0.643770  1.0  0.706
  C  C269  1  0.979500  0.817100  0.557570  1.0  0.0503
  C  C270  1  0.024800  0.828400  0.516270  1.0  -0.1607
  C  C271  1  0.030500  0.880900  0.483470  1.0  -0.0708
  C  C272  1  0.992200  0.918300  0.489270  1.0  -0.0852
  C  C273  1  0.945200  0.906000  0.527670  1.0  -0.1226
  C  C274  1  0.941500  0.853900  0.562470  1.0  -0.1016
  C  C275  1  0.058700  0.779200  0.510870  1.0  0.7236
  C  C276  1  0.885700  0.831300  0.603070  1.0  0.701
  C  C277  1  0.689800  0.530800  0.039630  1.0  0.0491
  C  C278  1  0.649000  0.521800  0.997630  1.0  -0.1612
  C  C279  1  0.652000  0.475800  0.962130  1.0  -0.0563
  C  C280  1  0.691900  0.438600  0.968930  1.0  -0.0848
  C  C281  1  0.734200  0.448800  0.009730  1.0  -0.1001
  C  C282  1  0.730600  0.495900  0.046330  1.0  -0.1606
  C  C283  1  0.605300  0.560200  0.991630  1.0  0.7297
  C  C284  1  0.780000  0.514300  0.089530  1.0  0.7159
  C  C285  1  0.034900  0.830300  0.115330  1.0  0.0424
  C  C286  1  0.078500  0.907200  0.111430  1.0  -0.1275
  C  C287  1  0.079000  0.953600  0.147330  1.0  -0.0474
  C  C288  1  0.036600  0.923700  0.186630  1.0  -0.0728
  C  C289  1  0.991700  0.846000  0.191630  1.0  -0.048
  C  C290  1  0.991700  0.797900  0.156230  1.0  -0.1371
  C  C291  1  0.131300  0.940600  0.069230  1.0  0.7317
  C  C292  1  0.948000  0.713600  0.161930  1.0  0.7455
  C  C293  1  0.849500  0.345000  0.269430  1.0  -0.0295
  C  C294  1  0.816200  0.389100  0.265030  1.0  -0.137
  C  C295  1  0.764500  0.385800  0.297430  1.0  -0.0625
  C  C296  1  0.749600  0.341400  0.337430  1.0  -0.0749
  C  C297  1  0.783000  0.296200  0.342630  1.0  -0.0899
  C  C298  1  0.836200  0.303400  0.309530  1.0  -0.1061
  C  C299  1  0.839700  0.441900  0.224430  1.0  0.6909
  C  C300  1  0.880100  0.261000  0.319130  1.0  0.753
  C  C301  1  0.373700  0.870200  0.044030  1.0  0.0047
  C  C302  1  0.330000  0.862800  0.004530  1.0  -0.1467
  C  C303  1  0.329200  0.818800  0.967530  1.0  -0.0259
  C  C304  1  0.367300  0.778500  0.971430  1.0  -0.0673
  C  C305  1  0.414300  0.791300  0.010030  1.0  -0.0387
  C  C306  1  0.416700  0.836300  0.047130  1.0  -0.1419
  C  C307  1  0.289100  0.905000  0.999830  1.0  0.7063
  C  C308  1  0.469200  0.854100  0.087530  1.0  0.6964
  C  C309  1  0.523000  0.700700  0.266830  1.0  0.0309
  C  C310  1  0.487100  0.743700  0.263430  1.0  -0.0955
  C  C311  1  0.436800  0.735500  0.297430  1.0  -0.0194
  C  C312  1  0.418800  0.682900  0.333630  1.0  -0.1021
  C  C313  1  0.458600  0.644200  0.337030  1.0  -0.0376
  C  C314  1  0.510600  0.653900  0.303930  1.0  -0.1078
  C  C315  1  0.508900  0.798400  0.224430  1.0  0.695
  C  C316  1  0.558700  0.617600  0.310430  1.0  0.7036
  C  C317  1  0.837600  0.020500  0.224230  1.0  0.0477
  C  C318  1  0.803600  0.975200  0.182930  1.0  -0.1601
  C  C319  1  0.850400  0.969500  0.150130  1.0  -0.0694
  C  C320  1  0.926100  0.007800  0.155930  1.0  -0.0813
  C  C321  1  0.960800  0.054800  0.194330  1.0  -0.123
  C  C322  1  0.912400  0.058500  0.229130  1.0  -0.1005
  C  C323  1  0.720500  0.941300  0.177530  1.0  0.7234
  C  C324  1  0.945600  0.114300  0.269730  1.0  0.7018
  C  C325  1  0.159000  0.689800  0.206300  1.0  0.0492
  C  C326  1  0.127200  0.649000  0.164300  1.0  -0.1624
  C  C327  1  0.176200  0.652000  0.128800  1.0  -0.0552
  C  C328  1  0.253300  0.691900  0.135600  1.0  -0.084
  C  C329  1  0.285400  0.734200  0.176400  1.0  -0.0997
  C  C330  1  0.234700  0.730600  0.213000  1.0  -0.1614
  C  C331  1  0.045100  0.605300  0.158300  1.0  0.7263
  C  C332  1  0.265700  0.780000  0.256200  1.0  0.7173
  C  C333  1  0.204600  0.034900  0.282000  1.0  0.042
  C  C334  1  0.171300  0.078500  0.278100  1.0  -0.1278
  C  C335  1  0.125400  0.079000  0.314000  1.0  -0.0449
  C  C336  1  0.112900  0.036600  0.353300  1.0  -0.0704
  C  C337  1  0.145700  0.991700  0.358300  1.0  -0.0462
  C  C338  1  0.193800  0.991700  0.322900  1.0  -0.1412
  C  C339  1  0.190700  0.131300  0.235900  1.0  0.7329
  C  C340  1  0.234400  0.948000  0.328600  1.0  0.7452
  C  C341  1  0.504500  0.849500  0.436100  1.0  -0.0283
  C  C342  1  0.427100  0.816200  0.431700  1.0  -0.1367
  C  C343  1  0.378700  0.764500  0.464100  1.0  -0.0641
  C  C344  1  0.408200  0.749600  0.504100  1.0  -0.0769
  C  C345  1  0.486800  0.783000  0.509300  1.0  -0.0906
  C  C346  1  0.532800  0.836200  0.476200  1.0  -0.1069
  C  C347  1  0.397800  0.839700  0.391100  1.0  0.6882
  C  C348  1  0.619100  0.880100  0.485800  1.0  0.7527
  C  C349  1  0.503500  0.373700  0.210700  1.0  0.0047
  C  C350  1  0.467200  0.330000  0.171200  1.0  -0.1481
  C  C351  1  0.510400  0.329200  0.134200  1.0  -0.0256
  C  C352  1  0.588800  0.367300  0.138100  1.0  -0.0667
  C  C353  1  0.623000  0.414300  0.176700  1.0  -0.0382
  C  C354  1  0.580400  0.416700  0.213800  1.0  -0.1417
  C  C355  1  0.384100  0.289100  0.166500  1.0  0.7058
  C  C356  1  0.615100  0.469200  0.254200  1.0  0.6979
  C  C357  1  0.822300  0.523000  0.433500  1.0  0.0278
  C  C358  1  0.743400  0.487100  0.430100  1.0  -0.0929
  C  C359  1  0.701300  0.436800  0.464100  1.0  -0.0222
  C  C360  1  0.735900  0.418800  0.500300  1.0  -0.1045
  C  C361  1  0.814400  0.458600  0.503700  1.0  -0.0362
  C  C362  1  0.856700  0.510600  0.470600  1.0  -0.1088
  C  C363  1  0.710500  0.508900  0.391100  1.0  0.6967
  C  C364  1  0.941100  0.558700  0.477100  1.0  0.7047
  C  C365  1  0.817100  0.837600  0.390900  1.0  0.0475
  C  C366  1  0.828400  0.803600  0.349600  1.0  -0.1573
  C  C367  1  0.880900  0.850400  0.316800  1.0  -0.0726
  C  C368  1  0.918300  0.926100  0.322600  1.0  -0.0833
  C  C369  1  0.906000  0.960800  0.361000  1.0  -0.1243
  C  C370  1  0.853900  0.912400  0.395800  1.0  -0.101
  C  C371  1  0.779200  0.720500  0.344200  1.0  0.7248
  C  C372  1  0.831300  0.945600  0.436400  1.0  0.7013
  C  C373  1  0.530800  0.841000  0.872970  1.0  0.049
  C  C374  1  0.521800  0.872800  0.830970  1.0  -0.1559
  C  C375  1  0.475800  0.823800  0.795470  1.0  -0.0562
  C  C376  1  0.438600  0.746700  0.802270  1.0  -0.0849
  C  C377  1  0.448800  0.714600  0.843070  1.0  -0.0998
  C  C378  1  0.495900  0.765300  0.879670  1.0  -0.1626
  C  C379  1  0.560200  0.954900  0.824970  1.0  0.7273
  C  C380  1  0.514300  0.734300  0.922870  1.0  0.7171
  C  C381  1  0.830300  0.795400  0.948670  1.0  0.0419
  C  C382  1  0.907200  0.828700  0.944770  1.0  -0.1279
  C  C383  1  0.953600  0.874600  0.980670  1.0  -0.046
  C  C384  1  0.923700  0.887100  0.019970  1.0  -0.0726
  C  C385  1  0.846000  0.854300  0.024970  1.0  -0.0489
  C  C386  1  0.797900  0.806200  0.989570  1.0  -0.1426
  C  C387  1  0.940600  0.809300  0.902570  1.0  0.728
  C  C388  1  0.713600  0.765600  0.995270  1.0  0.7457
  C  C389  1  0.345000  0.495500  0.102770  1.0  -0.0292
  C  C390  1  0.389100  0.572900  0.098370  1.0  -0.1366
  C  C391  1  0.385800  0.621300  0.130770  1.0  -0.064
  C  C392  1  0.341400  0.591800  0.170770  1.0  -0.0767
  C  C393  1  0.296200  0.513200  0.175970  1.0  -0.0912
  C  C394  1  0.303400  0.467200  0.142870  1.0  -0.1049
  C  C395  1  0.441900  0.602200  0.057770  1.0  0.6902
  C  C396  1  0.261000  0.380900  0.152470  1.0  0.7518
  C  C397  1  0.870200  0.496500  0.877370  1.0  0.0057
  C  C398  1  0.862800  0.532800  0.837870  1.0  -0.145
  C  C399  1  0.818800  0.489600  0.800870  1.0  -0.0253
  C  C400  1  0.778500  0.411200  0.804770  1.0  -0.0673
  C  C401  1  0.791300  0.377000  0.843370  1.0  -0.0365
  C  C402  1  0.836300  0.419600  0.880470  1.0  -0.1432
  C  C403  1  0.905000  0.615900  0.833170  1.0  0.707
  C  C404  1  0.854100  0.384900  0.920870  1.0  0.6967
  C  C405  1  0.700700  0.177700  0.100170  1.0  0.0299
  C  C406  1  0.743700  0.256600  0.096770  1.0  -0.0977
  C  C407  1  0.735500  0.298700  0.130770  1.0  -0.019
  C  C408  1  0.682900  0.264100  0.166970  1.0  -0.103
  C  C409  1  0.644200  0.185600  0.170370  1.0  -0.0377
  C  C410  1  0.653900  0.143300  0.137270  1.0  -0.1076
  C  C411  1  0.798400  0.289500  0.057770  1.0  0.6957
  C  C412  1  0.617600  0.058900  0.143770  1.0  0.706
  C  C413  1  0.020500  0.182900  0.057570  1.0  0.0483
  C  C414  1  0.975200  0.171600  0.016270  1.0  -0.1594
  C  C415  1  0.969500  0.119100  0.983470  1.0  -0.0688
  C  C416  1  0.007800  0.081700  0.989270  1.0  -0.0835
  C  C417  1  0.054800  0.094000  0.027670  1.0  -0.1235
  C  C418  1  0.058500  0.146100  0.062470  1.0  -0.1006
  C  C419  1  0.941300  0.220800  0.010870  1.0  0.7248
  C  C420  1  0.114300  0.168700  0.103070  1.0  0.6995
  C  C421  1  0.310200  0.469200  0.539630  1.0  0.0499
  C  C422  1  0.351000  0.478200  0.497630  1.0  -0.1616
  C  C423  1  0.348000  0.524200  0.462130  1.0  -0.0571
  C  C424  1  0.308100  0.561400  0.468930  1.0  -0.0852
  C  C425  1  0.265800  0.551200  0.509730  1.0  -0.0994
  C  C426  1  0.269400  0.504100  0.546330  1.0  -0.1618
  C  C427  1  0.394700  0.439800  0.491630  1.0  0.7287
  C  C428  1  0.220000  0.485700  0.589530  1.0  0.716
  C  C429  1  0.965100  0.169700  0.615330  1.0  0.0426
  C  C430  1  0.921500  0.092800  0.611430  1.0  -0.1277
  C  C431  1  0.921000  0.046400  0.647330  1.0  -0.0459
  C  C432  1  0.963400  0.076300  0.686630  1.0  -0.0733
  C  C433  1  0.008300  0.154000  0.691630  1.0  -0.0476
  C  C434  1  0.008300  0.202100  0.656230  1.0  -0.1371
  C  C435  1  0.868700  0.059400  0.569230  1.0  0.7341
  C  C436  1  0.052000  0.286400  0.661930  1.0  0.7455
  C  C437  1  0.150500  0.655000  0.769430  1.0  -0.0301
  C  C438  1  0.183800  0.610900  0.765030  1.0  -0.1373
  C  C439  1  0.235500  0.614200  0.797430  1.0  -0.0624
  C  C440  1  0.250400  0.658600  0.837430  1.0  -0.0743
  C  C441  1  0.217000  0.703800  0.842630  1.0  -0.0896
  C  C442  1  0.163800  0.696600  0.809530  1.0  -0.1059
  C  C443  1  0.160300  0.558100  0.724430  1.0  0.6913
  C  C444  1  0.119900  0.739000  0.819130  1.0  0.7534
  C  C445  1  0.626300  0.129800  0.544030  1.0  0.006
  C  C446  1  0.670000  0.137200  0.504530  1.0  -0.1486
  C  C447  1  0.670800  0.181200  0.467530  1.0  -0.0254
  C  C448  1  0.632700  0.221500  0.471430  1.0  -0.0681
  C  C449  1  0.585700  0.208700  0.510030  1.0  -0.0372
  C  C450  1  0.583300  0.163700  0.547130  1.0  -0.1435
  C  C451  1  0.710900  0.095000  0.499830  1.0  0.706
  C  C452  1  0.530800  0.145900  0.587530  1.0  0.6976
  C  C453  1  0.477000  0.299300  0.766830  1.0  0.0288
  C  C454  1  0.512900  0.256300  0.763430  1.0  -0.0953
  C  C455  1  0.563200  0.264500  0.797430  1.0  -0.0197
  C  C456  1  0.581200  0.317100  0.833630  1.0  -0.1032
  C  C457  1  0.541400  0.355800  0.837030  1.0  -0.0357
  C  C458  1  0.489400  0.346100  0.803930  1.0  -0.1089
  C  C459  1  0.491100  0.201600  0.724430  1.0  0.6962
  C  C460  1  0.441300  0.382400  0.810430  1.0  0.7004
  C  C461  1  0.162400  0.979500  0.724230  1.0  0.0498
  C  C462  1  0.196400  0.024800  0.682930  1.0  -0.1609
  C  C463  1  0.149600  0.030500  0.650130  1.0  -0.0699
  C  C464  1  0.073900  0.992200  0.655930  1.0  -0.0817
  C  C465  1  0.039200  0.945200  0.694330  1.0  -0.122
  C  C466  1  0.087600  0.941500  0.729130  1.0  -0.1033
  C  C467  1  0.279500  0.058700  0.677530  1.0  0.723
  C  C468  1  0.054400  0.885700  0.769730  1.0  0.7034
  O  O469  1  0.982600  0.422100  0.618500  1.0  -0.6777
  O  O470  1  0.995400  0.397400  0.693100  1.0  -0.5725
  O  O471  1  0.664400  0.169100  0.756100  1.0  -0.6392
  O  O472  1  0.775800  0.226000  0.790300  1.0  -0.633
  O  O473  1  0.819400  0.814000  0.739300  1.0  -0.6268
  O  O474  1  0.781500  0.882800  0.700300  1.0  -0.6421
  O  O475  1  0.770200  0.084400  0.867800  1.0  -0.7353
  O  O476  1  0.730600  0.056600  0.794700  1.0  -0.5504
  O  O477  1  0.671600  0.178500  0.890000  1.0  -0.6353
  O  O478  1  0.559000  0.122200  0.858000  1.0  -0.6203
  O  O479  1  0.356300  0.129000  0.023800  1.0  -0.6621
  O  O480  1  0.341500  0.073400  0.957000  1.0  -0.548
  O  O481  1  0.647000  0.747700  0.630500  1.0  -0.6224
  O  O482  1  0.651000  0.701600  0.701100  1.0  -0.5839
  O  O483  1  0.321600  0.471800  0.750100  1.0  -0.6889
  O  O484  1  0.419300  0.544100  0.793000  1.0  -0.6701
  O  O485  1  0.352300  0.491600  0.897700  1.0  -0.6892
  O  O486  1  0.251600  0.465800  0.853400  1.0  -0.6438
  O  O487  1  0.026900  0.453200  0.011100  1.0  -0.6607
  O  O488  1  0.023400  0.388100  0.948700  1.0  -0.5709
  O  O489  1  0.210000  0.308900  0.807700  1.0  -0.6698
  O  O490  1  0.275100  0.315300  0.871600  1.0  -0.5906
  O  O491  1  0.197400  0.092100  0.971100  1.0  -0.5808
  O  O492  1  0.156900  0.990200  0.932100  1.0  -0.629
  O  O493  1  0.439500  0.017400  0.285170  1.0  -0.6787
  O  O494  1  0.402000  0.004600  0.359770  1.0  -0.5735
  O  O495  1  0.504700  0.335600  0.422770  1.0  -0.6411
  O  O496  1  0.450200  0.224200  0.456970  1.0  -0.6327
  O  O497  1  0.994600  0.180600  0.405970  1.0  -0.6331
  O  O498  1  0.101300  0.218500  0.366970  1.0  -0.6414
  O  O499  1  0.314200  0.229800  0.534470  1.0  -0.7331
  O  O500  1  0.326000  0.269400  0.461370  1.0  -0.5494
  O  O501  1  0.506900  0.328400  0.556670  1.0  -0.6391
  O  O502  1  0.563200  0.441000  0.524670  1.0  -0.6209
  O  O503  1  0.772700  0.643700  0.690470  1.0  -0.6627
  O  O504  1  0.731900  0.658500  0.623670  1.0  -0.5477
  O  O505  1  0.100700  0.353000  0.297170  1.0  -0.6252
  O  O506  1  0.050600  0.349000  0.367770  1.0  -0.5846
  O  O507  1  0.150200  0.678400  0.416770  1.0  -0.6947
  O  O508  1  0.124800  0.580700  0.459670  1.0  -0.6715
  O  O509  1  0.139300  0.647700  0.564370  1.0  -0.6877
  O  O510  1  0.214200  0.748400  0.520070  1.0  -0.6432
  O  O511  1  0.426300  0.973100  0.677770  1.0  -0.6617
  O  O512  1  0.364700  0.976600  0.615370  1.0  -0.573
  O  O513  1  0.098900  0.790000  0.474370  1.0  -0.6703
  O  O514  1  0.040200  0.724900  0.538270  1.0  -0.5889
  O  O515  1  0.894700  0.802600  0.637770  1.0  -0.5808
  O  O516  1  0.833300  0.843100  0.598770  1.0  -0.6265
  O  O517  1  0.577900  0.560500  0.951830  1.0  -0.6767
  O  O518  1  0.602600  0.598000  0.026430  1.0  -0.5721
  O  O519  1  0.830900  0.495300  0.089430  1.0  -0.6361
  O  O520  1  0.774000  0.549800  0.123630  1.0  -0.632
  O  O521  1  0.186000  0.005400  0.072630  1.0  -0.6331
  O  O522  1  0.117200  0.898700  0.033630  1.0  -0.6434
  O  O523  1  0.915600  0.685800  0.201130  1.0  -0.735
  O  O524  1  0.943400  0.674000  0.128030  1.0  -0.5522
  O  O525  1  0.821500  0.493100  0.223330  1.0  -0.6358
  O  O526  1  0.877800  0.436800  0.191330  1.0  -0.6234
  O  O527  1  0.871000  0.227300  0.357130  1.0  -0.6632
  O  O528  1  0.926600  0.268100  0.290330  1.0  -0.5461
  O  O529  1  0.252300  0.899300  0.963830  1.0  -0.6221
  O  O530  1  0.298400  0.949400  0.034430  1.0  -0.5833
  O  O531  1  0.528200  0.849800  0.083430  1.0  -0.6917
  O  O532  1  0.455900  0.875200  0.126330  1.0  -0.6715
  O  O533  1  0.508400  0.860700  0.231030  1.0  -0.6919
  O  O534  1  0.534200  0.785800  0.186730  1.0  -0.6446
  O  O535  1  0.546800  0.573700  0.344430  1.0  -0.6608
  O  O536  1  0.611900  0.635300  0.282030  1.0  -0.5718
  O  O537  1  0.691100  0.901100  0.141030  1.0  -0.6707
  O  O538  1  0.684700  0.959800  0.204930  1.0  -0.5904
  O  O539  1  0.907900  0.105300  0.304430  1.0  -0.5812
  O  O540  1  0.009800  0.166700  0.265430  1.0  -0.6245
  O  O541  1  0.017400  0.577900  0.118500  1.0  -0.6792
  O  O542  1  0.004600  0.602600  0.193100  1.0  -0.5729
  O  O543  1  0.335600  0.830900  0.256100  1.0  -0.6414
  O  O544  1  0.224200  0.774000  0.290300  1.0  -0.6316
  O  O545  1  0.180600  0.186000  0.239300  1.0  -0.6289
  O  O546  1  0.218500  0.117200  0.200300  1.0  -0.6442
  O  O547  1  0.229800  0.915600  0.367800  1.0  -0.7324
  O  O548  1  0.269400  0.943400  0.294700  1.0  -0.5509
  O  O549  1  0.328400  0.821500  0.390000  1.0  -0.636
  O  O550  1  0.441000  0.877800  0.358000  1.0  -0.6227
  O  O551  1  0.643700  0.871000  0.523800  1.0  -0.6609
  O  O552  1  0.658500  0.926600  0.457000  1.0  -0.5481
  O  O553  1  0.353000  0.252300  0.130500  1.0  -0.6232
  O  O554  1  0.349000  0.298400  0.201100  1.0  -0.5836
  O  O555  1  0.678400  0.528200  0.250100  1.0  -0.6911
  O  O556  1  0.580700  0.455900  0.293000  1.0  -0.6703
  O  O557  1  0.647700  0.508400  0.397700  1.0  -0.6908
  O  O558  1  0.748400  0.534200  0.353400  1.0  -0.6418
  O  O559  1  0.973100  0.546800  0.511100  1.0  -0.6606
  O  O560  1  0.976600  0.611900  0.448700  1.0  -0.5712
  O  O561  1  0.790000  0.691100  0.307700  1.0  -0.671
  O  O562  1  0.724900  0.684700  0.371600  1.0  -0.5915
  O  O563  1  0.802600  0.907900  0.471100  1.0  -0.5807
  O  O564  1  0.843100  0.009800  0.432100  1.0  -0.6292
  O  O565  1  0.560500  0.982600  0.785170  1.0  -0.6804
  O  O566  1  0.598000  0.995400  0.859770  1.0  -0.5731
  O  O567  1  0.495300  0.664400  0.922770  1.0  -0.642
  O  O568  1  0.549800  0.775800  0.956970  1.0  -0.6323
  O  O569  1  0.005400  0.819400  0.905970  1.0  -0.6324
  O  O570  1  0.898700  0.781500  0.866970  1.0  -0.642
  O  O571  1  0.685800  0.770200  0.034470  1.0  -0.7328
  O  O572  1  0.674000  0.730600  0.961370  1.0  -0.5511
  O  O573  1  0.493100  0.671600  0.056670  1.0  -0.6372
  O  O574  1  0.436800  0.559000  0.024670  1.0  -0.6222
  O  O575  1  0.227300  0.356300  0.190470  1.0  -0.6645
  O  O576  1  0.268100  0.341500  0.123670  1.0  -0.5471
  O  O577  1  0.899300  0.647000  0.797170  1.0  -0.6236
  O  O578  1  0.949400  0.651000  0.867770  1.0  -0.5839
  O  O579  1  0.849800  0.321600  0.916770  1.0  -0.694
  O  O580  1  0.875200  0.419300  0.959670  1.0  -0.6718
  O  O581  1  0.860700  0.352300  0.064370  1.0  -0.6905
  O  O582  1  0.785800  0.251600  0.020070  1.0  -0.6445
  O  O583  1  0.573700  0.026900  0.177770  1.0  -0.6625
  O  O584  1  0.635300  0.023400  0.115370  1.0  -0.5737
  O  O585  1  0.901100  0.210000  0.974370  1.0  -0.6701
  O  O586  1  0.959800  0.275100  0.038270  1.0  -0.5876
  O  O587  1  0.105300  0.197400  0.137770  1.0  -0.5807
  O  O588  1  0.166700  0.156900  0.098770  1.0  -0.6245
  O  O589  1  0.422100  0.439500  0.451830  1.0  -0.6776
  O  O590  1  0.397400  0.402000  0.526430  1.0  -0.5725
  O  O591  1  0.169100  0.504700  0.589430  1.0  -0.6362
  O  O592  1  0.226000  0.450200  0.623630  1.0  -0.6326
  O  O593  1  0.814000  0.994600  0.572630  1.0  -0.6318
  O  O594  1  0.882800  0.101300  0.533630  1.0  -0.6427
  O  O595  1  0.084400  0.314200  0.701130  1.0  -0.7329
  O  O596  1  0.056600  0.326000  0.628030  1.0  -0.5504
  O  O597  1  0.178500  0.506900  0.723330  1.0  -0.6363
  O  O598  1  0.122200  0.563200  0.691330  1.0  -0.6197
  O  O599  1  0.129000  0.772700  0.857130  1.0  -0.6656
  O  O600  1  0.073400  0.731900  0.790330  1.0  -0.5457
  O  O601  1  0.747700  0.100700  0.463830  1.0  -0.6228
  O  O602  1  0.701600  0.050600  0.534430  1.0  -0.5828
  O  O603  1  0.471800  0.150200  0.583430  1.0  -0.692
  O  O604  1  0.544100  0.124800  0.626330  1.0  -0.6703
  O  O605  1  0.491600  0.139300  0.731030  1.0  -0.6896
  O  O606  1  0.465800  0.214200  0.686730  1.0  -0.6432
  O  O607  1  0.453200  0.426300  0.844430  1.0  -0.6614
  O  O608  1  0.388100  0.364700  0.782030  1.0  -0.5707
  O  O609  1  0.308900  0.098900  0.641030  1.0  -0.6695
  O  O610  1  0.315300  0.040200  0.704930  1.0  -0.5898
  O  O611  1  0.092100  0.894700  0.804430  1.0  -0.5803
  O  O612  1  0.990200  0.833300  0.765430  1.0  -0.6254
