# generated using pymatgen
data_KCdH8(C2O)8
_symmetry_space_group_name_H-M   'P 1'
_cell_length_a   20.59090000
_cell_length_b   20.59090000
_cell_length_c   28.30820000
_cell_angle_alpha   90.00000000
_cell_angle_beta   90.00000000
_cell_angle_gamma   120.00000000
_symmetry_Int_Tables_number   1
_chemical_formula_structural   KCdH8(C2O)8
_chemical_formula_sum   'K18 Cd18 H144 C288 O144'
_cell_volume   10394.25927930
_cell_formula_units_Z   18
loop_
 _symmetry_equiv_pos_site_id
 _symmetry_equiv_pos_as_xyz
  1  'x, y, z'
loop_
 _atom_site_type_symbol
 _atom_site_label
 _atom_site_symmetry_multiplicity
 _atom_site_fract_x
 _atom_site_fract_y
 _atom_site_fract_z
 _atom_site_occupancy
 _atom_site_charge
  K  K1  1  0.150450  0.395990  0.028150  1.0  0.9653
  K  K2  1  0.925590  0.728030  0.110360  1.0  0.9512
  K  K3  1  0.574810  0.057490  0.113940  1.0  0.9808
  K  K4  1  0.245540  0.849550  0.361480  1.0  0.9649
  K  K5  1  0.802440  0.074410  0.443690  1.0  0.9502
  K  K6  1  0.482680  0.425190  0.447270  1.0  0.9787
  K  K7  1  0.604010  0.754460  0.694820  1.0  0.9658
  K  K8  1  0.271970  0.197560  0.777030  1.0  0.951
  K  K9  1  0.942510  0.517320  0.780610  1.0  0.9808
  K  K10  1  0.849550  0.604010  0.528150  1.0  0.9652
  K  K11  1  0.074410  0.271970  0.610360  1.0  0.9519
  K  K12  1  0.425190  0.942510  0.613940  1.0  0.9796
  K  K13  1  0.754460  0.150450  0.861480  1.0  0.966
  K  K14  1  0.197560  0.925590  0.943690  1.0  0.9496
  K  K15  1  0.517320  0.574810  0.947270  1.0  0.9789
  K  K16  1  0.395990  0.245540  0.194820  1.0  0.9649
  K  K17  1  0.728030  0.802440  0.277030  1.0  0.9516
  K  K18  1  0.057490  0.482680  0.280610  1.0  0.9805
  Cd  Cd19  1  0.112000  0.443250  0.155600  1.0  1.0582
  Cd  Cd20  1  0.003010  0.770510  0.981990  1.0  1.0567
  Cd  Cd21  1  0.423540  0.087370  0.156460  1.0  1.0704
  Cd  Cd22  1  0.331250  0.888000  0.488930  1.0  1.0568
  Cd  Cd23  1  0.767500  0.996990  0.315320  1.0  1.0568
  Cd  Cd24  1  0.663830  0.576460  0.489790  1.0  1.0692
  Cd  Cd25  1  0.556750  0.668750  0.822260  1.0  1.0565
  Cd  Cd26  1  0.229490  0.232500  0.648660  1.0  1.0559
  Cd  Cd27  1  0.912640  0.336180  0.823130  1.0  1.0671
  Cd  Cd28  1  0.888000  0.556750  0.655600  1.0  1.0572
  Cd  Cd29  1  0.996990  0.229490  0.481990  1.0  1.0569
  Cd  Cd30  1  0.576460  0.912630  0.656460  1.0  1.066
  Cd  Cd31  1  0.668750  0.112000  0.988930  1.0  1.0577
  Cd  Cd32  1  0.232500  0.003010  0.815320  1.0  1.0557
  Cd  Cd33  1  0.336170  0.423530  0.989790  1.0  1.0666
  Cd  Cd34  1  0.443250  0.331250  0.322260  1.0  1.0559
  Cd  Cd35  1  0.770510  0.767500  0.148660  1.0  1.0571
  Cd  Cd36  1  0.087370  0.663830  0.323130  1.0  1.0692
  H  H37  1  0.314100  0.439600  0.250200  1.0  0.1268
  H  H38  1  0.374500  0.530700  0.379000  1.0  0.12
  H  H39  1  0.308000  0.592100  0.368200  1.0  0.1171
  H  H40  1  0.238900  0.573000  0.300100  1.0  0.1134
  H  H41  1  0.966700  0.200600  0.220700  1.0  0.1294
  H  H42  1  0.887800  0.993500  0.167900  1.0  0.123
  H  H43  1  0.963600  0.045300  0.101700  1.0  0.1101
  H  H44  1  0.036100  0.173200  0.093700  1.0  0.1215
  H  H45  1  0.119700  0.655500  0.065700  1.0  0.1295
  H  H46  1  0.258700  0.585100  0.020400  1.0  0.119
  H  H47  1  0.285600  0.660000  0.954200  1.0  0.1125
  H  H48  1  0.231400  0.734700  0.944300  1.0  0.1269
  H  H49  1  0.624900  0.098300  0.244900  1.0  0.1276
  H  H50  1  0.697300  0.185600  0.373600  1.0  0.1231
  H  H51  1  0.633900  0.251600  0.366600  1.0  0.1126
  H  H52  1  0.557000  0.231900  0.302200  1.0  0.1166
  H  H53  1  0.444400  0.292100  0.071400  1.0  0.1268
  H  H54  1  0.588600  0.234000  0.018000  1.0  0.1228
  H  H55  1  0.617500  0.321500  0.957800  1.0  0.1094
  H  H56  1  0.554600  0.388000  0.952500  1.0  0.1253
  H  H57  1  0.188000  0.977400  0.065900  1.0  0.2084
  H  H58  1  0.173900  0.063900  0.187800  1.0  0.1259
  H  H59  1  0.045100  0.000300  0.178900  1.0  0.1095
  H  H60  1  0.990000  0.922700  0.114400  1.0  0.1209
  H  H61  1  0.125500  0.685900  0.583530  1.0  0.1267
  H  H62  1  0.156200  0.625500  0.712330  1.0  0.1197
  H  H63  1  0.284100  0.692000  0.701530  1.0  0.1166
  H  H64  1  0.334100  0.761100  0.633430  1.0  0.1126
  H  H65  1  0.233900  0.033300  0.554030  1.0  0.1296
  H  H66  1  0.105700  0.112200  0.501230  1.0  0.1219
  H  H67  1  0.081700  0.036400  0.435030  1.0  0.1096
  H  H68  1  0.137100  0.963900  0.427030  1.0  0.1214
  H  H69  1  0.535800  0.880300  0.399030  1.0  0.1302
  H  H70  1  0.326400  0.741300  0.353730  1.0  0.1199
  H  H71  1  0.374400  0.714400  0.287530  1.0  0.1151
  H  H72  1  0.503300  0.768600  0.277630  1.0  0.1281
  H  H73  1  0.473400  0.375100  0.578230  1.0  0.127
  H  H74  1  0.488300  0.302700  0.706930  1.0  0.1231
  H  H75  1  0.617700  0.366100  0.699930  1.0  0.1126
  H  H76  1  0.674900  0.443000  0.635530  1.0  0.1157
  H  H77  1  0.847700  0.555600  0.404730  1.0  0.127
  H  H78  1  0.645400  0.411400  0.351330  1.0  0.1232
  H  H79  1  0.704000  0.382500  0.291130  1.0  0.1105
  H  H80  1  0.833400  0.445400  0.285830  1.0  0.1261
  H  H81  1  0.789400  0.812000  0.399230  1.0  0.2098
  H  H82  1  0.890000  0.826100  0.521130  1.0  0.1259
  H  H83  1  0.955200  0.954900  0.512230  1.0  0.1106
  H  H84  1  0.932700  0.010000  0.447730  1.0  0.1207
  H  H85  1  0.560400  0.874500  0.916870  1.0  0.1268
  H  H86  1  0.469300  0.843800  0.045670  1.0  0.1202
  H  H87  1  0.407900  0.715900  0.034870  1.0  0.1172
  H  H88  1  0.427000  0.665900  0.966770  1.0  0.1146
  H  H89  1  0.799400  0.766100  0.887370  1.0  0.1296
  H  H90  1  0.006500  0.894300  0.834570  1.0  0.1233
  H  H91  1  0.954700  0.918300  0.768370  1.0  0.1096
  H  H92  1  0.826800  0.862900  0.760370  1.0  0.1212
  H  H93  1  0.344500  0.464200  0.732370  1.0  0.1299
  H  H94  1  0.414900  0.673600  0.687070  1.0  0.1206
  H  H95  1  0.340000  0.625600  0.620870  1.0  0.1142
  H  H96  1  0.265300  0.496700  0.610970  1.0  0.1277
  H  H97  1  0.901700  0.526600  0.911570  1.0  0.1276
  H  H98  1  0.814400  0.511700  0.040270  1.0  0.1237
  H  H99  1  0.748400  0.382300  0.033270  1.0  0.1132
  H  H100  1  0.768100  0.325100  0.968870  1.0  0.1164
  H  H101  1  0.707900  0.152300  0.738070  1.0  0.1268
  H  H102  1  0.766000  0.354600  0.684670  1.0  0.1238
  H  H103  1  0.678500  0.296000  0.624470  1.0  0.1104
  H  H104  1  0.612000  0.166600  0.619170  1.0  0.126
  H  H105  1  0.022600  0.210600  0.732570  1.0  0.2097
  H  H106  1  0.936100  0.110000  0.854470  1.0  0.1255
  H  H107  1  0.999700  0.044800  0.845570  1.0  0.1105
  H  H108  1  0.077300  0.067300  0.781070  1.0  0.1213
  H  H109  1  0.685900  0.560400  0.750200  1.0  0.127
  H  H110  1  0.625500  0.469300  0.879000  1.0  0.1201
  H  H111  1  0.692000  0.407900  0.868200  1.0  0.117
  H  H112  1  0.761100  0.427000  0.800100  1.0  0.1136
  H  H113  1  0.033300  0.799400  0.720700  1.0  0.1291
  H  H114  1  0.112200  0.006500  0.667900  1.0  0.1231
  H  H115  1  0.036400  0.954700  0.601700  1.0  0.1098
  H  H116  1  0.963900  0.826800  0.593700  1.0  0.1221
  H  H117  1  0.880300  0.344500  0.565700  1.0  0.1295
  H  H118  1  0.741300  0.414900  0.520400  1.0  0.1188
  H  H119  1  0.714400  0.340000  0.454200  1.0  0.1141
  H  H120  1  0.768600  0.265300  0.444300  1.0  0.1272
  H  H121  1  0.375100  0.901700  0.744900  1.0  0.1276
  H  H122  1  0.302700  0.814400  0.873600  1.0  0.1232
  H  H123  1  0.366100  0.748400  0.866600  1.0  0.1137
  H  H124  1  0.443000  0.768100  0.802200  1.0  0.1165
  H  H125  1  0.555600  0.707900  0.571400  1.0  0.1265
  H  H126  1  0.411400  0.766000  0.518000  1.0  0.1229
  H  H127  1  0.382500  0.678500  0.457800  1.0  0.1097
  H  H128  1  0.445400  0.612000  0.452500  1.0  0.1258
  H  H129  1  0.812000  0.022600  0.565900  1.0  0.2081
  H  H130  1  0.826100  0.936100  0.687800  1.0  0.1253
  H  H131  1  0.954900  0.999700  0.678900  1.0  0.1099
  H  H132  1  0.010000  0.077300  0.614400  1.0  0.1208
  H  H133  1  0.874500  0.314100  0.083530  1.0  0.1267
  H  H134  1  0.843800  0.374500  0.212330  1.0  0.1198
  H  H135  1  0.715900  0.308000  0.201530  1.0  0.1164
  H  H136  1  0.665900  0.238900  0.133430  1.0  0.1129
  H  H137  1  0.766100  0.966700  0.054030  1.0  0.1294
  H  H138  1  0.894300  0.887800  0.001230  1.0  0.122
  H  H139  1  0.918300  0.963600  0.935030  1.0  0.1094
  H  H140  1  0.862900  0.036100  0.927030  1.0  0.1205
  H  H141  1  0.464200  0.119700  0.899030  1.0  0.1298
  H  H142  1  0.673600  0.258700  0.853730  1.0  0.1198
  H  H143  1  0.625600  0.285600  0.787530  1.0  0.1144
  H  H144  1  0.496700  0.231400  0.777630  1.0  0.1277
  H  H145  1  0.526600  0.624900  0.078230  1.0  0.127
  H  H146  1  0.511700  0.697300  0.206930  1.0  0.1232
  H  H147  1  0.382300  0.633900  0.199930  1.0  0.113
  H  H148  1  0.325100  0.557000  0.135530  1.0  0.1162
  H  H149  1  0.152300  0.444400  0.904730  1.0  0.1272
  H  H150  1  0.354600  0.588600  0.851330  1.0  0.1235
  H  H151  1  0.296000  0.617500  0.791130  1.0  0.1102
  H  H152  1  0.166600  0.554600  0.785830  1.0  0.1256
  H  H153  1  0.210600  0.188000  0.899230  1.0  0.2083
  H  H154  1  0.110000  0.173900  0.021130  1.0  0.1257
  H  H155  1  0.044800  0.045100  0.012230  1.0  0.1107
  H  H156  1  0.067300  0.990000  0.947730  1.0  0.1199
  H  H157  1  0.439600  0.125500  0.416870  1.0  0.1268
  H  H158  1  0.530700  0.156200  0.545670  1.0  0.1201
  H  H159  1  0.592100  0.284100  0.534870  1.0  0.1168
  H  H160  1  0.573000  0.334100  0.466770  1.0  0.1147
  H  H161  1  0.200600  0.233900  0.387370  1.0  0.1298
  H  H162  1  0.993500  0.105700  0.334570  1.0  0.1229
  H  H163  1  0.045300  0.081700  0.268370  1.0  0.1102
  H  H164  1  0.173200  0.137100  0.260370  1.0  0.1216
  H  H165  1  0.655500  0.535800  0.232370  1.0  0.1303
  H  H166  1  0.585100  0.326400  0.187070  1.0  0.1206
  H  H167  1  0.660000  0.374400  0.120870  1.0  0.1146
  H  H168  1  0.734700  0.503300  0.110970  1.0  0.1276
  H  H169  1  0.098300  0.473400  0.411570  1.0  0.1275
  H  H170  1  0.185600  0.488300  0.540270  1.0  0.1238
  H  H171  1  0.251600  0.617700  0.533270  1.0  0.1134
  H  H172  1  0.231900  0.674900  0.468870  1.0  0.1176
  H  H173  1  0.292100  0.847700  0.238070  1.0  0.1268
  H  H174  1  0.234000  0.645400  0.184670  1.0  0.1239
  H  H175  1  0.321500  0.704000  0.124470  1.0  0.1107
  H  H176  1  0.388000  0.833400  0.119170  1.0  0.1264
  H  H177  1  0.977400  0.789400  0.232570  1.0  0.2101
  H  H178  1  0.063900  0.890000  0.354470  1.0  0.1251
  H  H179  1  0.000300  0.955200  0.345570  1.0  0.1097
  H  H180  1  0.922700  0.932700  0.281070  1.0  0.121
  C  C181  1  0.311270  0.468780  0.274370  1.0  0.0315
  C  C182  1  0.350350  0.477550  0.316510  1.0  -0.1527
  C  C183  1  0.348200  0.523800  0.351040  1.0  -0.0263
  C  C184  1  0.307800  0.560300  0.344770  1.0  -0.097
  C  C185  1  0.267100  0.549500  0.303930  1.0  -0.0209
  C  C186  1  0.268390  0.502730  0.267980  1.0  -0.1559
  C  C187  1  0.392720  0.436260  0.323120  1.0  0.7318
  C  C188  1  0.220310  0.485510  0.224860  1.0  0.6981
  C  C189  1  0.964870  0.169530  0.196270  1.0  0.0322
  C  C190  1  0.919520  0.092650  0.200620  1.0  -0.1424
  C  C191  1  0.918200  0.045200  0.165110  1.0  -0.0407
  C  C192  1  0.963100  0.076400  0.125340  1.0  -0.0758
  C  C193  1  0.006900  0.153200  0.120630  1.0  -0.0529
  C  C194  1  0.007720  0.201050  0.155870  1.0  -0.1481
  C  C195  1  0.867940  0.060460  0.242940  1.0  0.735
  C  C196  1  0.053270  0.284890  0.150070  1.0  0.7338
  C  C197  1  0.152120  0.655620  0.042770  1.0  0.0387
  C  C198  1  0.184720  0.610920  0.048900  1.0  -0.1497
  C  C199  1  0.235700  0.613700  0.016070  1.0  -0.0066
  C  C200  1  0.252100  0.658900  0.976660  1.0  -0.0759
  C  C201  1  0.218900  0.703200  0.970360  1.0  -0.0548
  C  C202  1  0.167300  0.700000  0.003070  1.0  -0.1371
  C  C203  1  0.161380  0.557880  0.090160  1.0  0.7027
  C  C204  1  0.124700  0.741400  0.993590  1.0  0.7383
  C  C205  1  0.625000  0.127220  0.270180  1.0  0.0306
  C  C206  1  0.667720  0.134360  0.309920  1.0  -0.1688
  C  C207  1  0.669500  0.180400  0.346490  1.0  -0.0349
  C  C208  1  0.630100  0.218700  0.342820  1.0  -0.0927
  C  C209  1  0.585300  0.208200  0.303770  1.0  -0.0438
  C  C210  1  0.582310  0.162460  0.267260  1.0  -0.1305
  C  C211  1  0.707300  0.090300  0.313590  1.0  0.702
  C  C212  1  0.530230  0.144030  0.226220  1.0  0.6912
  C  C213  1  0.477580  0.296370  0.047670  1.0  0.0228
  C  C214  1  0.513200  0.254110  0.050750  1.0  -0.1333
  C  C215  1  0.565000  0.262400  0.016600  1.0  -0.0433
  C  C216  1  0.581300  0.314000  0.980110  1.0  -0.0879
  C  C217  1  0.543700  0.354100  0.977070  1.0  -0.0454
  C  C218  1  0.490300  0.344290  0.010310  1.0  -0.1529
  C  C219  1  0.490620  0.197640  0.089530  1.0  0.7073
  C  C220  1  0.443200  0.381050  0.004830  1.0  0.7021
  C  C221  1  0.163900  0.983200  0.088100  1.0  0.0656
  C  C222  1  0.197600  0.027090  0.127950  1.0  -0.1409
  C  C223  1  0.152300  0.033600  0.161510  1.0  -0.0623
  C  C224  1  0.075000  0.995200  0.156230  1.0  -0.1047
  C  C225  1  0.041900  0.949300  0.117330  1.0  -0.0499
  C  C226  1  0.086550  0.943230  0.082840  1.0  -0.1916
  C  C227  1  0.280100  0.057800  0.135970  1.0  0.6979
  C  C228  1  0.054700  0.888690  0.042650  1.0  0.6959
  C  C229  1  0.157510  0.688730  0.607700  1.0  0.0305
  C  C230  1  0.127200  0.649650  0.649840  1.0  -0.1529
  C  C231  1  0.175600  0.651800  0.684370  1.0  -0.0252
  C  C232  1  0.252500  0.692200  0.678100  1.0  -0.0964
  C  C233  1  0.282400  0.732900  0.637260  1.0  -0.0218
  C  C234  1  0.234340  0.731610  0.601310  1.0  -0.1583
  C  C235  1  0.043540  0.607280  0.656450  1.0  0.7282
  C  C236  1  0.265200  0.779690  0.558190  1.0  0.7001
  C  C237  1  0.204660  0.035130  0.529600  1.0  0.032
  C  C238  1  0.173130  0.080480  0.533950  1.0  -0.1445
  C  C239  1  0.127000  0.081800  0.498440  1.0  -0.0382
  C  C240  1  0.113300  0.036900  0.458670  1.0  -0.0752
  C  C241  1  0.146300  0.993100  0.453960  1.0  -0.0519
  C  C242  1  0.193330  0.992280  0.489200  1.0  -0.1527
  C  C243  1  0.192520  0.132060  0.576270  1.0  0.7346
  C  C244  1  0.231620  0.946730  0.483400  1.0  0.7318
  C  C245  1  0.503500  0.847880  0.376100  1.0  0.0397
  C  C246  1  0.426200  0.815280  0.382230  1.0  -0.1478
  C  C247  1  0.378000  0.764300  0.349400  1.0  -0.0087
  C  C248  1  0.406800  0.747900  0.309990  1.0  -0.0768
  C  C249  1  0.484300  0.781100  0.303690  1.0  -0.0574
  C  C250  1  0.532700  0.832700  0.336400  1.0  -0.1381
  C  C251  1  0.396500  0.838620  0.423490  1.0  0.6989
  C  C252  1  0.616700  0.875300  0.326920  1.0  0.7392
  C  C253  1  0.502220  0.375000  0.603510  1.0  0.0301
  C  C254  1  0.466640  0.332280  0.643250  1.0  -0.1679
  C  C255  1  0.510900  0.330500  0.679820  1.0  -0.0352
  C  C256  1  0.588600  0.369900  0.676150  1.0  -0.0907
  C  C257  1  0.622900  0.414700  0.637100  1.0  -0.0418
  C  C258  1  0.580150  0.417690  0.600590  1.0  -0.1295
  C  C259  1  0.383000  0.292700  0.646920  1.0  0.7015
  C  C260  1  0.613800  0.469770  0.559550  1.0  0.6923
  C  C261  1  0.818790  0.522420  0.381000  1.0  0.0234
  C  C262  1  0.740910  0.486800  0.384080  1.0  -0.1318
  C  C263  1  0.697400  0.435000  0.349930  1.0  -0.0438
  C  C264  1  0.732700  0.418700  0.313440  1.0  -0.0907
  C  C265  1  0.810400  0.456300  0.310400  1.0  -0.0461
  C  C266  1  0.853990  0.509700  0.343640  1.0  -0.1542
  C  C267  1  0.707020  0.509380  0.422860  1.0  0.7057
  C  C268  1  0.937850  0.556800  0.338160  1.0  0.7049
  C  C269  1  0.819300  0.836100  0.421430  1.0  0.0644
  C  C270  1  0.829490  0.802400  0.461280  1.0  -0.1402
  C  C271  1  0.881300  0.847700  0.494840  1.0  -0.0637
  C  C272  1  0.920200  0.925000  0.489560  1.0  -0.1049
  C  C273  1  0.907400  0.958100  0.450660  1.0  -0.0504
  C  C274  1  0.856680  0.913450  0.416170  1.0  -0.1911
  C  C275  1  0.777700  0.719900  0.469300  1.0  0.7004
  C  C276  1  0.833990  0.945300  0.375980  1.0  0.6945
  C  C277  1  0.531220  0.842490  0.941040  1.0  0.0317
  C  C278  1  0.522450  0.872800  0.983180  1.0  -0.1445
  C  C279  1  0.476200  0.824400  0.017710  1.0  -0.0264
  C  C280  1  0.439700  0.747500  0.011440  1.0  -0.0968
  C  C281  1  0.450500  0.717600  0.970600  1.0  -0.0212
  C  C282  1  0.497270  0.765660  0.934650  1.0  -0.1581
  C  C283  1  0.563740  0.956460  0.989790  1.0  0.7307
  C  C284  1  0.514490  0.734800  0.891530  1.0  0.6987
  C  C285  1  0.830470  0.795340  0.862940  1.0  0.0322
  C  C286  1  0.907350  0.826870  0.867290  1.0  -0.1416
  C  C287  1  0.954800  0.873000  0.831780  1.0  -0.0388
  C  C288  1  0.923600  0.886700  0.792010  1.0  -0.0768
  C  C289  1  0.846800  0.853700  0.787300  1.0  -0.0525
  C  C290  1  0.798950  0.806670  0.822540  1.0  -0.153
  C  C291  1  0.939540  0.807480  0.909610  1.0  0.7302
  C  C292  1  0.715110  0.768380  0.816740  1.0  0.7349
  C  C293  1  0.344380  0.496500  0.709440  1.0  0.041
  C  C294  1  0.389080  0.573800  0.715570  1.0  -0.1502
  C  C295  1  0.386300  0.622000  0.682740  1.0  -0.0094
  C  C296  1  0.341100  0.593200  0.643330  1.0  -0.0766
  C  C297  1  0.296800  0.515700  0.637030  1.0  -0.0569
  C  C298  1  0.300000  0.467300  0.669740  1.0  -0.1367
  C  C299  1  0.442120  0.603500  0.756830  1.0  0.7005
  C  C300  1  0.258600  0.383300  0.660260  1.0  0.7396
  C  C301  1  0.872780  0.497780  0.936850  1.0  0.0309
  C  C302  1  0.865640  0.533360  0.976590  1.0  -0.1645
  C  C303  1  0.819600  0.489100  0.013160  1.0  -0.0359
  C  C304  1  0.781300  0.411400  0.009490  1.0  -0.0918
  C  C305  1  0.791800  0.377100  0.970440  1.0  -0.0427
  C  C306  1  0.837540  0.419850  0.933930  1.0  -0.1313
  C  C307  1  0.909700  0.617000  0.980260  1.0  0.7067
  C  C308  1  0.855970  0.386200  0.892890  1.0  0.6913
  C  C309  1  0.703630  0.181210  0.714340  1.0  0.0249
  C  C310  1  0.745890  0.259090  0.717420  1.0  -0.1355
  C  C311  1  0.737600  0.302600  0.683270  1.0  -0.0429
  C  C312  1  0.686000  0.267300  0.646780  1.0  -0.0884
  C  C313  1  0.645900  0.189600  0.643740  1.0  -0.047
  C  C314  1  0.655710  0.146010  0.676980  1.0  -0.152
  C  C315  1  0.802360  0.292980  0.756200  1.0  0.7065
  C  C316  1  0.618950  0.062150  0.671500  1.0  0.7055
  C  C317  1  0.016800  0.180700  0.754770  1.0  0.0653
  C  C318  1  0.972910  0.170510  0.794620  1.0  -0.1403
  C  C319  1  0.966400  0.118700  0.828180  1.0  -0.0623
  C  C320  1  0.004800  0.079800  0.822900  1.0  -0.1054
  C  C321  1  0.050700  0.092600  0.784000  1.0  -0.0532
  C  C322  1  0.056770  0.143320  0.749510  1.0  -0.1897
  C  C323  1  0.942200  0.222300  0.802640  1.0  0.6975
  C  C324  1  0.111310  0.166010  0.709320  1.0  0.6934
  C  C325  1  0.688730  0.531220  0.774370  1.0  0.032
  C  C326  1  0.649650  0.522450  0.816510  1.0  -0.1514
  C  C327  1  0.651800  0.476200  0.851040  1.0  -0.0265
  C  C328  1  0.692200  0.439700  0.844770  1.0  -0.0971
  C  C329  1  0.732900  0.450500  0.803930  1.0  -0.0222
  C  C330  1  0.731610  0.497270  0.767980  1.0  -0.1555
  C  C331  1  0.607280  0.563740  0.823120  1.0  0.7309
  C  C332  1  0.779690  0.514490  0.724860  1.0  0.6984
  C  C333  1  0.035130  0.830470  0.696270  1.0  0.0327
  C  C334  1  0.080480  0.907350  0.700620  1.0  -0.1443
  C  C335  1  0.081800  0.954800  0.665110  1.0  -0.0422
  C  C336  1  0.036900  0.923600  0.625340  1.0  -0.0772
  C  C337  1  0.993100  0.846800  0.620630  1.0  -0.0522
  C  C338  1  0.992280  0.798950  0.655870  1.0  -0.1494
  C  C339  1  0.132060  0.939540  0.742940  1.0  0.7337
  C  C340  1  0.946730  0.715110  0.650070  1.0  0.7338
  C  C341  1  0.847880  0.344380  0.542770  1.0  0.0414
  C  C342  1  0.815280  0.389080  0.548900  1.0  -0.1497
  C  C343  1  0.764300  0.386300  0.516070  1.0  -0.0062
  C  C344  1  0.747900  0.341100  0.476660  1.0  -0.0758
  C  C345  1  0.781100  0.296800  0.470360  1.0  -0.0557
  C  C346  1  0.832700  0.300000  0.503070  1.0  -0.138
  C  C347  1  0.838620  0.442120  0.590160  1.0  0.7017
  C  C348  1  0.875300  0.258600  0.493590  1.0  0.7383
  C  C349  1  0.375000  0.872780  0.770180  1.0  0.0312
  C  C350  1  0.332280  0.865640  0.809920  1.0  -0.1674
  C  C351  1  0.330500  0.819600  0.846490  1.0  -0.0348
  C  C352  1  0.369900  0.781300  0.842820  1.0  -0.0915
  C  C353  1  0.414700  0.791800  0.803770  1.0  -0.0457
  C  C354  1  0.417690  0.837540  0.767260  1.0  -0.1309
  C  C355  1  0.292700  0.909700  0.813590  1.0  0.7021
  C  C356  1  0.469770  0.855970  0.726220  1.0  0.6909
  C  C357  1  0.522420  0.703630  0.547670  1.0  0.0256
  C  C358  1  0.486800  0.745890  0.550750  1.0  -0.1338
  C  C359  1  0.435000  0.737600  0.516600  1.0  -0.0423
  C  C360  1  0.418700  0.686000  0.480110  1.0  -0.0888
  C  C361  1  0.456300  0.645900  0.477070  1.0  -0.0475
  C  C362  1  0.509700  0.655710  0.510310  1.0  -0.1525
  C  C363  1  0.509380  0.802360  0.589530  1.0  0.7065
  C  C364  1  0.556800  0.618950  0.504830  1.0  0.7041
  C  C365  1  0.836100  0.016800  0.588100  1.0  0.063
  C  C366  1  0.802400  0.972910  0.627950  1.0  -0.1416
  C  C367  1  0.847700  0.966400  0.661510  1.0  -0.0621
  C  C368  1  0.925000  0.004800  0.656230  1.0  -0.104
  C  C369  1  0.958100  0.050700  0.617330  1.0  -0.0508
  C  C370  1  0.913450  0.056770  0.582840  1.0  -0.1907
  C  C371  1  0.719900  0.942200  0.635970  1.0  0.6961
  C  C372  1  0.945300  0.111310  0.542650  1.0  0.6946
  C  C373  1  0.842490  0.311270  0.107700  1.0  0.0322
  C  C374  1  0.872800  0.350350  0.149840  1.0  -0.1522
  C  C375  1  0.824400  0.348200  0.184370  1.0  -0.0263
  C  C376  1  0.747500  0.307800  0.178100  1.0  -0.0964
  C  C377  1  0.717600  0.267100  0.137260  1.0  -0.0205
  C  C378  1  0.765660  0.268390  0.101310  1.0  -0.1575
  C  C379  1  0.956460  0.392720  0.156450  1.0  0.7294
  C  C380  1  0.734800  0.220310  0.058190  1.0  0.7002
  C  C381  1  0.795340  0.964870  0.029600  1.0  0.0312
  C  C382  1  0.826870  0.919520  0.033950  1.0  -0.1426
  C  C383  1  0.873000  0.918200  0.998440  1.0  -0.0398
  C  C384  1  0.886700  0.963100  0.958670  1.0  -0.0755
  C  C385  1  0.853700  0.006900  0.953960  1.0  -0.0505
  C  C386  1  0.806670  0.007720  0.989200  1.0  -0.1526
  C  C387  1  0.807480  0.867940  0.076270  1.0  0.735
  C  C388  1  0.768380  0.053270  0.983400  1.0  0.7319
  C  C389  1  0.496500  0.152120  0.876100  1.0  0.0409
  C  C390  1  0.573800  0.184720  0.882230  1.0  -0.149
  C  C391  1  0.622000  0.235700  0.849400  1.0  -0.0099
  C  C392  1  0.593200  0.252100  0.809990  1.0  -0.0777
  C  C393  1  0.515700  0.218900  0.803690  1.0  -0.0565
  C  C394  1  0.467300  0.167300  0.836400  1.0  -0.1383
  C  C395  1  0.603500  0.161380  0.923490  1.0  0.6987
  C  C396  1  0.383300  0.124700  0.826920  1.0  0.7401
  C  C397  1  0.497780  0.625000  0.103510  1.0  0.0303
  C  C398  1  0.533360  0.667720  0.143250  1.0  -0.1686
  C  C399  1  0.489100  0.669500  0.179820  1.0  -0.0359
  C  C400  1  0.411400  0.630100  0.176150  1.0  -0.0914
  C  C401  1  0.377100  0.585300  0.137100  1.0  -0.0426
  C  C402  1  0.419850  0.582310  0.100590  1.0  -0.1318
  C  C403  1  0.617000  0.707300  0.146920  1.0  0.7026
  C  C404  1  0.386200  0.530230  0.059550  1.0  0.6923
  C  C405  1  0.181210  0.477580  0.881000  1.0  0.0228
  C  C406  1  0.259090  0.513200  0.884080  1.0  -0.1331
  C  C407  1  0.302600  0.565000  0.849930  1.0  -0.0453
  C  C408  1  0.267300  0.581300  0.813440  1.0  -0.0891
  C  C409  1  0.189600  0.543700  0.810400  1.0  -0.045
  C  C410  1  0.146010  0.490300  0.843640  1.0  -0.1544
  C  C411  1  0.292980  0.490620  0.922860  1.0  0.7053
  C  C412  1  0.062150  0.443200  0.838160  1.0  0.7034
  C  C413  1  0.180700  0.163900  0.921430  1.0  0.0642
  C  C414  1  0.170510  0.197600  0.961280  1.0  -0.1394
  C  C415  1  0.118700  0.152300  0.994840  1.0  -0.0638
  C  C416  1  0.079800  0.075000  0.989560  1.0  -0.1045
  C  C417  1  0.092600  0.041900  0.950660  1.0  -0.0517
  C  C418  1  0.143320  0.086550  0.916170  1.0  -0.1924
  C  C419  1  0.222300  0.280100  0.969300  1.0  0.6999
  C  C420  1  0.166010  0.054700  0.875980  1.0  0.694
  C  C421  1  0.468780  0.157510  0.441040  1.0  0.0315
  C  C422  1  0.477550  0.127200  0.483180  1.0  -0.1457
  C  C423  1  0.523800  0.175600  0.517710  1.0  -0.0261
  C  C424  1  0.560300  0.252500  0.511440  1.0  -0.0965
  C  C425  1  0.549500  0.282400  0.470600  1.0  -0.0222
  C  C426  1  0.502730  0.234340  0.434650  1.0  -0.1571
  C  C427  1  0.436260  0.043540  0.489790  1.0  0.7316
  C  C428  1  0.485510  0.265200  0.391530  1.0  0.6998
  C  C429  1  0.169530  0.204660  0.362940  1.0  0.0317
  C  C430  1  0.092650  0.173130  0.367290  1.0  -0.1412
  C  C431  1  0.045200  0.127000  0.331780  1.0  -0.0378
  C  C432  1  0.076400  0.113300  0.292010  1.0  -0.0771
  C  C433  1  0.153200  0.146300  0.287300  1.0  -0.0533
  C  C434  1  0.201050  0.193330  0.322540  1.0  -0.1525
  C  C435  1  0.060460  0.192520  0.409610  1.0  0.7308
  C  C436  1  0.284890  0.231620  0.316740  1.0  0.7346
  C  C437  1  0.655620  0.503500  0.209440  1.0  0.0393
  C  C438  1  0.610920  0.426200  0.215570  1.0  -0.1494
  C  C439  1  0.613700  0.378000  0.182740  1.0  -0.0088
  C  C440  1  0.658900  0.406800  0.143330  1.0  -0.0774
  C  C441  1  0.703200  0.484300  0.137030  1.0  -0.0581
  C  C442  1  0.700000  0.532700  0.169740  1.0  -0.1369
  C  C443  1  0.557880  0.396500  0.256830  1.0  0.7003
  C  C444  1  0.741400  0.616700  0.160260  1.0  0.7384
  C  C445  1  0.127220  0.502220  0.436850  1.0  0.0313
  C  C446  1  0.134360  0.466640  0.476590  1.0  -0.1661
  C  C447  1  0.180400  0.510900  0.513160  1.0  -0.0354
  C  C448  1  0.218700  0.588600  0.509490  1.0  -0.0917
  C  C449  1  0.208200  0.622900  0.470440  1.0  -0.0424
  C  C450  1  0.162460  0.580150  0.433930  1.0  -0.1294
  C  C451  1  0.090300  0.383000  0.480260  1.0  0.7068
  C  C452  1  0.144030  0.613800  0.392890  1.0  0.6927
  C  C453  1  0.296370  0.818790  0.214340  1.0  0.024
  C  C454  1  0.254110  0.740910  0.217420  1.0  -0.1327
  C  C455  1  0.262400  0.697400  0.183270  1.0  -0.0427
  C  C456  1  0.314000  0.732700  0.146780  1.0  -0.0889
  C  C457  1  0.354100  0.810400  0.143740  1.0  -0.0462
  C  C458  1  0.344290  0.853990  0.176980  1.0  -0.1516
  C  C459  1  0.197640  0.707020  0.256200  1.0  0.7073
  C  C460  1  0.381050  0.937850  0.171500  1.0  0.7049
  C  C461  1  0.983200  0.819300  0.254770  1.0  0.0657
  C  C462  1  0.027090  0.829490  0.294620  1.0  -0.141
  C  C463  1  0.033600  0.881300  0.328180  1.0  -0.0628
  C  C464  1  0.995200  0.920200  0.322900  1.0  -0.1071
  C  C465  1  0.949300  0.907400  0.284000  1.0  -0.0521
  C  C466  1  0.943230  0.856680  0.249510  1.0  -0.1895
  C  C467  1  0.057800  0.777700  0.302640  1.0  0.6988
  C  C468  1  0.888690  0.833990  0.209320  1.0  0.6944
  O  O469  1  0.420600  0.437170  0.362550  1.0  -0.6604
  O  O470  1  0.396790  0.400120  0.288230  1.0  -0.5605
  O  O471  1  0.170490  0.504770  0.224480  1.0  -0.6247
  O  O472  1  0.227210  0.449880  0.191140  1.0  -0.6357
  O  O473  1  0.812960  0.993890  0.240200  1.0  -0.6189
  O  O474  1  0.880210  0.100310  0.278760  1.0  -0.5908
  O  O475  1  0.084270  0.312800  0.111490  1.0  -0.6548
  O  O476  1  0.058040  0.324450  0.185620  1.0  -0.5597
  O  O477  1  0.180220  0.507990  0.090140  1.0  -0.6367
  O  O478  1  0.122480  0.562130  0.122650  1.0  -0.6236
  O  O479  1  0.135300  0.776720  0.956240  1.0  -0.6518
  O  O480  1  0.076470  0.734430  0.023300  1.0  -0.5749
  O  O481  1  0.745690  0.096960  0.349560  1.0  -0.6652
  O  O482  1  0.699210  0.046700  0.280050  1.0  -0.573
  O  O483  1  0.470790  0.147720  0.231260  1.0  -0.6753
  O  O484  1  0.544620  0.122860  0.188190  1.0  -0.6328
  O  O485  1  0.492080  0.137660  0.082950  1.0  -0.6687
  O  O486  1  0.467540  0.210740  0.127730  1.0  -0.6523
  O  O487  1  0.456940  0.426580  0.971520  1.0  -0.6417
  O  O488  1  0.389140  0.362630  0.032420  1.0  -0.5636
  O  O489  1  0.310090  0.098190  0.171940  1.0  -0.6909
  O  O490  1  0.315800  0.039570  0.108360  1.0  -0.5691
  O  O491  1  0.093700  0.896660  0.007710  1.0  -0.6289
  O  O492  1  0.989500  0.833840  0.047130  1.0  -0.6365
  O  O493  1  0.016570  0.579400  0.695880  1.0  -0.6622
  O  O494  1  0.003330  0.603210  0.621560  1.0  -0.5605
  O  O495  1  0.334280  0.829510  0.557810  1.0  -0.6266
  O  O496  1  0.222670  0.772790  0.524470  1.0  -0.6337
  O  O497  1  0.180930  0.187040  0.573530  1.0  -0.616
  O  O498  1  0.220100  0.119790  0.612090  1.0  -0.5927
  O  O499  1  0.228530  0.915730  0.444820  1.0  -0.6525
  O  O500  1  0.266410  0.941960  0.518950  1.0  -0.5596
  O  O501  1  0.327770  0.819780  0.423470  1.0  -0.6369
  O  O502  1  0.439650  0.877520  0.455980  1.0  -0.6237
  O  O503  1  0.641420  0.864700  0.289570  1.0  -0.6506
  O  O504  1  0.657960  0.923530  0.356630  1.0  -0.5756
  O  O505  1  0.351270  0.254310  0.682890  1.0  -0.6644
  O  O506  1  0.347490  0.300790  0.613380  1.0  -0.5729
  O  O507  1  0.676930  0.529210  0.564590  1.0  -0.6761
  O  O508  1  0.578240  0.455380  0.521520  1.0  -0.6335
  O  O509  1  0.645580  0.507920  0.416280  1.0  -0.6704
  O  O510  1  0.743200  0.532460  0.461060  1.0  -0.6517
  O  O511  1  0.969640  0.543060  0.304850  1.0  -0.6426
  O  O512  1  0.973490  0.610860  0.365750  1.0  -0.5648
  O  O513  1  0.788100  0.689910  0.505270  1.0  -0.6902
  O  O514  1  0.723770  0.684200  0.441690  1.0  -0.5701
  O  O515  1  0.802960  0.906300  0.341040  1.0  -0.628
  O  O516  1  0.844340  0.010500  0.380460  1.0  -0.6409
  O  O517  1  0.562830  0.983430  0.029220  1.0  -0.6633
  O  O518  1  0.599880  0.996670  0.954900  1.0  -0.5609
  O  O519  1  0.495230  0.665720  0.891150  1.0  -0.6279
  O  O520  1  0.550120  0.777330  0.857810  1.0  -0.6364
  O  O521  1  0.006110  0.819070  0.906870  1.0  -0.616
  O  O522  1  0.899690  0.779900  0.945430  1.0  -0.5895
  O  O523  1  0.687200  0.771470  0.778160  1.0  -0.6527
  O  O524  1  0.675550  0.733590  0.852290  1.0  -0.5595
  O  O525  1  0.492010  0.672230  0.756810  1.0  -0.639
  O  O526  1  0.437870  0.560350  0.789320  1.0  -0.6234
  O  O527  1  0.223280  0.358580  0.622910  1.0  -0.6527
  O  O528  1  0.265570  0.342040  0.689970  1.0  -0.5765
  O  O529  1  0.903040  0.648730  0.016230  1.0  -0.6659
  O  O530  1  0.953300  0.652510  0.946720  1.0  -0.5753
  O  O531  1  0.852280  0.323070  0.897930  1.0  -0.6788
  O  O532  1  0.877140  0.421760  0.854860  1.0  -0.6308
  O  O533  1  0.862340  0.354420  0.749620  1.0  -0.6683
  O  O534  1  0.789260  0.256800  0.794400  1.0  -0.6541
  O  O535  1  0.573420  0.030360  0.638190  1.0  -0.643
  O  O536  1  0.637370  0.026510  0.699090  1.0  -0.5659
  O  O537  1  0.901810  0.211900  0.838610  1.0  -0.6892
  O  O538  1  0.960430  0.276230  0.775030  1.0  -0.5693
  O  O539  1  0.103340  0.197040  0.674380  1.0  -0.6269
  O  O540  1  0.166160  0.155660  0.713800  1.0  -0.6364
  O  O541  1  0.579400  0.562830  0.862550  1.0  -0.6606
  O  O542  1  0.603210  0.599880  0.788230  1.0  -0.5599
  O  O543  1  0.829510  0.495230  0.724480  1.0  -0.6242
  O  O544  1  0.772790  0.550120  0.691140  1.0  -0.6352
  O  O545  1  0.187040  0.006110  0.740200  1.0  -0.6152
  O  O546  1  0.119790  0.899690  0.778760  1.0  -0.5904
  O  O547  1  0.915730  0.687200  0.611490  1.0  -0.6561
  O  O548  1  0.941960  0.675550  0.685620  1.0  -0.5606
  O  O549  1  0.819780  0.492010  0.590140  1.0  -0.6375
  O  O550  1  0.877520  0.437870  0.622650  1.0  -0.6257
  O  O551  1  0.864700  0.223280  0.456240  1.0  -0.6511
  O  O552  1  0.923530  0.265570  0.523300  1.0  -0.5751
  O  O553  1  0.254310  0.903040  0.849560  1.0  -0.6639
  O  O554  1  0.300790  0.953300  0.780050  1.0  -0.5741
  O  O555  1  0.529210  0.852280  0.731260  1.0  -0.6753
  O  O556  1  0.455380  0.877140  0.688190  1.0  -0.6317
  O  O557  1  0.507920  0.862340  0.582950  1.0  -0.6705
  O  O558  1  0.532460  0.789260  0.627730  1.0  -0.6531
  O  O559  1  0.543060  0.573420  0.471520  1.0  -0.6407
  O  O560  1  0.610860  0.637370  0.532420  1.0  -0.564
  O  O561  1  0.689910  0.901810  0.671940  1.0  -0.6904
  O  O562  1  0.684200  0.960430  0.608360  1.0  -0.5677
  O  O563  1  0.906300  0.103340  0.507710  1.0  -0.6289
  O  O564  1  0.010500  0.166160  0.547130  1.0  -0.6364
  O  O565  1  0.983430  0.420600  0.195880  1.0  -0.6623
  O  O566  1  0.996670  0.396790  0.121560  1.0  -0.56
  O  O567  1  0.665720  0.170490  0.057810  1.0  -0.6252
  O  O568  1  0.777330  0.227210  0.024470  1.0  -0.6357
  O  O569  1  0.819070  0.812960  0.073530  1.0  -0.615
  O  O570  1  0.779900  0.880210  0.112090  1.0  -0.5882
  O  O571  1  0.771470  0.084270  0.944820  1.0  -0.6517
  O  O572  1  0.733590  0.058040  0.018950  1.0  -0.5591
  O  O573  1  0.672230  0.180220  0.923470  1.0  -0.6371
  O  O574  1  0.560350  0.122480  0.955980  1.0  -0.6232
  O  O575  1  0.358580  0.135300  0.789570  1.0  -0.6499
  O  O576  1  0.342040  0.076470  0.856630  1.0  -0.5764
  O  O577  1  0.648730  0.745690  0.182890  1.0  -0.6642
  O  O578  1  0.652510  0.699210  0.113380  1.0  -0.5735
  O  O579  1  0.323070  0.470790  0.064590  1.0  -0.6723
  O  O580  1  0.421760  0.544620  0.021520  1.0  -0.6319
  O  O581  1  0.354420  0.492080  0.916280  1.0  -0.6697
  O  O582  1  0.256800  0.467540  0.961060  1.0  -0.6525
  O  O583  1  0.030360  0.456940  0.804850  1.0  -0.6416
  O  O584  1  0.026510  0.389140  0.865750  1.0  -0.5639
  O  O585  1  0.211900  0.310090  0.005270  1.0  -0.6919
  O  O586  1  0.276230  0.315800  0.941690  1.0  -0.5706
  O  O587  1  0.197040  0.093700  0.841040  1.0  -0.6263
  O  O588  1  0.155660  0.989500  0.880460  1.0  -0.6395
  O  O589  1  0.437170  0.016570  0.529220  1.0  -0.6611
  O  O590  1  0.400120  0.003330  0.454900  1.0  -0.561
  O  O591  1  0.504770  0.334280  0.391150  1.0  -0.6312
  O  O592  1  0.449880  0.222670  0.357810  1.0  -0.6367
  O  O593  1  0.993890  0.180930  0.406870  1.0  -0.6169
  O  O594  1  0.100310  0.220100  0.445430  1.0  -0.5891
  O  O595  1  0.312800  0.228530  0.278160  1.0  -0.6523
  O  O596  1  0.324450  0.266410  0.352290  1.0  -0.5584
  O  O597  1  0.507990  0.327770  0.256810  1.0  -0.6408
  O  O598  1  0.562130  0.439650  0.289320  1.0  -0.6244
  O  O599  1  0.776720  0.641420  0.122910  1.0  -0.6501
  O  O600  1  0.734430  0.657960  0.189970  1.0  -0.5761
  O  O601  1  0.096960  0.351270  0.516230  1.0  -0.6657
  O  O602  1  0.046700  0.347490  0.446720  1.0  -0.5749
  O  O603  1  0.147720  0.676930  0.397930  1.0  -0.6793
  O  O604  1  0.122860  0.578240  0.354860  1.0  -0.6337
  O  O605  1  0.137660  0.645580  0.249620  1.0  -0.6704
  O  O606  1  0.210740  0.743200  0.294400  1.0  -0.6534
  O  O607  1  0.426580  0.969640  0.138190  1.0  -0.6428
  O  O608  1  0.362630  0.973490  0.199090  1.0  -0.5652
  O  O609  1  0.098190  0.788100  0.338610  1.0  -0.6896
  O  O610  1  0.039570  0.723770  0.275030  1.0  -0.5683
  O  O611  1  0.896660  0.802960  0.174380  1.0  -0.6288
  O  O612  1  0.833840  0.844340  0.213800  1.0  -0.6367
