# generated using pymatgen
data_InP2(HO4)2
_symmetry_space_group_name_H-M   'P 1'
_cell_length_a   18.31300000
_cell_length_b   8.82290000
_cell_length_c   16.22100000
_cell_angle_alpha   90.00000000
_cell_angle_beta   111.70000000
_cell_angle_gamma   90.00000000
_symmetry_Int_Tables_number   1
_chemical_formula_structural   InP2(HO4)2
_chemical_formula_sum   'In12 P24 H24 O96'
_cell_volume   2435.15248692
_cell_formula_units_Z   12
loop_
 _symmetry_equiv_pos_site_id
 _symmetry_equiv_pos_as_xyz
  1  'x, y, z'
loop_
 _atom_site_type_symbol
 _atom_site_label
 _atom_site_symmetry_multiplicity
 _atom_site_fract_x
 _atom_site_fract_y
 _atom_site_fract_z
 _atom_site_occupancy
 _atom_site_charge
  In  In1  1  0.264620  0.719570  0.339780  1.0  1.6253
  In  In2  1  0.764620  0.219570  0.339780  1.0  1.6254
  In  In3  1  0.735380  0.719570  0.160220  1.0  1.6261
  In  In4  1  0.235380  0.219570  0.160220  1.0  1.6261
  In  In5  1  0.735380  0.280430  0.660220  1.0  1.6251
  In  In6  1  0.235380  0.780430  0.660220  1.0  1.6252
  In  In7  1  0.264620  0.280430  0.839780  1.0  1.6247
  In  In8  1  0.764620  0.780430  0.839780  1.0  1.6247
  In  In9  1  0.000000  0.714120  0.250000  1.0  1.6541
  In  In10  1  0.500000  0.214120  0.250000  1.0  1.6541
  In  In11  1  0.000000  0.285880  0.750000  1.0  1.6521
  In  In12  1  0.500000  0.785880  0.750000  1.0  1.6521
  P  P13  1  0.138010  0.851490  0.431520  1.0  1.7377
  P  P14  1  0.873660  0.924160  0.313750  1.0  1.7447
  P  P15  1  0.131470  0.452520  0.241360  1.0  1.7632
  P  P16  1  0.638010  0.351490  0.431520  1.0  1.7377
  P  P17  1  0.373660  0.424160  0.313750  1.0  1.7447
  P  P18  1  0.631470  0.952520  0.241360  1.0  1.7632
  P  P19  1  0.861990  0.851490  0.068480  1.0  1.7367
  P  P20  1  0.126340  0.924160  0.186250  1.0  1.7432
  P  P21  1  0.868530  0.452520  0.258640  1.0  1.7627
  P  P22  1  0.361990  0.351490  0.068480  1.0  1.7367
  P  P23  1  0.626340  0.424160  0.186250  1.0  1.7432
  P  P24  1  0.368530  0.952520  0.258640  1.0  1.7627
  P  P25  1  0.861990  0.148510  0.568480  1.0  1.7364
  P  P26  1  0.126340  0.075840  0.686250  1.0  1.743
  P  P27  1  0.868530  0.547480  0.758640  1.0  1.7631
  P  P28  1  0.361990  0.648510  0.568480  1.0  1.7364
  P  P29  1  0.626340  0.575840  0.686250  1.0  1.743
  P  P30  1  0.368530  0.047480  0.758640  1.0  1.7631
  P  P31  1  0.138010  0.148510  0.931520  1.0  1.7372
  P  P32  1  0.873660  0.075840  0.813750  1.0  1.7445
  P  P33  1  0.131470  0.547480  0.741360  1.0  1.7636
  P  P34  1  0.638010  0.648510  0.931520  1.0  1.7372
  P  P35  1  0.373660  0.575840  0.813750  1.0  1.7445
  P  P36  1  0.631470  0.047480  0.741360  1.0  1.7636
  H  H37  1  0.075800  0.012600  0.346800  1.0  0.4346
  H  H38  1  0.120600  0.229800  0.259600  1.0  0.4243
  H  H39  1  0.896900  0.982600  0.440600  1.0  0.4283
  H  H40  1  0.575800  0.512600  0.346800  1.0  0.4346
  H  H41  1  0.620600  0.729800  0.259600  1.0  0.4243
  H  H42  1  0.396900  0.482600  0.440600  1.0  0.4283
  H  H43  1  0.924200  0.012600  0.153200  1.0  0.4356
  H  H44  1  0.879400  0.229800  0.240400  1.0  0.423
  H  H45  1  0.103100  0.982600  0.059400  1.0  0.4289
  H  H46  1  0.424200  0.512600  0.153200  1.0  0.4356
  H  H47  1  0.379400  0.729800  0.240400  1.0  0.423
  H  H48  1  0.603100  0.482600  0.059400  1.0  0.4289
  H  H49  1  0.924200  0.987400  0.653200  1.0  0.4358
  H  H50  1  0.879400  0.770200  0.740400  1.0  0.423
  H  H51  1  0.103100  0.017400  0.559400  1.0  0.4281
  H  H52  1  0.424200  0.487400  0.653200  1.0  0.4358
  H  H53  1  0.379400  0.270200  0.740400  1.0  0.423
  H  H54  1  0.603100  0.517400  0.559400  1.0  0.4281
  H  H55  1  0.075800  0.987400  0.846800  1.0  0.4343
  H  H56  1  0.120600  0.770200  0.759600  1.0  0.4244
  H  H57  1  0.896900  0.017400  0.940600  1.0  0.428
  H  H58  1  0.575800  0.487400  0.846800  1.0  0.4343
  H  H59  1  0.620600  0.270200  0.759600  1.0  0.4244
  H  H60  1  0.396900  0.517400  0.940600  1.0  0.428
  O  O61  1  0.193700  0.524800  0.322240  1.0  -0.7694
  O  O62  1  0.093690  0.007900  0.401140  1.0  -0.6683
  O  O63  1  0.213080  0.858600  0.411530  1.0  -0.8081
  O  O64  1  0.160620  0.404500  0.167690  1.0  -0.7474
  O  O65  1  0.938570  0.903800  0.277570  1.0  -0.7091
  O  O66  1  0.813800  0.796000  0.287400  1.0  -0.7809
  O  O67  1  0.083590  0.722700  0.383600  1.0  -0.7487
  O  O68  1  0.836760  0.081300  0.288210  1.0  -0.8614
  O  O69  1  0.059130  0.553600  0.201580  1.0  -0.7709
  O  O70  1  0.104380  0.304900  0.277300  1.0  -0.6628
  O  O71  1  0.154510  0.848200  0.530990  1.0  -0.8106
  O  O72  1  0.913770  0.914400  0.418130  1.0  -0.6457
  O  O73  1  0.693700  0.024800  0.322240  1.0  -0.7694
  O  O74  1  0.593690  0.507900  0.401140  1.0  -0.6683
  O  O75  1  0.713080  0.358600  0.411530  1.0  -0.8081
  O  O76  1  0.660620  0.904500  0.167690  1.0  -0.7474
  O  O77  1  0.438570  0.403800  0.277570  1.0  -0.7091
  O  O78  1  0.313800  0.296000  0.287400  1.0  -0.7809
  O  O79  1  0.583590  0.222700  0.383600  1.0  -0.7487
  O  O80  1  0.336760  0.581300  0.288210  1.0  -0.8614
  O  O81  1  0.559130  0.053600  0.201580  1.0  -0.7709
  O  O82  1  0.604380  0.804900  0.277300  1.0  -0.6628
  O  O83  1  0.654510  0.348200  0.530990  1.0  -0.8106
  O  O84  1  0.413770  0.414400  0.418130  1.0  -0.6457
  O  O85  1  0.806300  0.524800  0.177760  1.0  -0.7684
  O  O86  1  0.906310  0.007900  0.098860  1.0  -0.6689
  O  O87  1  0.786920  0.858600  0.088470  1.0  -0.8093
  O  O88  1  0.839380  0.404500  0.332310  1.0  -0.7479
  O  O89  1  0.061430  0.903800  0.222430  1.0  -0.7094
  O  O90  1  0.186200  0.796000  0.212600  1.0  -0.7804
  O  O91  1  0.916410  0.722700  0.116400  1.0  -0.7478
  O  O92  1  0.163240  0.081300  0.211790  1.0  -0.8612
  O  O93  1  0.940870  0.553600  0.298420  1.0  -0.7732
  O  O94  1  0.895620  0.304900  0.222700  1.0  -0.66
  O  O95  1  0.845490  0.848200  0.969010  1.0  -0.8104
  O  O96  1  0.086230  0.914400  0.081870  1.0  -0.6461
  O  O97  1  0.306300  0.024800  0.177760  1.0  -0.7684
  O  O98  1  0.406310  0.507900  0.098860  1.0  -0.6689
  O  O99  1  0.286920  0.358600  0.088470  1.0  -0.8093
  O  O100  1  0.339380  0.904500  0.332310  1.0  -0.7479
  O  O101  1  0.561430  0.403800  0.222430  1.0  -0.7094
  O  O102  1  0.686200  0.296000  0.212600  1.0  -0.7804
  O  O103  1  0.416410  0.222700  0.116400  1.0  -0.7478
  O  O104  1  0.663240  0.581300  0.211790  1.0  -0.8612
  O  O105  1  0.440870  0.053600  0.298420  1.0  -0.7732
  O  O106  1  0.395620  0.804900  0.222700  1.0  -0.66
  O  O107  1  0.345490  0.348200  0.969010  1.0  -0.8104
  O  O108  1  0.586230  0.414400  0.081870  1.0  -0.6461
  O  O109  1  0.806300  0.475200  0.677760  1.0  -0.7687
  O  O110  1  0.906310  0.992100  0.598860  1.0  -0.6697
  O  O111  1  0.786920  0.141400  0.588470  1.0  -0.8065
  O  O112  1  0.839380  0.595500  0.832310  1.0  -0.7484
  O  O113  1  0.061430  0.096200  0.722430  1.0  -0.7092
  O  O114  1  0.186200  0.204000  0.712600  1.0  -0.7791
  O  O115  1  0.916410  0.277300  0.616400  1.0  -0.7463
  O  O116  1  0.163240  0.918700  0.711790  1.0  -0.8614
  O  O117  1  0.940870  0.446400  0.798420  1.0  -0.7742
  O  O118  1  0.895620  0.695100  0.722700  1.0  -0.661
  O  O119  1  0.845490  0.151800  0.469010  1.0  -0.8103
  O  O120  1  0.086230  0.085600  0.581870  1.0  -0.6469
  O  O121  1  0.306300  0.975200  0.677760  1.0  -0.7687
  O  O122  1  0.406310  0.492100  0.598860  1.0  -0.6697
  O  O123  1  0.286920  0.641400  0.588470  1.0  -0.8065
  O  O124  1  0.339380  0.095500  0.832310  1.0  -0.7484
  O  O125  1  0.561430  0.596200  0.722430  1.0  -0.7092
  O  O126  1  0.686200  0.704000  0.712600  1.0  -0.7791
  O  O127  1  0.416410  0.777300  0.616400  1.0  -0.7463
  O  O128  1  0.663240  0.418700  0.711790  1.0  -0.8614
  O  O129  1  0.440870  0.946400  0.798420  1.0  -0.7742
  O  O130  1  0.395620  0.195100  0.722700  1.0  -0.661
  O  O131  1  0.345490  0.651800  0.469010  1.0  -0.8103
  O  O132  1  0.586230  0.585600  0.581870  1.0  -0.6469
  O  O133  1  0.193700  0.475200  0.822240  1.0  -0.7697
  O  O134  1  0.093690  0.992100  0.901140  1.0  -0.6678
  O  O135  1  0.213080  0.141400  0.911530  1.0  -0.8082
  O  O136  1  0.160620  0.595500  0.667690  1.0  -0.7471
  O  O137  1  0.938570  0.096200  0.777570  1.0  -0.7094
  O  O138  1  0.813800  0.204000  0.787400  1.0  -0.7808
  O  O139  1  0.083590  0.277300  0.883600  1.0  -0.7477
  O  O140  1  0.836760  0.918700  0.788210  1.0  -0.8617
  O  O141  1  0.059130  0.446400  0.701580  1.0  -0.7717
  O  O142  1  0.104380  0.695100  0.777300  1.0  -0.6624
  O  O143  1  0.154510  0.151800  0.030990  1.0  -0.8107
  O  O144  1  0.913770  0.085600  0.918130  1.0  -0.6469
  O  O145  1  0.693700  0.975200  0.822240  1.0  -0.7697
  O  O146  1  0.593690  0.492100  0.901140  1.0  -0.6678
  O  O147  1  0.713080  0.641400  0.911530  1.0  -0.8082
  O  O148  1  0.660620  0.095500  0.667690  1.0  -0.7471
  O  O149  1  0.438570  0.596200  0.777570  1.0  -0.7094
  O  O150  1  0.313800  0.704000  0.787400  1.0  -0.7808
  O  O151  1  0.583590  0.777300  0.883600  1.0  -0.7477
  O  O152  1  0.336760  0.418700  0.788210  1.0  -0.8617
  O  O153  1  0.559130  0.946400  0.701580  1.0  -0.7717
  O  O154  1  0.604380  0.195100  0.777300  1.0  -0.6624
  O  O155  1  0.654510  0.651800  0.030990  1.0  -0.8107
  O  O156  1  0.413770  0.585600  0.918130  1.0  -0.6469
