# generated using pymatgen
data_AlCo(PO4)2
_symmetry_space_group_name_H-M   'P 1'
_cell_length_a   71.00800000
_cell_length_b   13.74440000
_cell_length_c   14.32210000
_cell_angle_alpha   90.00000000
_cell_angle_beta   90.00000000
_cell_angle_gamma   90.00000000
_symmetry_Int_Tables_number   1
_chemical_formula_structural   AlCo(PO4)2
_chemical_formula_sum   'Al56 Co56 P112 O448'
_cell_volume   13977.83044741
_cell_formula_units_Z   56
loop_
 _symmetry_equiv_pos_site_id
 _symmetry_equiv_pos_as_xyz
  1  'x, y, z'
loop_
 _atom_site_type_symbol
 _atom_site_label
 _atom_site_symmetry_multiplicity
 _atom_site_fract_x
 _atom_site_fract_y
 _atom_site_fract_z
 _atom_site_occupancy
 _atom_site_charge
  Al  Al1  1  0.292910  0.481400  0.337700  1.0  1.8853
  Al  Al2  1  0.112180  0.734700  0.869600  1.0  2.0243
  Al  Al3  1  0.221200  0.516750  0.133110  1.0  1.8507
  Al  Al4  1  0.181070  0.755960  0.101100  1.0  1.9972
  Al  Al5  1  0.292910  0.981400  0.837700  1.0  1.8853
  Al  Al6  1  0.112180  0.234700  0.369600  1.0  2.0243
  Al  Al7  1  0.221200  0.016750  0.633110  1.0  1.8507
  Al  Al8  1  0.181070  0.255960  0.601100  1.0  1.9972
  Al  Al9  1  0.792910  0.481400  0.837700  1.0  1.8853
  Al  Al10  1  0.612180  0.734700  0.369600  1.0  2.0243
  Al  Al11  1  0.721200  0.516750  0.633110  1.0  1.8507
  Al  Al12  1  0.681070  0.755960  0.601100  1.0  1.9972
  Al  Al13  1  0.792910  0.981400  0.337700  1.0  1.8853
  Al  Al14  1  0.612180  0.234700  0.869600  1.0  2.0243
  Al  Al15  1  0.721200  0.016750  0.133110  1.0  1.8507
  Al  Al16  1  0.681070  0.255960  0.101100  1.0  1.9972
  Al  Al17  1  0.707090  0.518600  0.337700  1.0  1.8868
  Al  Al18  1  0.887820  0.265300  0.869600  1.0  2.0243
  Al  Al19  1  0.778800  0.483250  0.133110  1.0  1.8517
  Al  Al20  1  0.818930  0.244040  0.101100  1.0  1.9976
  Al  Al21  1  0.707090  0.018600  0.837700  1.0  1.8868
  Al  Al22  1  0.887820  0.765300  0.369600  1.0  2.0243
  Al  Al23  1  0.778800  0.983250  0.633110  1.0  1.8517
  Al  Al24  1  0.818930  0.744040  0.601100  1.0  1.9976
  Al  Al25  1  0.207090  0.518600  0.837700  1.0  1.8868
  Al  Al26  1  0.387820  0.265300  0.369600  1.0  2.0243
  Al  Al27  1  0.278800  0.483250  0.633110  1.0  1.8517
  Al  Al28  1  0.318930  0.244040  0.601100  1.0  1.9976
  Al  Al29  1  0.207090  0.018600  0.337700  1.0  1.8868
  Al  Al30  1  0.387820  0.765300  0.869600  1.0  2.0243
  Al  Al31  1  0.278800  0.983250  0.133110  1.0  1.8517
  Al  Al32  1  0.318930  0.744040  0.101100  1.0  1.9976
  Al  Al33  1  0.542910  0.768600  0.587700  1.0  1.8854
  Al  Al34  1  0.362180  0.515300  0.119600  1.0  2.0245
  Al  Al35  1  0.542910  0.268600  0.087700  1.0  1.8854
  Al  Al36  1  0.362180  0.015300  0.619600  1.0  2.0245
  Al  Al37  1  0.042910  0.768600  0.087700  1.0  1.8854
  Al  Al38  1  0.862180  0.515300  0.619600  1.0  2.0245
  Al  Al39  1  0.042910  0.268600  0.587700  1.0  1.8854
  Al  Al40  1  0.862180  0.015300  0.119600  1.0  2.0245
  Al  Al41  1  0.957090  0.731400  0.587700  1.0  1.8867
  Al  Al42  1  0.137820  0.984700  0.119600  1.0  2.0241
  Al  Al43  1  0.957090  0.231400  0.087700  1.0  1.8867
  Al  Al44  1  0.137820  0.484700  0.619600  1.0  2.0241
  Al  Al45  1  0.457090  0.731400  0.087700  1.0  1.8867
  Al  Al46  1  0.637820  0.984700  0.619600  1.0  2.0241
  Al  Al47  1  0.457090  0.231400  0.587700  1.0  1.8867
  Al  Al48  1  0.637820  0.484700  0.119600  1.0  2.0241
  Al  Al49  1  0.250000  0.750000  0.859100  1.0  1.9766
  Al  Al50  1  0.250000  0.250000  0.359100  1.0  1.9766
  Al  Al51  1  0.750000  0.250000  0.859100  1.0  1.9766
  Al  Al52  1  0.750000  0.750000  0.359100  1.0  1.9766
  Al  Al53  1  0.500000  0.500000  0.109100  1.0  1.9766
  Al  Al54  1  0.500000  0.000000  0.609100  1.0  1.9766
  Al  Al55  1  0.000000  0.000000  0.109100  1.0  1.9766
  Al  Al56  1  0.000000  0.500000  0.609100  1.0  1.9766
  Co  Co57  1  0.074440  0.504790  0.145270  1.0  1.1311
  Co  Co58  1  0.028800  0.266750  0.883110  1.0  1.0396
  Co  Co59  1  0.148600  0.483840  0.322190  1.0  1.104
  Co  Co60  1  0.068930  0.005960  0.351100  1.0  0.9769
  Co  Co61  1  0.074440  0.004790  0.645270  1.0  1.1311
  Co  Co62  1  0.028800  0.766750  0.383110  1.0  1.0396
  Co  Co63  1  0.148600  0.983840  0.822190  1.0  1.104
  Co  Co64  1  0.068930  0.505960  0.851100  1.0  0.9769
  Co  Co65  1  0.574440  0.504790  0.645270  1.0  1.1311
  Co  Co66  1  0.528800  0.266750  0.383110  1.0  1.0396
  Co  Co67  1  0.648600  0.483840  0.822190  1.0  1.104
  Co  Co68  1  0.568930  0.005960  0.851100  1.0  0.9769
  Co  Co69  1  0.574440  0.004790  0.145270  1.0  1.1311
  Co  Co70  1  0.528800  0.766750  0.883110  1.0  1.0396
  Co  Co71  1  0.648600  0.983840  0.322190  1.0  1.104
  Co  Co72  1  0.568930  0.505960  0.351100  1.0  0.9769
  Co  Co73  1  0.925560  0.495210  0.145270  1.0  1.1337
  Co  Co74  1  0.971200  0.733250  0.883110  1.0  1.0361
  Co  Co75  1  0.851400  0.516160  0.322190  1.0  1.107
  Co  Co76  1  0.931070  0.994040  0.351100  1.0  0.9791
  Co  Co77  1  0.925560  0.995210  0.645270  1.0  1.1337
  Co  Co78  1  0.971200  0.233250  0.383110  1.0  1.0361
  Co  Co79  1  0.851400  0.016160  0.822190  1.0  1.107
  Co  Co80  1  0.931070  0.494040  0.851100  1.0  0.9791
  Co  Co81  1  0.425560  0.495210  0.645270  1.0  1.1337
  Co  Co82  1  0.471200  0.733250  0.383110  1.0  1.0361
  Co  Co83  1  0.351400  0.516160  0.822190  1.0  1.107
  Co  Co84  1  0.431070  0.994040  0.851100  1.0  0.9791
  Co  Co85  1  0.425560  0.995210  0.145270  1.0  1.1337
  Co  Co86  1  0.471200  0.233250  0.883110  1.0  1.0361
  Co  Co87  1  0.351400  0.016160  0.322190  1.0  1.107
  Co  Co88  1  0.431070  0.494040  0.351100  1.0  0.9791
  Co  Co89  1  0.324440  0.745210  0.395270  1.0  1.1311
  Co  Co90  1  0.398600  0.766160  0.572190  1.0  1.1042
  Co  Co91  1  0.324440  0.245210  0.895270  1.0  1.1311
  Co  Co92  1  0.398600  0.266160  0.072190  1.0  1.1042
  Co  Co93  1  0.824440  0.745210  0.895270  1.0  1.1311
  Co  Co94  1  0.898600  0.766160  0.072190  1.0  1.1042
  Co  Co95  1  0.824440  0.245210  0.395270  1.0  1.1311
  Co  Co96  1  0.898600  0.266160  0.572190  1.0  1.1042
  Co  Co97  1  0.175560  0.754790  0.395270  1.0  1.1337
  Co  Co98  1  0.101400  0.733840  0.572190  1.0  1.1068
  Co  Co99  1  0.175560  0.254790  0.895270  1.0  1.1337
  Co  Co100  1  0.101400  0.233840  0.072190  1.0  1.1068
  Co  Co101  1  0.675560  0.754790  0.895270  1.0  1.1337
  Co  Co102  1  0.601400  0.733840  0.072190  1.0  1.1068
  Co  Co103  1  0.675560  0.254790  0.395270  1.0  1.1337
  Co  Co104  1  0.601400  0.233840  0.572190  1.0  1.1068
  Co  Co105  1  0.000000  0.500000  0.314040  1.0  1.1187
  Co  Co106  1  0.000000  0.000000  0.814040  1.0  1.1187
  Co  Co107  1  0.500000  0.500000  0.814040  1.0  1.1187
  Co  Co108  1  0.500000  0.000000  0.314040  1.0  1.1187
  Co  Co109  1  0.250000  0.750000  0.564040  1.0  1.1187
  Co  Co110  1  0.250000  0.250000  0.064040  1.0  1.1187
  Co  Co111  1  0.750000  0.750000  0.064040  1.0  1.1187
  Co  Co112  1  0.750000  0.250000  0.564040  1.0  1.1187
  P  P113  1  0.076830  0.672000  0.992100  1.0  1.9192
  P  P114  1  0.037510  0.594680  0.233800  1.0  1.8057
  P  P115  1  0.184790  0.585200  0.246100  1.0  1.7775
  P  P116  1  0.146030  0.819000  0.977100  1.0  2.0382
  P  P117  1  0.215690  0.683480  0.982100  1.0  1.9419
  P  P118  1  0.111860  0.405100  0.220400  1.0  1.8991
  P  P119  1  0.257480  0.418200  0.214400  1.0  1.8384
  P  P120  1  0.076830  0.172000  0.492100  1.0  1.9166
  P  P121  1  0.037510  0.094680  0.733800  1.0  1.8057
  P  P122  1  0.184790  0.085200  0.746100  1.0  1.7775
  P  P123  1  0.146030  0.319000  0.477100  1.0  2.0382
  P  P124  1  0.215690  0.183480  0.482100  1.0  1.9419
  P  P125  1  0.111860  0.905100  0.720400  1.0  1.8991
  P  P126  1  0.257480  0.918200  0.714400  1.0  1.8384
  P  P127  1  0.576830  0.672000  0.492100  1.0  1.9192
  P  P128  1  0.537510  0.594680  0.733800  1.0  1.8057
  P  P129  1  0.684790  0.585200  0.746100  1.0  1.7775
  P  P130  1  0.646030  0.819000  0.477100  1.0  2.0382
  P  P131  1  0.715690  0.683480  0.482100  1.0  1.9419
  P  P132  1  0.611860  0.405100  0.720400  1.0  1.8991
  P  P133  1  0.757480  0.418200  0.714400  1.0  1.8384
  P  P134  1  0.576830  0.172000  0.992100  1.0  1.9166
  P  P135  1  0.537510  0.094680  0.233800  1.0  1.8057
  P  P136  1  0.684790  0.085200  0.246100  1.0  1.7775
  P  P137  1  0.646030  0.319000  0.977100  1.0  2.0382
  P  P138  1  0.715690  0.183480  0.982100  1.0  1.9419
  P  P139  1  0.611860  0.905100  0.220400  1.0  1.8991
  P  P140  1  0.757480  0.918200  0.214400  1.0  1.8384
  P  P141  1  0.923170  0.328000  0.992100  1.0  1.9181
  P  P142  1  0.962490  0.405320  0.233800  1.0  1.8053
  P  P143  1  0.815210  0.414800  0.246100  1.0  1.7766
  P  P144  1  0.853970  0.181000  0.977100  1.0  2.0346
  P  P145  1  0.784310  0.316520  0.982100  1.0  1.9398
  P  P146  1  0.888140  0.594900  0.220400  1.0  1.9
  P  P147  1  0.742520  0.581800  0.214400  1.0  1.8394
  P  P148  1  0.923170  0.828000  0.492100  1.0  1.9155
  P  P149  1  0.962490  0.905320  0.733800  1.0  1.8053
  P  P150  1  0.815210  0.914800  0.746100  1.0  1.7766
  P  P151  1  0.853970  0.681000  0.477100  1.0  2.0346
  P  P152  1  0.784310  0.816520  0.482100  1.0  1.9398
  P  P153  1  0.888140  0.094900  0.720400  1.0  1.9
  P  P154  1  0.742520  0.081800  0.714400  1.0  1.8394
  P  P155  1  0.423170  0.328000  0.492100  1.0  1.9181
  P  P156  1  0.462490  0.405320  0.733800  1.0  1.8053
  P  P157  1  0.315210  0.414800  0.746100  1.0  1.7766
  P  P158  1  0.353970  0.181000  0.477100  1.0  2.0346
  P  P159  1  0.284310  0.316520  0.482100  1.0  1.9398
  P  P160  1  0.388140  0.594900  0.720400  1.0  1.9
  P  P161  1  0.242520  0.581800  0.714400  1.0  1.8394
  P  P162  1  0.423170  0.828000  0.992100  1.0  1.9155
  P  P163  1  0.462490  0.905320  0.233800  1.0  1.8053
  P  P164  1  0.315210  0.914800  0.246100  1.0  1.7766
  P  P165  1  0.353970  0.681000  0.977100  1.0  2.0346
  P  P166  1  0.284310  0.816520  0.982100  1.0  1.9398
  P  P167  1  0.388140  0.094900  0.220400  1.0  1.9
  P  P168  1  0.242520  0.081800  0.214400  1.0  1.8394
  P  P169  1  0.326830  0.578000  0.242100  1.0  1.9192
  P  P170  1  0.287510  0.655320  0.483800  1.0  1.8051
  P  P171  1  0.434790  0.664800  0.496100  1.0  1.7775
  P  P172  1  0.396030  0.431000  0.227100  1.0  2.0367
  P  P173  1  0.465690  0.566520  0.232100  1.0  1.9473
  P  P174  1  0.361860  0.844900  0.470400  1.0  1.8983
  P  P175  1  0.507480  0.831800  0.464400  1.0  1.8389
  P  P176  1  0.326830  0.078000  0.742100  1.0  1.9192
  P  P177  1  0.287510  0.155320  0.983800  1.0  1.8051
  P  P178  1  0.434790  0.164800  0.996100  1.0  1.7775
  P  P179  1  0.396030  0.931000  0.727100  1.0  2.0367
  P  P180  1  0.465690  0.066520  0.732100  1.0  1.9473
  P  P181  1  0.361860  0.344900  0.970400  1.0  1.8983
  P  P182  1  0.507480  0.331800  0.964400  1.0  1.8389
  P  P183  1  0.826830  0.578000  0.742100  1.0  1.9192
  P  P184  1  0.787510  0.655320  0.983800  1.0  1.8051
  P  P185  1  0.934790  0.664800  0.996100  1.0  1.7775
  P  P186  1  0.896030  0.431000  0.727100  1.0  2.0367
  P  P187  1  0.965690  0.566520  0.732100  1.0  1.9473
  P  P188  1  0.861860  0.844900  0.970400  1.0  1.8983
  P  P189  1  0.007480  0.831800  0.964400  1.0  1.8389
  P  P190  1  0.826830  0.078000  0.242100  1.0  1.9192
  P  P191  1  0.787510  0.155320  0.483800  1.0  1.8051
  P  P192  1  0.934790  0.164800  0.496100  1.0  1.7775
  P  P193  1  0.896030  0.931000  0.227100  1.0  2.0367
  P  P194  1  0.965690  0.066520  0.232100  1.0  1.9473
  P  P195  1  0.861860  0.344900  0.470400  1.0  1.8983
  P  P196  1  0.007480  0.331800  0.464400  1.0  1.8389
  P  P197  1  0.173170  0.922000  0.242100  1.0  1.9154
  P  P198  1  0.212490  0.844680  0.483800  1.0  1.806
  P  P199  1  0.065210  0.835200  0.496100  1.0  1.7778
  P  P200  1  0.103970  0.069000  0.227100  1.0  2.0343
  P  P201  1  0.034310  0.933480  0.232100  1.0  1.9442
  P  P202  1  0.138140  0.655100  0.470400  1.0  1.8983
  P  P203  1  0.992520  0.668200  0.464400  1.0  1.8389
  P  P204  1  0.173170  0.422000  0.742100  1.0  1.9154
  P  P205  1  0.212490  0.344680  0.983800  1.0  1.806
  P  P206  1  0.065210  0.335200  0.996100  1.0  1.7778
  P  P207  1  0.103970  0.569000  0.727100  1.0  2.0343
  P  P208  1  0.034310  0.433480  0.732100  1.0  1.9442
  P  P209  1  0.138140  0.155100  0.970400  1.0  1.8983
  P  P210  1  0.992520  0.168200  0.964400  1.0  1.8389
  P  P211  1  0.673170  0.922000  0.742100  1.0  1.9154
  P  P212  1  0.712490  0.844680  0.983800  1.0  1.806
  P  P213  1  0.565210  0.835200  0.996100  1.0  1.7778
  P  P214  1  0.603970  0.069000  0.727100  1.0  2.0343
  P  P215  1  0.534310  0.933480  0.732100  1.0  1.9442
  P  P216  1  0.638140  0.655100  0.970400  1.0  1.8983
  P  P217  1  0.492520  0.668200  0.964400  1.0  1.8389
  P  P218  1  0.673170  0.422000  0.242100  1.0  1.9154
  P  P219  1  0.712490  0.344680  0.483800  1.0  1.806
  P  P220  1  0.565210  0.335200  0.496100  1.0  1.7778
  P  P221  1  0.603970  0.569000  0.227100  1.0  2.0343
  P  P222  1  0.534310  0.433480  0.232100  1.0  1.9442
  P  P223  1  0.638140  0.155100  0.470400  1.0  1.8983
  P  P224  1  0.492520  0.168200  0.464400  1.0  1.8389
  O  O225  1  0.096630  0.484200  0.220300  1.0  -0.6882
  O  O226  1  0.161390  0.763900  0.029400  1.0  -0.9569
  O  O227  1  0.130400  0.452500  0.229700  1.0  -0.7587
  O  O228  1  0.276020  0.457000  0.256400  1.0  -0.9427
  O  O229  1  0.092560  0.724300  0.944600  1.0  -0.9678
  O  O230  1  0.055980  0.534900  0.238800  1.0  -0.6975
  O  O231  1  0.020490  0.529500  0.228100  1.0  -0.6814
  O  O232  1  0.204710  0.543400  0.228700  1.0  -0.8525
  O  O233  1  0.171790  0.498300  0.254700  1.0  -0.7053
  O  O234  1  0.244240  0.498300  0.193600  1.0  -0.768
  O  O235  1  0.202250  0.753000  0.025300  1.0  -0.836
  O  O236  1  0.112060  0.347800  0.130200  1.0  -0.7719
  O  O237  1  0.228850  0.745900  0.925000  1.0  -0.9951
  O  O238  1  0.083980  0.609700  0.071900  1.0  -0.7648
  O  O239  1  0.178910  0.649400  0.169100  1.0  -0.886
  O  O240  1  0.065030  0.612100  0.925700  1.0  -0.8193
  O  O241  1  0.314310  0.492700  0.281600  1.0  -0.9023
  O  O242  1  0.132660  0.745400  0.932000  1.0  -0.9624
  O  O243  1  0.063960  0.397100  0.085400  1.0  -0.8186
  O  O244  1  0.224810  0.621600  0.054300  1.0  -0.8482
  O  O245  1  0.114010  0.633300  0.797400  1.0  -1.0191
  O  O246  1  0.296470  0.383100  0.417000  1.0  -0.914
  O  O247  1  0.247100  0.358500  0.292000  1.0  -0.9582
  O  O248  1  0.011710  0.392900  0.380500  1.0  -0.758
  O  O249  1  0.037150  0.662400  0.146200  1.0  -0.9724
  O  O250  1  0.107940  0.342200  0.305100  1.0  -1.0144
  O  O251  1  0.155760  0.378900  0.406200  1.0  -0.7286
  O  O252  1  0.036220  0.655800  0.321600  1.0  -0.8884
  O  O253  1  0.096630  0.984200  0.720300  1.0  -0.6882
  O  O254  1  0.161390  0.263900  0.529400  1.0  -0.9564
  O  O255  1  0.130400  0.952500  0.729700  1.0  -0.7587
  O  O256  1  0.276020  0.957000  0.756400  1.0  -0.9427
  O  O257  1  0.092560  0.224300  0.444600  1.0  -0.9678
  O  O258  1  0.055980  0.034900  0.738800  1.0  -0.6975
  O  O259  1  0.020490  0.029500  0.728100  1.0  -0.6814
  O  O260  1  0.204710  0.043400  0.728700  1.0  -0.8525
  O  O261  1  0.171790  0.998300  0.754700  1.0  -0.7053
  O  O262  1  0.244240  0.998300  0.693600  1.0  -0.768
  O  O263  1  0.202250  0.253000  0.525300  1.0  -0.836
  O  O264  1  0.112060  0.847800  0.630200  1.0  -0.7719
  O  O265  1  0.228850  0.245900  0.425000  1.0  -0.9951
  O  O266  1  0.083980  0.109700  0.571900  1.0  -0.7648
  O  O267  1  0.178910  0.149400  0.669100  1.0  -0.886
  O  O268  1  0.065030  0.112100  0.425700  1.0  -0.8193
  O  O269  1  0.314310  0.992700  0.781600  1.0  -0.9023
  O  O270  1  0.132660  0.245400  0.432000  1.0  -0.9624
  O  O271  1  0.063960  0.897100  0.585400  1.0  -0.8186
  O  O272  1  0.224810  0.121600  0.554300  1.0  -0.8482
  O  O273  1  0.114010  0.133300  0.297400  1.0  -1.0192
  O  O274  1  0.296470  0.883100  0.917000  1.0  -0.914
  O  O275  1  0.247100  0.858500  0.792000  1.0  -0.9583
  O  O276  1  0.011710  0.892900  0.880500  1.0  -0.758
  O  O277  1  0.037150  0.162400  0.646200  1.0  -0.9724
  O  O278  1  0.107940  0.842200  0.805100  1.0  -1.0145
  O  O279  1  0.155760  0.878900  0.906200  1.0  -0.7293
  O  O280  1  0.036220  0.155800  0.821600  1.0  -0.8884
  O  O281  1  0.596630  0.484200  0.720300  1.0  -0.6882
  O  O282  1  0.661390  0.763900  0.529400  1.0  -0.9569
  O  O283  1  0.630400  0.452500  0.729700  1.0  -0.7587
  O  O284  1  0.776020  0.457000  0.756400  1.0  -0.9427
  O  O285  1  0.592560  0.724300  0.444600  1.0  -0.9678
  O  O286  1  0.555980  0.534900  0.738800  1.0  -0.6975
  O  O287  1  0.520490  0.529500  0.728100  1.0  -0.6814
  O  O288  1  0.704710  0.543400  0.728700  1.0  -0.8525
  O  O289  1  0.671790  0.498300  0.754700  1.0  -0.7053
  O  O290  1  0.744240  0.498300  0.693600  1.0  -0.768
  O  O291  1  0.702250  0.753000  0.525300  1.0  -0.836
  O  O292  1  0.612060  0.347800  0.630200  1.0  -0.7719
  O  O293  1  0.728850  0.745900  0.425000  1.0  -0.9951
  O  O294  1  0.583980  0.609700  0.571900  1.0  -0.7648
  O  O295  1  0.678910  0.649400  0.669100  1.0  -0.886
  O  O296  1  0.565030  0.612100  0.425700  1.0  -0.8193
  O  O297  1  0.814310  0.492700  0.781600  1.0  -0.9023
  O  O298  1  0.632660  0.745400  0.432000  1.0  -0.9624
  O  O299  1  0.563960  0.397100  0.585400  1.0  -0.8186
  O  O300  1  0.724810  0.621600  0.554300  1.0  -0.8482
  O  O301  1  0.614010  0.633300  0.297400  1.0  -1.0191
  O  O302  1  0.796470  0.383100  0.917000  1.0  -0.914
  O  O303  1  0.747100  0.358500  0.792000  1.0  -0.9582
  O  O304  1  0.511710  0.392900  0.880500  1.0  -0.758
  O  O305  1  0.537150  0.662400  0.646200  1.0  -0.9724
  O  O306  1  0.607940  0.342200  0.805100  1.0  -1.0144
  O  O307  1  0.655760  0.378900  0.906200  1.0  -0.7286
  O  O308  1  0.536220  0.655800  0.821600  1.0  -0.8884
  O  O309  1  0.596630  0.984200  0.220300  1.0  -0.6882
  O  O310  1  0.661390  0.263900  0.029400  1.0  -0.9564
  O  O311  1  0.630400  0.952500  0.229700  1.0  -0.7587
  O  O312  1  0.776020  0.957000  0.256400  1.0  -0.9427
  O  O313  1  0.592560  0.224300  0.944600  1.0  -0.9678
  O  O314  1  0.555980  0.034900  0.238800  1.0  -0.6975
  O  O315  1  0.520490  0.029500  0.228100  1.0  -0.6814
  O  O316  1  0.704710  0.043400  0.228700  1.0  -0.8525
  O  O317  1  0.671790  0.998300  0.254700  1.0  -0.7053
  O  O318  1  0.744240  0.998300  0.193600  1.0  -0.768
  O  O319  1  0.702250  0.253000  0.025300  1.0  -0.836
  O  O320  1  0.612060  0.847800  0.130200  1.0  -0.7719
  O  O321  1  0.728850  0.245900  0.925000  1.0  -0.9951
  O  O322  1  0.583980  0.109700  0.071900  1.0  -0.7648
  O  O323  1  0.678910  0.149400  0.169100  1.0  -0.886
  O  O324  1  0.565030  0.112100  0.925700  1.0  -0.8193
  O  O325  1  0.814310  0.992700  0.281600  1.0  -0.9023
  O  O326  1  0.632660  0.245400  0.932000  1.0  -0.9624
  O  O327  1  0.563960  0.897100  0.085400  1.0  -0.8186
  O  O328  1  0.724810  0.121600  0.054300  1.0  -0.8482
  O  O329  1  0.614010  0.133300  0.797400  1.0  -1.0192
  O  O330  1  0.796470  0.883100  0.417000  1.0  -0.914
  O  O331  1  0.747100  0.858500  0.292000  1.0  -0.9583
  O  O332  1  0.511710  0.892900  0.380500  1.0  -0.758
  O  O333  1  0.537150  0.162400  0.146200  1.0  -0.9724
  O  O334  1  0.607940  0.842200  0.305100  1.0  -1.0145
  O  O335  1  0.655760  0.878900  0.406200  1.0  -0.7293
  O  O336  1  0.536220  0.155800  0.321600  1.0  -0.8884
  O  O337  1  0.903370  0.515800  0.220300  1.0  -0.688
  O  O338  1  0.838610  0.236100  0.029400  1.0  -0.9589
  O  O339  1  0.869600  0.547500  0.229700  1.0  -0.7594
  O  O340  1  0.723980  0.543000  0.256400  1.0  -0.9423
  O  O341  1  0.907440  0.275700  0.944600  1.0  -0.967
  O  O342  1  0.944020  0.465100  0.238800  1.0  -0.6991
  O  O343  1  0.979510  0.470500  0.228100  1.0  -0.6794
  O  O344  1  0.795290  0.456600  0.228700  1.0  -0.8514
  O  O345  1  0.828210  0.501700  0.254700  1.0  -0.7062
  O  O346  1  0.755760  0.501700  0.193600  1.0  -0.7681
  O  O347  1  0.797750  0.247000  0.025300  1.0  -0.8344
  O  O348  1  0.887940  0.652200  0.130200  1.0  -0.7719
  O  O349  1  0.771150  0.254100  0.925000  1.0  -0.9913
  O  O350  1  0.916020  0.390300  0.071900  1.0  -0.7642
  O  O351  1  0.821090  0.350600  0.169100  1.0  -0.8863
  O  O352  1  0.934970  0.387900  0.925700  1.0  -0.8202
  O  O353  1  0.685690  0.507300  0.281600  1.0  -0.9015
  O  O354  1  0.867340  0.254600  0.932000  1.0  -0.9629
  O  O355  1  0.936040  0.602900  0.085400  1.0  -0.8188
  O  O356  1  0.775190  0.378400  0.054300  1.0  -0.8463
  O  O357  1  0.885990  0.366700  0.797400  1.0  -1.0189
  O  O358  1  0.703530  0.616900  0.417000  1.0  -0.914
  O  O359  1  0.752900  0.641500  0.292000  1.0  -0.959
  O  O360  1  0.988290  0.607100  0.380500  1.0  -0.7584
  O  O361  1  0.962850  0.337600  0.146200  1.0  -0.9717
  O  O362  1  0.892060  0.657800  0.305100  1.0  -1.0137
  O  O363  1  0.844240  0.621100  0.406200  1.0  -0.729
  O  O364  1  0.963780  0.344200  0.321600  1.0  -0.8882
  O  O365  1  0.903370  0.015800  0.720300  1.0  -0.688
  O  O366  1  0.838610  0.736100  0.529400  1.0  -0.9585
  O  O367  1  0.869600  0.047500  0.729700  1.0  -0.7594
  O  O368  1  0.723980  0.043000  0.756400  1.0  -0.9423
  O  O369  1  0.907440  0.775700  0.444600  1.0  -0.967
  O  O370  1  0.944020  0.965100  0.738800  1.0  -0.6991
  O  O371  1  0.979510  0.970500  0.728100  1.0  -0.6794
  O  O372  1  0.795290  0.956600  0.728700  1.0  -0.8514
  O  O373  1  0.828210  0.001700  0.754700  1.0  -0.7062
  O  O374  1  0.755760  0.001700  0.693600  1.0  -0.7681
  O  O375  1  0.797750  0.747000  0.525300  1.0  -0.8344
  O  O376  1  0.887940  0.152200  0.630200  1.0  -0.7719
  O  O377  1  0.771150  0.754100  0.425000  1.0  -0.9913
  O  O378  1  0.916020  0.890300  0.571900  1.0  -0.7642
  O  O379  1  0.821090  0.850600  0.669100  1.0  -0.8863
  O  O380  1  0.934970  0.887900  0.425700  1.0  -0.8202
  O  O381  1  0.685690  0.007300  0.781600  1.0  -0.9015
  O  O382  1  0.867340  0.754600  0.432000  1.0  -0.963
  O  O383  1  0.936040  0.102900  0.585400  1.0  -0.8188
  O  O384  1  0.775190  0.878400  0.554300  1.0  -0.8463
  O  O385  1  0.885990  0.866700  0.297400  1.0  -1.0184
  O  O386  1  0.703530  0.116900  0.917000  1.0  -0.914
  O  O387  1  0.752900  0.141500  0.792000  1.0  -0.959
  O  O388  1  0.988290  0.107100  0.880500  1.0  -0.7584
  O  O389  1  0.962850  0.837600  0.646200  1.0  -0.9717
  O  O390  1  0.892060  0.157800  0.805100  1.0  -1.0138
  O  O391  1  0.844240  0.121100  0.906200  1.0  -0.7296
  O  O392  1  0.963780  0.844200  0.821600  1.0  -0.8882
  O  O393  1  0.403370  0.515800  0.720300  1.0  -0.688
  O  O394  1  0.338610  0.236100  0.529400  1.0  -0.9589
  O  O395  1  0.369600  0.547500  0.729700  1.0  -0.7594
  O  O396  1  0.223980  0.543000  0.756400  1.0  -0.9423
  O  O397  1  0.407440  0.275700  0.444600  1.0  -0.967
  O  O398  1  0.444020  0.465100  0.738800  1.0  -0.6991
  O  O399  1  0.479510  0.470500  0.728100  1.0  -0.6794
  O  O400  1  0.295290  0.456600  0.728700  1.0  -0.8514
  O  O401  1  0.328210  0.501700  0.754700  1.0  -0.7062
  O  O402  1  0.255760  0.501700  0.693600  1.0  -0.7681
  O  O403  1  0.297750  0.247000  0.525300  1.0  -0.8344
  O  O404  1  0.387940  0.652200  0.630200  1.0  -0.7719
  O  O405  1  0.271150  0.254100  0.425000  1.0  -0.9913
  O  O406  1  0.416020  0.390300  0.571900  1.0  -0.7642
  O  O407  1  0.321090  0.350600  0.669100  1.0  -0.8863
  O  O408  1  0.434970  0.387900  0.425700  1.0  -0.8202
  O  O409  1  0.185690  0.507300  0.781600  1.0  -0.9015
  O  O410  1  0.367340  0.254600  0.432000  1.0  -0.9629
  O  O411  1  0.436040  0.602900  0.585400  1.0  -0.8188
  O  O412  1  0.275190  0.378400  0.554300  1.0  -0.8463
  O  O413  1  0.385990  0.366700  0.297400  1.0  -1.0189
  O  O414  1  0.203530  0.616900  0.917000  1.0  -0.914
  O  O415  1  0.252900  0.641500  0.792000  1.0  -0.959
  O  O416  1  0.488290  0.607100  0.880500  1.0  -0.7584
  O  O417  1  0.462850  0.337600  0.646200  1.0  -0.9717
  O  O418  1  0.392060  0.657800  0.805100  1.0  -1.0137
  O  O419  1  0.344240  0.621100  0.906200  1.0  -0.729
  O  O420  1  0.463780  0.344200  0.821600  1.0  -0.8882
  O  O421  1  0.403370  0.015800  0.220300  1.0  -0.688
  O  O422  1  0.338610  0.736100  0.029400  1.0  -0.9585
  O  O423  1  0.369600  0.047500  0.229700  1.0  -0.7594
  O  O424  1  0.223980  0.043000  0.256400  1.0  -0.9423
  O  O425  1  0.407440  0.775700  0.944600  1.0  -0.967
  O  O426  1  0.444020  0.965100  0.238800  1.0  -0.6991
  O  O427  1  0.479510  0.970500  0.228100  1.0  -0.6794
  O  O428  1  0.295290  0.956600  0.228700  1.0  -0.8514
  O  O429  1  0.328210  0.001700  0.254700  1.0  -0.7062
  O  O430  1  0.255760  0.001700  0.193600  1.0  -0.7681
  O  O431  1  0.297750  0.747000  0.025300  1.0  -0.8344
  O  O432  1  0.387940  0.152200  0.130200  1.0  -0.7719
  O  O433  1  0.271150  0.754100  0.925000  1.0  -0.9913
  O  O434  1  0.416020  0.890300  0.071900  1.0  -0.7642
  O  O435  1  0.321090  0.850600  0.169100  1.0  -0.8863
  O  O436  1  0.434970  0.887900  0.925700  1.0  -0.8202
  O  O437  1  0.185690  0.007300  0.281600  1.0  -0.9015
  O  O438  1  0.367340  0.754600  0.932000  1.0  -0.963
  O  O439  1  0.436040  0.102900  0.085400  1.0  -0.8188
  O  O440  1  0.275190  0.878400  0.054300  1.0  -0.8463
  O  O441  1  0.385990  0.866700  0.797400  1.0  -1.0184
  O  O442  1  0.203530  0.116900  0.417000  1.0  -0.914
  O  O443  1  0.252900  0.141500  0.292000  1.0  -0.959
  O  O444  1  0.488290  0.107100  0.380500  1.0  -0.7584
  O  O445  1  0.462850  0.837600  0.146200  1.0  -0.9717
  O  O446  1  0.392060  0.157800  0.305100  1.0  -1.0138
  O  O447  1  0.344240  0.121100  0.406200  1.0  -0.7296
  O  O448  1  0.463780  0.844200  0.321600  1.0  -0.8882
  O  O449  1  0.346630  0.765800  0.470300  1.0  -0.6886
  O  O450  1  0.411390  0.486100  0.279400  1.0  -0.9383
  O  O451  1  0.380400  0.797500  0.479700  1.0  -0.7585
  O  O452  1  0.526020  0.793000  0.506400  1.0  -0.9446
  O  O453  1  0.342560  0.525700  0.194600  1.0  -0.9668
  O  O454  1  0.305980  0.715100  0.488800  1.0  -0.6973
  O  O455  1  0.270490  0.720500  0.478100  1.0  -0.6804
  O  O456  1  0.454710  0.706600  0.478700  1.0  -0.8188
  O  O457  1  0.421790  0.751700  0.504700  1.0  -0.7059
  O  O458  1  0.494240  0.751700  0.443600  1.0  -0.7625
  O  O459  1  0.452250  0.497000  0.275300  1.0  -0.83
  O  O460  1  0.362060  0.902200  0.380200  1.0  -0.7716
  O  O461  1  0.478850  0.504100  0.175000  1.0  -0.9937
  O  O462  1  0.333980  0.640300  0.321900  1.0  -0.7645
  O  O463  1  0.428910  0.600600  0.419100  1.0  -0.8674
  O  O464  1  0.315030  0.637900  0.175700  1.0  -0.8363
  O  O465  1  0.564310  0.757300  0.531600  1.0  -0.9013
  O  O466  1  0.382660  0.504600  0.182000  1.0  -0.9643
  O  O467  1  0.313960  0.852900  0.335400  1.0  -0.8187
  O  O468  1  0.474810  0.628400  0.304300  1.0  -0.842
  O  O469  1  0.364010  0.616700  0.047400  1.0  -1.0207
  O  O470  1  0.546470  0.866900  0.667000  1.0  -0.9153
  O  O471  1  0.497100  0.891500  0.542000  1.0  -0.9588
  O  O472  1  0.261710  0.857100  0.630500  1.0  -0.7587
  O  O473  1  0.287150  0.587600  0.396200  1.0  -0.9726
  O  O474  1  0.357940  0.907800  0.555100  1.0  -1.014
  O  O475  1  0.405760  0.871100  0.656200  1.0  -0.7298
  O  O476  1  0.286220  0.594200  0.571600  1.0  -0.8983
  O  O477  1  0.346630  0.265800  0.970300  1.0  -0.6886
  O  O478  1  0.411390  0.986100  0.779400  1.0  -0.9384
  O  O479  1  0.380400  0.297500  0.979700  1.0  -0.7585
  O  O480  1  0.526020  0.293000  0.006400  1.0  -0.9446
  O  O481  1  0.342560  0.025700  0.694600  1.0  -0.9666
  O  O482  1  0.305980  0.215100  0.988800  1.0  -0.6973
  O  O483  1  0.270490  0.220500  0.978100  1.0  -0.6804
  O  O484  1  0.454710  0.206600  0.978700  1.0  -0.8188
  O  O485  1  0.421790  0.251700  0.004700  1.0  -0.7059
  O  O486  1  0.494240  0.251700  0.943600  1.0  -0.7625
  O  O487  1  0.452250  0.997000  0.775300  1.0  -0.83
  O  O488  1  0.362060  0.402200  0.880200  1.0  -0.7716
  O  O489  1  0.478850  0.004100  0.675000  1.0  -0.9937
  O  O490  1  0.333980  0.140300  0.821900  1.0  -0.7645
  O  O491  1  0.428910  0.100600  0.919100  1.0  -0.8674
  O  O492  1  0.315030  0.137900  0.675700  1.0  -0.8363
  O  O493  1  0.564310  0.257300  0.031600  1.0  -0.9013
  O  O494  1  0.382660  0.004600  0.682000  1.0  -0.9642
  O  O495  1  0.313960  0.352900  0.835400  1.0  -0.8187
  O  O496  1  0.474810  0.128400  0.804300  1.0  -0.842
  O  O497  1  0.364010  0.116700  0.547400  1.0  -1.0202
  O  O498  1  0.546470  0.366900  0.167000  1.0  -0.9153
  O  O499  1  0.497100  0.391500  0.042000  1.0  -0.9588
  O  O500  1  0.261710  0.357100  0.130500  1.0  -0.7587
  O  O501  1  0.287150  0.087600  0.896200  1.0  -0.9726
  O  O502  1  0.357940  0.407800  0.055100  1.0  -1.0141
  O  O503  1  0.405760  0.371100  0.156200  1.0  -0.73
  O  O504  1  0.286220  0.094200  0.071600  1.0  -0.8983
  O  O505  1  0.846630  0.765800  0.970300  1.0  -0.6886
  O  O506  1  0.911390  0.486100  0.779400  1.0  -0.9383
  O  O507  1  0.880400  0.797500  0.979700  1.0  -0.7585
  O  O508  1  0.026020  0.793000  0.006400  1.0  -0.9446
  O  O509  1  0.842560  0.525700  0.694600  1.0  -0.9668
  O  O510  1  0.805980  0.715100  0.988800  1.0  -0.6973
  O  O511  1  0.770490  0.720500  0.978100  1.0  -0.6804
  O  O512  1  0.954710  0.706600  0.978700  1.0  -0.8188
  O  O513  1  0.921790  0.751700  0.004700  1.0  -0.7059
  O  O514  1  0.994240  0.751700  0.943600  1.0  -0.7625
  O  O515  1  0.952250  0.497000  0.775300  1.0  -0.83
  O  O516  1  0.862060  0.902200  0.880200  1.0  -0.7716
  O  O517  1  0.978850  0.504100  0.675000  1.0  -0.9937
  O  O518  1  0.833980  0.640300  0.821900  1.0  -0.7645
  O  O519  1  0.928910  0.600600  0.919100  1.0  -0.8674
  O  O520  1  0.815030  0.637900  0.675700  1.0  -0.8363
  O  O521  1  0.064310  0.757300  0.031600  1.0  -0.9013
  O  O522  1  0.882660  0.504600  0.682000  1.0  -0.9643
  O  O523  1  0.813960  0.852900  0.835400  1.0  -0.8187
  O  O524  1  0.974810  0.628400  0.804300  1.0  -0.842
  O  O525  1  0.864010  0.616700  0.547400  1.0  -1.0207
  O  O526  1  0.046470  0.866900  0.167000  1.0  -0.9153
  O  O527  1  0.997100  0.891500  0.042000  1.0  -0.9588
  O  O528  1  0.761710  0.857100  0.130500  1.0  -0.7587
  O  O529  1  0.787150  0.587600  0.896200  1.0  -0.9726
  O  O530  1  0.857940  0.907800  0.055100  1.0  -1.014
  O  O531  1  0.905760  0.871100  0.156200  1.0  -0.7298
  O  O532  1  0.786220  0.594200  0.071600  1.0  -0.8983
  O  O533  1  0.846630  0.265800  0.470300  1.0  -0.6886
  O  O534  1  0.911390  0.986100  0.279400  1.0  -0.9384
  O  O535  1  0.880400  0.297500  0.479700  1.0  -0.7585
  O  O536  1  0.026020  0.293000  0.506400  1.0  -0.9446
  O  O537  1  0.842560  0.025700  0.194600  1.0  -0.9666
  O  O538  1  0.805980  0.215100  0.488800  1.0  -0.6973
  O  O539  1  0.770490  0.220500  0.478100  1.0  -0.6804
  O  O540  1  0.954710  0.206600  0.478700  1.0  -0.8188
  O  O541  1  0.921790  0.251700  0.504700  1.0  -0.7059
  O  O542  1  0.994240  0.251700  0.443600  1.0  -0.7625
  O  O543  1  0.952250  0.997000  0.275300  1.0  -0.83
  O  O544  1  0.862060  0.402200  0.380200  1.0  -0.7716
  O  O545  1  0.978850  0.004100  0.175000  1.0  -0.9937
  O  O546  1  0.833980  0.140300  0.321900  1.0  -0.7645
  O  O547  1  0.928910  0.100600  0.419100  1.0  -0.8674
  O  O548  1  0.815030  0.137900  0.175700  1.0  -0.8363
  O  O549  1  0.064310  0.257300  0.531600  1.0  -0.9013
  O  O550  1  0.882660  0.004600  0.182000  1.0  -0.9642
  O  O551  1  0.813960  0.352900  0.335400  1.0  -0.8187
  O  O552  1  0.974810  0.128400  0.304300  1.0  -0.842
  O  O553  1  0.864010  0.116700  0.047400  1.0  -1.0202
  O  O554  1  0.046470  0.366900  0.667000  1.0  -0.9153
  O  O555  1  0.997100  0.391500  0.542000  1.0  -0.9588
  O  O556  1  0.761710  0.357100  0.630500  1.0  -0.7587
  O  O557  1  0.787150  0.087600  0.396200  1.0  -0.9726
  O  O558  1  0.857940  0.407800  0.555100  1.0  -1.0141
  O  O559  1  0.905760  0.371100  0.656200  1.0  -0.73
  O  O560  1  0.786220  0.094200  0.571600  1.0  -0.8983
  O  O561  1  0.153370  0.734200  0.470300  1.0  -0.6868
  O  O562  1  0.088610  0.013900  0.279400  1.0  -0.9364
  O  O563  1  0.119600  0.702500  0.479700  1.0  -0.7594
  O  O564  1  0.973980  0.707000  0.506400  1.0  -0.9443
  O  O565  1  0.157440  0.974300  0.194600  1.0  -0.9683
  O  O566  1  0.194020  0.784900  0.488800  1.0  -0.699
  O  O567  1  0.229510  0.779500  0.478100  1.0  -0.6816
  O  O568  1  0.045290  0.793400  0.478700  1.0  -0.8175
  O  O569  1  0.078210  0.748300  0.504700  1.0  -0.7058
  O  O570  1  0.005760  0.748300  0.443600  1.0  -0.7635
  O  O571  1  0.047750  0.003000  0.275300  1.0  -0.8315
  O  O572  1  0.137940  0.597800  0.380200  1.0  -0.7721
  O  O573  1  0.021150  0.995900  0.175000  1.0  -0.9926
  O  O574  1  0.166020  0.859700  0.321900  1.0  -0.7638
  O  O575  1  0.071090  0.899400  0.419100  1.0  -0.8673
  O  O576  1  0.184970  0.862100  0.175700  1.0  -0.8363
  O  O577  1  0.935690  0.742700  0.531600  1.0  -0.9019
  O  O578  1  0.117340  0.995400  0.182000  1.0  -0.9619
  O  O579  1  0.186040  0.647100  0.335400  1.0  -0.8187
  O  O580  1  0.025190  0.871600  0.304300  1.0  -0.8409
  O  O581  1  0.135990  0.883300  0.047400  1.0  -1.0183
  O  O582  1  0.953530  0.633100  0.667000  1.0  -0.9151
  O  O583  1  0.002900  0.608500  0.542000  1.0  -0.9593
  O  O584  1  0.238290  0.642900  0.630500  1.0  -0.7582
  O  O585  1  0.212850  0.912400  0.396200  1.0  -0.9713
  O  O586  1  0.142060  0.592200  0.555100  1.0  -1.0143
  O  O587  1  0.094240  0.628900  0.656200  1.0  -0.7299
  O  O588  1  0.213780  0.905800  0.571600  1.0  -0.8984
  O  O589  1  0.153370  0.234200  0.970300  1.0  -0.6868
  O  O590  1  0.088610  0.513900  0.779400  1.0  -0.9367
  O  O591  1  0.119600  0.202500  0.979700  1.0  -0.7594
  O  O592  1  0.973980  0.207000  0.006400  1.0  -0.9443
  O  O593  1  0.157440  0.474300  0.694600  1.0  -0.9681
  O  O594  1  0.194020  0.284900  0.988800  1.0  -0.699
  O  O595  1  0.229510  0.279500  0.978100  1.0  -0.6816
  O  O596  1  0.045290  0.293400  0.978700  1.0  -0.8175
  O  O597  1  0.078210  0.248300  0.004700  1.0  -0.7058
  O  O598  1  0.005760  0.248300  0.943600  1.0  -0.7635
  O  O599  1  0.047750  0.503000  0.775300  1.0  -0.8315
  O  O600  1  0.137940  0.097800  0.880200  1.0  -0.7721
  O  O601  1  0.021150  0.495900  0.675000  1.0  -0.9926
  O  O602  1  0.166020  0.359700  0.821900  1.0  -0.7638
  O  O603  1  0.071090  0.399400  0.919100  1.0  -0.8673
  O  O604  1  0.184970  0.362100  0.675700  1.0  -0.8363
  O  O605  1  0.935690  0.242700  0.031600  1.0  -0.9019
  O  O606  1  0.117340  0.495400  0.682000  1.0  -0.9618
  O  O607  1  0.186040  0.147100  0.835400  1.0  -0.8187
  O  O608  1  0.025190  0.371600  0.804300  1.0  -0.8409
  O  O609  1  0.135990  0.383300  0.547400  1.0  -1.0178
  O  O610  1  0.953530  0.133100  0.167000  1.0  -0.9151
  O  O611  1  0.002900  0.108500  0.042000  1.0  -0.9595
  O  O612  1  0.238290  0.142900  0.130500  1.0  -0.7582
  O  O613  1  0.212850  0.412400  0.896200  1.0  -0.9713
  O  O614  1  0.142060  0.092200  0.055100  1.0  -1.0144
  O  O615  1  0.094240  0.128900  0.156200  1.0  -0.7301
  O  O616  1  0.213780  0.405800  0.071600  1.0  -0.8984
  O  O617  1  0.653370  0.734200  0.970300  1.0  -0.6868
  O  O618  1  0.588610  0.013900  0.779400  1.0  -0.9364
  O  O619  1  0.619600  0.702500  0.979700  1.0  -0.7594
  O  O620  1  0.473980  0.707000  0.006400  1.0  -0.9443
  O  O621  1  0.657440  0.974300  0.694600  1.0  -0.9683
  O  O622  1  0.694020  0.784900  0.988800  1.0  -0.699
  O  O623  1  0.729510  0.779500  0.978100  1.0  -0.6816
  O  O624  1  0.545290  0.793400  0.978700  1.0  -0.8175
  O  O625  1  0.578210  0.748300  0.004700  1.0  -0.7058
  O  O626  1  0.505760  0.748300  0.943600  1.0  -0.7635
  O  O627  1  0.547750  0.003000  0.775300  1.0  -0.8315
  O  O628  1  0.637940  0.597800  0.880200  1.0  -0.7721
  O  O629  1  0.521150  0.995900  0.675000  1.0  -0.9926
  O  O630  1  0.666020  0.859700  0.821900  1.0  -0.7638
  O  O631  1  0.571090  0.899400  0.919100  1.0  -0.8673
  O  O632  1  0.684970  0.862100  0.675700  1.0  -0.8363
  O  O633  1  0.435690  0.742700  0.031600  1.0  -0.9019
  O  O634  1  0.617340  0.995400  0.682000  1.0  -0.9619
  O  O635  1  0.686040  0.647100  0.835400  1.0  -0.8187
  O  O636  1  0.525190  0.871600  0.804300  1.0  -0.8409
  O  O637  1  0.635990  0.883300  0.547400  1.0  -1.0183
  O  O638  1  0.453530  0.633100  0.167000  1.0  -0.9151
  O  O639  1  0.502900  0.608500  0.042000  1.0  -0.9593
  O  O640  1  0.738290  0.642900  0.130500  1.0  -0.7582
  O  O641  1  0.712850  0.912400  0.896200  1.0  -0.9713
  O  O642  1  0.642060  0.592200  0.055100  1.0  -1.0143
  O  O643  1  0.594240  0.628900  0.156200  1.0  -0.7299
  O  O644  1  0.713780  0.905800  0.071600  1.0  -0.8984
  O  O645  1  0.653370  0.234200  0.470300  1.0  -0.6868
  O  O646  1  0.588610  0.513900  0.279400  1.0  -0.9367
  O  O647  1  0.619600  0.202500  0.479700  1.0  -0.7594
  O  O648  1  0.473980  0.207000  0.506400  1.0  -0.9443
  O  O649  1  0.657440  0.474300  0.194600  1.0  -0.9681
  O  O650  1  0.694020  0.284900  0.488800  1.0  -0.699
  O  O651  1  0.729510  0.279500  0.478100  1.0  -0.6816
  O  O652  1  0.545290  0.293400  0.478700  1.0  -0.8175
  O  O653  1  0.578210  0.248300  0.504700  1.0  -0.7058
  O  O654  1  0.505760  0.248300  0.443600  1.0  -0.7635
  O  O655  1  0.547750  0.503000  0.275300  1.0  -0.8315
  O  O656  1  0.637940  0.097800  0.380200  1.0  -0.7721
  O  O657  1  0.521150  0.495900  0.175000  1.0  -0.9926
  O  O658  1  0.666020  0.359700  0.321900  1.0  -0.7638
  O  O659  1  0.571090  0.399400  0.419100  1.0  -0.8673
  O  O660  1  0.684970  0.362100  0.175700  1.0  -0.8363
  O  O661  1  0.435690  0.242700  0.531600  1.0  -0.9019
  O  O662  1  0.617340  0.495400  0.182000  1.0  -0.9618
  O  O663  1  0.686040  0.147100  0.335400  1.0  -0.8187
  O  O664  1  0.525190  0.371600  0.304300  1.0  -0.8409
  O  O665  1  0.635990  0.383300  0.047400  1.0  -1.0178
  O  O666  1  0.453530  0.133100  0.667000  1.0  -0.9151
  O  O667  1  0.502900  0.108500  0.542000  1.0  -0.9595
  O  O668  1  0.738290  0.142900  0.630500  1.0  -0.7582
  O  O669  1  0.712850  0.412400  0.396200  1.0  -0.9713
  O  O670  1  0.642060  0.092200  0.555100  1.0  -1.0144
  O  O671  1  0.594240  0.128900  0.656200  1.0  -0.7301
  O  O672  1  0.713780  0.405800  0.571600  1.0  -0.8984
