# generated using pymatgen
data_Mn4H64C64N11O16
_symmetry_space_group_name_H-M   'P 1'
_cell_length_a   15.25800000
_cell_length_b   21.33300000
_cell_length_c   29.26700000
_cell_angle_alpha   90.00000000
_cell_angle_beta   90.00000000
_cell_angle_gamma   90.00000000
_symmetry_Int_Tables_number   1
_chemical_formula_structural   Mn4H64C64N11O16
_chemical_formula_sum   'Mn16 H256 C256 N44 O64'
_cell_volume   9526.37671604
_cell_formula_units_Z   4
loop_
 _symmetry_equiv_pos_site_id
 _symmetry_equiv_pos_as_xyz
  1  'x, y, z'
loop_
 _atom_site_type_symbol
 _atom_site_label
 _atom_site_symmetry_multiplicity
 _atom_site_fract_x
 _atom_site_fract_y
 _atom_site_fract_z
 _atom_site_occupancy
 _atom_site_charge
  Mn  Mn1  1  0.361450  0.273050  0.233340  1.0  1.1289
  Mn  Mn2  1  0.129090  0.276960  0.179660  1.0  1.1439
  Mn  Mn3  1  0.172520  0.509360  0.157340  1.0  1.132
  Mn  Mn4  1  0.332890  0.503270  0.255260  1.0  1.191
  Mn  Mn5  1  0.638550  0.726950  0.733340  1.0  1.1287
  Mn  Mn6  1  0.870910  0.723040  0.679660  1.0  1.1441
  Mn  Mn7  1  0.827480  0.490640  0.657340  1.0  1.1327
  Mn  Mn8  1  0.667110  0.496730  0.755260  1.0  1.191
  Mn  Mn9  1  0.861450  0.226950  0.233340  1.0  1.1288
  Mn  Mn10  1  0.629090  0.223040  0.179660  1.0  1.1438
  Mn  Mn11  1  0.672520  0.990640  0.157340  1.0  1.1323
  Mn  Mn12  1  0.832890  0.996730  0.255260  1.0  1.1914
  Mn  Mn13  1  0.138550  0.773050  0.733340  1.0  1.1288
  Mn  Mn14  1  0.370910  0.776960  0.679660  1.0  1.1435
  Mn  Mn15  1  0.327480  0.009360  0.657340  1.0  1.1325
  Mn  Mn16  1  0.167110  0.003270  0.755260  1.0  1.1906
  H  H17  1  0.292200  0.136300  0.323800  1.0  0.0899
  H  H18  1  0.255100  0.053200  0.370000  1.0  0.0694
  H  H19  1  0.009300  0.061000  0.330200  1.0  0.1054
  H  H20  1  0.042600  0.141400  0.282300  1.0  0.0733
  H  H21  1  0.064800  0.971600  0.374100  1.0  0.0523
  H  H22  1  0.161500  0.972700  0.392700  1.0  0.0558
  H  H23  1  0.021400  0.043300  0.425700  1.0  0.05
  H  H24  1  0.118600  0.057800  0.440000  1.0  0.0359
  H  H25  1  0.035900  0.939400  0.457700  1.0  0.0495
  H  H26  1  0.131600  0.956300  0.473600  1.0  0.0505
  H  H27  1  0.073400  0.039400  0.519700  1.0  0.0705
  H  H28  1  0.978100  0.020400  0.504700  1.0  0.065
  H  H29  1  0.148500  0.977800  0.576900  1.0  0.1043
  H  H30  1  0.137000  0.909000  0.636300  1.0  0.0691
  H  H31  1  0.914000  0.845400  0.583900  1.0  0.0829
  H  H32  1  0.924200  0.921400  0.528100  1.0  0.0838
  H  H33  1  0.439800  0.136000  0.139100  1.0  0.0959
  H  H34  1  0.480800  0.061800  0.085900  1.0  0.0641
  H  H35  1  0.287000  0.104400  0.008200  1.0  0.1027
  H  H36  1  0.237700  0.174200  0.061600  1.0  0.0513
  H  H37  1  0.475000  0.010200  0.020900  1.0  0.0363
  H  H38  1  0.377900  0.997400  0.005500  1.0  0.0433
  H  H39  1  0.485900  0.090500  0.971100  1.0  0.0468
  H  H40  1  0.386900  0.083100  0.957500  1.0  0.0661
  H  H41  1  0.481800  0.035000  0.901700  1.0  0.0487
  H  H42  1  0.516000  0.988800  0.939300  1.0  0.0442
  H  H43  1  0.344900  0.993500  0.912900  1.0  0.0413
  H  H44  1  0.388900  0.942500  0.943900  1.0  0.0428
  H  H45  1  0.496500  0.872700  0.907000  1.0  0.0745
  H  H46  1  0.530400  0.812200  0.845500  1.0  0.0951
  H  H47  1  0.388600  0.927000  0.767600  1.0  0.0663
  H  H48  1  0.353100  0.985800  0.831900  1.0  0.1002
  H  H49  1  0.129900  0.270700  0.066900  1.0  0.0828
  H  H50  1  0.141600  0.232700  0.993000  1.0  0.0834
  H  H51  1  0.195700  0.400400  0.945800  1.0  0.0956
  H  H52  1  0.194000  0.440400  0.019100  1.0  0.08
  H  H53  1  0.218500  0.247600  0.920600  1.0  0.063
  H  H54  1  0.214100  0.314800  0.898800  1.0  0.0651
  H  H55  1  0.061700  0.307700  0.892400  1.0  0.0462
  H  H56  1  0.061700  0.243200  0.918200  1.0  0.0555
  H  H57  1  0.133700  0.263500  0.829900  1.0  0.0588
  H  H58  1  0.145900  0.200000  0.856000  1.0  0.0672
  H  H59  1  0.035100  0.180500  0.807800  1.0  0.0663
  H  H60  1  0.987900  0.190600  0.854900  1.0  0.0711
  H  H61  1  0.037200  0.261800  0.754000  1.0  0.0863
  H  H62  1  0.963600  0.344100  0.719400  1.0  0.0934
  H  H63  1  0.815500  0.359300  0.833500  1.0  0.0957
  H  H64  1  0.893200  0.276300  0.863500  1.0  0.0712
  H  H65  1  0.310400  0.263600  0.345200  1.0  0.0734
  H  H66  1  0.288900  0.226600  0.417400  1.0  0.1018
  H  H67  1  0.305800  0.397500  0.465700  1.0  0.0614
  H  H68  1  0.328600  0.437900  0.394700  1.0  0.1121
  H  H69  1  0.245900  0.315800  0.513900  1.0  0.0599
  H  H70  1  0.244800  0.246800  0.495000  1.0  0.0639
  H  H71  1  0.400000  0.242800  0.501900  1.0  0.0414
  H  H72  1  0.399400  0.311000  0.522300  1.0  0.0496
  H  H73  1  0.319500  0.277800  0.584800  1.0  0.0458
  H  H74  1  0.308700  0.210800  0.563600  1.0  0.0568
  H  H75  1  0.464100  0.199300  0.570400  1.0  0.0516
  H  H76  1  0.412300  0.198900  0.616700  1.0  0.0662
  H  H77  1  0.419300  0.290400  0.665200  1.0  0.0887
  H  H78  1  0.504300  0.370100  0.693300  1.0  0.1018
  H  H79  1  0.650600  0.359100  0.580200  1.0  0.0693
  H  H80  1  0.564400  0.279600  0.553700  1.0  0.105
  H  H81  1  0.707800  0.863700  0.823800  1.0  0.0906
  H  H82  1  0.744900  0.946800  0.870000  1.0  0.0689
  H  H83  1  0.990700  0.939000  0.830200  1.0  0.1059
  H  H84  1  0.957400  0.858600  0.782300  1.0  0.0737
  H  H85  1  0.935200  0.028400  0.874100  1.0  0.0529
  H  H86  1  0.838500  0.027300  0.892700  1.0  0.0547
  H  H87  1  0.978600  0.956700  0.925700  1.0  0.0459
  H  H88  1  0.881400  0.942200  0.940000  1.0  0.0369
  H  H89  1  0.964100  0.060600  0.957700  1.0  0.0493
  H  H90  1  0.868400  0.043700  0.973600  1.0  0.0539
  H  H91  1  0.926600  0.960600  0.019700  1.0  0.073
  H  H92  1  0.021900  0.979600  0.004700  1.0  0.0656
  H  H93  1  0.851500  0.022200  0.076900  1.0  0.1041
  H  H94  1  0.863000  0.091000  0.136300  1.0  0.0692
  H  H95  1  0.086000  0.154600  0.083900  1.0  0.0826
  H  H96  1  0.075800  0.078600  0.028100  1.0  0.0838
  H  H97  1  0.560200  0.864000  0.639100  1.0  0.096
  H  H98  1  0.519200  0.938200  0.585900  1.0  0.064
  H  H99  1  0.713000  0.895600  0.508200  1.0  0.1033
  H  H100  1  0.762300  0.825800  0.561600  1.0  0.0505
  H  H101  1  0.525000  0.989800  0.520900  1.0  0.0347
  H  H102  1  0.622100  0.002600  0.505500  1.0  0.0413
  H  H103  1  0.514100  0.909500  0.471100  1.0  0.0485
  H  H104  1  0.613100  0.916900  0.457500  1.0  0.0635
  H  H105  1  0.518200  0.965000  0.401700  1.0  0.0487
  H  H106  1  0.484000  0.011200  0.439300  1.0  0.0444
  H  H107  1  0.655100  0.006500  0.412900  1.0  0.0442
  H  H108  1  0.611100  0.057500  0.443900  1.0  0.0422
  H  H109  1  0.503500  0.127300  0.407000  1.0  0.0748
  H  H110  1  0.469600  0.187800  0.345500  1.0  0.095
  H  H111  1  0.611400  0.073000  0.267600  1.0  0.0662
  H  H112  1  0.646900  0.014200  0.331900  1.0  0.0999
  H  H113  1  0.870100  0.729300  0.566900  1.0  0.0827
  H  H114  1  0.858400  0.767300  0.493000  1.0  0.0826
  H  H115  1  0.804300  0.599600  0.445800  1.0  0.0951
  H  H116  1  0.806000  0.559600  0.519100  1.0  0.0813
  H  H117  1  0.781500  0.752400  0.420600  1.0  0.0641
  H  H118  1  0.785900  0.685200  0.398800  1.0  0.0648
  H  H119  1  0.938300  0.692300  0.392400  1.0  0.0475
  H  H120  1  0.938300  0.756800  0.418200  1.0  0.054
  H  H121  1  0.866300  0.736500  0.329900  1.0  0.0587
  H  H122  1  0.854100  0.800000  0.356000  1.0  0.0672
  H  H123  1  0.964900  0.819500  0.307800  1.0  0.0666
  H  H124  1  0.012100  0.809400  0.354900  1.0  0.0697
  H  H125  1  0.962800  0.738200  0.254000  1.0  0.0863
  H  H126  1  0.036400  0.655900  0.219400  1.0  0.0933
  H  H127  1  0.184500  0.640700  0.333500  1.0  0.0958
  H  H128  1  0.106800  0.723700  0.363500  1.0  0.0711
  H  H129  1  0.689600  0.736400  0.845200  1.0  0.0738
  H  H130  1  0.711100  0.773400  0.917400  1.0  0.1012
  H  H131  1  0.694200  0.602500  0.965700  1.0  0.0618
  H  H132  1  0.671400  0.562100  0.894700  1.0  0.1129
  H  H133  1  0.754100  0.684200  0.013900  1.0  0.0597
  H  H134  1  0.755200  0.753200  0.995000  1.0  0.0626
  H  H135  1  0.600000  0.757200  0.001900  1.0  0.043
  H  H136  1  0.600600  0.689000  0.022300  1.0  0.0482
  H  H137  1  0.680500  0.722200  0.084800  1.0  0.0464
  H  H138  1  0.691300  0.789200  0.063600  1.0  0.0551
  H  H139  1  0.535900  0.800700  0.070400  1.0  0.0522
  H  H140  1  0.587700  0.801100  0.116700  1.0  0.0658
  H  H141  1  0.580700  0.709600  0.165200  1.0  0.0894
  H  H142  1  0.495700  0.629900  0.193300  1.0  0.1017
  H  H143  1  0.349400  0.640900  0.080200  1.0  0.069
  H  H144  1  0.435600  0.720400  0.053700  1.0  0.105
  H  H145  1  0.792200  0.363700  0.323800  1.0  0.0897
  H  H146  1  0.755100  0.446800  0.370000  1.0  0.0696
  H  H147  1  0.509300  0.439000  0.330200  1.0  0.1052
  H  H148  1  0.542600  0.358600  0.282300  1.0  0.0737
  H  H149  1  0.564800  0.528400  0.374100  1.0  0.0531
  H  H150  1  0.661500  0.527300  0.392700  1.0  0.0567
  H  H151  1  0.521400  0.456700  0.425700  1.0  0.0499
  H  H152  1  0.618600  0.442200  0.440000  1.0  0.0366
  H  H153  1  0.535900  0.560600  0.457700  1.0  0.0503
  H  H154  1  0.631600  0.543700  0.473600  1.0  0.0504
  H  H155  1  0.573400  0.460600  0.519700  1.0  0.0727
  H  H156  1  0.478100  0.479600  0.504700  1.0  0.0645
  H  H157  1  0.648500  0.522200  0.576900  1.0  0.1045
  H  H158  1  0.637000  0.591000  0.636300  1.0  0.0691
  H  H159  1  0.414000  0.654600  0.583900  1.0  0.0827
  H  H160  1  0.424200  0.578600  0.528100  1.0  0.0838
  H  H161  1  0.939800  0.364000  0.139100  1.0  0.0954
  H  H162  1  0.980800  0.438200  0.085900  1.0  0.0643
  H  H163  1  0.787000  0.395600  0.008200  1.0  0.1026
  H  H164  1  0.737700  0.325800  0.061600  1.0  0.0511
  H  H165  1  0.975000  0.489800  0.020900  1.0  0.0368
  H  H166  1  0.877900  0.502600  0.005500  1.0  0.0423
  H  H167  1  0.985900  0.409500  0.971100  1.0  0.0482
  H  H168  1  0.886900  0.416900  0.957500  1.0  0.065
  H  H169  1  0.981800  0.465000  0.901700  1.0  0.0484
  H  H170  1  0.016000  0.511200  0.939300  1.0  0.044
  H  H171  1  0.844900  0.506500  0.912900  1.0  0.041
  H  H172  1  0.888900  0.557500  0.943900  1.0  0.0416
  H  H173  1  0.996500  0.627300  0.907000  1.0  0.0748
  H  H174  1  0.030400  0.687800  0.845500  1.0  0.0949
  H  H175  1  0.888600  0.573000  0.767600  1.0  0.0661
  H  H176  1  0.853100  0.514200  0.831900  1.0  0.0995
  H  H177  1  0.629900  0.229300  0.066900  1.0  0.0826
  H  H178  1  0.641600  0.267300  0.993000  1.0  0.0828
  H  H179  1  0.695700  0.099600  0.945800  1.0  0.0952
  H  H180  1  0.694000  0.059600  0.019100  1.0  0.0813
  H  H181  1  0.718500  0.252400  0.920600  1.0  0.0624
  H  H182  1  0.714100  0.185200  0.898800  1.0  0.0648
  H  H183  1  0.561700  0.192300  0.892400  1.0  0.0477
  H  H184  1  0.561700  0.256800  0.918200  1.0  0.0553
  H  H185  1  0.633700  0.236500  0.829900  1.0  0.0585
  H  H186  1  0.645900  0.300000  0.856000  1.0  0.0665
  H  H187  1  0.535100  0.319500  0.807800  1.0  0.0661
  H  H188  1  0.487900  0.309400  0.854900  1.0  0.0703
  H  H189  1  0.537200  0.238200  0.754000  1.0  0.0864
  H  H190  1  0.463600  0.155900  0.719400  1.0  0.0932
  H  H191  1  0.315500  0.140700  0.833500  1.0  0.0955
  H  H192  1  0.393200  0.223700  0.863500  1.0  0.071
  H  H193  1  0.810400  0.236400  0.345200  1.0  0.0737
  H  H194  1  0.788900  0.273400  0.417400  1.0  0.1013
  H  H195  1  0.805800  0.102500  0.465700  1.0  0.0618
  H  H196  1  0.828600  0.062100  0.394700  1.0  0.1129
  H  H197  1  0.745900  0.184200  0.513900  1.0  0.0606
  H  H198  1  0.744800  0.253200  0.495000  1.0  0.0642
  H  H199  1  0.900000  0.257200  0.501900  1.0  0.0419
  H  H200  1  0.899400  0.189000  0.522300  1.0  0.0478
  H  H201  1  0.819500  0.222200  0.584800  1.0  0.0471
  H  H202  1  0.808700  0.289200  0.563600  1.0  0.0565
  H  H203  1  0.964100  0.300700  0.570400  1.0  0.0513
  H  H204  1  0.912300  0.301100  0.616700  1.0  0.0656
  H  H205  1  0.919300  0.209600  0.665200  1.0  0.0887
  H  H206  1  0.004300  0.129900  0.693300  1.0  0.102
  H  H207  1  0.150600  0.140900  0.580200  1.0  0.0692
  H  H208  1  0.064400  0.220400  0.553700  1.0  0.1049
  H  H209  1  0.207800  0.636300  0.823800  1.0  0.0907
  H  H210  1  0.244900  0.553200  0.870000  1.0  0.0692
  H  H211  1  0.490700  0.561000  0.830200  1.0  0.1056
  H  H212  1  0.457400  0.641400  0.782300  1.0  0.0735
  H  H213  1  0.435200  0.471600  0.874100  1.0  0.0518
  H  H214  1  0.338500  0.472700  0.892700  1.0  0.0547
  H  H215  1  0.478600  0.543300  0.925700  1.0  0.0463
  H  H216  1  0.381400  0.557800  0.940000  1.0  0.0366
  H  H217  1  0.464100  0.439400  0.957700  1.0  0.0493
  H  H218  1  0.368400  0.456300  0.973600  1.0  0.0542
  H  H219  1  0.426600  0.539400  0.019700  1.0  0.0709
  H  H220  1  0.521900  0.520400  0.004700  1.0  0.065
  H  H221  1  0.351500  0.477800  0.076900  1.0  0.104
  H  H222  1  0.363000  0.409000  0.136300  1.0  0.0692
  H  H223  1  0.586000  0.345400  0.083900  1.0  0.0829
  H  H224  1  0.575800  0.421400  0.028100  1.0  0.0839
  H  H225  1  0.060200  0.636000  0.639100  1.0  0.0962
  H  H226  1  0.019200  0.561800  0.585900  1.0  0.0642
  H  H227  1  0.213000  0.604400  0.508200  1.0  0.1032
  H  H228  1  0.262300  0.674200  0.561600  1.0  0.0506
  H  H229  1  0.025000  0.510200  0.520900  1.0  0.035
  H  H230  1  0.122100  0.497400  0.505500  1.0  0.0428
  H  H231  1  0.014100  0.590500  0.471100  1.0  0.0476
  H  H232  1  0.113100  0.583100  0.457500  1.0  0.0643
  H  H233  1  0.018200  0.535000  0.401700  1.0  0.0483
  H  H234  1  0.984000  0.488800  0.439300  1.0  0.0438
  H  H235  1  0.155100  0.493500  0.412900  1.0  0.0449
  H  H236  1  0.111100  0.442500  0.443900  1.0  0.0432
  H  H237  1  0.003500  0.372700  0.407000  1.0  0.0747
  H  H238  1  0.969600  0.312200  0.345500  1.0  0.0951
  H  H239  1  0.111400  0.427000  0.267600  1.0  0.0661
  H  H240  1  0.146900  0.485800  0.331900  1.0  0.1002
  H  H241  1  0.370100  0.770700  0.566900  1.0  0.0829
  H  H242  1  0.358400  0.732700  0.493000  1.0  0.0832
  H  H243  1  0.304300  0.900400  0.445800  1.0  0.0954
  H  H244  1  0.306000  0.940400  0.519100  1.0  0.0803
  H  H245  1  0.281500  0.747600  0.420600  1.0  0.0635
  H  H246  1  0.285900  0.814800  0.398800  1.0  0.0653
  H  H247  1  0.438300  0.807700  0.392400  1.0  0.0461
  H  H248  1  0.438300  0.743200  0.418200  1.0  0.0544
  H  H249  1  0.366300  0.763500  0.329900  1.0  0.0585
  H  H250  1  0.354100  0.700000  0.356000  1.0  0.0675
  H  H251  1  0.464900  0.680500  0.307800  1.0  0.0665
  H  H252  1  0.512100  0.690600  0.354900  1.0  0.0704
  H  H253  1  0.462800  0.761800  0.254000  1.0  0.0862
  H  H254  1  0.536400  0.844100  0.219400  1.0  0.0934
  H  H255  1  0.684500  0.859300  0.333500  1.0  0.0959
  H  H256  1  0.606800  0.776300  0.363500  1.0  0.0713
  H  H257  1  0.189600  0.763600  0.845200  1.0  0.0735
  H  H258  1  0.211100  0.726600  0.917400  1.0  0.1019
  H  H259  1  0.194200  0.897500  0.965700  1.0  0.0614
  H  H260  1  0.171400  0.937900  0.894700  1.0  0.1124
  H  H261  1  0.254100  0.815800  0.013900  1.0  0.0593
  H  H262  1  0.255200  0.746800  0.995000  1.0  0.0628
  H  H263  1  0.100000  0.742800  0.001900  1.0  0.0423
  H  H264  1  0.100600  0.811000  0.022300  1.0  0.0493
  H  H265  1  0.180500  0.777800  0.084800  1.0  0.0453
  H  H266  1  0.191300  0.710800  0.063600  1.0  0.0568
  H  H267  1  0.035900  0.699300  0.070400  1.0  0.0519
  H  H268  1  0.087700  0.698900  0.116700  1.0  0.0669
  H  H269  1  0.080700  0.790400  0.165200  1.0  0.0893
  H  H270  1  0.995700  0.870100  0.193300  1.0  0.1018
  H  H271  1  0.849400  0.859100  0.080200  1.0  0.0692
  H  H272  1  0.935600  0.779600  0.053700  1.0  0.1053
  C  C273  1  0.194400  0.200900  0.265500  1.0  0.687
  C  C274  1  0.169600  0.148200  0.298100  1.0  -0.1706
  C  C275  1  0.234900  0.121400  0.324700  1.0  -0.1372
  C  C276  1  0.211900  0.072100  0.352400  1.0  0.0614
  C  C277  1  0.066300  0.076300  0.328700  1.0  -0.016
  C  C278  1  0.086300  0.124200  0.300500  1.0  -0.0365
  C  C279  1  0.109900  0.998200  0.387300  1.0  -0.005
  C  C280  1  0.078900  0.024900  0.430200  1.0  -0.1346
  C  C281  1  0.073800  0.973200  0.467600  1.0  -0.1177
  C  C282  1  0.036500  0.004500  0.510800  1.0  -0.0503
  C  C283  1  0.099400  0.952300  0.579500  1.0  -0.0033
  C  C284  1  0.093600  0.910000  0.614000  1.0  -0.093
  C  C285  1  0.025900  0.869600  0.616300  1.0  -0.1255
  C  C286  1  0.961100  0.873100  0.583500  1.0  -0.1546
  C  C287  1  0.967700  0.918400  0.550200  1.0  0.0304
  C  C288  1  0.017700  0.820600  0.654400  1.0  0.6865
  C  C289  1  0.293600  0.202500  0.144700  1.0  0.6753
  C  C290  1  0.328200  0.158800  0.107200  1.0  -0.143
  C  C291  1  0.405300  0.128400  0.113500  1.0  -0.181
  C  C292  1  0.431000  0.085900  0.080500  1.0  0.0568
  C  C293  1  0.317500  0.109800  0.035400  1.0  -0.0118
  C  C294  1  0.287900  0.150900  0.067700  1.0  -0.1189
  C  C295  1  0.421900  0.029800  0.009600  1.0  -0.0107
  C  C296  1  0.438900  0.060400  0.967000  1.0  -0.1305
  C  C297  1  0.465200  0.012200  0.929100  1.0  -0.1444
  C  C298  1  0.398600  0.970500  0.918300  1.0  -0.0012
  C  C299  1  0.473200  0.883100  0.878600  1.0  0.0658
  C  C300  1  0.494700  0.847200  0.841800  1.0  -0.1425
  C  C301  1  0.463400  0.862900  0.799200  1.0  -0.1381
  C  C302  1  0.410300  0.915200  0.796000  1.0  -0.0023
  C  C303  1  0.388600  0.950500  0.834300  1.0  0.0064
  C  C304  1  0.488200  0.824500  0.758000  1.0  0.6851
  C  C305  1  0.156900  0.385800  0.099600  1.0  0.6545
  C  C306  1  0.159700  0.359700  0.050900  1.0  -0.1516
  C  C307  1  0.144600  0.297400  0.043000  1.0  -0.1234
  C  C308  1  0.151700  0.275000  0.998700  1.0  0.0161
  C  C309  1  0.185000  0.374100  0.970500  1.0  -0.0061
  C  C310  1  0.181600  0.398200  0.014200  1.0  -0.0503
  C  C311  1  0.183400  0.285400  0.918400  1.0  0.0086
  C  C312  1  0.094700  0.269500  0.897300  1.0  -0.1281
  C  C313  1  0.106400  0.235100  0.851500  1.0  -0.1097
  C  C314  1  0.022200  0.211100  0.831300  1.0  -0.0069
  C  C315  1  0.992200  0.282100  0.769500  1.0  -0.0105
  C  C316  1  0.948500  0.331300  0.748700  1.0  -0.0712
  C  C317  1  0.881700  0.361400  0.772400  1.0  -0.1023
  C  C318  1  0.860000  0.340300  0.816800  1.0  -0.1166
  C  C319  1  0.906800  0.291000  0.834400  1.0  0.0444
  C  C320  1  0.832900  0.415500  0.750200  1.0  0.6855
  C  C321  1  0.336200  0.379400  0.314300  1.0  0.6733
  C  C322  1  0.321800  0.353700  0.361600  1.0  -0.1301
  C  C323  1  0.309700  0.291500  0.369600  1.0  -0.0519
  C  C324  1  0.296600  0.269300  0.412500  1.0  0.0018
  C  C325  1  0.306800  0.370500  0.440800  1.0  0.0591
  C  C326  1  0.320400  0.395000  0.398800  1.0  -0.1732
  C  C327  1  0.278800  0.285200  0.496400  1.0  -0.0536
  C  C328  1  0.366100  0.272400  0.519800  1.0  -0.1356
  C  C329  1  0.348500  0.246100  0.566500  1.0  -0.1259
  C  C330  1  0.429300  0.224900  0.591000  1.0  -0.0273
  C  C331  1  0.467100  0.304500  0.648400  1.0  0.0285
  C  C332  1  0.517600  0.351500  0.665400  1.0  -0.1178
  C  C333  1  0.590200  0.371200  0.639800  1.0  -0.1428
  C  C334  1  0.604500  0.344700  0.598000  1.0  -0.0212
  C  C335  1  0.553200  0.297900  0.581900  1.0  -0.003
  C  C336  1  0.651400  0.420400  0.660200  1.0  0.6912
  C  C337  1  0.805600  0.799100  0.765500  1.0  0.6868
  C  C338  1  0.830400  0.851800  0.798100  1.0  -0.1711
  C  C339  1  0.765100  0.878600  0.824700  1.0  -0.1372
  C  C340  1  0.788100  0.927900  0.852400  1.0  0.0624
  C  C341  1  0.933700  0.923700  0.828700  1.0  -0.0155
  C  C342  1  0.913700  0.875800  0.800500  1.0  -0.0364
  C  C343  1  0.890100  0.001800  0.887300  1.0  -0.0039
  C  C344  1  0.921100  0.975100  0.930200  1.0  -0.1347
  C  C345  1  0.926200  0.026800  0.967600  1.0  -0.1165
  C  C346  1  0.963500  0.995500  0.010800  1.0  -0.0496
  C  C347  1  0.900600  0.047700  0.079500  1.0  -0.0039
  C  C348  1  0.906400  0.090000  0.114000  1.0  -0.0908
  C  C349  1  0.974100  0.130400  0.116300  1.0  -0.1254
  C  C350  1  0.038900  0.126900  0.083500  1.0  -0.1558
  C  C351  1  0.032300  0.081600  0.050200  1.0  0.0304
  C  C352  1  0.982300  0.179400  0.154400  1.0  0.6876
  C  C353  1  0.706400  0.797500  0.644700  1.0  0.6748
  C  C354  1  0.671800  0.841200  0.607200  1.0  -0.1419
  C  C355  1  0.594700  0.871600  0.613500  1.0  -0.1805
  C  C356  1  0.569000  0.914100  0.580500  1.0  0.0553
  C  C357  1  0.682500  0.890200  0.535400  1.0  -0.014
  C  C358  1  0.712100  0.849100  0.567700  1.0  -0.1179
  C  C359  1  0.578100  0.970200  0.509600  1.0  -0.011
  C  C360  1  0.561100  0.939600  0.467000  1.0  -0.1314
  C  C361  1  0.534800  0.987800  0.429100  1.0  -0.1479
  C  C362  1  0.601400  0.029500  0.418300  1.0  -0.0008
  C  C363  1  0.526800  0.116900  0.378600  1.0  0.0672
  C  C364  1  0.505300  0.152800  0.341800  1.0  -0.1428
  C  C365  1  0.536600  0.137100  0.299200  1.0  -0.14
  C  C366  1  0.589700  0.084800  0.296000  1.0  -0.0021
  C  C367  1  0.611400  0.049500  0.334300  1.0  0.004
  C  C368  1  0.511800  0.175500  0.258000  1.0  0.6856
  C  C369  1  0.843100  0.614200  0.599600  1.0  0.6553
  C  C370  1  0.840300  0.640300  0.550900  1.0  -0.1502
  C  C371  1  0.855400  0.702600  0.543000  1.0  -0.122
  C  C372  1  0.848300  0.725000  0.498700  1.0  0.015
  C  C373  1  0.815000  0.625900  0.470500  1.0  -0.0071
  C  C374  1  0.818400  0.601800  0.514200  1.0  -0.05
  C  C375  1  0.816600  0.714600  0.418400  1.0  0.0077
  C  C376  1  0.905300  0.730500  0.397300  1.0  -0.1263
  C  C377  1  0.893600  0.764900  0.351500  1.0  -0.1086
  C  C378  1  0.977800  0.788900  0.331300  1.0  -0.0085
  C  C379  1  0.007800  0.717900  0.269500  1.0  -0.0105
  C  C380  1  0.051500  0.668700  0.248700  1.0  -0.0691
  C  C381  1  0.118300  0.638600  0.272400  1.0  -0.1041
  C  C382  1  0.140000  0.659700  0.316800  1.0  -0.1162
  C  C383  1  0.093200  0.709000  0.334400  1.0  0.0444
  C  C384  1  0.167100  0.584500  0.250200  1.0  0.6859
  C  C385  1  0.663800  0.620600  0.814300  1.0  0.6742
  C  C386  1  0.678200  0.646300  0.861600  1.0  -0.1311
  C  C387  1  0.690300  0.708500  0.869600  1.0  -0.0519
  C  C388  1  0.703400  0.730700  0.912500  1.0  0.0031
  C  C389  1  0.693200  0.629500  0.940800  1.0  0.0588
  C  C390  1  0.679600  0.605000  0.898800  1.0  -0.1723
  C  C391  1  0.721200  0.714800  0.996400  1.0  -0.0515
  C  C392  1  0.633900  0.727600  0.019800  1.0  -0.1358
  C  C393  1  0.651500  0.753900  0.066500  1.0  -0.1257
  C  C394  1  0.570700  0.775100  0.091000  1.0  -0.0301
  C  C395  1  0.532900  0.695500  0.148400  1.0  0.0258
  C  C396  1  0.482400  0.648500  0.165400  1.0  -0.1156
  C  C397  1  0.409800  0.628800  0.139800  1.0  -0.1419
  C  C398  1  0.395500  0.655300  0.098000  1.0  -0.0235
  C  C399  1  0.446800  0.702100  0.081900  1.0  -0.0032
  C  C400  1  0.348600  0.579600  0.160200  1.0  0.691
  C  C401  1  0.694400  0.299100  0.265500  1.0  0.6868
  C  C402  1  0.669600  0.351800  0.298100  1.0  -0.1712
  C  C403  1  0.734900  0.378600  0.324700  1.0  -0.1374
  C  C404  1  0.711900  0.427900  0.352400  1.0  0.0613
  C  C405  1  0.566300  0.423700  0.328700  1.0  -0.0159
  C  C406  1  0.586300  0.375800  0.300500  1.0  -0.037
  C  C407  1  0.609900  0.501800  0.387300  1.0  -0.0043
  C  C408  1  0.578900  0.475100  0.430200  1.0  -0.134
  C  C409  1  0.573800  0.526800  0.467600  1.0  -0.1167
  C  C410  1  0.536500  0.495500  0.510800  1.0  -0.0484
  C  C411  1  0.599400  0.547700  0.579500  1.0  -0.0035
  C  C412  1  0.593600  0.590000  0.614000  1.0  -0.0928
  C  C413  1  0.525900  0.630400  0.616300  1.0  -0.1258
  C  C414  1  0.461100  0.626900  0.583500  1.0  -0.155
  C  C415  1  0.467700  0.581600  0.550200  1.0  0.0299
  C  C416  1  0.517700  0.679400  0.654400  1.0  0.6862
  C  C417  1  0.793600  0.297500  0.144700  1.0  0.6751
  C  C418  1  0.828200  0.341200  0.107200  1.0  -0.142
  C  C419  1  0.905300  0.371600  0.113500  1.0  -0.1817
  C  C420  1  0.931000  0.414100  0.080500  1.0  0.0569
  C  C421  1  0.817500  0.390200  0.035400  1.0  -0.0119
  C  C422  1  0.787900  0.349100  0.067700  1.0  -0.1188
  C  C423  1  0.921900  0.470200  0.009600  1.0  -0.012
  C  C424  1  0.938900  0.439600  0.967000  1.0  -0.131
  C  C425  1  0.965200  0.487800  0.929100  1.0  -0.1447
  C  C426  1  0.898600  0.529500  0.918300  1.0  -0.0008
  C  C427  1  0.973200  0.616900  0.878600  1.0  0.0662
  C  C428  1  0.994700  0.652800  0.841800  1.0  -0.1423
  C  C429  1  0.963400  0.637100  0.799200  1.0  -0.1376
  C  C430  1  0.910300  0.584800  0.796000  1.0  -0.0021
  C  C431  1  0.888600  0.549500  0.834300  1.0  0.0055
  C  C432  1  0.988200  0.675500  0.758000  1.0  0.6858
  C  C433  1  0.656900  0.114200  0.099600  1.0  0.6548
  C  C434  1  0.659700  0.140300  0.050900  1.0  -0.1512
  C  C435  1  0.644600  0.202600  0.043000  1.0  -0.1233
  C  C436  1  0.651700  0.225000  0.998700  1.0  0.0152
  C  C437  1  0.685000  0.125900  0.970500  1.0  -0.0061
  C  C438  1  0.681600  0.101800  0.014200  1.0  -0.0507
  C  C439  1  0.683400  0.214600  0.918400  1.0  0.0085
  C  C440  1  0.594700  0.230500  0.897300  1.0  -0.1277
  C  C441  1  0.606400  0.264900  0.851500  1.0  -0.1091
  C  C442  1  0.522200  0.288900  0.831300  1.0  -0.0081
  C  C443  1  0.492200  0.217900  0.769500  1.0  -0.0108
  C  C444  1  0.448500  0.168700  0.748700  1.0  -0.0705
  C  C445  1  0.381700  0.138600  0.772400  1.0  -0.1052
  C  C446  1  0.360000  0.159700  0.816800  1.0  -0.1162
  C  C447  1  0.406800  0.209000  0.834400  1.0  0.0443
  C  C448  1  0.332900  0.084500  0.750200  1.0  0.686
  C  C449  1  0.836200  0.120600  0.314300  1.0  0.6735
  C  C450  1  0.821800  0.146300  0.361600  1.0  -0.1307
  C  C451  1  0.809700  0.208500  0.369600  1.0  -0.0523
  C  C452  1  0.796600  0.230700  0.412500  1.0  0.0019
  C  C453  1  0.806800  0.129500  0.440800  1.0  0.059
  C  C454  1  0.820400  0.105000  0.398800  1.0  -0.171
  C  C455  1  0.778800  0.214800  0.496400  1.0  -0.0529
  C  C456  1  0.866100  0.227600  0.519800  1.0  -0.136
  C  C457  1  0.848500  0.253900  0.566500  1.0  -0.126
  C  C458  1  0.929300  0.275100  0.591000  1.0  -0.0293
  C  C459  1  0.967100  0.195500  0.648400  1.0  0.0284
  C  C460  1  0.017600  0.148500  0.665400  1.0  -0.1164
  C  C461  1  0.090200  0.128800  0.639800  1.0  -0.1412
  C  C462  1  0.104500  0.155300  0.598000  1.0  -0.0214
  C  C463  1  0.053200  0.202100  0.581900  1.0  -0.0035
  C  C464  1  0.151400  0.079600  0.660200  1.0  0.6907
  C  C465  1  0.305600  0.700900  0.765500  1.0  0.687
  C  C466  1  0.330400  0.648200  0.798100  1.0  -0.1702
  C  C467  1  0.265100  0.621400  0.824700  1.0  -0.1363
  C  C468  1  0.288100  0.572100  0.852400  1.0  0.0624
  C  C469  1  0.433700  0.576300  0.828700  1.0  -0.0155
  C  C470  1  0.413700  0.624200  0.800500  1.0  -0.0362
  C  C471  1  0.390100  0.498200  0.887300  1.0  -0.0049
  C  C472  1  0.421100  0.524900  0.930200  1.0  -0.1349
  C  C473  1  0.426200  0.473200  0.967600  1.0  -0.117
  C  C474  1  0.463500  0.504500  0.010800  1.0  -0.0519
  C  C475  1  0.400600  0.452300  0.079500  1.0  -0.0038
  C  C476  1  0.406400  0.410000  0.114000  1.0  -0.0911
  C  C477  1  0.474100  0.369600  0.116300  1.0  -0.1247
  C  C478  1  0.538900  0.373100  0.083500  1.0  -0.156
  C  C479  1  0.532300  0.418400  0.050200  1.0  0.0305
  C  C480  1  0.482300  0.320600  0.154400  1.0  0.6878
  C  C481  1  0.206400  0.702500  0.644700  1.0  0.6751
  C  C482  1  0.171800  0.658800  0.607200  1.0  -0.1432
  C  C483  1  0.094700  0.628400  0.613500  1.0  -0.1797
  C  C484  1  0.069000  0.585900  0.580500  1.0  0.0554
  C  C485  1  0.182500  0.609800  0.535400  1.0  -0.0135
  C  C486  1  0.212100  0.650900  0.567700  1.0  -0.1182
  C  C487  1  0.078100  0.529800  0.509600  1.0  -0.0098
  C  C488  1  0.061100  0.560400  0.467000  1.0  -0.131
  C  C489  1  0.034800  0.512200  0.429100  1.0  -0.1481
  C  C490  1  0.101400  0.470500  0.418300  1.0  -0.0019
  C  C491  1  0.026800  0.383100  0.378600  1.0  0.067
  C  C492  1  0.005300  0.347200  0.341800  1.0  -0.1424
  C  C493  1  0.036600  0.362900  0.299200  1.0  -0.1414
  C  C494  1  0.089700  0.415200  0.296000  1.0  -0.0021
  C  C495  1  0.111400  0.450500  0.334300  1.0  0.0048
  C  C496  1  0.011800  0.324500  0.258000  1.0  0.685
  C  C497  1  0.343100  0.885800  0.599600  1.0  0.6548
  C  C498  1  0.340300  0.859700  0.550900  1.0  -0.1507
  C  C499  1  0.355400  0.797400  0.543000  1.0  -0.1222
  C  C500  1  0.348300  0.775000  0.498700  1.0  0.0161
  C  C501  1  0.315000  0.874100  0.470500  1.0  -0.0073
  C  C502  1  0.318400  0.898200  0.514200  1.0  -0.0502
  C  C503  1  0.316600  0.785400  0.418400  1.0  0.0076
  C  C504  1  0.405300  0.769500  0.397300  1.0  -0.1265
  C  C505  1  0.393600  0.735100  0.351500  1.0  -0.1089
  C  C506  1  0.477800  0.711100  0.331300  1.0  -0.0077
  C  C507  1  0.507800  0.782100  0.269500  1.0  -0.0103
  C  C508  1  0.551500  0.831300  0.248700  1.0  -0.0697
  C  C509  1  0.618300  0.861400  0.272400  1.0  -0.1005
  C  C510  1  0.640000  0.840300  0.316800  1.0  -0.1167
  C  C511  1  0.593200  0.791000  0.334400  1.0  0.0446
  C  C512  1  0.667100  0.915500  0.250200  1.0  0.6856
  C  C513  1  0.163800  0.879400  0.814300  1.0  0.6744
  C  C514  1  0.178200  0.853700  0.861600  1.0  -0.1304
  C  C515  1  0.190300  0.791500  0.869600  1.0  -0.0515
  C  C516  1  0.203400  0.769300  0.912500  1.0  0.0027
  C  C517  1  0.193200  0.870500  0.940800  1.0  0.0588
  C  C518  1  0.179600  0.895000  0.898800  1.0  -0.1737
  C  C519  1  0.221200  0.785200  0.996400  1.0  -0.0514
  C  C520  1  0.133900  0.772400  0.019800  1.0  -0.1356
  C  C521  1  0.151500  0.746100  0.066500  1.0  -0.1252
  C  C522  1  0.070700  0.724900  0.091000  1.0  -0.0275
  C  C523  1  0.032900  0.804500  0.148400  1.0  0.0259
  C  C524  1  0.982400  0.851500  0.165400  1.0  -0.1164
  C  C525  1  0.909800  0.871200  0.139800  1.0  -0.1423
  C  C526  1  0.895500  0.844700  0.098000  1.0  -0.0235
  C  C527  1  0.946800  0.797900  0.081900  1.0  -0.0032
  C  C528  1  0.848600  0.920400  0.160200  1.0  0.6914
  N  N529  1  0.245900  0.334600  0.205600  1.0  -0.579
  N  N530  1  0.247000  0.389340  0.206200  1.0  0.5438
  N  N531  1  0.248100  0.444600  0.207200  1.0  -0.5511
  N  N532  1  0.131500  0.050600  0.355100  1.0  0.0055
  N  N533  1  0.033000  0.956800  0.549100  1.0  -0.0016
  N  N534  1  0.389800  0.078000  0.043400  1.0  -0.0006
  N  N535  1  0.421100  0.931700  0.875700  1.0  -0.0007
  N  N536  1  0.172700  0.312900  0.963900  1.0  0.0274
  N  N537  1  0.970500  0.263700  0.811200  1.0  -0.0922
  N  N538  1  0.294700  0.309900  0.448100  1.0  0.0389
  N  N539  1  0.484700  0.278200  0.608100  1.0  0.0287
  N  N540  1  0.754100  0.665400  0.705600  1.0  -0.5779
  N  N541  1  0.753000  0.610660  0.706200  1.0  0.5426
  N  N542  1  0.751900  0.555400  0.707200  1.0  -0.5532
  N  N543  1  0.868500  0.949400  0.855100  1.0  0.0048
  N  N544  1  0.967000  0.043200  0.049100  1.0  -0.0019
  N  N545  1  0.610200  0.922000  0.543400  1.0  0.0005
  N  N546  1  0.578900  0.068300  0.375700  1.0  -0.001
  N  N547  1  0.827300  0.687100  0.463900  1.0  0.0287
  N  N548  1  0.029500  0.736300  0.311200  1.0  -0.0936
  N  N549  1  0.705300  0.690100  0.948100  1.0  0.0379
  N  N550  1  0.515300  0.721800  0.108100  1.0  0.0279
  N  N551  1  0.745900  0.165400  0.205600  1.0  -0.5781
  N  N552  1  0.747000  0.110660  0.206200  1.0  0.5425
  N  N553  1  0.748100  0.055400  0.207200  1.0  -0.5534
  N  N554  1  0.631500  0.449400  0.355100  1.0  0.0055
  N  N555  1  0.533000  0.543200  0.549100  1.0  -0.0016
  N  N556  1  0.889800  0.422000  0.043400  1.0  -0.0011
  N  N557  1  0.921100  0.568300  0.875700  1.0  -0.001
  N  N558  1  0.672700  0.187100  0.963900  1.0  0.0276
  N  N559  1  0.470500  0.236300  0.811200  1.0  -0.0918
  N  N560  1  0.794700  0.190100  0.448100  1.0  0.0382
  N  N561  1  0.984700  0.221800  0.608100  1.0  0.028
  N  N562  1  0.254100  0.834600  0.705600  1.0  -0.5789
  N  N563  1  0.253000  0.889340  0.706200  1.0  0.5439
  N  N564  1  0.251900  0.944600  0.707200  1.0  -0.551
  N  N565  1  0.368500  0.550600  0.855100  1.0  0.0052
  N  N566  1  0.467000  0.456800  0.049100  1.0  -0.0022
  N  N567  1  0.110200  0.578000  0.543400  1.0  0.0011
  N  N568  1  0.078900  0.431700  0.375700  1.0  -0.0004
  N  N569  1  0.327300  0.812900  0.463900  1.0  0.0285
  N  N570  1  0.529500  0.763700  0.311200  1.0  -0.0936
  N  N571  1  0.205300  0.809900  0.948100  1.0  0.0386
  N  N572  1  0.015300  0.778200  0.108100  1.0  0.0283
  O  O573  1  0.140700  0.212300  0.234100  1.0  -0.6374
  O  O574  1  0.265400  0.226100  0.272610  1.0  -0.6032
  O  O575  1  0.059300  0.832300  0.690620  1.0  -0.6543
  O  O576  1  0.971000  0.775400  0.646300  1.0  -0.6302
  O  O577  1  0.219300  0.226500  0.136760  1.0  -0.6328
  O  O578  1  0.339500  0.209900  0.177800  1.0  -0.6364
  O  O579  1  0.542600  0.781200  0.764950  1.0  -0.6647
  O  O580  1  0.451400  0.838900  0.721450  1.0  -0.6398
  O  O581  1  0.184400  0.439900  0.103880  1.0  -0.6454
  O  O582  1  0.121500  0.352300  0.129560  1.0  -0.6912
  O  O583  1  0.853200  0.426700  0.709400  1.0  -0.6437
  O  O584  1  0.779600  0.444400  0.775400  1.0  -0.6323
  O  O585  1  0.369300  0.344400  0.285620  1.0  -0.6715
  O  O586  1  0.312900  0.435600  0.307800  1.0  -0.6604
  O  O587  1  0.710600  0.441900  0.635090  1.0  -0.6215
  O  O588  1  0.637000  0.434500  0.701400  1.0  -0.6958
  O  O589  1  0.859300  0.787700  0.734100  1.0  -0.6359
  O  O590  1  0.734600  0.773900  0.772610  1.0  -0.6027
  O  O591  1  0.940700  0.167700  0.190620  1.0  -0.6535
  O  O592  1  0.029000  0.224600  0.146300  1.0  -0.6299
  O  O593  1  0.780700  0.773500  0.636760  1.0  -0.6323
  O  O594  1  0.660500  0.790100  0.677800  1.0  -0.6364
  O  O595  1  0.457400  0.218800  0.264950  1.0  -0.6658
  O  O596  1  0.548600  0.161100  0.221450  1.0  -0.6395
  O  O597  1  0.815600  0.560100  0.603880  1.0  -0.6459
  O  O598  1  0.878500  0.647700  0.629560  1.0  -0.692
  O  O599  1  0.146800  0.573300  0.209400  1.0  -0.6439
  O  O600  1  0.220400  0.555600  0.275400  1.0  -0.6319
  O  O601  1  0.630700  0.655600  0.785620  1.0  -0.6713
  O  O602  1  0.687100  0.564400  0.807800  1.0  -0.6632
  O  O603  1  0.289400  0.558100  0.135090  1.0  -0.6208
  O  O604  1  0.363000  0.565500  0.201400  1.0  -0.6956
  O  O605  1  0.640700  0.287700  0.234100  1.0  -0.6361
  O  O606  1  0.765400  0.273900  0.272610  1.0  -0.6031
  O  O607  1  0.559300  0.667700  0.690620  1.0  -0.6538
  O  O608  1  0.471000  0.724600  0.646300  1.0  -0.6298
  O  O609  1  0.719300  0.273500  0.136760  1.0  -0.6326
  O  O610  1  0.839500  0.290100  0.177800  1.0  -0.6365
  O  O611  1  0.042600  0.718800  0.764950  1.0  -0.6649
  O  O612  1  0.951400  0.661100  0.721450  1.0  -0.6403
  O  O613  1  0.684400  0.060100  0.103880  1.0  -0.6457
  O  O614  1  0.621500  0.147700  0.129560  1.0  -0.6906
  O  O615  1  0.353200  0.073300  0.709400  1.0  -0.6443
  O  O616  1  0.279600  0.055600  0.775400  1.0  -0.6321
  O  O617  1  0.869300  0.155600  0.285620  1.0  -0.6712
  O  O618  1  0.812900  0.064400  0.307800  1.0  -0.6616
  O  O619  1  0.210600  0.058100  0.635090  1.0  -0.6213
  O  O620  1  0.137000  0.065500  0.701400  1.0  -0.6958
  O  O621  1  0.359300  0.712300  0.734100  1.0  -0.6369
  O  O622  1  0.234600  0.726100  0.772610  1.0  -0.603
  O  O623  1  0.440700  0.332300  0.190620  1.0  -0.6538
  O  O624  1  0.529000  0.275400  0.146300  1.0  -0.6303
  O  O625  1  0.280700  0.726500  0.636760  1.0  -0.6327
  O  O626  1  0.160500  0.709900  0.677800  1.0  -0.6365
  O  O627  1  0.957400  0.281200  0.264950  1.0  -0.6658
  O  O628  1  0.048600  0.338900  0.221450  1.0  -0.6396
  O  O629  1  0.315600  0.939900  0.603880  1.0  -0.645
  O  O630  1  0.378500  0.852300  0.629560  1.0  -0.6926
  O  O631  1  0.646800  0.926700  0.209400  1.0  -0.6436
  O  O632  1  0.720400  0.944400  0.275400  1.0  -0.6317
  O  O633  1  0.130700  0.844400  0.785620  1.0  -0.6712
  O  O634  1  0.187100  0.935600  0.807800  1.0  -0.6628
  O  O635  1  0.789400  0.941900  0.135090  1.0  -0.6212
  O  O636  1  0.863000  0.934500  0.201400  1.0  -0.6953
