# generated using pymatgen
data_FeH12(C3N)6
_symmetry_space_group_name_H-M   'P 1'
_cell_length_a   7.10460000
_cell_length_b   13.71520000
_cell_length_c   22.95100000
_cell_angle_alpha   87.70270000
_cell_angle_beta   81.09650000
_cell_angle_gamma   74.98910000
_symmetry_Int_Tables_number   1
_chemical_formula_structural   FeH12(C3N)6
_chemical_formula_sum   'Fe4 H48 C72 N24'
_cell_volume   2134.02826966
_cell_formula_units_Z   4
loop_
 _symmetry_equiv_pos_site_id
 _symmetry_equiv_pos_as_xyz
  1  'x, y, z'
loop_
 _atom_site_type_symbol
 _atom_site_label
 _atom_site_symmetry_multiplicity
 _atom_site_fract_x
 _atom_site_fract_y
 _atom_site_fract_z
 _atom_site_occupancy
 _atom_site_charge
  Fe  Fe1  1  0.630040  0.250000  0.239920  1.0  0.2481
  Fe  Fe2  1  0.119960  0.250000  0.260080  1.0  0.2475
  Fe  Fe3  1  0.369960  0.750000  0.760080  1.0  0.2485
  Fe  Fe4  1  0.880040  0.750000  0.739920  1.0  0.2471
  H  H5  1  0.245280  0.993220  0.076780  1.0  0.1128
  H  H6  1  0.178800  0.116760  0.139580  1.0  0.114
  H  H7  1  0.735470  0.124380  0.102740  1.0  0.1152
  H  H8  1  0.723620  0.094240  0.011120  1.0  0.1138
  H  H9  1  0.795600  0.838320  0.250000  1.0  0.1101
  H  H10  1  0.725830  0.993500  0.250000  1.0  0.12
  H  H11  1  0.177940  0.506780  0.076780  1.0  0.1138
  H  H12  1  0.181620  0.383240  0.139580  1.0  0.1156
  H  H13  1  0.661790  0.375620  0.102740  1.0  0.1149
  H  H14  1  0.765260  0.405760  0.011120  1.0  0.1134
  H  H15  1  0.454400  0.661680  0.250000  1.0  0.1083
  H  H16  1  0.524170  0.506500  0.250000  1.0  0.121
  H  H17  1  0.761500  0.993220  0.423220  1.0  0.1118
  H  H18  1  0.704440  0.116760  0.360420  1.0  0.1153
  H  H19  1  0.140150  0.124380  0.397260  1.0  0.115
  H  H20  1  0.182140  0.094240  0.488880  1.0  0.1132
  H  H21  1  0.366080  0.838320  0.250000  1.0  0.1091
  H  H22  1  0.280670  0.993500  0.250000  1.0  0.12
  H  H23  1  0.315280  0.506780  0.423220  1.0  0.1116
  H  H24  1  0.435140  0.383240  0.360420  1.0  0.1161
  H  H25  1  0.962590  0.375620  0.397260  1.0  0.1149
  H  H26  1  0.828980  0.405760  0.488880  1.0  0.1139
  H  H27  1  0.883920  0.661680  0.250000  1.0  0.1086
  H  H28  1  0.969330  0.506500  0.250000  1.0  0.1201
  H  H29  1  0.754720  0.006780  0.923220  1.0  0.1132
  H  H30  1  0.821200  0.883240  0.860420  1.0  0.1145
  H  H31  1  0.264530  0.875620  0.897260  1.0  0.1149
  H  H32  1  0.276380  0.905760  0.988880  1.0  0.113
  H  H33  1  0.204400  0.161680  0.750000  1.0  0.1096
  H  H34  1  0.274170  0.006500  0.750000  1.0  0.1203
  H  H35  1  0.822060  0.493220  0.923220  1.0  0.1131
  H  H36  1  0.818380  0.616760  0.860420  1.0  0.1159
  H  H37  1  0.338210  0.624380  0.897260  1.0  0.1151
  H  H38  1  0.234740  0.594240  0.988880  1.0  0.114
  H  H39  1  0.545600  0.338320  0.750000  1.0  0.1087
  H  H40  1  0.475830  0.493500  0.750000  1.0  0.1204
  H  H41  1  0.238500  0.006780  0.576780  1.0  0.1117
  H  H42  1  0.295560  0.883240  0.639580  1.0  0.1149
  H  H43  1  0.859850  0.875620  0.602740  1.0  0.1153
  H  H44  1  0.817860  0.905760  0.511120  1.0  0.1133
  H  H45  1  0.633920  0.161680  0.750000  1.0  0.1095
  H  H46  1  0.719330  0.006500  0.750000  1.0  0.12
  H  H47  1  0.684720  0.493220  0.576780  1.0  0.1122
  H  H48  1  0.564860  0.616760  0.639580  1.0  0.1161
  H  H49  1  0.037410  0.624380  0.602740  1.0  0.1146
  H  H50  1  0.171020  0.594240  0.511120  1.0  0.1138
  H  H51  1  0.116080  0.338320  0.750000  1.0  0.1084
  H  H52  1  0.030670  0.493500  0.750000  1.0  0.1205
  C  C53  1  0.348690  0.995980  0.045600  1.0  -0.1297
  C  C54  1  0.481530  0.051960  0.052200  1.0  0.073
  C  C55  1  0.462260  0.106140  0.106680  1.0  -0.0922
  C  C56  1  0.292610  0.134500  0.147880  1.0  -0.0519
  C  C57  1  0.610210  0.138860  0.126840  1.0  -0.0657
  C  C58  1  0.632840  0.055980  0.006600  1.0  -0.1317
  C  C59  1  0.929330  0.802460  0.250000  1.0  -0.1244
  C  C60  1  0.828690  0.026060  0.250000  1.0  -0.0598
  C  C61  1  0.105710  0.504020  0.045600  1.0  -0.1293
  C  C62  1  0.966270  0.448040  0.052200  1.0  0.0737
  C  C63  1  0.931060  0.393860  0.106680  1.0  -0.0899
  C  C64  1  0.059510  0.365500  0.147880  1.0  -0.0513
  C  C65  1  0.762950  0.361140  0.126840  1.0  -0.064
  C  C66  1  0.860560  0.444020  0.006600  1.0  -0.1313
  C  C67  1  0.320670  0.697540  0.250000  1.0  -0.1263
  C  C68  1  0.421310  0.473940  0.250000  1.0  -0.0594
  C  C69  1  0.655330  0.995980  0.454400  1.0  -0.1295
  C  C70  1  0.466510  0.051960  0.447800  1.0  0.0731
  C  C71  1  0.431600  0.106140  0.393320  1.0  -0.0918
  C  C72  1  0.572890  0.134500  0.352120  1.0  -0.0509
  C  C73  1  0.250930  0.138860  0.373160  1.0  -0.0653
  C  C74  1  0.311180  0.055980  0.493400  1.0  -0.1319
  C  C75  1  0.268210  0.802460  0.250000  1.0  -0.1257
  C  C76  1  0.145250  0.026060  0.250000  1.0  -0.0595
  C  C77  1  0.390270  0.504020  0.454400  1.0  -0.1289
  C  C78  1  0.585690  0.448040  0.447800  1.0  0.0743
  C  C79  1  0.675080  0.393860  0.393320  1.0  -0.0903
  C  C80  1  0.574990  0.365500  0.352120  1.0  -0.0518
  C  C81  1  0.875910  0.361140  0.373160  1.0  -0.0647
  C  C82  1  0.695420  0.444020  0.493400  1.0  -0.1311
  C  C83  1  0.981790  0.697540  0.250000  1.0  -0.1244
  C  C84  1  0.104750  0.473940  0.250000  1.0  -0.061
  C  C85  1  0.651310  0.004020  0.954400  1.0  -0.1308
  C  C86  1  0.518470  0.948040  0.947800  1.0  0.073
  C  C87  1  0.537740  0.893860  0.893320  1.0  -0.0905
  C  C88  1  0.707390  0.865500  0.852120  1.0  -0.0503
  C  C89  1  0.389790  0.861140  0.873160  1.0  -0.0655
  C  C90  1  0.367160  0.944020  0.993400  1.0  -0.1325
  C  C91  1  0.070670  0.197540  0.750000  1.0  -0.1264
  C  C92  1  0.171310  0.973940  0.750000  1.0  -0.0593
  C  C93  1  0.894290  0.495980  0.954400  1.0  -0.1293
  C  C94  1  0.033730  0.551960  0.947800  1.0  0.0745
  C  C95  1  0.068940  0.606140  0.893320  1.0  -0.0889
  C  C96  1  0.940490  0.634500  0.852120  1.0  -0.0504
  C  C97  1  0.237050  0.638860  0.873160  1.0  -0.0641
  C  C98  1  0.139440  0.555980  0.993400  1.0  -0.1316
  C  C99  1  0.679330  0.302460  0.750000  1.0  -0.1245
  C  C100  1  0.578690  0.526060  0.750000  1.0  -0.0599
  C  C101  1  0.344670  0.004020  0.545600  1.0  -0.1298
  C  C102  1  0.533490  0.948040  0.552200  1.0  0.0727
  C  C103  1  0.568400  0.893860  0.606680  1.0  -0.0923
  C  C104  1  0.427110  0.865500  0.647880  1.0  -0.0526
  C  C105  1  0.749070  0.861140  0.626840  1.0  -0.0663
  C  C106  1  0.688820  0.944020  0.506600  1.0  -0.1325
  C  C107  1  0.731790  0.197540  0.750000  1.0  -0.1243
  C  C108  1  0.854750  0.973940  0.750000  1.0  -0.0604
  C  C109  1  0.609730  0.495980  0.545600  1.0  -0.1299
  C  C110  1  0.414310  0.551960  0.552200  1.0  0.074
  C  C111  1  0.324920  0.606140  0.606680  1.0  -0.0925
  C  C112  1  0.425010  0.634500  0.647880  1.0  -0.0522
  C  C113  1  0.124090  0.638860  0.626840  1.0  -0.0632
  C  C114  1  0.304580  0.555980  0.506600  1.0  -0.1322
  C  C115  1  0.018210  0.302460  0.750000  1.0  -0.1258
  C  C116  1  0.895250  0.526060  0.750000  1.0  -0.06
  C  C117  1  0.072540  0.854920  0.250000  1.0  0.0707
  C  C118  1  0.017810  0.964380  0.250000  1.0  -0.0937
  C  C119  1  0.177460  0.645080  0.250000  1.0  0.0711
  C  C120  1  0.232190  0.535620  0.250000  1.0  -0.0945
  C  C121  1  0.927460  0.145080  0.750000  1.0  0.0711
  C  C122  1  0.982190  0.035620  0.750000  1.0  -0.0945
  C  C123  1  0.822540  0.354920  0.750000  1.0  0.0707
  C  C124  1  0.767810  0.464380  0.750000  1.0  -0.0937
  N  N125  1  0.335690  0.184760  0.193520  1.0  -0.0831
  N  N126  1  0.531980  0.187440  0.180520  1.0  -0.0676
  N  N127  1  0.839250  0.125860  0.250000  1.0  -0.0736
  N  N128  1  0.970790  0.315240  0.193520  1.0  -0.0833
  N  N129  1  0.787500  0.312560  0.180520  1.0  -0.069
  N  N130  1  0.410750  0.374140  0.250000  1.0  -0.0723
  N  N131  1  0.479550  0.184760  0.306480  1.0  -0.0823
  N  N132  1  0.280580  0.187440  0.319480  1.0  -0.0676
  N  N133  1  0.034890  0.125860  0.250000  1.0  -0.0612
  N  N134  1  0.713970  0.315240  0.306480  1.0  -0.0821
  N  N135  1  0.899940  0.312560  0.319480  1.0  -0.0667
  N  N136  1  0.215110  0.374140  0.250000  1.0  -0.0623
  N  N137  1  0.664310  0.815240  0.806480  1.0  -0.0826
  N  N138  1  0.468020  0.812560  0.819480  1.0  -0.0675
  N  N139  1  0.160750  0.874140  0.750000  1.0  -0.0725
  N  N140  1  0.029210  0.684760  0.806480  1.0  -0.082
  N  N141  1  0.212500  0.687440  0.819480  1.0  -0.0663
  N  N142  1  0.589250  0.625860  0.750000  1.0  -0.0738
  N  N143  1  0.520450  0.815240  0.693520  1.0  -0.0833
  N  N144  1  0.719420  0.812560  0.680520  1.0  -0.068
  N  N145  1  0.965110  0.874140  0.750000  1.0  -0.0619
  N  N146  1  0.286030  0.684760  0.693520  1.0  -0.0826
  N  N147  1  0.100060  0.687440  0.680520  1.0  -0.0682
  N  N148  1  0.784890  0.625860  0.750000  1.0  -0.0612
