# generated using pymatgen
data_CuH23C24SN6O7
_symmetry_space_group_name_H-M   'P 1'
_cell_length_a   9.79700000
_cell_length_b   14.14590000
_cell_length_c   15.78200000
_cell_angle_alpha   106.27300000
_cell_angle_beta   100.85500000
_cell_angle_gamma   105.96800000
_symmetry_Int_Tables_number   1
_chemical_formula_structural   CuH23C24SN6O7
_chemical_formula_sum   'Cu2 H46 C48 S2 N12 O14'
_cell_volume   1933.27816738
_cell_formula_units_Z   2
loop_
 _symmetry_equiv_pos_site_id
 _symmetry_equiv_pos_as_xyz
  1  'x, y, z'
loop_
 _atom_site_type_symbol
 _atom_site_label
 _atom_site_symmetry_multiplicity
 _atom_site_fract_x
 _atom_site_fract_y
 _atom_site_fract_z
 _atom_site_occupancy
 _atom_site_charge
  Cu  Cu1  1  0.804770  0.893830  0.927250  1.0  0.9392
  Cu  Cu2  1  0.195230  0.106170  0.072750  1.0  0.9413
  H  H3  1  0.821100  0.989700  0.607900  1.0  0.1132
  H  H4  1  0.835900  0.108000  0.655300  1.0  0.1183
  H  H5  1  0.672200  0.841200  0.557900  1.0  0.1056
  H  H6  1  0.531100  0.763000  0.475200  1.0  0.113
  H  H7  1  0.516000  0.803500  0.576000  1.0  0.1393
  H  H8  1  0.357200  0.753900  0.346000  1.0  0.1253
  H  H9  1  0.213900  0.783100  0.353200  1.0  0.1273
  H  H10  1  0.288900  0.743300  0.427600  1.0  0.1177
  H  H11  1  0.627500  0.039900  0.883200  1.0  0.1001
  H  H12  1  0.862600  0.920900  0.740700  1.0  0.1172
  H  H13  1  0.971600  0.666667  0.186300  1.0  0.0919
  H  H14  1  0.124200  0.730500  0.175900  1.0  0.096
  H  H15  1  0.256900  0.743500  0.089000  1.0  0.1161
  H  H16  1  0.334900  0.675200  0.031900  1.0  0.1096
  H  H17  1  0.335700  0.677500  0.132900  1.0  0.1364
  H  H18  1  0.325800  0.470500  0.991000  1.0  0.1442
  H  H19  1  0.313100  0.546200  0.934900  1.0  0.1169
  H  H20  1  0.230900  0.423400  0.886100  1.0  0.1185
  H  H21  1  0.806400  0.919200  0.131300  1.0  0.092
  H  H22  1  0.951700  0.728300  0.975700  1.0  0.1092
  H  H23  1  0.360600  0.880900  0.916600  1.0  0.1159
  H  H24  1  0.293900  0.581800  0.765100  1.0  0.13
  H  H25  1  0.944600  0.673100  0.792500  1.0  0.1212
  H  H26  1  0.178900  0.010300  0.392100  1.0  0.1138
  H  H27  1  0.164100  0.892000  0.344700  1.0  0.1175
  H  H28  1  0.327800  0.158800  0.442100  1.0  0.1044
  H  H29  1  0.468900  0.237000  0.524800  1.0  0.1118
  H  H30  1  0.484000  0.196500  0.424000  1.0  0.1396
  H  H31  1  0.642800  0.246100  0.654000  1.0  0.1248
  H  H32  1  0.786100  0.216900  0.646800  1.0  0.1297
  H  H33  1  0.711100  0.256700  0.572400  1.0  0.1189
  H  H34  1  0.372500  0.960100  0.116800  1.0  0.1008
  H  H35  1  0.137400  0.079100  0.259300  1.0  0.1176
  H  H36  1  0.028400  0.333400  0.813700  1.0  0.0924
  H  H37  1  0.875800  0.269500  0.824100  1.0  0.0962
  H  H38  1  0.743100  0.256500  0.911000  1.0  0.1157
  H  H39  1  0.665100  0.324800  0.968100  1.0  0.1095
  H  H40  1  0.664300  0.322500  0.867100  1.0  0.1357
  H  H41  1  0.674200  0.529500  0.009000  1.0  0.1429
  H  H42  1  0.686900  0.453800  0.065100  1.0  0.1161
  H  H43  1  0.769100  0.576600  0.113900  1.0  0.1186
  H  H44  1  0.193600  0.080800  0.868700  1.0  0.0906
  H  H45  1  0.048300  0.271700  0.024300  1.0  0.1087
  H  H46  1  0.639400  0.119100  0.083400  1.0  0.1166
  H  H47  1  0.706100  0.418200  0.234900  1.0  0.1301
  H  H48  1  0.055400  0.326900  0.207500  1.0  0.1199
  C  C49  1  0.628000  0.017100  0.566700  1.0  -0.0061
  C  C50  1  0.533800  0.915000  0.514700  1.0  0.0321
  C  C51  1  0.404400  0.896400  0.446700  1.0  0.0654
  C  C52  1  0.770500  0.035000  0.636800  1.0  -0.0508
  C  C53  1  0.566200  0.822300  0.532600  1.0  -0.3493
  C  C54  1  0.307300  0.784100  0.388100  1.0  -0.344
  C  C55  1  0.674100  0.023000  0.837100  1.0  0.2817
  C  C56  1  0.801300  0.957500  0.761200  1.0  0.1505
  C  C57  1  0.010500  0.592800  0.065700  1.0  -0.0444
  C  C58  1  0.135300  0.586400  0.037500  1.0  0.0773
  C  C59  1  0.125200  0.492100  0.972200  1.0  0.0693
  C  C60  1  0.019900  0.689000  0.142700  1.0  -0.1028
  C  C61  1  0.278500  0.678900  0.076300  1.0  -0.3469
  C  C62  1  0.260900  0.482200  0.943500  1.0  -0.3494
  C  C63  1  0.849000  0.868300  0.111100  1.0  0.2649
  C  C64  1  0.926100  0.765800  0.025800  1.0  0.1733
  C  C65  1  0.142500  0.789900  0.860400  1.0  -0.1439
  C  C66  1  0.295500  0.812800  0.879300  1.0  0.014
  C  C67  1  0.351700  0.735700  0.843400  1.0  -0.1429
  C  C68  1  0.255900  0.634200  0.789700  1.0  -0.0248
  C  C69  1  0.103900  0.610900  0.772600  1.0  -0.2364
  C  C70  1  0.047800  0.688800  0.806400  1.0  -0.0079
  C  C71  1  0.082100  0.873800  0.901300  1.0  0.6714
  C  C72  1  0.517500  0.764300  0.861700  1.0  0.6989
  C  C73  1  0.372000  0.982900  0.433300  1.0  -0.0061
  C  C74  1  0.466200  0.085000  0.485300  1.0  0.0324
  C  C75  1  0.595600  0.103600  0.553300  1.0  0.0601
  C  C76  1  0.229500  0.965000  0.363200  1.0  -0.0531
  C  C77  1  0.433800  0.177700  0.467400  1.0  -0.3497
  C  C78  1  0.692700  0.215900  0.611900  1.0  -0.3412
  C  C79  1  0.325900  0.977000  0.162900  1.0  0.2806
  C  C80  1  0.198700  0.042500  0.238800  1.0  0.1507
  C  C81  1  0.989500  0.407200  0.934300  1.0  -0.0452
  C  C82  1  0.864700  0.413600  0.962500  1.0  0.0768
  C  C83  1  0.874800  0.507900  0.027800  1.0  0.0707
  C  C84  1  0.980100  0.311000  0.857300  1.0  -0.1012
  C  C85  1  0.721500  0.321100  0.923700  1.0  -0.348
  C  C86  1  0.739100  0.517800  0.056500  1.0  -0.3503
  C  C87  1  0.151000  0.131700  0.888900  1.0  0.2655
  C  C88  1  0.073900  0.234200  0.974200  1.0  0.1753
  C  C89  1  0.857500  0.210100  0.139600  1.0  -0.1429
  C  C90  1  0.704500  0.187200  0.120700  1.0  0.0136
  C  C91  1  0.648300  0.264300  0.156600  1.0  -0.1442
  C  C92  1  0.744100  0.365800  0.210300  1.0  -0.0237
  C  C93  1  0.896100  0.389100  0.227400  1.0  -0.2368
  C  C94  1  0.952200  0.311200  0.193600  1.0  -0.0072
  C  C95  1  0.917900  0.126200  0.098700  1.0  0.67
  C  C96  1  0.482500  0.235700  0.138300  1.0  0.6992
  S  S97  1  0.978120  0.482610  0.704750  1.0  1.3795
  S  S98  1  0.021880  0.517390  0.295250  1.0  1.3816
  N  N99  1  0.745500  0.013200  0.719100  1.0  0.1853
  N  N100  1  0.663500  0.057100  0.767600  1.0  -0.3651
  N  N101  1  0.758500  0.961000  0.836200  1.0  -0.3904
  N  N102  1  0.948500  0.755300  0.107500  1.0  0.1581
  N  N103  1  0.900600  0.821800  0.164300  1.0  -0.3752
  N  N104  1  0.862100  0.836900  0.025130  1.0  -0.3799
  N  N105  1  0.254500  0.986800  0.280900  1.0  0.1863
  N  N106  1  0.336500  0.942900  0.232400  1.0  -0.3659
  N  N107  1  0.241500  0.039000  0.163800  1.0  -0.3938
  N  N108  1  0.051500  0.244700  0.892500  1.0  0.157
  N  N109  1  0.099400  0.178200  0.835700  1.0  -0.3763
  N  N110  1  0.137900  0.163100  0.974870  1.0  -0.3779
  O  O111  1  0.943700  0.850180  0.866390  1.0  -0.5934
  O  O112  1  0.166400  0.954400  0.964570  1.0  -0.6165
  O  O113  1  0.594400  0.848640  0.927210  1.0  -0.5753
  O  O114  1  0.568100  0.705400  0.811730  1.0  -0.5452
  O  O115  1  0.871700  0.456800  0.754970  1.0  -0.6496
  O  O116  1  0.064900  0.414910  0.691970  1.0  -0.5686
  O  O117  1  0.906900  0.493100  0.618760  1.0  -0.6293
  O  O118  1  0.056300  0.149820  0.133610  1.0  -0.5926
  O  O119  1  0.833600  0.045600  0.035430  1.0  -0.6142
  O  O120  1  0.405600  0.151360  0.072790  1.0  -0.5745
  O  O121  1  0.431900  0.294600  0.188270  1.0  -0.5418
  O  O122  1  0.128300  0.543200  0.245030  1.0  -0.651
  O  O123  1  0.935100  0.585090  0.308030  1.0  -0.5688
  O  O124  1  0.093100  0.506900  0.381240  1.0  -0.6247
