# generated using pymatgen
data_Zn3H12C32(N2O9)2
_symmetry_space_group_name_H-M   'P 1'
_cell_length_a   9.55930000
_cell_length_b   10.21310000
_cell_length_c   11.94240000
_cell_angle_alpha   110.09100000
_cell_angle_beta   99.94300000
_cell_angle_gamma   95.80000000
_symmetry_Int_Tables_number   1
_chemical_formula_structural   Zn3H12C32(N2O9)2
_chemical_formula_sum   'Zn3 H12 C32 N4 O18'
_cell_volume   1062.20980536
_cell_formula_units_Z   1
loop_
 _symmetry_equiv_pos_site_id
 _symmetry_equiv_pos_as_xyz
  1  'x, y, z'
loop_
 _atom_site_type_symbol
 _atom_site_label
 _atom_site_symmetry_multiplicity
 _atom_site_fract_x
 _atom_site_fract_y
 _atom_site_fract_z
 _atom_site_occupancy
 _atom_site_charge
  Zn  Zn1  1  0.034140  0.297280  0.732490  1.0  1.0665
  Zn  Zn2  1  0.965860  0.702720  0.267510  1.0  1.0685
  Zn  Zn3  1  0.000000  0.000000  0.500000  1.0  1.0744
  H  H4  1  0.555500  0.264500  0.681200  1.0  0.1484
  H  H5  1  0.218400  0.144300  0.396000  1.0  0.1503
  H  H6  1  0.606900  0.062600  0.340500  1.0  0.1585
  H  H7  1  0.194500  0.732600  0.026500  1.0  0.1581
  H  H8  1  0.037500  0.773700  0.709800  1.0  0.1386
  H  H9  1  0.183500  0.118300  0.012600  1.0  0.1675
  H  H10  1  0.444500  0.735500  0.318800  1.0  0.1477
  H  H11  1  0.781600  0.855700  0.604000  1.0  0.15
  H  H12  1  0.393100  0.937400  0.659500  1.0  0.159
  H  H13  1  0.805500  0.267400  0.973500  1.0  0.1591
  H  H14  1  0.962500  0.226300  0.290200  1.0  0.1374
  H  H15  1  0.816500  0.881700  0.987400  1.0  0.1697
  C  C16  1  0.763800  0.174000  0.565000  1.0  0.7296
  C  C17  1  0.606800  0.169400  0.518800  1.0  -0.1484
  C  C18  1  0.516900  0.221000  0.597600  1.0  0.0514
  C  C19  1  0.371500  0.208600  0.553200  1.0  -0.1233
  C  C20  1  0.315400  0.148700  0.427800  1.0  -0.0347
  C  C21  1  0.405500  0.096100  0.351500  1.0  0.1723
  C  C22  1  0.549100  0.102300  0.393900  1.0  -0.062
  C  C23  1  0.274300  0.255400  0.640500  1.0  0.7089
  C  C24  1  0.204800  0.933800  0.035200  1.0  0.1357
  C  C25  1  0.173000  0.788800  0.981100  1.0  -0.0238
  C  C26  1  0.109100  0.728500  0.859100  1.0  -0.1167
  C  C27  1  0.077000  0.814600  0.793400  1.0  -0.0019
  C  C28  1  0.102900  0.960000  0.850700  1.0  -0.1058
  C  C29  1  0.166500  0.020500  0.972600  1.0  -0.0744
  C  C30  1  0.076100  0.568300  0.794000  1.0  0.7377
  C  C31  1  0.057300  0.049400  0.777500  1.0  0.7211
  C  C32  1  0.236200  0.826000  0.435000  1.0  0.7287
  C  C33  1  0.393200  0.830600  0.481200  1.0  -0.1472
  C  C34  1  0.483100  0.779000  0.402400  1.0  0.0506
  C  C35  1  0.628500  0.791400  0.446800  1.0  -0.1207
  C  C36  1  0.684600  0.851300  0.572200  1.0  -0.0331
  C  C37  1  0.594500  0.903900  0.648500  1.0  0.174
  C  C38  1  0.450900  0.897700  0.606100  1.0  -0.0608
  C  C39  1  0.725700  0.744600  0.359500  1.0  0.7079
  C  C40  1  0.795200  0.066200  0.964800  1.0  0.1365
  C  C41  1  0.827000  0.211200  0.018900  1.0  -0.0257
  C  C42  1  0.890900  0.271500  0.140900  1.0  -0.1168
  C  C43  1  0.923000  0.185400  0.206600  1.0  0.0005
  C  C44  1  0.897100  0.040000  0.149300  1.0  -0.1066
  C  C45  1  0.833500  0.979500  0.027400  1.0  -0.0738
  C  C46  1  0.923900  0.431700  0.206000  1.0  0.7361
  C  C47  1  0.942700  0.950600  0.222500  1.0  0.7219
  N  N48  1  0.357900  0.003000  0.217000  1.0  0.1437
  N  N49  1  0.244300  0.027200  0.177400  1.0  -0.2654
  N  N50  1  0.642100  0.997000  0.783000  1.0  0.1428
  N  N51  1  0.755700  0.972800  0.822600  1.0  -0.2644
  O  O52  1  0.825800  0.093900  0.493000  1.0  -0.5694
  O  O53  1  0.823100  0.259400  0.672000  1.0  -0.5449
  O  O54  1  0.136600  0.215700  0.598200  1.0  -0.6327
  O  O55  1  0.326700  0.329300  0.748700  1.0  -0.4767
  O  O56  1  0.081200  0.495000  0.857900  1.0  -0.5273
  O  O57  1  0.042500  0.516600  0.679100  1.0  -0.5941
  O  O58  1  0.003300  0.988800  0.667800  1.0  -0.5407
  O  O59  1  0.079000  0.182500  0.835400  1.0  -0.5618
  O  O60  1  0.426100  0.907800  0.167000  1.0  -0.5256
  O  O61  1  0.174200  0.906100  0.507000  1.0  -0.5703
  O  O62  1  0.176900  0.740600  0.328000  1.0  -0.547
  O  O63  1  0.863400  0.784300  0.401800  1.0  -0.633
  O  O64  1  0.673300  0.670700  0.251300  1.0  -0.4767
  O  O65  1  0.918800  0.505000  0.142100  1.0  -0.5268
  O  O66  1  0.957500  0.483400  0.320900  1.0  -0.5918
  O  O67  1  0.996700  0.011200  0.332200  1.0  -0.5406
  O  O68  1  0.921000  0.817500  0.164600  1.0  -0.5628
  O  O69  1  0.573900  0.092200  0.833000  1.0  -0.5257
