# generated using pymatgen
data_Zn2H14C28N4O9
_symmetry_space_group_name_H-M   'P 1'
_cell_length_a   12.99700000
_cell_length_b   13.83590000
_cell_length_c   21.92420000
_cell_angle_alpha   94.92580000
_cell_angle_beta   90.00000000
_cell_angle_gamma   90.00000000
_symmetry_Int_Tables_number   1
_chemical_formula_structural   Zn2H14C28N4O9
_chemical_formula_sum   'Zn8 H56 C112 N16 O36'
_cell_volume   3927.96268667
_cell_formula_units_Z   4
loop_
 _symmetry_equiv_pos_site_id
 _symmetry_equiv_pos_as_xyz
  1  'x, y, z'
loop_
 _atom_site_type_symbol
 _atom_site_label
 _atom_site_symmetry_multiplicity
 _atom_site_fract_x
 _atom_site_fract_y
 _atom_site_fract_z
 _atom_site_occupancy
 _atom_site_charge
  Zn  Zn1  1  0.276670  0.426790  0.161270  1.0  0.9781
  Zn  Zn2  1  0.606400  0.005220  0.228250  1.0  1.0407
  Zn  Zn3  1  0.776670  0.073210  0.338730  1.0  0.9783
  Zn  Zn4  1  0.106400  0.494780  0.271750  1.0  1.041
  Zn  Zn5  1  0.723330  0.573210  0.838730  1.0  0.9794
  Zn  Zn6  1  0.393600  0.994780  0.771750  1.0  1.0414
  Zn  Zn7  1  0.223330  0.926790  0.661270  1.0  0.9787
  Zn  Zn8  1  0.893600  0.505220  0.728250  1.0  1.0403
  H  H9  1  0.340800  0.771700  0.250500  1.0  0.0996
  H  H10  1  0.363700  0.894300  0.095300  1.0  0.1265
  H  H11  1  0.161400  0.666400  0.113700  1.0  0.1201
  H  H12  1  0.999400  0.685200  0.945200  1.0  0.1203
  H  H13  1  0.071800  0.767400  0.778000  1.0  0.1067
  H  H14  1  0.244200  0.859600  0.921700  1.0  0.1147
  H  H15  1  0.176900  0.427000  0.028800  1.0  0.0805
  H  H16  1  0.199300  0.501100  0.942800  1.0  0.1172
  H  H17  1  0.327300  0.581400  0.924800  1.0  0.1194
  H  H18  1  0.504000  0.686300  0.983700  1.0  0.1131
  H  H19  1  0.595500  0.715700  0.068100  1.0  0.1223
  H  H20  1  0.625800  0.699800  0.175600  1.0  0.1357
  H  H21  1  0.580300  0.629300  0.262200  1.0  0.1239
  H  H22  1  0.449500  0.509600  0.257400  1.0  0.0911
  H  H23  1  0.840800  0.728300  0.249500  1.0  0.0992
  H  H24  1  0.863700  0.605700  0.404700  1.0  0.1266
  H  H25  1  0.661400  0.833600  0.386300  1.0  0.1207
  H  H26  1  0.499400  0.814800  0.554800  1.0  0.1199
  H  H27  1  0.571800  0.732600  0.722000  1.0  0.1064
  H  H28  1  0.744200  0.640400  0.578300  1.0  0.1144
  H  H29  1  0.676900  0.073000  0.471200  1.0  0.0814
  H  H30  1  0.699300  0.998900  0.557200  1.0  0.118
  H  H31  1  0.827300  0.918600  0.575200  1.0  0.1195
  H  H32  1  0.004000  0.813700  0.516300  1.0  0.1124
  H  H33  1  0.095500  0.784300  0.431900  1.0  0.1214
  H  H34  1  0.125800  0.800200  0.324400  1.0  0.1359
  H  H35  1  0.080300  0.870700  0.237800  1.0  0.1219
  H  H36  1  0.949500  0.990400  0.242600  1.0  0.0918
  H  H37  1  0.659200  0.228300  0.749500  1.0  0.099
  H  H38  1  0.636300  0.105700  0.904700  1.0  0.1265
  H  H39  1  0.838600  0.333600  0.886300  1.0  0.1204
  H  H40  1  0.000600  0.314800  0.054800  1.0  0.1202
  H  H41  1  0.928200  0.232600  0.222000  1.0  0.1061
  H  H42  1  0.755800  0.140400  0.078300  1.0  0.1141
  H  H43  1  0.823100  0.573000  0.971200  1.0  0.0823
  H  H44  1  0.800700  0.498900  0.057200  1.0  0.1188
  H  H45  1  0.672700  0.418600  0.075200  1.0  0.119
  H  H46  1  0.496000  0.313700  0.016300  1.0  0.113
  H  H47  1  0.404500  0.284300  0.931900  1.0  0.1214
  H  H48  1  0.374200  0.300200  0.824400  1.0  0.1353
  H  H49  1  0.419700  0.370700  0.737800  1.0  0.1228
  H  H50  1  0.550500  0.490400  0.742600  1.0  0.0922
  H  H51  1  0.159200  0.271700  0.750500  1.0  0.0995
  H  H52  1  0.136300  0.394300  0.595300  1.0  0.1266
  H  H53  1  0.338600  0.166400  0.613700  1.0  0.1211
  H  H54  1  0.500600  0.185200  0.445200  1.0  0.1203
  H  H55  1  0.428200  0.267400  0.278000  1.0  0.1065
  H  H56  1  0.255800  0.359600  0.421700  1.0  0.1143
  H  H57  1  0.323100  0.927000  0.528800  1.0  0.0816
  H  H58  1  0.300700  0.001100  0.442800  1.0  0.1182
  H  H59  1  0.172700  0.081400  0.424800  1.0  0.1189
  H  H60  1  0.996000  0.186300  0.483700  1.0  0.113
  H  H61  1  0.904500  0.215700  0.568100  1.0  0.1222
  H  H62  1  0.874200  0.199800  0.675600  1.0  0.1352
  H  H63  1  0.919700  0.129300  0.762200  1.0  0.1236
  H  H64  1  0.050500  0.009600  0.757400  1.0  0.0917
  C  C65  1  0.215500  0.632900  0.225100  1.0  0.7024
  C  C66  1  0.246700  0.704400  0.187600  1.0  -0.1312
  C  C67  1  0.320100  0.773400  0.210000  1.0  -0.0021
  C  C68  1  0.363500  0.842600  0.177600  1.0  -0.1268
  C  C69  1  0.332400  0.849900  0.118900  1.0  -0.0842
  C  C70  1  0.250600  0.788700  0.093700  1.0  0.095
  C  C71  1  0.210400  0.710300  0.130200  1.0  -0.07
  C  C72  1  0.127400  0.766400  0.942900  1.0  -0.0026
  C  C73  1  0.042200  0.717200  0.919500  1.0  -0.0435
  C  C74  1  0.020500  0.715600  0.857900  1.0  -0.1326
  C  C75  1  0.084500  0.769900  0.819800  1.0  0.0068
  C  C76  1  0.165100  0.826400  0.844700  1.0  -0.1435
  C  C77  1  0.188700  0.824100  0.905000  1.0  -0.0286
  C  C78  1  0.447700  0.901200  0.200200  1.0  0.6707
  C  C79  1  0.228000  0.882500  0.802300  1.0  0.7153
  C  C80  1  0.938300  0.654500  0.831000  1.0  0.7434
  C  C81  1  0.232100  0.469600  0.027200  1.0  0.2326
  C  C82  1  0.248300  0.512000  0.973500  1.0  -0.1496
  C  C83  1  0.317600  0.560000  0.963500  1.0  0.0064
  C  C84  1  0.388500  0.585800  0.012300  1.0  -0.035
  C  C85  1  0.485000  0.655400  0.018000  1.0  -0.0945
  C  C86  1  0.540600  0.672300  0.068300  1.0  -0.0924
  C  C87  1  0.519800  0.628600  0.121100  1.0  -0.0019
  C  C88  1  0.572800  0.654700  0.174700  1.0  -0.0176
  C  C89  1  0.546300  0.612400  0.225400  1.0  -0.1395
  C  C90  1  0.463900  0.541000  0.222500  1.0  0.1899
  C  C91  1  0.432000  0.563100  0.122000  1.0  0.1376
  C  C92  1  0.369400  0.542500  0.069100  1.0  0.1231
  C  C93  1  0.715500  0.867100  0.274900  1.0  0.7009
  C  C94  1  0.746700  0.795600  0.312400  1.0  -0.1341
  C  C95  1  0.820100  0.726600  0.290000  1.0  -0.0024
  C  C96  1  0.863500  0.657400  0.322400  1.0  -0.1277
  C  C97  1  0.832400  0.650100  0.381100  1.0  -0.0841
  C  C98  1  0.750600  0.711300  0.406300  1.0  0.0888
  C  C99  1  0.710400  0.789700  0.369800  1.0  -0.0703
  C  C100  1  0.627400  0.733600  0.557100  1.0  -0.0035
  C  C101  1  0.542200  0.782800  0.580500  1.0  -0.0427
  C  C102  1  0.520500  0.784400  0.642100  1.0  -0.1323
  C  C103  1  0.584500  0.730100  0.680200  1.0  0.0071
  C  C104  1  0.665100  0.673600  0.655300  1.0  -0.1436
  C  C105  1  0.688700  0.675900  0.595000  1.0  -0.0276
  C  C106  1  0.947700  0.598800  0.299800  1.0  0.673
  C  C107  1  0.728000  0.617500  0.697700  1.0  0.7151
  C  C108  1  0.438300  0.845500  0.669000  1.0  0.7436
  C  C109  1  0.732100  0.030400  0.472800  1.0  0.233
  C  C110  1  0.748300  0.988000  0.526500  1.0  -0.1503
  C  C111  1  0.817600  0.940000  0.536500  1.0  0.0047
  C  C112  1  0.888500  0.914200  0.487700  1.0  -0.0337
  C  C113  1  0.985000  0.844600  0.482000  1.0  -0.0949
  C  C114  1  0.040600  0.827700  0.431700  1.0  -0.0918
  C  C115  1  0.019800  0.871400  0.378900  1.0  -0.0022
  C  C116  1  0.072800  0.845300  0.325300  1.0  -0.0178
  C  C117  1  0.046300  0.887600  0.274600  1.0  -0.1387
  C  C118  1  0.963900  0.959000  0.277500  1.0  0.1888
  C  C119  1  0.932000  0.936900  0.378000  1.0  0.1357
  C  C120  1  0.869400  0.957500  0.430900  1.0  0.1229
  C  C121  1  0.784500  0.367100  0.774900  1.0  0.7006
  C  C122  1  0.753300  0.295600  0.812400  1.0  -0.1348
  C  C123  1  0.679900  0.226600  0.790000  1.0  -0.0027
  C  C124  1  0.636500  0.157400  0.822400  1.0  -0.1284
  C  C125  1  0.667600  0.150100  0.881100  1.0  -0.0836
  C  C126  1  0.749400  0.211300  0.906300  1.0  0.0911
  C  C127  1  0.789600  0.289700  0.869800  1.0  -0.0725
  C  C128  1  0.872600  0.233600  0.057100  1.0  -0.0034
  C  C129  1  0.957800  0.282800  0.080500  1.0  -0.0432
  C  C130  1  0.979500  0.284400  0.142100  1.0  -0.1337
  C  C131  1  0.915500  0.230100  0.180200  1.0  0.0079
  C  C132  1  0.834900  0.173600  0.155300  1.0  -0.1432
  C  C133  1  0.811300  0.175900  0.095000  1.0  -0.0268
  C  C134  1  0.552300  0.098800  0.799800  1.0  0.6742
  C  C135  1  0.772000  0.117500  0.197700  1.0  0.7144
  C  C136  1  0.061700  0.345500  0.169000  1.0  0.7442
  C  C137  1  0.767900  0.530400  0.972800  1.0  0.2322
  C  C138  1  0.751700  0.488000  0.026500  1.0  -0.1484
  C  C139  1  0.682400  0.440000  0.036500  1.0  0.0038
  C  C140  1  0.611500  0.414200  0.987700  1.0  -0.0336
  C  C141  1  0.515000  0.344600  0.982000  1.0  -0.0953
  C  C142  1  0.459400  0.327700  0.931700  1.0  -0.0908
  C  C143  1  0.480200  0.371400  0.878900  1.0  -0.0009
  C  C144  1  0.427200  0.345300  0.825300  1.0  -0.0168
  C  C145  1  0.453700  0.387600  0.774600  1.0  -0.1385
  C  C146  1  0.536100  0.459000  0.777500  1.0  0.1894
  C  C147  1  0.568000  0.436900  0.878000  1.0  0.1351
  C  C148  1  0.630600  0.457500  0.930900  1.0  0.1236
  C  C149  1  0.284500  0.132900  0.725100  1.0  0.7028
  C  C150  1  0.253300  0.204400  0.687600  1.0  -0.1323
  C  C151  1  0.179900  0.273400  0.710000  1.0  -0.0021
  C  C152  1  0.136500  0.342600  0.677600  1.0  -0.1275
  C  C153  1  0.167600  0.349900  0.618900  1.0  -0.0848
  C  C154  1  0.249400  0.288700  0.593700  1.0  0.0959
  C  C155  1  0.289600  0.210300  0.630200  1.0  -0.0721
  C  C156  1  0.372600  0.266400  0.442900  1.0  -0.003
  C  C157  1  0.457800  0.217200  0.419500  1.0  -0.0439
  C  C158  1  0.479500  0.215600  0.357900  1.0  -0.1338
  C  C159  1  0.415500  0.269900  0.319800  1.0  0.0066
  C  C160  1  0.334900  0.326400  0.344700  1.0  -0.1432
  C  C161  1  0.311300  0.324100  0.405000  1.0  -0.0278
  C  C162  1  0.052300  0.401200  0.700200  1.0  0.672
  C  C163  1  0.272000  0.382500  0.302300  1.0  0.7145
  C  C164  1  0.561700  0.154500  0.331000  1.0  0.7439
  C  C165  1  0.267900  0.969600  0.527200  1.0  0.2322
  C  C166  1  0.251700  0.012000  0.473500  1.0  -0.1492
  C  C167  1  0.182400  0.060000  0.463500  1.0  0.0045
  C  C168  1  0.111500  0.085800  0.512300  1.0  -0.0347
  C  C169  1  0.015000  0.155400  0.518000  1.0  -0.0949
  C  C170  1  0.959400  0.172300  0.568300  1.0  -0.0928
  C  C171  1  0.980200  0.128600  0.621100  1.0  -1e-04
  C  C172  1  0.927200  0.154700  0.674700  1.0  -0.016
  C  C173  1  0.953700  0.112400  0.725400  1.0  -0.1391
  C  C174  1  0.036100  0.041000  0.722500  1.0  0.19
  C  C175  1  0.068000  0.063100  0.622000  1.0  0.1366
  C  C176  1  0.130600  0.042500  0.569100  1.0  0.123
  N  N177  1  0.287600  0.484800  0.074200  1.0  -0.3397
  N  N178  1  0.409300  0.519000  0.173300  1.0  -0.3606
  N  N179  1  0.226200  0.802400  0.029600  1.0  -0.2527
  N  N180  1  0.153500  0.759900  0.008600  1.0  0.4309
  N  N181  1  0.787600  0.015200  0.425800  1.0  -0.3401
  N  N182  1  0.909300  0.981000  0.326700  1.0  -0.3592
  N  N183  1  0.726200  0.697600  0.470400  1.0  -0.2511
  N  N184  1  0.653500  0.740100  0.491400  1.0  0.4324
  N  N185  1  0.712400  0.515200  0.925800  1.0  -0.3402
  N  N186  1  0.590700  0.481000  0.826700  1.0  -0.3626
  N  N187  1  0.773800  0.197600  0.970400  1.0  -0.2516
  N  N188  1  0.846500  0.240100  0.991400  1.0  0.4368
  N  N189  1  0.212400  0.984800  0.574200  1.0  -0.3399
  N  N190  1  0.090700  0.019000  0.673300  1.0  -0.3618
  N  N191  1  0.273800  0.302400  0.529600  1.0  -0.2526
  N  N192  1  0.346500  0.259900  0.508600  1.0  0.4348
  O  O193  1  0.180600  0.553500  0.200100  1.0  -0.6651
  O  O194  1  0.209300  0.645500  0.280300  1.0  -0.6029
  O  O195  1  0.470800  0.896200  0.256900  1.0  -0.6735
  O  O196  1  0.491300  0.952400  0.171900  1.0  -0.5648
  O  O197  1  0.302400  0.930100  0.827200  1.0  -0.5767
  O  O198  1  0.201500  0.881700  0.748600  1.0  -0.6363
  O  O199  1  0.862000  0.638700  0.861800  1.0  -0.6044
  O  O200  1  0.952000  0.622200  0.775800  1.0  -0.6156
  O  O201  1  0.072600  0.710900  0.035800  1.0  -0.4748
  O  O202  1  0.680600  0.946500  0.299900  1.0  -0.6645
  O  O203  1  0.709300  0.854500  0.219700  1.0  -0.601
  O  O204  1  0.970800  0.603800  0.243100  1.0  -0.6723
  O  O205  1  0.991300  0.547600  0.328100  1.0  -0.5637
  O  O206  1  0.802400  0.569900  0.672800  1.0  -0.5768
  O  O207  1  0.701500  0.618300  0.751400  1.0  -0.6332
  O  O208  1  0.362000  0.861300  0.638200  1.0  -0.6045
  O  O209  1  0.452000  0.877800  0.724200  1.0  -0.6143
  O  O210  1  0.572600  0.789100  0.464200  1.0  -0.4757
  O  O211  1  0.819400  0.446500  0.799900  1.0  -0.6639
  O  O212  1  0.790700  0.354500  0.719700  1.0  -0.6016
  O  O213  1  0.529200  0.103800  0.743100  1.0  -0.6724
  O  O214  1  0.508700  0.047600  0.828100  1.0  -0.5646
  O  O215  1  0.697600  0.069900  0.172800  1.0  -0.5765
  O  O216  1  0.798500  0.118300  0.251400  1.0  -0.633
  O  O217  1  0.138000  0.361300  0.138200  1.0  -0.6053
  O  O218  1  0.048000  0.377800  0.224200  1.0  -0.6157
  O  O219  1  0.927400  0.289100  0.964200  1.0  -0.4821
  O  O220  1  0.319400  0.053500  0.700100  1.0  -0.6639
  O  O221  1  0.290700  0.145500  0.780300  1.0  -0.6026
  O  O222  1  0.029200  0.396200  0.756900  1.0  -0.6729
  O  O223  1  0.008700  0.452400  0.671900  1.0  -0.5642
  O  O224  1  0.197600  0.430100  0.327200  1.0  -0.5773
  O  O225  1  0.298500  0.381700  0.248600  1.0  -0.6366
  O  O226  1  0.638000  0.138700  0.361800  1.0  -0.605
  O  O227  1  0.548000  0.122200  0.275800  1.0  -0.6159
  O  O228  1  0.427400  0.210900  0.535800  1.0  -0.4797
