# generated using pymatgen
data_Er2H3(C5O4)3
_symmetry_space_group_name_H-M   'P 1'
_cell_length_a   10.41350000
_cell_length_b   10.55410000
_cell_length_c   14.03720000
_cell_angle_alpha   99.59500000
_cell_angle_beta   99.62000000
_cell_angle_gamma   108.84300000
_symmetry_Int_Tables_number   1
_chemical_formula_structural   Er2H3(C5O4)3
_chemical_formula_sum   'Er4 H6 C30 O24'
_cell_volume   1398.71755161
_cell_formula_units_Z   2
loop_
 _symmetry_equiv_pos_site_id
 _symmetry_equiv_pos_as_xyz
  1  'x, y, z'
loop_
 _atom_site_type_symbol
 _atom_site_label
 _atom_site_symmetry_multiplicity
 _atom_site_fract_x
 _atom_site_fract_y
 _atom_site_fract_z
 _atom_site_occupancy
 _atom_site_charge
  Er  Er1  1  0.964160  0.464170  0.821450  1.0  1.5495
  Er  Er2  1  0.541780  0.065380  0.181990  1.0  1.6041
  Er  Er3  1  0.035840  0.535830  0.178550  1.0  1.5489
  Er  Er4  1  0.458220  0.934620  0.818010  1.0  1.6121
  H  H5  1  0.792100  0.818300  0.921700  1.0  0.1203
  H  H6  1  0.301500  0.334500  0.891500  1.0  0.1215
  H  H7  1  0.085700  0.737300  0.551300  1.0  0.125
  H  H8  1  0.207900  0.181700  0.078300  1.0  0.1205
  H  H9  1  0.698500  0.665500  0.108500  1.0  0.1213
  H  H10  1  0.914300  0.262700  0.448700  1.0  0.1268
  C  C11  1  0.001700  0.879200  0.944300  1.0  -0.0286
  C  C12  1  0.127700  0.988000  0.990500  1.0  -0.0607
  C  C13  1  0.875200  0.891100  0.953200  1.0  -0.0357
  C  C14  1  0.000900  0.741400  0.894400  1.0  0.622
  C  C15  1  0.265000  0.982300  0.973000  1.0  0.7555
  C  C16  1  0.488100  0.601800  0.071900  1.0  -0.0058
  C  C17  1  0.368400  0.501600  0.006800  1.0  -0.1088
  C  C18  1  0.381200  0.400700  0.935100  1.0  -0.026
  C  C19  1  0.484900  0.720500  0.147000  1.0  0.6691
  C  C20  1  0.225200  0.498600  0.011800  1.0  0.7455
  C  C21  1  0.030200  0.419900  0.565100  1.0  -0.0609
  C  C22  1  0.082900  0.564800  0.596100  1.0  -0.1148
  C  C23  1  0.051100  0.641700  0.530300  1.0  -0.0183
  C  C24  1  0.056200  0.326000  0.630300  1.0  0.7026
  C  C25  1  0.176900  0.642300  0.696700  1.0  0.7619
  C  C26  1  0.998300  0.120800  0.055700  1.0  -0.0202
  C  C27  1  0.872300  0.012000  0.009500  1.0  -0.06
  C  C28  1  0.124800  0.108900  0.046800  1.0  -0.0366
  C  C29  1  0.999100  0.258600  0.105600  1.0  0.6216
  C  C30  1  0.735000  0.017700  0.027000  1.0  0.7567
  C  C31  1  0.511900  0.398200  0.928100  1.0  -0.0071
  C  C32  1  0.631600  0.498400  0.993200  1.0  -0.109
  C  C33  1  0.618800  0.599300  0.064900  1.0  -0.0251
  C  C34  1  0.515100  0.279500  0.853000  1.0  0.6821
  C  C35  1  0.774800  0.501400  0.988200  1.0  0.7439
  C  C36  1  0.969800  0.580100  0.434900  1.0  -0.0607
  C  C37  1  0.917100  0.435200  0.403900  1.0  -0.1094
  C  C38  1  0.948900  0.358300  0.469700  1.0  -0.0181
  C  C39  1  0.943800  0.674000  0.369700  1.0  0.6922
  C  C40  1  0.823100  0.357700  0.303300  1.0  0.7613
  O  O41  1  0.362400  0.006900  0.046900  1.0  -0.7513
  O  O42  1  0.273000  0.958000  0.883600  1.0  -0.6508
  O  O43  1  0.076200  0.689900  0.942600  1.0  -0.5148
  O  O44  1  0.919800  0.675100  0.811000  1.0  -0.5833
  O  O45  1  0.131200  0.442500  0.932300  1.0  -0.6738
  O  O46  1  0.206800  0.549400  0.093200  1.0  -0.6682
  O  O47  1  0.474400  0.821700  0.114400  1.0  -0.6355
  O  O48  1  0.502700  0.715100  0.236300  1.0  -0.4354
  O  O49  1  0.154300  0.593000  0.770600  1.0  -0.6211
  O  O50  1  0.273800  0.752300  0.700900  1.0  -0.7448
  O  O51  1  0.000200  0.315800  0.701100  1.0  -0.6445
  O  O52  1  0.124700  0.254900  0.605800  1.0  -0.4038
  O  O53  1  0.637600  0.993100  0.953100  1.0  -0.7511
  O  O54  1  0.727000  0.042000  0.116400  1.0  -0.6544
  O  O55  1  0.923800  0.310100  0.057400  1.0  -0.5174
  O  O56  1  0.080200  0.324900  0.189000  1.0  -0.5838
  O  O57  1  0.868800  0.557500  0.067700  1.0  -0.6725
  O  O58  1  0.793200  0.450600  0.906800  1.0  -0.667
  O  O59  1  0.525600  0.178300  0.885600  1.0  -0.6346
  O  O60  1  0.497300  0.284900  0.763700  1.0  -0.4347
  O  O61  1  0.845700  0.407000  0.229400  1.0  -0.6225
  O  O62  1  0.726200  0.247700  0.299100  1.0  -0.7449
  O  O63  1  0.999800  0.684200  0.298900  1.0  -0.6417
  O  O64  1  0.875300  0.745100  0.394200  1.0  -0.4067
