# generated using pymatgen
data_Tm4H5(C5O4)6
_symmetry_space_group_name_H-M   'P 1'
_cell_length_a   11.28740000
_cell_length_b   11.89170000
_cell_length_c   17.53520000
_cell_angle_alpha   90.00000000
_cell_angle_beta   90.00000000
_cell_angle_gamma   106.72300000
_symmetry_Int_Tables_number   1
_chemical_formula_structural   Tm4H5(C5O4)6
_chemical_formula_sum   'Tm8 H10 C60 O48'
_cell_volume   2254.14201795
_cell_formula_units_Z   2
loop_
 _symmetry_equiv_pos_site_id
 _symmetry_equiv_pos_as_xyz
  1  'x, y, z'
loop_
 _atom_site_type_symbol
 _atom_site_label
 _atom_site_symmetry_multiplicity
 _atom_site_fract_x
 _atom_site_fract_y
 _atom_site_fract_z
 _atom_site_occupancy
 _atom_site_charge
  Tm  Tm1  1  0.761450  0.643430  0.001750  1.0  2.1687
  Tm  Tm2  1  0.205690  0.832160  0.987200  1.0  2.0123
  Tm  Tm3  1  0.238550  0.356570  0.501750  1.0  2.1695
  Tm  Tm4  1  0.794310  0.167840  0.487200  1.0  2.0134
  Tm  Tm5  1  0.238550  0.356570  0.998250  1.0  2.1698
  Tm  Tm6  1  0.794310  0.167840  0.012800  1.0  2.0129
  Tm  Tm7  1  0.761450  0.643430  0.498250  1.0  2.1685
  Tm  Tm8  1  0.205690  0.832160  0.512800  1.0  2.0119
  H  H9  1  0.054300  0.322000  0.750000  1.0  0.1079
  H  H10  1  0.614300  0.813600  0.750000  1.0  0.0968
  H  H11  1  0.997400  0.802500  0.750000  1.0  0.1131
  H  H12  1  0.766100  0.530600  0.750000  1.0  0.1047
  H  H13  1  0.358000  0.430800  0.750000  1.0  0.112
  H  H14  1  0.945700  0.678000  0.250000  1.0  0.1076
  H  H15  1  0.385700  0.186400  0.250000  1.0  0.097
  H  H16  1  0.002600  0.197500  0.250000  1.0  0.1132
  H  H17  1  0.233900  0.469400  0.250000  1.0  0.1044
  H  H18  1  0.642000  0.569200  0.250000  1.0  0.1122
  C  C19  1  0.954500  0.394600  0.819100  1.0  -0.0649
  C  C20  1  0.867000  0.458100  0.819600  1.0  -0.0914
  C  C21  1  0.006900  0.356300  0.891200  1.0  0.8123
  C  C22  1  0.924900  0.900600  0.818700  1.0  -0.0284
  C  C23  1  0.858400  0.983300  0.819000  1.0  -0.1321
  C  C24  1  0.824600  0.505200  0.890000  1.0  0.6363
  C  C25  1  0.446200  0.564800  0.819800  1.0  -0.0614
  C  C26  1  0.571000  0.747500  0.892500  1.0  0.7174
  C  C27  1  0.966800  0.849400  0.888600  1.0  0.8307
  C  C28  1  0.524200  0.680200  0.819500  1.0  -0.0854
  C  C29  1  0.830400  0.039000  0.889800  1.0  0.6684
  C  C30  1  0.390700  0.498900  0.889600  1.0  0.6929
  C  C31  1  0.045500  0.605400  0.319100  1.0  -0.0647
  C  C32  1  0.133000  0.541900  0.319600  1.0  -0.0915
  C  C33  1  0.993100  0.643700  0.391200  1.0  0.8124
  C  C34  1  0.075100  0.099400  0.318700  1.0  -0.0274
  C  C35  1  0.141600  0.016700  0.319000  1.0  -0.1329
  C  C36  1  0.175400  0.494800  0.390000  1.0  0.6346
  C  C37  1  0.553800  0.435200  0.319800  1.0  -0.0613
  C  C38  1  0.429000  0.252500  0.392500  1.0  0.7181
  C  C39  1  0.033200  0.150600  0.388600  1.0  0.8354
  C  C40  1  0.475800  0.319800  0.319500  1.0  -0.0853
  C  C41  1  0.169600  0.961000  0.389800  1.0  0.669
  C  C42  1  0.609300  0.501100  0.389600  1.0  0.6924
  C  C43  1  0.045500  0.605400  0.180900  1.0  -0.0656
  C  C44  1  0.133000  0.541900  0.180400  1.0  -0.0938
  C  C45  1  0.993100  0.643700  0.108800  1.0  0.8117
  C  C46  1  0.075100  0.099400  0.181300  1.0  -0.0278
  C  C47  1  0.141600  0.016700  0.181000  1.0  -0.1332
  C  C48  1  0.175400  0.494800  0.110000  1.0  0.6331
  C  C49  1  0.553800  0.435200  0.180200  1.0  -0.0663
  C  C50  1  0.429000  0.252500  0.107500  1.0  0.7185
  C  C51  1  0.033200  0.150600  0.111400  1.0  0.8366
  C  C52  1  0.475800  0.319800  0.180500  1.0  -0.0856
  C  C53  1  0.169600  0.961000  0.110200  1.0  0.668
  C  C54  1  0.609300  0.501100  0.110400  1.0  0.6926
  C  C55  1  0.954500  0.394600  0.680900  1.0  -0.0657
  C  C56  1  0.867000  0.458100  0.680400  1.0  -0.0937
  C  C57  1  0.006900  0.356300  0.608800  1.0  0.8112
  C  C58  1  0.924900  0.900600  0.681300  1.0  -0.0269
  C  C59  1  0.858400  0.983300  0.681000  1.0  -0.1326
  C  C60  1  0.824600  0.505200  0.610000  1.0  0.6344
  C  C61  1  0.446200  0.564800  0.680200  1.0  -0.0668
  C  C62  1  0.571000  0.747500  0.607500  1.0  0.7197
  C  C63  1  0.966800  0.849400  0.611400  1.0  0.8323
  C  C64  1  0.524200  0.680200  0.680500  1.0  -0.0859
  C  C65  1  0.830400  0.039000  0.610200  1.0  0.668
  C  C66  1  0.390700  0.498900  0.610400  1.0  0.6932
  C  C67  1  0.996500  0.364100  0.750000  1.0  -0.0486
  C  C68  1  0.562600  0.737000  0.750000  1.0  -0.0383
  C  C69  1  0.955400  0.859300  0.750000  1.0  -0.0995
  C  C70  1  0.824200  0.488800  0.750000  1.0  -0.0182
  C  C71  1  0.825000  0.022900  0.750000  1.0  0.1214
  C  C72  1  0.408700  0.507900  0.750000  1.0  -0.0413
  C  C73  1  0.003500  0.635900  0.250000  1.0  -0.0493
  C  C74  1  0.437400  0.263000  0.250000  1.0  -0.0385
  C  C75  1  0.044600  0.140700  0.250000  1.0  -0.1022
  C  C76  1  0.175800  0.511200  0.250000  1.0  -0.0161
  C  C77  1  0.175000  0.977100  0.250000  1.0  0.1213
  C  C78  1  0.591300  0.492100  0.250000  1.0  -0.0407
  O  O79  1  0.379800  0.391100  0.894600  1.0  -0.6543
  O  O80  1  0.889500  0.035900  0.950000  1.0  -0.6326
  O  O81  1  0.719900  0.524600  0.889900  1.0  -0.6311
  O  O82  1  0.893000  0.531600  0.948100  1.0  -0.6303
  O  O83  1  0.346100  0.547900  0.942600  1.0  -0.6844
  O  O84  1  0.747700  0.093100  0.887800  1.0  -0.6837
  O  O85  1  0.569500  0.851100  0.896400  1.0  -0.5493
  O  O86  1  0.889600  0.774800  0.926500  1.0  -0.7782
  O  O87  1  0.081400  0.878100  0.900000  1.0  -0.783
  O  O88  1  0.121300  0.385800  0.897000  1.0  -0.6917
  O  O89  1  0.607500  0.693400  0.945800  1.0  -0.7455
  O  O90  1  0.933100  0.293200  0.938200  1.0  -0.8154
  O  O91  1  0.620200  0.608900  0.394600  1.0  -0.6531
  O  O92  1  0.110500  0.964100  0.450000  1.0  -0.6318
  O  O93  1  0.280100  0.475400  0.389900  1.0  -0.6303
  O  O94  1  0.107000  0.468400  0.448100  1.0  -0.6297
  O  O95  1  0.653900  0.452100  0.442600  1.0  -0.6832
  O  O96  1  0.252300  0.906900  0.387800  1.0  -0.6854
  O  O97  1  0.430500  0.148900  0.396400  1.0  -0.5499
  O  O98  1  0.110400  0.225200  0.426500  1.0  -0.7792
  O  O99  1  0.918600  0.121900  0.400000  1.0  -0.7854
  O  O100  1  0.878700  0.614200  0.397000  1.0  -0.6915
  O  O101  1  0.392500  0.306600  0.445800  1.0  -0.7442
  O  O102  1  0.066900  0.706800  0.438200  1.0  -0.8161
  O  O103  1  0.620200  0.608900  0.105400  1.0  -0.6528
  O  O104  1  0.110500  0.964100  0.050000  1.0  -0.6313
  O  O105  1  0.280100  0.475400  0.110100  1.0  -0.6301
  O  O106  1  0.107000  0.468400  0.051900  1.0  -0.6292
  O  O107  1  0.653900  0.452100  0.057400  1.0  -0.6845
  O  O108  1  0.252300  0.906900  0.112200  1.0  -0.6857
  O  O109  1  0.430500  0.148900  0.103600  1.0  -0.5474
  O  O110  1  0.110400  0.225200  0.073500  1.0  -0.7792
  O  O111  1  0.918600  0.121900  0.100000  1.0  -0.7849
  O  O112  1  0.878700  0.614200  0.103000  1.0  -0.6914
  O  O113  1  0.392500  0.306600  0.054200  1.0  -0.7449
  O  O114  1  0.066900  0.706800  0.061800  1.0  -0.8148
  O  O115  1  0.379800  0.391100  0.605400  1.0  -0.6539
  O  O116  1  0.889500  0.035900  0.550000  1.0  -0.6324
  O  O117  1  0.719900  0.524600  0.610100  1.0  -0.6312
  O  O118  1  0.893000  0.531600  0.551900  1.0  -0.6302
  O  O119  1  0.346100  0.547900  0.557400  1.0  -0.6857
  O  O120  1  0.747700  0.093100  0.612200  1.0  -0.6838
  O  O121  1  0.569500  0.851100  0.603600  1.0  -0.548
  O  O122  1  0.889600  0.774800  0.573500  1.0  -0.7786
  O  O123  1  0.081400  0.878100  0.600000  1.0  -0.7825
  O  O124  1  0.121300  0.385800  0.603000  1.0  -0.6916
  O  O125  1  0.607500  0.693400  0.554200  1.0  -0.7454
  O  O126  1  0.933100  0.293200  0.561800  1.0  -0.8156
