# generated using pymatgen
data_Tm2H3(C5O4)3
_symmetry_space_group_name_H-M   'P 1'
_cell_length_a   10.28500000
_cell_length_b   11.57170000
_cell_length_c   13.51140000
_cell_angle_alpha   85.58100000
_cell_angle_beta   69.20900000
_cell_angle_gamma   63.75500000
_symmetry_Int_Tables_number   1
_chemical_formula_structural   Tm2H3(C5O4)3
_chemical_formula_sum   'Tm4 H6 C30 O24'
_cell_volume   1342.22806792
_cell_formula_units_Z   2
loop_
 _symmetry_equiv_pos_site_id
 _symmetry_equiv_pos_as_xyz
  1  'x, y, z'
loop_
 _atom_site_type_symbol
 _atom_site_label
 _atom_site_symmetry_multiplicity
 _atom_site_fract_x
 _atom_site_fract_y
 _atom_site_fract_z
 _atom_site_occupancy
 _atom_site_charge
  Tm  Tm1  1  0.444610  0.724560  0.679690  1.0  2.0654
  Tm  Tm2  1  0.468820  0.203020  0.690700  1.0  2.1289
  Tm  Tm3  1  0.555390  0.275440  0.320310  1.0  2.0679
  Tm  Tm4  1  0.531180  0.796980  0.309300  1.0  2.1296
  H  H5  1  0.989500  0.889400  0.602200  1.0  0.1093
  H  H6  1  0.634600  0.796100  0.908700  1.0  0.116
  H  H7  1  0.007000  0.583300  0.389800  1.0  0.1158
  H  H8  1  0.010500  0.110600  0.397800  1.0  0.1094
  H  H9  1  0.365400  0.203900  0.091300  1.0  0.1154
  H  H10  1  0.993000  0.416700  0.610200  1.0  0.1163
  C  C11  1  0.861800  0.752800  0.481300  1.0  -0.0808
  C  C12  1  0.134500  0.722400  0.507900  1.0  -0.058
  C  C13  1  0.443300  0.951300  0.816000  1.0  0.7392
  C  C14  1  0.857200  0.843700  0.547800  1.0  -0.0788
  C  C15  1  0.139700  0.628100  0.445700  1.0  -0.1051
  C  C16  1  0.993300  0.828000  0.559300  1.0  -0.0614
  C  C17  1  0.722200  0.765800  0.461100  1.0  0.765
  C  C18  1  0.472000  0.978600  0.910800  1.0  -0.1272
  C  C19  1  0.580000  0.877700  0.946000  1.0  -0.0275
  C  C20  1  0.003100  0.645200  0.432300  1.0  -0.028
  C  C21  1  0.265600  0.216600  0.939800  1.0  0.7131
  C  C22  1  0.393200  0.102800  0.965000  1.0  -0.1002
  C  C23  1  0.273700  0.721700  0.522000  1.0  0.8046
  C  C24  1  0.287300  0.508100  0.396600  1.0  0.6472
  C  C25  1  0.711900  0.962300  0.604600  1.0  0.6533
  C  C26  1  0.138200  0.247200  0.518700  1.0  -0.0808
  C  C27  1  0.865500  0.277600  0.492100  1.0  -0.0602
  C  C28  1  0.556700  0.048700  0.184000  1.0  0.7393
  C  C29  1  0.142800  0.156300  0.452200  1.0  -0.0776
  C  C30  1  0.860300  0.371900  0.554300  1.0  -0.1022
  C  C31  1  0.006700  0.172000  0.440700  1.0  -0.063
  C  C32  1  0.277800  0.234200  0.538900  1.0  0.7611
  C  C33  1  0.528000  0.021400  0.089200  1.0  -0.1203
  C  C34  1  0.420000  0.122300  0.054000  1.0  -0.0282
  C  C35  1  0.996900  0.354800  0.567700  1.0  -0.0284
  C  C36  1  0.734400  0.783400  0.060200  1.0  0.714
  C  C37  1  0.606800  0.897200  0.035000  1.0  -0.1009
  C  C38  1  0.726300  0.278300  0.478000  1.0  0.8001
  C  C39  1  0.712700  0.491900  0.603400  1.0  0.6477
  C  C40  1  0.288100  0.037700  0.395400  1.0  0.6534
  O  O41  1  0.607100  0.015100  0.564730  1.0  -0.5994
  O  O42  1  0.380400  0.046200  0.768270  1.0  -0.6834
  O  O43  1  0.400700  0.481400  0.426000  1.0  -0.6286
  O  O44  1  0.284800  0.697600  0.611500  1.0  -0.7386
  O  O45  1  0.299700  0.279700  0.861170  1.0  -0.755
  O  O46  1  0.296700  0.433200  0.328000  1.0  -0.6532
  O  O47  1  0.728400  0.774700  0.365500  1.0  -0.6733
  O  O48  1  0.485600  0.835000  0.788000  1.0  -0.776
  O  O49  1  0.131800  0.246300  0.003000  1.0  -0.439
  O  O50  1  0.699500  0.012400  0.689700  1.0  -0.674
  O  O51  1  0.361700  0.754600  0.448400  1.0  -0.7937
  O  O52  1  0.608700  0.764400  0.536300  1.0  -0.7794
  O  O53  1  0.392900  0.984900  0.435270  1.0  -0.6008
  O  O54  1  0.619600  0.953800  0.231730  1.0  -0.6848
  O  O55  1  0.599300  0.518600  0.574000  1.0  -0.6338
  O  O56  1  0.715200  0.302400  0.388500  1.0  -0.7367
  O  O57  1  0.700300  0.720300  0.138830  1.0  -0.7497
  O  O58  1  0.703300  0.566800  0.672000  1.0  -0.6543
  O  O59  1  0.271600  0.225300  0.634500  1.0  -0.6662
  O  O60  1  0.514400  0.165000  0.212000  1.0  -0.7776
  O  O61  1  0.868200  0.753700  0.997000  1.0  -0.4399
  O  O62  1  0.300500  0.987600  0.310300  1.0  -0.6703
  O  O63  1  0.638300  0.245400  0.551600  1.0  -0.7971
  O  O64  1  0.391300  0.235600  0.463700  1.0  -0.7788
