# generated using pymatgen
data_NaAg7H20(C6N5)5
_symmetry_space_group_name_H-M   'P 1'
_cell_length_a   12.00400000
_cell_length_b   13.94300000
_cell_length_c   22.74600000
_cell_angle_alpha   95.77600000
_cell_angle_beta   105.20600000
_cell_angle_gamma   104.26500000
_symmetry_Int_Tables_number   1
_chemical_formula_structural   NaAg7H20(C6N5)5
_chemical_formula_sum   'Na2 Ag14 H40 C60 N50'
_cell_volume   3504.44110460
_cell_formula_units_Z   2
loop_
 _symmetry_equiv_pos_site_id
 _symmetry_equiv_pos_as_xyz
  1  'x, y, z'
loop_
 _atom_site_type_symbol
 _atom_site_label
 _atom_site_symmetry_multiplicity
 _atom_site_fract_x
 _atom_site_fract_y
 _atom_site_fract_z
 _atom_site_occupancy
 _atom_site_charge
  Na  Na1  1  0.709500  0.301900  0.156800  1.0  0.5193
  Na  Na2  1  0.290500  0.698100  0.843200  1.0  0.5109
  Ag  Ag3  1  0.515770  0.439710  0.082610  1.0  0.1628
  Ag  Ag4  1  0.854820  0.485310  0.145880  1.0  -0.2129
  Ag  Ag5  1  0.973860  0.650290  0.303520  1.0  0.341
  Ag  Ag6  1  0.397940  0.618720  0.174200  1.0  0.3718
  Ag  Ag7  1  0.186360  0.925690  0.558950  1.0  0.3152
  Ag  Ag8  1  0.316600  0.329410  0.934020  1.0  0.16
  Ag  Ag9  1  0.151340  0.163540  0.998430  1.0  0.2118
  Ag  Ag10  1  0.484230  0.560290  0.917390  1.0  0.161
  Ag  Ag11  1  0.145180  0.514690  0.854120  1.0  -0.2158
  Ag  Ag12  1  0.026140  0.349710  0.696480  1.0  0.3414
  Ag  Ag13  1  0.602060  0.381280  0.825800  1.0  0.3714
  Ag  Ag14  1  0.813640  0.074310  0.441050  1.0  0.3153
  Ag  Ag15  1  0.683400  0.670590  0.065980  1.0  0.1594
  Ag  Ag16  1  0.848660  0.836460  0.001570  1.0  0.2123
  H  H17  1  0.215000  0.792900  0.342800  1.0  0.0853
  H  H18  1  0.352800  0.871100  0.432600  1.0  0.0715
  H  H19  1  0.572700  0.728200  0.396900  1.0  0.0756
  H  H20  1  0.433300  0.646800  0.304700  1.0  0.1123
  H  H21  1  0.837100  0.590900  0.517500  1.0  0.1059
  H  H22  1  0.698600  0.445100  0.509500  1.0  0.1
  H  H23  1  0.934100  0.468700  0.381300  1.0  0.0958
  H  H24  1  0.784800  0.327900  0.370400  1.0  0.0617
  H  H25  1  0.816900  0.724700  0.363100  1.0  0.1082
  H  H26  1  0.846800  0.868700  0.431000  1.0  0.0659
  H  H27  1  0.576200  0.824000  0.241400  1.0  0.1076
  H  H28  1  0.658200  0.974500  0.306500  1.0  0.0602
  H  H29  1  0.758800  0.252000  0.917800  1.0  0.1137
  H  H30  1  0.902300  0.165200  0.919700  1.0  0.0767
  H  H31  1  0.129700  0.360200  0.058300  1.0  0.059
  H  H32  1  0.998000  0.452900  0.058900  1.0  0.1167
  H  H33  1  0.543900  0.024500  0.911800  1.0  0.1219
  H  H34  1  0.635500  0.892300  0.914000  1.0  0.0863
  H  H35  1  0.746000  0.133100  0.084600  1.0  0.0843
  H  H36  1  0.818500  0.003300  0.089200  1.0  0.0935
  H  H37  1  0.785000  0.207100  0.657200  1.0  0.0849
  H  H38  1  0.647200  0.128900  0.567400  1.0  0.0711
  H  H39  1  0.427300  0.271800  0.603100  1.0  0.0805
  H  H40  1  0.566700  0.353200  0.695300  1.0  0.1121
  H  H41  1  0.162900  0.409100  0.482500  1.0  0.1053
  H  H42  1  0.301400  0.554900  0.490500  1.0  0.0984
  H  H43  1  0.065900  0.531300  0.618700  1.0  0.096
  H  H44  1  0.215200  0.672100  0.629600  1.0  0.0541
  H  H45  1  0.183100  0.275300  0.636900  1.0  0.1084
  H  H46  1  0.153200  0.131300  0.569000  1.0  0.066
  H  H47  1  0.423800  0.176000  0.758600  1.0  0.1082
  H  H48  1  0.341800  0.025500  0.693500  1.0  0.0603
  H  H49  1  0.241200  0.748000  0.082200  1.0  0.1139
  H  H50  1  0.097700  0.834800  0.080300  1.0  0.0772
  H  H51  1  0.870300  0.639800  0.941700  1.0  0.0585
  H  H52  1  0.002000  0.547100  0.941100  1.0  0.1169
  H  H53  1  0.456100  0.975500  0.088200  1.0  0.122
  H  H54  1  0.364500  0.107700  0.086000  1.0  0.0881
  H  H55  1  0.254000  0.866900  0.915400  1.0  0.0831
  H  H56  1  0.181500  0.996700  0.910800  1.0  0.0929
  C  C57  1  0.214900  0.659100  0.257500  1.0  0.2875
  C  C58  1  0.304800  0.713000  0.315200  1.0  0.054
  C  C59  1  0.288000  0.777600  0.352900  1.0  -0.1831
  C  C60  1  0.372000  0.825000  0.407200  1.0  0.2143
  C  C61  1  0.499000  0.741800  0.386200  1.0  0.1721
  C  C62  1  0.415900  0.692700  0.331000  1.0  -0.2018
  C  C63  1  0.985700  0.647400  0.451100  1.0  0.3118
  C  C64  1  0.900000  0.547500  0.445300  1.0  0.0255
  C  C65  1  0.827000  0.536500  0.487400  1.0  -0.1486
  C  C66  1  0.748000  0.452000  0.483700  1.0  0.1361
  C  C67  1  0.884600  0.467000  0.406700  1.0  -0.1775
  C  C68  1  0.799000  0.380800  0.402300  1.0  0.2459
  C  C69  1  0.687500  0.674700  0.245500  1.0  0.2838
  C  C70  1  0.706300  0.760200  0.291500  1.0  -0.015
  C  C71  1  0.780000  0.773500  0.350200  1.0  -0.2049
  C  C72  1  0.798900  0.861300  0.390400  1.0  0.1468
  C  C73  1  0.641000  0.834700  0.276800  1.0  -0.1799
  C  C74  1  0.683000  0.919300  0.318400  1.0  0.1392
  C  C75  1  0.778900  0.423800  0.990100  1.0  0.2738
  C  C76  1  0.864800  0.359500  0.985300  1.0  0.0155
  C  C77  1  0.835000  0.276300  0.946300  1.0  -0.1383
  C  C78  1  0.922000  0.223800  0.948400  1.0  0.1024
  C  C79  1  0.054500  0.337500  0.028700  1.0  0.1648
  C  C80  1  0.977100  0.394400  0.030000  1.0  -0.1916
  C  C81  1  0.576000  0.175800  0.003000  1.0  0.2913
  C  C82  1  0.637000  0.091200  0.998200  1.0  -0.0313
  C  C83  1  0.602000  0.021500  0.947000  1.0  -0.1278
  C  C84  1  0.658000  0.942800  0.948400  1.0  0.0912
  C  C85  1  0.721000  0.083200  0.049700  1.0  -0.1068
  C  C86  1  0.768000  0.010000  0.051800  1.0  0.1124
  C  C87  1  0.785100  0.340900  0.742500  1.0  0.2865
  C  C88  1  0.695200  0.287000  0.684800  1.0  0.053
  C  C89  1  0.712000  0.222400  0.647100  1.0  -0.1808
  C  C90  1  0.628000  0.175000  0.592800  1.0  0.2136
  C  C91  1  0.501000  0.258200  0.613800  1.0  0.173
  C  C92  1  0.584100  0.307300  0.669000  1.0  -0.2022
  C  C93  1  0.014300  0.352600  0.548900  1.0  0.3115
  C  C94  1  0.100000  0.452500  0.554700  1.0  0.0239
  C  C95  1  0.173000  0.463500  0.512600  1.0  -0.1444
  C  C96  1  0.252000  0.548000  0.516300  1.0  0.1355
  C  C97  1  0.115400  0.533000  0.593300  1.0  -0.1792
  C  C98  1  0.201000  0.619200  0.597700  1.0  0.2475
  C  C99  1  0.312500  0.325300  0.754500  1.0  0.2842
  C  C100  1  0.293700  0.239800  0.708500  1.0  -0.0151
  C  C101  1  0.220000  0.226500  0.649800  1.0  -0.205
  C  C102  1  0.201100  0.138700  0.609600  1.0  0.1461
  C  C103  1  0.359000  0.165300  0.723200  1.0  -0.1816
  C  C104  1  0.317000  0.080700  0.681600  1.0  0.1384
  C  C105  1  0.221100  0.576200  0.009900  1.0  0.2742
  C  C106  1  0.135200  0.640500  0.014700  1.0  0.016
  C  C107  1  0.165000  0.723700  0.053700  1.0  -0.135
  C  C108  1  0.078000  0.776200  0.051600  1.0  0.1029
  C  C109  1  0.945500  0.662500  0.971300  1.0  0.158
  C  C110  1  0.022900  0.605600  0.970000  1.0  -0.1904
  C  C111  1  0.424000  0.824200  0.997000  1.0  0.2917
  C  C112  1  0.363000  0.908800  0.001800  1.0  -0.0243
  C  C113  1  0.398000  0.978500  0.053000  1.0  -0.1348
  C  C114  1  0.342000  0.057200  0.051600  1.0  0.0892
  C  C115  1  0.279000  0.916800  0.950300  1.0  -0.124
  C  C116  1  0.232000  0.990000  0.948200  1.0  0.1117
  N  N117  1  0.242400  0.619600  0.206700  1.0  -0.2801
  N  N118  1  0.133700  0.572000  0.164000  1.0  -0.1437
  N  N119  1  0.048100  0.583000  0.189600  1.0  0.0557
  N  N120  1  0.477200  0.810400  0.426300  1.0  -0.4373
  N  N121  1  0.025900  0.685600  0.406200  1.0  -0.2496
  N  N122  1  0.100500  0.776500  0.433900  1.0  -0.101
  N  N123  1  0.097100  0.792900  0.491100  1.0  0.0365
  N  N124  1  0.022200  0.713500  0.504300  1.0  -0.3625
  N  N125  1  0.738900  0.369200  0.438500  1.0  -0.4495
  N  N126  1  0.777400  0.631500  0.242800  1.0  -0.2771
  N  N127  1  0.734000  0.561400  0.192700  1.0  -0.0056
  N  N128  1  0.621000  0.559500  0.166100  1.0  -0.0527
  N  N129  1  0.589900  0.630900  0.197600  1.0  -0.2935
  N  N130  1  0.755300  0.931900  0.375400  1.0  -0.3063
  N  N131  1  0.782600  0.481400  0.039100  1.0  -0.1758
  N  N132  1  0.698000  0.521500  0.021500  1.0  -0.013
  N  N133  1  0.638600  0.490100  0.965700  1.0  -0.0669
  N  N134  1  0.688200  0.422700  0.940600  1.0  -0.3315
  N  N135  1  0.033900  0.254300  0.990000  1.0  -0.2936
  N  N136  1  0.600800  0.248200  0.051600  1.0  -0.3909
  N  N137  1  0.529400  0.302700  0.030600  1.0  -0.0098
  N  N138  1  0.460300  0.266100  0.974200  1.0  0.0219
  N  N139  1  0.492000  0.185900  0.952800  1.0  -0.3785
  N  N140  1  0.746000  0.941800  0.001000  1.0  -0.3032
  N  N141  1  0.098500  0.633900  0.245900  1.0  -0.2055
  N  N142  1  0.757600  0.380400  0.793300  1.0  -0.2806
  N  N143  1  0.866300  0.428000  0.836000  1.0  -0.144
  N  N144  1  0.951900  0.417000  0.810400  1.0  0.0526
  N  N145  1  0.522800  0.189600  0.573700  1.0  -0.4345
  N  N146  1  0.974100  0.314400  0.593800  1.0  -0.2511
  N  N147  1  0.899500  0.223500  0.566100  1.0  -0.0995
  N  N148  1  0.902900  0.207100  0.508900  1.0  0.0357
  N  N149  1  0.977800  0.286500  0.495700  1.0  -0.3588
  N  N150  1  0.261100  0.630800  0.561500  1.0  -0.4526
  N  N151  1  0.222600  0.368500  0.757200  1.0  -0.2724
  N  N152  1  0.266000  0.438600  0.807300  1.0  -0.0053
  N  N153  1  0.379000  0.440500  0.833900  1.0  -0.0524
  N  N154  1  0.410100  0.369100  0.802400  1.0  -0.2894
  N  N155  1  0.244700  0.068100  0.624600  1.0  -0.3034
  N  N156  1  0.217400  0.518600  0.960900  1.0  -0.1771
  N  N157  1  0.302000  0.478500  0.978500  1.0  -0.0095
  N  N158  1  0.361400  0.509900  0.034300  1.0  -0.0622
  N  N159  1  0.311800  0.577300  0.059400  1.0  -0.3316
  N  N160  1  0.966100  0.745700  0.010000  1.0  -0.2945
  N  N161  1  0.399200  0.751800  0.948400  1.0  -0.3876
  N  N162  1  0.470600  0.697300  0.969400  1.0  -0.0074
  N  N163  1  0.539700  0.733900  0.025800  1.0  0.0217
  N  N164  1  0.508000  0.814100  0.047200  1.0  -0.379
  N  N165  1  0.254000  0.058200  0.999000  1.0  -0.3008
  N  N166  1  0.901500  0.366100  0.754100  1.0  -0.23
