# generated using pymatgen
data_Zn3H14C26S2(NO7)2
_symmetry_space_group_name_H-M   'P 1'
_cell_length_a   8.60270000
_cell_length_b   13.26480000
_cell_length_c   14.94200000
_cell_angle_alpha   83.56490000
_cell_angle_beta   73.26950000
_cell_angle_gamma   71.07870000
_symmetry_Int_Tables_number   1
_chemical_formula_structural   Zn3H14C26S2(NO7)2
_chemical_formula_sum   'Zn6 H28 C52 S4 N4 O28'
_cell_volume   1544.33669164
_cell_formula_units_Z   2
loop_
 _symmetry_equiv_pos_site_id
 _symmetry_equiv_pos_as_xyz
  1  'x, y, z'
loop_
 _atom_site_type_symbol
 _atom_site_label
 _atom_site_symmetry_multiplicity
 _atom_site_fract_x
 _atom_site_fract_y
 _atom_site_fract_z
 _atom_site_occupancy
 _atom_site_charge
  Zn  Zn1  1  0.838510  0.802340  0.945700  1.0  0.9907
  Zn  Zn2  1  0.586550  0.697660  0.554300  1.0  0.9908
  Zn  Zn3  1  0.161490  0.197660  0.054300  1.0  0.9906
  Zn  Zn4  1  0.413450  0.302340  0.445700  1.0  0.9896
  Zn  Zn5  1  0.000000  0.000000  0.000000  1.0  1.1899
  Zn  Zn6  1  0.000000  0.500000  0.500000  1.0  1.1903
  H  H7  1  0.728400  0.097300  0.725900  1.0  0.1191
  H  H8  1  0.808300  0.230400  0.628800  1.0  0.1084
  H  H9  1  0.270400  0.122400  0.675600  1.0  0.1103
  H  H10  1  0.863300  0.591100  0.027300  1.0  0.0845
  H  H11  1  0.725200  0.465600  0.058600  1.0  0.1283
  H  H12  1  0.417900  0.638700  0.903700  1.0  0.1309
  H  H13  1  0.564800  0.759200  0.877200  1.0  0.076
  H  H14  1  0.551600  0.402700  0.774100  1.0  0.119
  H  H15  1  0.667500  0.269600  0.871200  1.0  0.1097
  H  H16  1  0.068400  0.377600  0.824400  1.0  0.1097
  H  H17  1  0.481700  0.908900  0.472700  1.0  0.0853
  H  H18  1  0.249400  0.034400  0.441400  1.0  0.1285
  H  H19  1  0.960300  0.861300  0.596300  1.0  0.1308
  H  H20  1  0.201200  0.740800  0.622800  1.0  0.0773
  H  H21  1  0.271600  0.902700  0.274100  1.0  0.1192
  H  H22  1  0.191700  0.769600  0.371200  1.0  0.109
  H  H23  1  0.729600  0.877600  0.324400  1.0  0.1108
  H  H24  1  0.136700  0.408900  0.972700  1.0  0.0842
  H  H25  1  0.274800  0.534400  0.941400  1.0  0.1292
  H  H26  1  0.582100  0.361300  0.096300  1.0  0.1309
  H  H27  1  0.435200  0.240800  0.122800  1.0  0.0763
  H  H28  1  0.448400  0.597300  0.225900  1.0  0.1187
  H  H29  1  0.332500  0.730400  0.128800  1.0  0.1094
  H  H30  1  0.931600  0.622400  0.175600  1.0  0.1101
  H  H31  1  0.518300  0.091100  0.527300  1.0  0.0866
  H  H32  1  0.750600  0.965600  0.558600  1.0  0.1276
  H  H33  1  0.039700  0.138700  0.403700  1.0  0.1312
  H  H34  1  0.798800  0.259200  0.377200  1.0  0.0762
  C  C35  1  0.884710  0.951280  0.828500  1.0  0.6908
  C  C36  1  0.947700  0.032420  0.763580  1.0  -0.087
  C  C37  1  0.836560  0.103180  0.717300  1.0  -0.051
  C  C38  1  0.884710  0.182590  0.658390  1.0  -0.0427
  C  C39  1  0.045870  0.190670  0.643590  1.0  -0.1745
  C  C40  1  0.103410  0.276380  0.580400  1.0  0.6875
  C  C41  1  0.160490  0.118160  0.687060  1.0  0.0031
  C  C42  1  0.112220  0.039720  0.747240  1.0  -0.1273
  C  C43  1  0.770940  0.601420  0.003100  1.0  0.172
  C  C44  1  0.688050  0.525600  0.022500  1.0  -0.192
  C  C45  1  0.549100  0.538600  0.988200  1.0  0.0959
  C  C46  1  0.506650  0.627900  0.931000  1.0  -0.1928
  C  C47  1  0.596200  0.699900  0.915100  1.0  0.1819
  C  C48  1  0.664490  0.548720  0.671500  1.0  0.6915
  C  C49  1  0.743700  0.467580  0.736420  1.0  -0.0866
  C  C50  1  0.657040  0.396820  0.782700  1.0  -0.0533
  C  C51  1  0.725690  0.317410  0.841610  1.0  -0.0422
  C  C52  1  0.880130  0.309330  0.856410  1.0  -0.1767
  C  C53  1  0.960190  0.223620  0.919600  1.0  0.6886
  C  C54  1  0.965710  0.381840  0.812940  1.0  0.0031
  C  C55  1  0.899180  0.460280  0.752760  1.0  -0.1268
  C  C56  1  0.375460  0.898580  0.496900  1.0  0.1687
  C  C57  1  0.236150  0.974400  0.477500  1.0  -0.1931
  C  C58  1  0.075900  0.961400  0.511800  1.0  0.0964
  C  C59  1  0.065550  0.872100  0.569000  1.0  -0.1941
  C  C60  1  0.211200  0.800100  0.584900  1.0  0.18
  C  C61  1  0.115290  0.048720  0.171500  1.0  0.6906
  C  C62  1  0.052300  0.967580  0.236420  1.0  -0.0881
  C  C63  1  0.163440  0.896820  0.282700  1.0  -0.0526
  C  C64  1  0.115290  0.817410  0.341610  1.0  -0.0421
  C  C65  1  0.954130  0.809330  0.356410  1.0  -0.1756
  C  C66  1  0.896590  0.723620  0.419600  1.0  0.6871
  C  C67  1  0.839510  0.881840  0.312940  1.0  0.0033
  C  C68  1  0.887780  0.960280  0.252760  1.0  -0.1268
  C  C69  1  0.229060  0.398580  0.996900  1.0  0.1715
  C  C70  1  0.311950  0.474400  0.977500  1.0  -0.1909
  C  C71  1  0.450900  0.461400  0.011800  1.0  0.0966
  C  C72  1  0.493350  0.372100  0.069000  1.0  -0.1909
  C  C73  1  0.403800  0.300100  0.084900  1.0  0.1815
  C  C74  1  0.335510  0.451280  0.328500  1.0  0.6926
  C  C75  1  0.256300  0.532420  0.263580  1.0  -0.0868
  C  C76  1  0.342960  0.603180  0.217300  1.0  -0.0543
  C  C77  1  0.274310  0.682590  0.158390  1.0  -0.0417
  C  C78  1  0.119870  0.690670  0.143590  1.0  -0.175
  C  C79  1  0.039810  0.776380  0.080400  1.0  0.6868
  C  C80  1  0.034290  0.618160  0.187060  1.0  0.004
  C  C81  1  0.100820  0.539720  0.247240  1.0  -0.1255
  C  C82  1  0.624540  0.101420  0.503100  1.0  0.1687
  C  C83  1  0.763850  0.025600  0.522500  1.0  -0.1928
  C  C84  1  0.924100  0.038600  0.488200  1.0  0.0963
  C  C85  1  0.934450  0.127900  0.431000  1.0  -0.1955
  C  C86  1  0.788800  0.199900  0.415100  1.0  0.181
  S  S87  1  0.272380  0.948840  0.796300  1.0  1.4023
  S  S88  1  0.017520  0.551160  0.703700  1.0  1.4
  S  S89  1  0.727620  0.051160  0.203700  1.0  1.4016
  S  S90  1  0.982480  0.448840  0.296300  1.0  1.3989
  N  N91  1  0.725680  0.689360  0.951080  1.0  -0.3014
  N  N92  1  0.366120  0.810640  0.548920  1.0  -0.3013
  N  N93  1  0.274320  0.310640  0.048920  1.0  -0.3041
  N  N94  1  0.633880  0.189360  0.451080  1.0  -0.2996
  O  O95  1  0.910350  0.937230  0.910470  1.0  -0.676
  O  O96  1  0.811310  0.897450  0.804930  1.0  -0.5604
  O  O97  1  0.996510  0.347680  0.549100  1.0  -0.5856
  O  O98  1  0.259840  0.268130  0.565190  1.0  -0.6022
  O  O99  1  0.432280  0.963000  0.742440  1.0  -0.6171
  O  O100  1  0.232370  0.981160  0.893500  1.0  -0.725
  O  O101  1  0.263650  0.843600  0.788900  1.0  -0.631
  O  O102  1  0.758050  0.562770  0.589530  1.0  -0.6729
  O  O103  1  0.513690  0.602550  0.695070  1.0  -0.5587
  O  O104  1  0.893290  0.152320  0.950900  1.0  -0.5879
  O  O105  1  0.093160  0.231870  0.934810  1.0  -0.6016
  O  O106  1  0.137720  0.537000  0.757560  1.0  -0.6302
  O  O107  1  0.107030  0.518840  0.606500  1.0  -0.7231
  O  O108  1  0.896150  0.656400  0.711100  1.0  -0.6301
  O  O109  1  0.089650  0.062770  0.089530  1.0  -0.6748
  O  O110  1  0.188690  0.102550  0.195070  1.0  -0.5609
  O  O111  1  0.003490  0.652320  0.450900  1.0  -0.5866
  O  O112  1  0.740160  0.731870  0.434810  1.0  -0.6031
  O  O113  1  0.567720  0.037000  0.257560  1.0  -0.6286
  O  O114  1  0.767630  0.018840  0.106500  1.0  -0.7258
  O  O115  1  0.736350  0.156400  0.211100  1.0  -0.6304
  O  O116  1  0.241950  0.437230  0.410470  1.0  -0.6745
  O  O117  1  0.486310  0.397450  0.304930  1.0  -0.5593
  O  O118  1  0.106710  0.847680  0.049100  1.0  -0.5873
  O  O119  1  0.906840  0.768130  0.065190  1.0  -0.6022
  O  O120  1  0.862280  0.463000  0.242440  1.0  -0.6299
  O  O121  1  0.892970  0.481160  0.393500  1.0  -0.7213
  O  O122  1  0.103850  0.343600  0.288900  1.0  -0.6298
