# generated using pymatgen
data_MnH5C8NO4
_symmetry_space_group_name_H-M   'P 1'
_cell_length_a   7.78080000
_cell_length_b   10.85290000
_cell_length_c   15.27520000
_cell_angle_alpha   90.00000000
_cell_angle_beta   90.00000000
_cell_angle_gamma   90.00000000
_symmetry_Int_Tables_number   1
_chemical_formula_structural   MnH5C8NO4
_chemical_formula_sum   'Mn4 H20 C32 N4 O16'
_cell_volume   1289.90272084
_cell_formula_units_Z   4
loop_
 _symmetry_equiv_pos_site_id
 _symmetry_equiv_pos_as_xyz
  1  'x, y, z'
loop_
 _atom_site_type_symbol
 _atom_site_label
 _atom_site_symmetry_multiplicity
 _atom_site_fract_x
 _atom_site_fract_y
 _atom_site_fract_z
 _atom_site_occupancy
 _atom_site_charge
  Mn  Mn1  1  0.984080  0.298660  0.705840  1.0  1.1455
  Mn  Mn2  1  0.015920  0.798660  0.294160  1.0  1.1477
  Mn  Mn3  1  0.484080  0.298660  0.794160  1.0  1.1474
  Mn  Mn4  1  0.515920  0.798660  0.205840  1.0  1.1457
  H  H5  1  0.890000  0.901300  0.573300  1.0  0.3523
  H  H6  1  0.859800  0.977300  0.653100  1.0  0.3461
  H  H7  1  0.201100  0.023900  0.506100  1.0  0.1025
  H  H8  1  0.581100  0.071200  0.681400  1.0  0.1017
  H  H9  1  0.664200  0.868300  0.466000  1.0  0.1089
  H  H10  1  0.110000  0.401300  0.426700  1.0  0.3536
  H  H11  1  0.140200  0.477300  0.346900  1.0  0.3462
  H  H12  1  0.798900  0.523900  0.493900  1.0  0.1029
  H  H13  1  0.418900  0.571200  0.318600  1.0  0.1014
  H  H14  1  0.335800  0.368300  0.534000  1.0  0.1089
  H  H15  1  0.390000  0.901300  0.926700  1.0  0.353
  H  H16  1  0.359800  0.977300  0.846900  1.0  0.346
  H  H17  1  0.701100  0.023900  0.993900  1.0  0.1025
  H  H18  1  0.081100  0.071200  0.818600  1.0  0.1016
  H  H19  1  0.164200  0.868300  0.034000  1.0  0.1088
  H  H20  1  0.610000  0.401300  0.073300  1.0  0.3532
  H  H21  1  0.640200  0.477300  0.153100  1.0  0.346
  H  H22  1  0.298900  0.523900  0.006100  1.0  0.1029
  H  H23  1  0.918900  0.571200  0.181400  1.0  0.1009
  H  H24  1  0.835800  0.368300  0.966000  1.0  0.1089
  C  C25  1  0.422700  0.936200  0.474180  1.0  -0.1267
  C  C26  1  0.313400  0.009340  0.524260  1.0  -0.0332
  C  C27  1  0.374400  0.060510  0.602100  1.0  -0.1296
  C  C28  1  0.542200  0.038000  0.628880  1.0  -0.156
  C  C29  1  0.652800  0.966660  0.578270  1.0  0.2855
  C  C30  1  0.591700  0.915990  0.500590  1.0  -0.1531
  C  C31  1  0.361600  0.881820  0.388920  1.0  0.7606
  C  C32  1  0.259800  0.139990  0.656980  1.0  0.6945
  C  C33  1  0.577300  0.436200  0.525820  1.0  -0.1257
  C  C34  1  0.686600  0.509340  0.475740  1.0  -0.0375
  C  C35  1  0.625600  0.560510  0.397900  1.0  -0.129
  C  C36  1  0.457800  0.538000  0.371120  1.0  -0.1572
  C  C37  1  0.347200  0.466660  0.421730  1.0  0.2856
  C  C38  1  0.408300  0.415990  0.499410  1.0  -0.1551
  C  C39  1  0.638400  0.381820  0.611080  1.0  0.7592
  C  C40  1  0.740200  0.639990  0.343020  1.0  0.6949
  C  C41  1  0.922700  0.936200  0.025820  1.0  -0.1256
  C  C42  1  0.813400  0.009340  0.975740  1.0  -0.0342
  C  C43  1  0.874400  0.060510  0.897900  1.0  -0.1294
  C  C44  1  0.042200  0.038000  0.871120  1.0  -0.1565
  C  C45  1  0.152800  0.966660  0.921730  1.0  0.2853
  C  C46  1  0.091700  0.915990  0.999410  1.0  -0.1553
  C  C47  1  0.861600  0.881820  0.111080  1.0  0.7592
  C  C48  1  0.759800  0.139990  0.843020  1.0  0.6945
  C  C49  1  0.077300  0.436200  0.974180  1.0  -0.1267
  C  C50  1  0.186600  0.509340  0.024260  1.0  -0.0363
  C  C51  1  0.125600  0.560510  0.102100  1.0  -0.1292
  C  C52  1  0.957800  0.538000  0.128880  1.0  -0.1569
  C  C53  1  0.847200  0.466660  0.078270  1.0  0.2859
  C  C54  1  0.908300  0.415990  0.000590  1.0  -0.153
  C  C55  1  0.138400  0.381820  0.888920  1.0  0.7595
  C  C56  1  0.240200  0.639990  0.156980  1.0  0.6948
  N  N57  1  0.822800  0.945700  0.605020  1.0  -0.7205
  N  N58  1  0.177200  0.445700  0.394980  1.0  -0.7221
  N  N59  1  0.322800  0.945700  0.894980  1.0  -0.7205
  N  N60  1  0.677200  0.445700  0.105020  1.0  -0.7221
  O  O61  1  0.115800  0.170800  0.627250  1.0  -0.5933
  O  O62  1  0.309600  0.171780  0.733020  1.0  -0.6659
  O  O63  1  0.474400  0.861790  0.332180  1.0  -0.6706
  O  O64  1  0.204540  0.862480  0.380300  1.0  -0.646
  O  O65  1  0.884200  0.670800  0.372750  1.0  -0.5927
  O  O66  1  0.690400  0.671780  0.266980  1.0  -0.6654
  O  O67  1  0.525600  0.361790  0.667820  1.0  -0.6698
  O  O68  1  0.795460  0.362480  0.619700  1.0  -0.6474
  O  O69  1  0.615800  0.170800  0.872750  1.0  -0.5933
  O  O70  1  0.809600  0.171780  0.766980  1.0  -0.666
  O  O71  1  0.974400  0.861790  0.167820  1.0  -0.6703
  O  O72  1  0.704540  0.862480  0.119700  1.0  -0.6464
  O  O73  1  0.384200  0.670800  0.127250  1.0  -0.5928
  O  O74  1  0.190400  0.671780  0.233020  1.0  -0.6653
  O  O75  1  0.025600  0.361790  0.832180  1.0  -0.6699
  O  O76  1  0.295460  0.362480  0.880300  1.0  -0.6472
