# generated using pymatgen
data_Cu2H7C14(SO6)2
_symmetry_space_group_name_H-M   'P 1'
_cell_length_a   24.12670000
_cell_length_b   24.12670000
_cell_length_c   11.30770000
_cell_angle_alpha   90.00000000
_cell_angle_beta   90.00000000
_cell_angle_gamma   90.00000000
_symmetry_Int_Tables_number   1
_chemical_formula_structural   Cu2H7C14(SO6)2
_chemical_formula_sum   'Cu16 H56 C112 S16 O96'
_cell_volume   6582.18562958
_cell_formula_units_Z   8
loop_
 _symmetry_equiv_pos_site_id
 _symmetry_equiv_pos_as_xyz
  1  'x, y, z'
loop_
 _atom_site_type_symbol
 _atom_site_label
 _atom_site_symmetry_multiplicity
 _atom_site_fract_x
 _atom_site_fract_y
 _atom_site_fract_z
 _atom_site_occupancy
 _atom_site_charge
  Cu  Cu1  1  0.462460  0.508500  0.101500  1.0  0.9711
  Cu  Cu2  1  0.598650  0.544130  0.147320  1.0  0.9185
  Cu  Cu3  1  0.037540  0.991500  0.101500  1.0  0.9724
  Cu  Cu4  1  0.901350  0.955870  0.147320  1.0  0.9137
  Cu  Cu5  1  0.991500  0.462460  0.101500  1.0  0.9698
  Cu  Cu6  1  0.955870  0.598650  0.147320  1.0  0.9142
  Cu  Cu7  1  0.508500  0.037540  0.101500  1.0  0.9677
  Cu  Cu8  1  0.544130  0.901350  0.147320  1.0  0.9137
  Cu  Cu9  1  0.537540  0.491500  0.898500  1.0  0.9717
  Cu  Cu10  1  0.401350  0.455870  0.852680  1.0  0.9164
  Cu  Cu11  1  0.962460  0.008500  0.898500  1.0  0.9712
  Cu  Cu12  1  0.098650  0.044130  0.852680  1.0  0.92
  Cu  Cu13  1  0.008500  0.537540  0.898500  1.0  0.968
  Cu  Cu14  1  0.044130  0.401350  0.852680  1.0  0.9158
  Cu  Cu15  1  0.491500  0.962460  0.898500  1.0  0.9693
  Cu  Cu16  1  0.455870  0.098650  0.852680  1.0  0.9164
  H  H17  1  0.546100  0.467200  0.104800  1.0  0.4736
  H  H18  1  0.415300  0.535600  0.450900  1.0  0.1408
  H  H19  1  0.538600  0.642200  0.659900  1.0  0.1449
  H  H20  1  0.563400  0.608700  0.475200  1.0  0.1524
  H  H21  1  0.529400  0.745600  0.016000  1.0  0.1473
  H  H22  1  0.451400  0.810800  0.736400  1.0  0.1363
  H  H23  1  0.430100  0.723300  0.671500  1.0  0.1536
  H  H24  1  0.953900  0.032800  0.104800  1.0  0.4744
  H  H25  1  0.084700  0.964400  0.450900  1.0  0.1408
  H  H26  1  0.961400  0.857800  0.659900  1.0  0.1454
  H  H27  1  0.936600  0.891300  0.475200  1.0  0.1522
  H  H28  1  0.970600  0.754400  0.016000  1.0  0.1477
  H  H29  1  0.048600  0.689200  0.736400  1.0  0.1364
  H  H30  1  0.069900  0.776700  0.671500  1.0  0.1536
  H  H31  1  0.032800  0.546100  0.104800  1.0  0.4725
  H  H32  1  0.964400  0.415300  0.450900  1.0  0.1417
  H  H33  1  0.857800  0.538600  0.659900  1.0  0.1442
  H  H34  1  0.891300  0.563400  0.475200  1.0  0.153
  H  H35  1  0.754400  0.529400  0.016000  1.0  0.1477
  H  H36  1  0.689200  0.451400  0.736400  1.0  0.1371
  H  H37  1  0.776700  0.430100  0.671500  1.0  0.1541
  H  H38  1  0.467200  0.953900  0.104800  1.0  0.4744
  H  H39  1  0.535600  0.084700  0.450900  1.0  0.1411
  H  H40  1  0.642200  0.961400  0.659900  1.0  0.1444
  H  H41  1  0.608700  0.936600  0.475200  1.0  0.1522
  H  H42  1  0.745600  0.970600  0.016000  1.0  0.1478
  H  H43  1  0.810800  0.048600  0.736400  1.0  0.1371
  H  H44  1  0.723300  0.069900  0.671500  1.0  0.1535
  H  H45  1  0.453900  0.532800  0.895200  1.0  0.473
  H  H46  1  0.584700  0.464400  0.549100  1.0  0.141
  H  H47  1  0.461400  0.357800  0.340100  1.0  0.1452
  H  H48  1  0.436600  0.391300  0.524800  1.0  0.1527
  H  H49  1  0.470600  0.254400  0.984000  1.0  0.1474
  H  H50  1  0.548600  0.189200  0.263600  1.0  0.1366
  H  H51  1  0.569900  0.276700  0.328500  1.0  0.1528
  H  H52  1  0.046100  0.967200  0.895200  1.0  0.4719
  H  H53  1  0.915300  0.035600  0.549100  1.0  0.1408
  H  H54  1  0.038600  0.142200  0.340100  1.0  0.1452
  H  H55  1  0.063400  0.108700  0.524800  1.0  0.1525
  H  H56  1  0.029400  0.245600  0.984000  1.0  0.1476
  H  H57  1  0.951400  0.310800  0.263600  1.0  0.1362
  H  H58  1  0.930100  0.223300  0.328500  1.0  0.1537
  H  H59  1  0.967200  0.453900  0.895200  1.0  0.4727
  H  H60  1  0.035600  0.584700  0.549100  1.0  0.1412
  H  H61  1  0.142200  0.461400  0.340100  1.0  0.1444
  H  H62  1  0.108700  0.436600  0.524800  1.0  0.1526
  H  H63  1  0.245600  0.470600  0.984000  1.0  0.1478
  H  H64  1  0.310800  0.548600  0.263600  1.0  0.1373
  H  H65  1  0.223300  0.569900  0.328500  1.0  0.1533
  H  H66  1  0.532800  0.046100  0.895200  1.0  0.4715
  H  H67  1  0.464400  0.915300  0.549100  1.0  0.1417
  H  H68  1  0.357800  0.038600  0.340100  1.0  0.1447
  H  H69  1  0.391300  0.063400  0.524800  1.0  0.153
  H  H70  1  0.254400  0.029400  0.984000  1.0  0.1477
  H  H71  1  0.189200  0.951400  0.263600  1.0  0.1373
  H  H72  1  0.276700  0.930100  0.328500  1.0  0.154
  C  C73  1  0.491130  0.569370  0.443900  1.0  -0.1287
  C  C74  1  0.440130  0.557820  0.492300  1.0  0.0404
  C  C75  1  0.425300  0.578690  0.601600  1.0  -0.1867
  C  C76  1  0.462700  0.610950  0.661500  1.0  0.2981
  C  C77  1  0.513400  0.621200  0.616500  1.0  -0.1374
  C  C78  1  0.528500  0.601000  0.506400  1.0  -0.0209
  C  C79  1  0.465800  0.682490  0.805900  1.0  0.2555
  C  C80  1  0.496180  0.688480  0.906700  1.0  -0.1519
  C  C81  1  0.509220  0.741280  0.946500  1.0  0.0588
  C  C82  1  0.492300  0.787920  0.883400  1.0  -0.1436
  C  C83  1  0.462700  0.780170  0.780200  1.0  -0.0013
  C  C84  1  0.449800  0.727900  0.741500  1.0  -0.1405
  C  C85  1  0.506390  0.548160  0.321900  1.0  0.7194
  C  C86  1  0.504080  0.844900  0.930300  1.0  0.7605
  C  C87  1  0.008870  0.930630  0.443900  1.0  -0.1288
  C  C88  1  0.059870  0.942180  0.492300  1.0  0.0407
  C  C89  1  0.074700  0.921310  0.601600  1.0  -0.1823
  C  C90  1  0.037300  0.889050  0.661500  1.0  0.2976
  C  C91  1  0.986600  0.878800  0.616500  1.0  -0.1362
  C  C92  1  0.971500  0.899000  0.506400  1.0  -0.0213
  C  C93  1  0.034200  0.817510  0.805900  1.0  0.2551
  C  C94  1  0.003820  0.811520  0.906700  1.0  -0.1506
  C  C95  1  0.990780  0.758720  0.946500  1.0  0.0579
  C  C96  1  0.007700  0.712080  0.883400  1.0  -0.1428
  C  C97  1  0.037300  0.719830  0.780200  1.0  -0.0014
  C  C98  1  0.050200  0.772100  0.741500  1.0  -0.1389
  C  C99  1  0.993610  0.951840  0.321900  1.0  0.7197
  C  C100  1  0.995920  0.655100  0.930300  1.0  0.7596
  C  C101  1  0.930630  0.491130  0.443900  1.0  -0.1314
  C  C102  1  0.942180  0.440130  0.492300  1.0  0.0357
  C  C103  1  0.921310  0.425300  0.601600  1.0  -0.1868
  C  C104  1  0.889050  0.462700  0.661500  1.0  0.2992
  C  C105  1  0.878800  0.513400  0.616500  1.0  -0.1356
  C  C106  1  0.899000  0.528500  0.506400  1.0  -0.0202
  C  C107  1  0.817510  0.465800  0.805900  1.0  0.2556
  C  C108  1  0.811520  0.496180  0.906700  1.0  -0.1488
  C  C109  1  0.758720  0.509220  0.946500  1.0  0.0585
  C  C110  1  0.712080  0.492300  0.883400  1.0  -0.145
  C  C111  1  0.719830  0.462700  0.780200  1.0  -0.0019
  C  C112  1  0.772100  0.449800  0.741500  1.0  -0.1403
  C  C113  1  0.951840  0.506390  0.321900  1.0  0.7198
  C  C114  1  0.655100  0.504080  0.930300  1.0  0.7616
  C  C115  1  0.569370  0.008870  0.443900  1.0  -0.1312
  C  C116  1  0.557820  0.059870  0.492300  1.0  0.0365
  C  C117  1  0.578690  0.074700  0.601600  1.0  -0.1875
  C  C118  1  0.610950  0.037300  0.661500  1.0  0.2977
  C  C119  1  0.621200  0.986600  0.616500  1.0  -0.1342
  C  C120  1  0.601000  0.971500  0.506400  1.0  -0.0228
  C  C121  1  0.682490  0.034200  0.805900  1.0  0.2558
  C  C122  1  0.688480  0.003820  0.906700  1.0  -0.1508
  C  C123  1  0.741280  0.990780  0.946500  1.0  0.0591
  C  C124  1  0.787920  0.007700  0.883400  1.0  -0.1457
  C  C125  1  0.780170  0.037300  0.780200  1.0  -0.0023
  C  C126  1  0.727900  0.050200  0.741500  1.0  -0.1388
  C  C127  1  0.548160  0.993610  0.321900  1.0  0.7203
  C  C128  1  0.844900  0.995920  0.930300  1.0  0.7607
  C  C129  1  0.508870  0.430630  0.556100  1.0  -0.1295
  C  C130  1  0.559870  0.442180  0.507700  1.0  0.0414
  C  C131  1  0.574700  0.421310  0.398400  1.0  -0.183
  C  C132  1  0.537300  0.389050  0.338500  1.0  0.2981
  C  C133  1  0.486600  0.378800  0.383500  1.0  -0.1368
  C  C134  1  0.471500  0.399000  0.493600  1.0  -0.0205
  C  C135  1  0.534200  0.317510  0.194100  1.0  0.255
  C  C136  1  0.503820  0.311520  0.093300  1.0  -0.1516
  C  C137  1  0.490780  0.258720  0.053500  1.0  0.0585
  C  C138  1  0.507700  0.212080  0.116600  1.0  -0.1427
  C  C139  1  0.537300  0.219830  0.219800  1.0  -0.0014
  C  C140  1  0.550200  0.272100  0.258500  1.0  -0.1371
  C  C141  1  0.493610  0.451840  0.678100  1.0  0.7185
  C  C142  1  0.495920  0.155100  0.069700  1.0  0.7598
  C  C143  1  0.991130  0.069370  0.556100  1.0  -0.129
  C  C144  1  0.940130  0.057820  0.507700  1.0  0.0408
  C  C145  1  0.925300  0.078690  0.398400  1.0  -0.187
  C  C146  1  0.962700  0.110950  0.338500  1.0  0.2981
  C  C147  1  0.013400  0.121200  0.383500  1.0  -0.1389
  C  C148  1  0.028500  0.101000  0.493600  1.0  -0.0209
  C  C149  1  0.965800  0.182490  0.194100  1.0  0.2554
  C  C150  1  0.996180  0.188480  0.093300  1.0  -0.1526
  C  C151  1  0.009220  0.241280  0.053500  1.0  0.0584
  C  C152  1  0.992300  0.287920  0.116600  1.0  -0.1432
  C  C153  1  0.962700  0.280170  0.219800  1.0  -0.002
  C  C154  1  0.949800  0.227900  0.258500  1.0  -0.1395
  C  C155  1  0.006390  0.048160  0.678100  1.0  0.7186
  C  C156  1  0.004080  0.344900  0.069700  1.0  0.7606
  C  C157  1  0.069370  0.508870  0.556100  1.0  -0.1331
  C  C158  1  0.057820  0.559870  0.507700  1.0  0.0369
  C  C159  1  0.078690  0.574700  0.398400  1.0  -0.1874
  C  C160  1  0.110950  0.537300  0.338500  1.0  0.298
  C  C161  1  0.121200  0.486600  0.383500  1.0  -0.1357
  C  C162  1  0.101000  0.471500  0.493600  1.0  -0.0217
  C  C163  1  0.182490  0.534200  0.194100  1.0  0.2555
  C  C164  1  0.188480  0.503820  0.093300  1.0  -0.1519
  C  C165  1  0.241280  0.490780  0.053500  1.0  0.0583
  C  C166  1  0.287920  0.507700  0.116600  1.0  -0.1454
  C  C167  1  0.280170  0.537300  0.219800  1.0  -0.0027
  C  C168  1  0.227900  0.550200  0.258500  1.0  -0.1379
  C  C169  1  0.048160  0.493610  0.678100  1.0  0.7203
  C  C170  1  0.344900  0.495920  0.069700  1.0  0.7608
  C  C171  1  0.430630  0.991130  0.556100  1.0  -0.1316
  C  C172  1  0.442180  0.940130  0.507700  1.0  0.0368
  C  C173  1  0.421310  0.925300  0.398400  1.0  -0.1866
  C  C174  1  0.389050  0.962700  0.338500  1.0  0.299
  C  C175  1  0.378800  0.013400  0.383500  1.0  -0.1363
  C  C176  1  0.399000  0.028500  0.493600  1.0  -0.0197
  C  C177  1  0.317510  0.965800  0.194100  1.0  0.2556
  C  C178  1  0.311520  0.996180  0.093300  1.0  -0.1493
  C  C179  1  0.258720  0.009220  0.053500  1.0  0.0594
  C  C180  1  0.212080  0.992300  0.116600  1.0  -0.1447
  C  C181  1  0.219830  0.962700  0.219800  1.0  -0.0021
  C  C182  1  0.272100  0.949800  0.258500  1.0  -0.138
  C  C183  1  0.451840  0.006390  0.678100  1.0  0.7183
  C  C184  1  0.155100  0.004080  0.069700  1.0  0.7617
  S  S185  1  0.358460  0.564560  0.660160  1.0  1.4288
  S  S186  1  0.519780  0.629740  0.984200  1.0  1.4211
  S  S187  1  0.141540  0.935440  0.660160  1.0  1.4308
  S  S188  1  0.980220  0.870260  0.984200  1.0  1.4206
  S  S189  1  0.935440  0.358460  0.660160  1.0  1.4379
  S  S190  1  0.870260  0.519780  0.984200  1.0  1.4184
  S  S191  1  0.564560  0.141540  0.660160  1.0  1.4373
  S  S192  1  0.629740  0.980220  0.984200  1.0  1.4213
  S  S193  1  0.641540  0.435440  0.339840  1.0  1.431
  S  S194  1  0.480220  0.370260  0.015800  1.0  1.4202
  S  S195  1  0.858460  0.064560  0.339840  1.0  1.4289
  S  S196  1  0.019780  0.129740  0.015800  1.0  1.4206
  S  S197  1  0.064560  0.641540  0.339840  1.0  1.4371
  S  S198  1  0.129740  0.480220  0.015800  1.0  1.4204
  S  S199  1  0.435440  0.858460  0.339840  1.0  1.4379
  S  S200  1  0.370260  0.019780  0.015800  1.0  1.4186
  O  O201  1  0.552930  0.561150  0.284000  1.0  -0.5725
  O  O202  1  0.469500  0.520790  0.267800  1.0  -0.5673
  O  O203  1  0.481470  0.883950  0.876900  1.0  -0.5592
  O  O204  1  0.535380  0.847980  0.017400  1.0  -0.5859
  O  O205  1  0.333210  0.526300  0.578900  1.0  -0.5654
  O  O206  1  0.366390  0.541730  0.776600  1.0  -0.6814
  O  O207  1  0.330500  0.617200  0.666000  1.0  -0.5683
  O  O208  1  0.469710  0.607070  0.041400  1.0  -0.7681
  O  O209  1  0.561610  0.648420  0.064200  1.0  -0.5345
  O  O210  1  0.541990  0.591800  0.895000  1.0  -0.6892
  O  O211  1  0.542340  0.497470  0.072900  1.0  -0.9616
  O  O212  1  0.447320  0.629870  0.773800  1.0  -0.2404
  O  O213  1  0.947070  0.938850  0.284000  1.0  -0.5738
  O  O214  1  0.030500  0.979210  0.267800  1.0  -0.5662
  O  O215  1  0.018530  0.616050  0.876900  1.0  -0.5606
  O  O216  1  0.964620  0.652020  0.017400  1.0  -0.587
  O  O217  1  0.166790  0.973700  0.578900  1.0  -0.5663
  O  O218  1  0.133610  0.958270  0.776600  1.0  -0.6794
  O  O219  1  0.169500  0.882800  0.666000  1.0  -0.5659
  O  O220  1  0.030290  0.892930  0.041400  1.0  -0.7702
  O  O221  1  0.938390  0.851580  0.064200  1.0  -0.5324
  O  O222  1  0.958010  0.908200  0.895000  1.0  -0.6882
  O  O223  1  0.957660  0.002530  0.072900  1.0  -0.9618
  O  O224  1  0.052680  0.870130  0.773800  1.0  -0.2401
  O  O225  1  0.938850  0.552930  0.284000  1.0  -0.5748
  O  O226  1  0.979210  0.469500  0.267800  1.0  -0.5685
  O  O227  1  0.616050  0.481470  0.876900  1.0  -0.559
  O  O228  1  0.652020  0.535380  0.017400  1.0  -0.5868
  O  O229  1  0.973700  0.333210  0.578900  1.0  -0.572
  O  O230  1  0.958270  0.366390  0.776600  1.0  -0.6909
  O  O231  1  0.882800  0.330500  0.666000  1.0  -0.5681
  O  O232  1  0.892930  0.469710  0.041400  1.0  -0.7711
  O  O233  1  0.851580  0.561610  0.064200  1.0  -0.5348
  O  O234  1  0.908200  0.541990  0.895000  1.0  -0.6974
  O  O235  1  0.002530  0.542340  0.072900  1.0  -0.962
  O  O236  1  0.870130  0.447320  0.773800  1.0  -0.242
  O  O237  1  0.561150  0.947070  0.284000  1.0  -0.5722
  O  O238  1  0.520790  0.030500  0.267800  1.0  -0.5677
  O  O239  1  0.883950  0.018530  0.876900  1.0  -0.5592
  O  O240  1  0.847980  0.964620  0.017400  1.0  -0.589
  O  O241  1  0.526300  0.166790  0.578900  1.0  -0.5723
  O  O242  1  0.541730  0.133610  0.776600  1.0  -0.6886
  O  O243  1  0.617200  0.169500  0.666000  1.0  -0.5703
  O  O244  1  0.607070  0.030290  0.041400  1.0  -0.7721
  O  O245  1  0.648420  0.938390  0.064200  1.0  -0.5356
  O  O246  1  0.591800  0.958010  0.895000  1.0  -0.6964
  O  O247  1  0.497470  0.957660  0.072900  1.0  -0.9624
  O  O248  1  0.629870  0.052680  0.773800  1.0  -0.2411
  O  O249  1  0.447070  0.438850  0.716000  1.0  -0.5737
  O  O250  1  0.530500  0.479210  0.732200  1.0  -0.5665
  O  O251  1  0.518530  0.116050  0.123100  1.0  -0.5611
  O  O252  1  0.464620  0.152020  0.982600  1.0  -0.5861
  O  O253  1  0.666790  0.473700  0.421100  1.0  -0.566
  O  O254  1  0.633610  0.458270  0.223400  1.0  -0.6805
  O  O255  1  0.669500  0.382800  0.334000  1.0  -0.5655
  O  O256  1  0.530290  0.392930  0.958600  1.0  -0.7709
  O  O257  1  0.438390  0.351580  0.935800  1.0  -0.5323
  O  O258  1  0.458010  0.408200  0.105000  1.0  -0.6886
  O  O259  1  0.457660  0.502530  0.927100  1.0  -0.9607
  O  O260  1  0.552680  0.370130  0.226200  1.0  -0.24
  O  O261  1  0.052930  0.061150  0.716000  1.0  -0.5732
  O  O262  1  0.969500  0.020790  0.732200  1.0  -0.5677
  O  O263  1  0.981470  0.383950  0.123100  1.0  -0.5596
  O  O264  1  0.035380  0.347980  0.982600  1.0  -0.5853
  O  O265  1  0.833210  0.026300  0.421100  1.0  -0.5654
  O  O266  1  0.866390  0.041730  0.223400  1.0  -0.6833
  O  O267  1  0.830500  0.117200  0.334000  1.0  -0.5681
  O  O268  1  0.969710  0.107070  0.958600  1.0  -0.7704
  O  O269  1  0.061610  0.148420  0.935800  1.0  -0.5337
  O  O270  1  0.041990  0.091800  0.105000  1.0  -0.6905
  O  O271  1  0.042340  0.997470  0.927100  1.0  -0.9612
  O  O272  1  0.947320  0.129870  0.226200  1.0  -0.2408
  O  O273  1  0.061150  0.447070  0.716000  1.0  -0.5728
  O  O274  1  0.020790  0.530500  0.732200  1.0  -0.5679
  O  O275  1  0.383950  0.518530  0.123100  1.0  -0.5595
  O  O276  1  0.347980  0.464620  0.982600  1.0  -0.5882
  O  O277  1  0.026300  0.666790  0.421100  1.0  -0.571
  O  O278  1  0.041730  0.633610  0.223400  1.0  -0.6897
  O  O279  1  0.117200  0.669500  0.334000  1.0  -0.57
  O  O280  1  0.107070  0.530290  0.958600  1.0  -0.7736
  O  O281  1  0.148420  0.438390  0.935800  1.0  -0.5343
  O  O282  1  0.091800  0.458010  0.105000  1.0  -0.697
  O  O283  1  0.997470  0.457660  0.927100  1.0  -0.9614
  O  O284  1  0.129870  0.552680  0.226200  1.0  -0.2409
  O  O285  1  0.438850  0.052930  0.716000  1.0  -0.5748
  O  O286  1  0.479210  0.969500  0.732200  1.0  -0.5687
  O  O287  1  0.116050  0.981470  0.123100  1.0  -0.5592
  O  O288  1  0.152020  0.035380  0.982600  1.0  -0.585
  O  O289  1  0.473700  0.833210  0.421100  1.0  -0.5728
  O  O290  1  0.458270  0.866390  0.223400  1.0  -0.692
  O  O291  1  0.382800  0.830500  0.334000  1.0  -0.5682
  O  O292  1  0.392930  0.969710  0.958600  1.0  -0.7722
  O  O293  1  0.351580  0.061610  0.935800  1.0  -0.5365
  O  O294  1  0.408200  0.041990  0.105000  1.0  -0.6979
  O  O295  1  0.502530  0.042340  0.927100  1.0  -0.961
  O  O296  1  0.370130  0.947320  0.226200  1.0  -0.2426
