# generated using pymatgen
data_MnCr(CO2)6
_symmetry_space_group_name_H-M   'P 1'
_cell_length_a   17.97020000
_cell_length_b   25.07800000
_cell_length_c   27.03630000
_cell_angle_alpha   90.00000000
_cell_angle_beta   90.00000000
_cell_angle_gamma   90.00000000
_symmetry_Int_Tables_number   1
_chemical_formula_structural   MnCr(CO2)6
_chemical_formula_sum   'Mn16 Cr16 C96 O192'
_cell_volume   12184.08907852
_cell_formula_units_Z   16
loop_
 _symmetry_equiv_pos_site_id
 _symmetry_equiv_pos_as_xyz
  1  'x, y, z'
loop_
 _atom_site_type_symbol
 _atom_site_label
 _atom_site_symmetry_multiplicity
 _atom_site_fract_x
 _atom_site_fract_y
 _atom_site_fract_z
 _atom_site_occupancy
 _atom_site_charge
  Mn  Mn1  1  0.173930  0.258310  0.579540  1.0  1.101
  Mn  Mn2  1  0.173930  0.758310  0.079540  1.0  1.101
  Mn  Mn3  1  0.673930  0.258310  0.079540  1.0  1.101
  Mn  Mn4  1  0.673930  0.758310  0.579540  1.0  1.101
  Mn  Mn5  1  0.173930  0.741690  0.420460  1.0  1.0996
  Mn  Mn6  1  0.173930  0.241690  0.920460  1.0  1.0996
  Mn  Mn7  1  0.673930  0.741690  0.920460  1.0  1.0996
  Mn  Mn8  1  0.673930  0.241690  0.420460  1.0  1.0996
  Mn  Mn9  1  0.923930  0.008310  0.670460  1.0  1.1001
  Mn  Mn10  1  0.923930  0.508310  0.170460  1.0  1.1001
  Mn  Mn11  1  0.423930  0.008310  0.170460  1.0  1.1001
  Mn  Mn12  1  0.423930  0.508310  0.670460  1.0  1.1001
  Mn  Mn13  1  0.923930  0.491690  0.829540  1.0  1.1002
  Mn  Mn14  1  0.923930  0.991690  0.329540  1.0  1.1002
  Mn  Mn15  1  0.423930  0.491690  0.329540  1.0  1.1002
  Mn  Mn16  1  0.423930  0.991690  0.829540  1.0  1.1002
  Cr  Cr17  1  0.897080  0.176880  0.544150  1.0  1.2963
  Cr  Cr18  1  0.897080  0.676880  0.044150  1.0  1.2963
  Cr  Cr19  1  0.397080  0.176880  0.044150  1.0  1.2963
  Cr  Cr20  1  0.397080  0.676880  0.544150  1.0  1.2963
  Cr  Cr21  1  0.897080  0.823120  0.455850  1.0  1.2954
  Cr  Cr22  1  0.897080  0.323120  0.955850  1.0  1.2954
  Cr  Cr23  1  0.397080  0.823120  0.955850  1.0  1.2954
  Cr  Cr24  1  0.397080  0.323120  0.455850  1.0  1.2954
  Cr  Cr25  1  0.647080  0.926880  0.705850  1.0  1.2948
  Cr  Cr26  1  0.647080  0.426880  0.205850  1.0  1.2948
  Cr  Cr27  1  0.147080  0.926880  0.205850  1.0  1.2948
  Cr  Cr28  1  0.147080  0.426880  0.705850  1.0  1.2948
  Cr  Cr29  1  0.647080  0.573120  0.794150  1.0  1.2968
  Cr  Cr30  1  0.647080  0.073120  0.294150  1.0  1.2968
  Cr  Cr31  1  0.147080  0.573120  0.294150  1.0  1.2968
  Cr  Cr32  1  0.147080  0.073120  0.794150  1.0  1.2968
  C  C33  1  0.011500  0.246800  0.552500  1.0  0.597
  C  C34  1  0.045600  0.190900  0.546100  1.0  0.5979
  C  C35  1  0.161000  0.368200  0.621200  1.0  0.5647
  C  C36  1  0.138100  0.329100  0.662900  1.0  0.584
  C  C37  1  0.816900  0.207100  0.463000  1.0  0.5839
  C  C38  1  0.765700  0.214900  0.506900  1.0  0.6129
  C  C39  1  0.011500  0.746800  0.052500  1.0  0.597
  C  C40  1  0.045600  0.690900  0.046100  1.0  0.5979
  C  C41  1  0.161000  0.868200  0.121200  1.0  0.5647
  C  C42  1  0.138100  0.829100  0.162900  1.0  0.584
  C  C43  1  0.816900  0.707100  0.963000  1.0  0.5839
  C  C44  1  0.765700  0.714900  0.006900  1.0  0.6129
  C  C45  1  0.511500  0.246800  0.052500  1.0  0.597
  C  C46  1  0.545600  0.190900  0.046100  1.0  0.5979
  C  C47  1  0.661000  0.368200  0.121200  1.0  0.5647
  C  C48  1  0.638100  0.329100  0.162900  1.0  0.584
  C  C49  1  0.316900  0.207100  0.963000  1.0  0.5839
  C  C50  1  0.265700  0.214900  0.006900  1.0  0.6129
  C  C51  1  0.511500  0.746800  0.552500  1.0  0.597
  C  C52  1  0.545600  0.690900  0.546100  1.0  0.5979
  C  C53  1  0.661000  0.868200  0.621200  1.0  0.5647
  C  C54  1  0.638100  0.829100  0.662900  1.0  0.584
  C  C55  1  0.316900  0.707100  0.463000  1.0  0.5839
  C  C56  1  0.265700  0.714900  0.506900  1.0  0.6129
  C  C57  1  0.011500  0.753200  0.447500  1.0  0.5987
  C  C58  1  0.045600  0.809100  0.453900  1.0  0.598
  C  C59  1  0.161000  0.631800  0.378800  1.0  0.5649
  C  C60  1  0.138100  0.670900  0.337100  1.0  0.5834
  C  C61  1  0.816900  0.792900  0.537000  1.0  0.5877
  C  C62  1  0.765700  0.785100  0.493100  1.0  0.6128
  C  C63  1  0.011500  0.253200  0.947500  1.0  0.5987
  C  C64  1  0.045600  0.309100  0.953900  1.0  0.598
  C  C65  1  0.161000  0.131800  0.878800  1.0  0.5649
  C  C66  1  0.138100  0.170900  0.837100  1.0  0.5834
  C  C67  1  0.816900  0.292900  0.037000  1.0  0.5877
  C  C68  1  0.765700  0.285100  0.993100  1.0  0.6128
  C  C69  1  0.511500  0.753200  0.947500  1.0  0.5987
  C  C70  1  0.545600  0.809100  0.953900  1.0  0.598
  C  C71  1  0.661000  0.631800  0.878800  1.0  0.5649
  C  C72  1  0.638100  0.670900  0.837100  1.0  0.5834
  C  C73  1  0.316900  0.792900  0.037000  1.0  0.5877
  C  C74  1  0.265700  0.785100  0.993100  1.0  0.6128
  C  C75  1  0.511500  0.253200  0.447500  1.0  0.5987
  C  C76  1  0.545600  0.309100  0.453900  1.0  0.598
  C  C77  1  0.661000  0.131800  0.378800  1.0  0.5649
  C  C78  1  0.638100  0.170900  0.337100  1.0  0.5834
  C  C79  1  0.316900  0.292900  0.537000  1.0  0.5877
  C  C80  1  0.265700  0.285100  0.493100  1.0  0.6128
  C  C81  1  0.761500  0.996800  0.697500  1.0  0.5972
  C  C82  1  0.795600  0.940900  0.703900  1.0  0.5982
  C  C83  1  0.911000  0.118200  0.628800  1.0  0.559
  C  C84  1  0.888100  0.079100  0.587100  1.0  0.5834
  C  C85  1  0.566900  0.957100  0.787000  1.0  0.5868
  C  C86  1  0.515700  0.964900  0.743100  1.0  0.6148
  C  C87  1  0.761500  0.496800  0.197500  1.0  0.5972
  C  C88  1  0.795600  0.440900  0.203900  1.0  0.5982
  C  C89  1  0.911000  0.618200  0.128800  1.0  0.559
  C  C90  1  0.888100  0.579100  0.087100  1.0  0.5834
  C  C91  1  0.566900  0.457100  0.287000  1.0  0.5868
  C  C92  1  0.515700  0.464900  0.243100  1.0  0.6148
  C  C93  1  0.261500  0.996800  0.197500  1.0  0.5972
  C  C94  1  0.295600  0.940900  0.203900  1.0  0.5982
  C  C95  1  0.411000  0.118200  0.128800  1.0  0.559
  C  C96  1  0.388100  0.079100  0.087100  1.0  0.5834
  C  C97  1  0.066900  0.957100  0.287000  1.0  0.5868
  C  C98  1  0.015700  0.964900  0.243100  1.0  0.6148
  C  C99  1  0.261500  0.496800  0.697500  1.0  0.5972
  C  C100  1  0.295600  0.440900  0.703900  1.0  0.5982
  C  C101  1  0.411000  0.618200  0.628800  1.0  0.559
  C  C102  1  0.388100  0.579100  0.587100  1.0  0.5834
  C  C103  1  0.066900  0.457100  0.787000  1.0  0.5868
  C  C104  1  0.015700  0.464900  0.743100  1.0  0.6148
  C  C105  1  0.761500  0.503200  0.802500  1.0  0.5984
  C  C106  1  0.795600  0.559100  0.796100  1.0  0.5981
  C  C107  1  0.911000  0.381800  0.871200  1.0  0.5602
  C  C108  1  0.888100  0.420900  0.912900  1.0  0.5812
  C  C109  1  0.566900  0.542900  0.713000  1.0  0.5842
  C  C110  1  0.515700  0.535100  0.756900  1.0  0.6115
  C  C111  1  0.761500  0.003200  0.302500  1.0  0.5984
  C  C112  1  0.795600  0.059100  0.296100  1.0  0.5981
  C  C113  1  0.911000  0.881800  0.371200  1.0  0.5602
  C  C114  1  0.888100  0.920900  0.412900  1.0  0.5812
  C  C115  1  0.566900  0.042900  0.213000  1.0  0.5842
  C  C116  1  0.515700  0.035100  0.256900  1.0  0.6115
  C  C117  1  0.261500  0.503200  0.302500  1.0  0.5984
  C  C118  1  0.295600  0.559100  0.296100  1.0  0.5981
  C  C119  1  0.411000  0.381800  0.371200  1.0  0.5602
  C  C120  1  0.388100  0.420900  0.412900  1.0  0.5812
  C  C121  1  0.066900  0.542900  0.213000  1.0  0.5842
  C  C122  1  0.015700  0.535100  0.256900  1.0  0.6115
  C  C123  1  0.261500  0.003200  0.802500  1.0  0.5984
  C  C124  1  0.295600  0.059100  0.796100  1.0  0.5981
  C  C125  1  0.411000  0.881800  0.871200  1.0  0.5602
  C  C126  1  0.388100  0.920900  0.912900  1.0  0.5812
  C  C127  1  0.066900  0.042900  0.713000  1.0  0.5842
  C  C128  1  0.015700  0.035100  0.756900  1.0  0.6115
  O  O129  1  0.053600  0.283600  0.563010  1.0  -0.4881
  O  O130  1  0.114300  0.186100  0.550800  1.0  -0.5178
  O  O131  1  0.941500  0.248600  0.548510  1.0  -0.5161
  O  O132  1  0.001400  0.153980  0.535670  1.0  -0.4984
  O  O133  1  0.178600  0.351180  0.580770  1.0  -0.4651
  O  O134  1  0.139900  0.281800  0.653860  1.0  -0.4897
  O  O135  1  0.159300  0.417800  0.634060  1.0  -0.5143
  O  O136  1  0.118400  0.351010  0.703170  1.0  -0.5348
  O  O137  1  0.796200  0.221600  0.421830  1.0  -0.4742
  O  O138  1  0.702600  0.231600  0.499690  1.0  -0.4619
  O  O139  1  0.880100  0.185500  0.472460  1.0  -0.5
  O  O140  1  0.793300  0.202400  0.548980  1.0  -0.4763
  O  O141  1  0.053600  0.783600  0.063010  1.0  -0.4881
  O  O142  1  0.114300  0.686100  0.050800  1.0  -0.5178
  O  O143  1  0.941500  0.748600  0.048510  1.0  -0.5173
  O  O144  1  0.001400  0.653980  0.035670  1.0  -0.4984
  O  O145  1  0.178600  0.851180  0.080770  1.0  -0.4651
  O  O146  1  0.139900  0.781800  0.153860  1.0  -0.4897
  O  O147  1  0.159300  0.917800  0.134060  1.0  -0.5143
  O  O148  1  0.118400  0.851010  0.203170  1.0  -0.5348
  O  O149  1  0.796200  0.721600  0.921830  1.0  -0.4742
  O  O150  1  0.702600  0.731600  0.999690  1.0  -0.4619
  O  O151  1  0.880100  0.685500  0.972460  1.0  -0.5
  O  O152  1  0.793300  0.702400  0.048980  1.0  -0.4763
  O  O153  1  0.553600  0.283600  0.063010  1.0  -0.4881
  O  O154  1  0.614300  0.186100  0.050800  1.0  -0.5178
  O  O155  1  0.441500  0.248600  0.048510  1.0  -0.5161
  O  O156  1  0.501400  0.153980  0.035670  1.0  -0.4984
  O  O157  1  0.678600  0.351180  0.080770  1.0  -0.4651
  O  O158  1  0.639900  0.281800  0.153860  1.0  -0.4897
  O  O159  1  0.659300  0.417800  0.134060  1.0  -0.5143
  O  O160  1  0.618400  0.351010  0.203170  1.0  -0.5348
  O  O161  1  0.296200  0.221600  0.921830  1.0  -0.4742
  O  O162  1  0.202600  0.231600  0.999690  1.0  -0.4619
  O  O163  1  0.380100  0.185500  0.972460  1.0  -0.5
  O  O164  1  0.293300  0.202400  0.048980  1.0  -0.4763
  O  O165  1  0.553600  0.783600  0.563010  1.0  -0.4881
  O  O166  1  0.614300  0.686100  0.550800  1.0  -0.5178
  O  O167  1  0.441500  0.748600  0.548510  1.0  -0.5161
  O  O168  1  0.501400  0.653980  0.535670  1.0  -0.4984
  O  O169  1  0.678600  0.851180  0.580770  1.0  -0.4651
  O  O170  1  0.639900  0.781800  0.653860  1.0  -0.4897
  O  O171  1  0.659300  0.917800  0.634060  1.0  -0.5143
  O  O172  1  0.618400  0.851010  0.703170  1.0  -0.5348
  O  O173  1  0.296200  0.721600  0.421830  1.0  -0.4742
  O  O174  1  0.202600  0.731600  0.499690  1.0  -0.4619
  O  O175  1  0.380100  0.685500  0.472460  1.0  -0.5
  O  O176  1  0.293300  0.702400  0.548980  1.0  -0.4763
  O  O177  1  0.053600  0.716400  0.436990  1.0  -0.4863
  O  O178  1  0.114300  0.813900  0.449200  1.0  -0.5157
  O  O179  1  0.941500  0.751400  0.451490  1.0  -0.5173
  O  O180  1  0.001400  0.846020  0.464330  1.0  -0.4994
  O  O181  1  0.178600  0.648820  0.419230  1.0  -0.4658
  O  O182  1  0.139900  0.718200  0.346140  1.0  -0.4887
  O  O183  1  0.159300  0.582200  0.365940  1.0  -0.5138
  O  O184  1  0.118400  0.648990  0.296830  1.0  -0.535
  O  O185  1  0.796200  0.778400  0.578170  1.0  -0.4776
  O  O186  1  0.702600  0.768400  0.500310  1.0  -0.4602
  O  O187  1  0.880100  0.814500  0.527540  1.0  -0.5004
  O  O188  1  0.793300  0.797600  0.451020  1.0  -0.4757
  O  O189  1  0.053600  0.216400  0.936990  1.0  -0.4863
  O  O190  1  0.114300  0.313900  0.949200  1.0  -0.5157
  O  O191  1  0.941500  0.251400  0.951490  1.0  -0.5189
  O  O192  1  0.001400  0.346020  0.964330  1.0  -0.4994
  O  O193  1  0.178600  0.148820  0.919230  1.0  -0.4658
  O  O194  1  0.139900  0.218200  0.846140  1.0  -0.4887
  O  O195  1  0.159300  0.082200  0.865940  1.0  -0.5138
  O  O196  1  0.118400  0.148990  0.796830  1.0  -0.535
  O  O197  1  0.796200  0.278400  0.078170  1.0  -0.4776
  O  O198  1  0.702600  0.268400  0.000310  1.0  -0.4602
  O  O199  1  0.880100  0.314500  0.027540  1.0  -0.5004
  O  O200  1  0.793300  0.297600  0.951020  1.0  -0.4757
  O  O201  1  0.553600  0.716400  0.936990  1.0  -0.4863
  O  O202  1  0.614300  0.813900  0.949200  1.0  -0.5157
  O  O203  1  0.441500  0.751400  0.951490  1.0  -0.5173
  O  O204  1  0.501400  0.846020  0.964330  1.0  -0.4994
  O  O205  1  0.678600  0.648820  0.919230  1.0  -0.4658
  O  O206  1  0.639900  0.718200  0.846140  1.0  -0.4887
  O  O207  1  0.659300  0.582200  0.865940  1.0  -0.5138
  O  O208  1  0.618400  0.648990  0.796830  1.0  -0.535
  O  O209  1  0.296200  0.778400  0.078170  1.0  -0.4776
  O  O210  1  0.202600  0.768400  0.000310  1.0  -0.4602
  O  O211  1  0.380100  0.814500  0.027540  1.0  -0.5004
  O  O212  1  0.293300  0.797600  0.951020  1.0  -0.4757
  O  O213  1  0.553600  0.216400  0.436990  1.0  -0.4863
  O  O214  1  0.614300  0.313900  0.449200  1.0  -0.5157
  O  O215  1  0.441500  0.251400  0.451490  1.0  -0.5173
  O  O216  1  0.501400  0.346020  0.464330  1.0  -0.4994
  O  O217  1  0.678600  0.148820  0.419230  1.0  -0.4658
  O  O218  1  0.639900  0.218200  0.346140  1.0  -0.4887
  O  O219  1  0.659300  0.082200  0.365940  1.0  -0.5138
  O  O220  1  0.618400  0.148990  0.296830  1.0  -0.535
  O  O221  1  0.296200  0.278400  0.578170  1.0  -0.4776
  O  O222  1  0.202600  0.268400  0.500310  1.0  -0.4602
  O  O223  1  0.380100  0.314500  0.527540  1.0  -0.5004
  O  O224  1  0.293300  0.297600  0.451020  1.0  -0.4757
  O  O225  1  0.803600  0.033600  0.686990  1.0  -0.4881
  O  O226  1  0.864300  0.936100  0.699200  1.0  -0.5176
  O  O227  1  0.691500  0.998600  0.701490  1.0  -0.5151
  O  O228  1  0.751400  0.903980  0.714330  1.0  -0.4998
  O  O229  1  0.928600  0.101180  0.669230  1.0  -0.4666
  O  O230  1  0.889900  0.031800  0.596140  1.0  -0.4879
  O  O231  1  0.909300  0.167800  0.615940  1.0  -0.5132
  O  O232  1  0.868400  0.101010  0.546830  1.0  -0.5348
  O  O233  1  0.546200  0.971600  0.828170  1.0  -0.4752
  O  O234  1  0.452600  0.981600  0.750310  1.0  -0.4605
  O  O235  1  0.630100  0.935500  0.777540  1.0  -0.5001
  O  O236  1  0.543300  0.952400  0.701020  1.0  -0.4752
  O  O237  1  0.803600  0.533600  0.186990  1.0  -0.4881
  O  O238  1  0.864300  0.436100  0.199200  1.0  -0.5176
  O  O239  1  0.691500  0.498600  0.201490  1.0  -0.5151
  O  O240  1  0.751400  0.403980  0.214330  1.0  -0.4998
  O  O241  1  0.928600  0.601180  0.169230  1.0  -0.4666
  O  O242  1  0.889900  0.531800  0.096140  1.0  -0.4879
  O  O243  1  0.909300  0.667800  0.115940  1.0  -0.5132
  O  O244  1  0.868400  0.601010  0.046830  1.0  -0.5348
  O  O245  1  0.546200  0.471600  0.328170  1.0  -0.4752
  O  O246  1  0.452600  0.481600  0.250310  1.0  -0.4605
  O  O247  1  0.630100  0.435500  0.277540  1.0  -0.5001
  O  O248  1  0.543300  0.452400  0.201020  1.0  -0.4752
  O  O249  1  0.303600  0.033600  0.186990  1.0  -0.4881
  O  O250  1  0.364300  0.936100  0.199200  1.0  -0.5176
  O  O251  1  0.191500  0.998600  0.201490  1.0  -0.5151
  O  O252  1  0.251400  0.903980  0.214330  1.0  -0.4998
  O  O253  1  0.428600  0.101180  0.169230  1.0  -0.4666
  O  O254  1  0.389900  0.031800  0.096140  1.0  -0.4879
  O  O255  1  0.409300  0.167800  0.115940  1.0  -0.5132
  O  O256  1  0.368400  0.101010  0.046830  1.0  -0.5348
  O  O257  1  0.046200  0.971600  0.328170  1.0  -0.4752
  O  O258  1  0.952600  0.981600  0.250310  1.0  -0.4605
  O  O259  1  0.130100  0.935500  0.277540  1.0  -0.5001
  O  O260  1  0.043300  0.952400  0.201020  1.0  -0.4811
  O  O261  1  0.303600  0.533600  0.686990  1.0  -0.4881
  O  O262  1  0.364300  0.436100  0.699200  1.0  -0.5176
  O  O263  1  0.191500  0.498600  0.701490  1.0  -0.5151
  O  O264  1  0.251400  0.403980  0.714330  1.0  -0.4998
  O  O265  1  0.428600  0.601180  0.669230  1.0  -0.4666
  O  O266  1  0.389900  0.531800  0.596140  1.0  -0.4879
  O  O267  1  0.409300  0.667800  0.615940  1.0  -0.5132
  O  O268  1  0.368400  0.601010  0.546830  1.0  -0.5348
  O  O269  1  0.046200  0.471600  0.828170  1.0  -0.4752
  O  O270  1  0.952600  0.481600  0.750310  1.0  -0.4605
  O  O271  1  0.130100  0.435500  0.777540  1.0  -0.5001
  O  O272  1  0.043300  0.452400  0.701020  1.0  -0.4752
  O  O273  1  0.803600  0.466400  0.813010  1.0  -0.4863
  O  O274  1  0.864300  0.563900  0.800800  1.0  -0.5163
  O  O275  1  0.691500  0.501400  0.798510  1.0  -0.5167
  O  O276  1  0.751400  0.596020  0.785670  1.0  -0.4981
  O  O277  1  0.928600  0.398820  0.830770  1.0  -0.4652
  O  O278  1  0.889900  0.468200  0.903860  1.0  -0.4889
  O  O279  1  0.909300  0.332200  0.884060  1.0  -0.5138
  O  O280  1  0.868400  0.398990  0.953170  1.0  -0.535
  O  O281  1  0.546200  0.528400  0.671830  1.0  -0.4755
  O  O282  1  0.452600  0.518400  0.749690  1.0  -0.4619
  O  O283  1  0.630100  0.564500  0.722460  1.0  -0.4991
  O  O284  1  0.543300  0.547600  0.798980  1.0  -0.476
  O  O285  1  0.803600  0.966400  0.313010  1.0  -0.4863
  O  O286  1  0.864300  0.063900  0.300800  1.0  -0.5163
  O  O287  1  0.691500  0.001400  0.298510  1.0  -0.5167
  O  O288  1  0.751400  0.096020  0.285670  1.0  -0.4981
  O  O289  1  0.928600  0.898820  0.330770  1.0  -0.4652
  O  O290  1  0.889900  0.968200  0.403860  1.0  -0.4889
  O  O291  1  0.909300  0.832200  0.384060  1.0  -0.5138
  O  O292  1  0.868400  0.898990  0.453170  1.0  -0.535
  O  O293  1  0.546200  0.028400  0.171830  1.0  -0.4755
  O  O294  1  0.452600  0.018400  0.249690  1.0  -0.4619
  O  O295  1  0.630100  0.064500  0.222460  1.0  -0.4991
  O  O296  1  0.543300  0.047600  0.298980  1.0  -0.476
  O  O297  1  0.303600  0.466400  0.313010  1.0  -0.4863
  O  O298  1  0.364300  0.563900  0.300800  1.0  -0.5163
  O  O299  1  0.191500  0.501400  0.298510  1.0  -0.5167
  O  O300  1  0.251400  0.596020  0.285670  1.0  -0.4981
  O  O301  1  0.428600  0.398820  0.330770  1.0  -0.4652
  O  O302  1  0.389900  0.468200  0.403860  1.0  -0.4889
  O  O303  1  0.409300  0.332200  0.384060  1.0  -0.5138
  O  O304  1  0.368400  0.398990  0.453170  1.0  -0.535
  O  O305  1  0.046200  0.528400  0.171830  1.0  -0.4755
  O  O306  1  0.952600  0.518400  0.249690  1.0  -0.4619
  O  O307  1  0.130100  0.564500  0.222460  1.0  -0.4991
  O  O308  1  0.043300  0.547600  0.298980  1.0  -0.476
  O  O309  1  0.303600  0.966400  0.813010  1.0  -0.4863
  O  O310  1  0.364300  0.063900  0.800800  1.0  -0.5163
  O  O311  1  0.191500  0.001400  0.798510  1.0  -0.5167
  O  O312  1  0.251400  0.096020  0.785670  1.0  -0.4981
  O  O313  1  0.428600  0.898820  0.830770  1.0  -0.4652
  O  O314  1  0.389900  0.968200  0.903860  1.0  -0.4889
  O  O315  1  0.409300  0.832200  0.884060  1.0  -0.5138
  O  O316  1  0.368400  0.898990  0.953170  1.0  -0.535
  O  O317  1  0.046200  0.028400  0.671830  1.0  -0.4755
  O  O318  1  0.952600  0.018400  0.749690  1.0  -0.4619
  O  O319  1  0.130100  0.064500  0.722460  1.0  -0.4991
  O  O320  1  0.043300  0.047600  0.798980  1.0  -0.4825
