# generated using pymatgen
data_Mn5Cr6Fe4H112C114(N20O39)2
_symmetry_space_group_name_H-M   'P 1'
_cell_length_a   14.14280000
_cell_length_b   20.38260000
_cell_length_c   21.12900000
_cell_angle_alpha   115.25600000
_cell_angle_beta   109.55300000
_cell_angle_gamma   90.00000000
_symmetry_Int_Tables_number   1
_chemical_formula_structural   Mn5Cr6Fe4H112C114(N20O39)2
_chemical_formula_sum   'Mn5 Cr6 Fe4 H112 C114 N40 O78'
_cell_volume   5117.53036027
_cell_formula_units_Z   1
loop_
 _symmetry_equiv_pos_site_id
 _symmetry_equiv_pos_as_xyz
  1  'x, y, z'
loop_
 _atom_site_type_symbol
 _atom_site_label
 _atom_site_symmetry_multiplicity
 _atom_site_fract_x
 _atom_site_fract_y
 _atom_site_fract_z
 _atom_site_occupancy
 _atom_site_charge
  Mn  Mn1  1  0.972120  0.678190  0.596460  1.0  1.0495
  Mn  Mn2  1  0.193650  0.850040  0.318460  1.0  1.0277
  Mn  Mn3  1  0.375660  0.321810  0.403540  1.0  1.0499
  Mn  Mn4  1  0.875190  0.149960  0.681540  1.0  1.0284
  Mn  Mn5  1  0.722080  0.000000  0.000000  1.0  1.1011
  Cr  Cr6  1  0.665060  0.454910  0.358200  1.0  1.4734
  Cr  Cr7  1  0.008350  0.902420  0.520500  1.0  1.3923
  Cr  Cr8  1  0.946060  0.789910  0.028220  1.0  1.4031
  Cr  Cr9  1  0.306860  0.545090  0.641800  1.0  1.4746
  Cr  Cr10  1  0.487850  0.097580  0.479500  1.0  1.3891
  Cr  Cr11  1  0.917840  0.210090  0.971780  1.0  1.4025
  Fe  Fe12  1  0.539060  0.786790  0.626200  1.0  0.5994
  Fe  Fe13  1  0.608660  0.736700  0.204880  1.0  0.6943
  Fe  Fe14  1  0.912860  0.213210  0.373800  1.0  0.5994
  Fe  Fe15  1  0.403780  0.263300  0.795120  1.0  0.6973
  H  H16  1  0.893700  0.744200  0.780200  1.0  0.1268
  H  H17  1  0.931400  0.667900  0.742600  1.0  0.1211
  H  H18  1  0.825200  0.683100  0.697200  1.0  0.1155
  H  H19  1  0.348400  0.683800  0.322200  1.0  0.1094
  H  H20  1  0.336300  0.749900  0.393800  1.0  0.0955
  H  H21  1  0.399900  0.766300  0.350600  1.0  0.1115
  H  H22  1  0.441100  0.905900  0.840400  1.0  0.1026
  H  H23  1  0.515100  0.965800  0.841200  1.0  0.1428
  H  H24  1  0.469600  0.988600  0.906200  1.0  0.1406
  H  H25  1  0.113500  0.255800  0.219800  1.0  0.1287
  H  H26  1  0.188800  0.332100  0.257400  1.0  0.1212
  H  H27  1  0.128000  0.316900  0.302800  1.0  0.1132
  H  H28  1  0.026200  0.316200  0.677800  1.0  0.1116
  H  H29  1  0.942500  0.250100  0.606200  1.0  0.0955
  H  H30  1  0.049300  0.233700  0.649400  1.0  0.1126
  H  H31  1  0.600700  0.094100  0.159600  1.0  0.1034
  H  H32  1  0.673900  0.034200  0.158800  1.0  0.1431
  H  H33  1  0.563400  0.011400  0.093800  1.0  0.1394
  H  H34  1  0.631500  0.946900  0.551600  1.0  0.0775
  H  H35  1  0.581600  0.980200  0.613800  1.0  0.0764
  H  H36  1  0.458000  0.891100  0.505400  1.0  0.0852
  H  H37  1  0.533100  0.831600  0.498000  1.0  0.0862
  H  H38  1  0.355600  0.901100  0.570400  1.0  0.1171
  H  H39  1  0.231600  0.883200  0.652200  1.0  0.1267
  H  H40  1  0.408000  0.753500  0.719800  1.0  0.1038
  H  H41  1  0.717400  0.016900  0.725000  1.0  0.0798
  H  H42  1  0.783000  0.957300  0.739800  1.0  0.0865
  H  H43  1  0.662500  0.973700  0.798000  1.0  0.0863
  H  H44  1  0.571400  0.956000  0.720400  1.0  0.083
  H  H45  1  0.712700  0.888000  0.827000  1.0  0.1439
  H  H46  1  0.724400  0.752200  0.848400  1.0  0.1223
  H  H47  1  0.541200  0.620400  0.630000  1.0  0.118
  H  H48  1  0.823100  0.899500  0.634000  1.0  0.076
  H  H49  1  0.734000  0.858900  0.553000  1.0  0.0709
  H  H50  1  0.792700  0.770800  0.592000  1.0  0.0785
  H  H51  1  0.775900  0.814900  0.669800  1.0  0.1024
  H  H52  1  0.661700  0.688500  0.491800  1.0  0.1124
  H  H53  1  0.483900  0.576800  0.387200  1.0  0.1264
  H  H54  1  0.316400  0.662700  0.519400  1.0  0.1284
  H  H55  1  0.256700  0.811800  0.726200  1.0  0.3078
  H  H56  1  0.636000  0.625000  0.749200  1.0  0.2399
  H  H57  1  0.325500  0.565400  0.401000  1.0  0.2204
  H  H58  1  0.562500  0.978400  0.265800  1.0  0.0727
  H  H59  1  0.516400  0.929900  0.295000  1.0  0.0663
  H  H60  1  0.552000  0.868400  0.154600  1.0  0.0945
  H  H61  1  0.441000  0.874700  0.159000  1.0  0.1289
  H  H62  1  0.358300  0.790600  0.152800  1.0  0.1445
  H  H63  1  0.252900  0.671700  0.157600  1.0  0.1426
  H  H64  1  0.519100  0.577500  0.209000  1.0  0.1175
  H  H65  1  0.748100  0.975100  0.290600  1.0  0.0843
  H  H66  1  0.665500  0.912700  0.213600  1.0  0.0949
  H  H67  1  0.860300  0.866900  0.252600  1.0  0.1338
  H  H68  1  0.791100  0.792300  0.131000  1.0  0.1073
  H  H69  1  0.678500  0.673500  0.968200  1.0  0.1837
  H  H70  1  0.476700  0.592500  0.025000  1.0  0.0991
  H  H71  1  0.646800  0.961600  0.398600  1.0  0.0782
  H  H72  1  0.748000  0.927200  0.398400  1.0  0.0979
  H  H73  1  0.553300  0.851800  0.348400  1.0  0.0853
  H  H74  1  0.649700  0.860100  0.419200  1.0  0.0818
  H  H75  1  0.741700  0.771600  0.407000  1.0  0.109
  H  H76  1  0.841400  0.639600  0.363400  1.0  0.1173
  H  H77  1  0.715000  0.578800  0.142800  1.0  0.1244
  H  H78  1  0.336400  0.551200  0.163400  1.0  0.2696
  H  H79  1  0.522300  0.579600  0.925600  1.0  0.3367
  H  H80  1  0.843300  0.558600  0.244800  1.0  0.2457
  H  H81  1  0.079900  0.053100  0.448400  1.0  0.0784
  H  H82  1  0.967800  0.019800  0.386200  1.0  0.0761
  H  H83  1  0.952600  0.108900  0.494600  1.0  0.0828
  H  H84  1  0.035100  0.168400  0.502000  1.0  0.0868
  H  H85  1  0.785200  0.098900  0.429600  1.0  0.1184
  H  H86  1  0.579400  0.116800  0.347800  1.0  0.1281
  H  H87  1  0.688200  0.246500  0.280200  1.0  0.1048
  H  H88  1  0.992400  0.983100  0.275000  1.0  0.0811
  H  H89  1  0.043200  0.042700  0.260200  1.0  0.0879
  H  H90  1  0.864500  0.026300  0.202000  1.0  0.085
  H  H91  1  0.851000  0.044000  0.279600  1.0  0.0821
  H  H92  1  0.885700  0.112000  0.173000  1.0  0.1447
  H  H93  1  0.876000  0.247800  0.151600  1.0  0.1219
  H  H94  1  0.911200  0.379600  0.370000  1.0  0.1179
  H  H95  1  0.189100  0.100500  0.366000  1.0  0.0731
  H  H96  1  0.181000  0.141100  0.447000  1.0  0.0682
  H  H97  1  0.200700  0.229200  0.408000  1.0  0.0804
  H  H98  1  0.106100  0.185100  0.330200  1.0  0.1046
  H  H99  1  0.169900  0.311500  0.508200  1.0  0.111
  H  H100  1  0.096700  0.423200  0.612800  1.0  0.1269
  H  H101  1  0.797000  0.337300  0.480600  1.0  0.1293
  H  H102  1  0.530500  0.188200  0.273800  1.0  0.3079
  H  H103  1  0.886800  0.375000  0.250800  1.0  0.2388
  H  H104  1  0.924500  0.434600  0.599000  1.0  0.222
  H  H105  1  0.296700  0.021600  0.734200  1.0  0.0737
  H  H106  1  0.221400  0.070100  0.705000  1.0  0.0709
  H  H107  1  0.397400  0.131600  0.845400  1.0  0.0929
  H  H108  1  0.282000  0.125300  0.841000  1.0  0.1284
  H  H109  1  0.205500  0.209400  0.847200  1.0  0.1466
  H  H110  1  0.095300  0.328300  0.842400  1.0  0.1419
  H  H111  1  0.310100  0.422500  0.791000  1.0  0.1188
  H  H112  1  0.457500  0.024900  0.709400  1.0  0.0834
  H  H113  1  0.451900  0.087300  0.786400  1.0  0.0974
  H  H114  1  0.607700  0.133100  0.747400  1.0  0.1325
  H  H115  1  0.660100  0.207700  0.869000  1.0  0.1072
  H  H116  1  0.710300  0.326500  0.031800  1.0  0.1813
  H  H117  1  0.451700  0.407500  0.975000  1.0  0.0992
  H  H118  1  0.248200  0.038400  0.601400  1.0  0.0746
  H  H119  1  0.349600  0.072800  0.601600  1.0  0.1024
  H  H120  1  0.204900  0.148200  0.651600  1.0  0.0857
  H  H121  1  0.230500  0.139900  0.580800  1.0  0.0824
  H  H122  1  0.334700  0.228400  0.593000  1.0  0.1091
  H  H123  1  0.478000  0.360400  0.636600  1.0  0.1171
  H  H124  1  0.572200  0.421200  0.857200  1.0  0.1238
  H  H125  1  0.173000  0.448800  0.836600  1.0  0.2699
  H  H126  1  0.596700  0.420400  0.074400  1.0  0.3358
  H  H127  1  0.598500  0.441400  0.755200  1.0  0.2452
  C  C128  1  0.638000  0.461100  0.229600  1.0  0.67
  C  C129  1  0.648400  0.381600  0.206600  1.0  0.5669
  C  C130  1  0.777700  0.573300  0.490200  1.0  0.6976
  C  C131  1  0.854800  0.535800  0.459800  1.0  0.5848
  C  C132  1  0.953400  0.770900  0.516200  1.0  0.6497
  C  C133  1  0.019300  0.825100  0.599200  1.0  0.659
  C  C134  1  0.047200  0.881900  0.395200  1.0  0.6655
  C  C135  1  0.144100  0.870700  0.449200  1.0  0.6602
  C  C136  1  0.042600  0.775600  0.157600  1.0  0.601
  C  C137  1  0.092100  0.854700  0.169600  1.0  0.5631
  C  C138  1  0.814100  0.890200  0.042400  1.0  0.6041
  C  C139  1  0.854200  0.887200  0.981600  1.0  0.6444
  C  C140  1  0.167800  0.626500  0.599200  1.0  0.6141
  C  C141  1  0.128800  0.597200  0.644600  1.0  0.6592
  C  C142  1  0.386900  0.956900  0.393600  1.0  0.62
  C  C143  1  0.309000  0.001500  0.422200  1.0  0.6332
  C  C144  1  0.005200  0.680400  0.927200  1.0  0.5904
  C  C145  1  0.888200  0.659000  0.893000  1.0  0.5852
  C  C146  1  0.895100  0.705600  0.732800  1.0  -0.0685
  C  C147  1  0.340800  0.735700  0.344400  1.0  -0.0052
  C  C148  1  0.495000  0.949100  0.872800  1.0  -0.1538
  C  C149  1  0.408400  0.538900  0.770400  1.0  0.6692
  C  C150  1  0.441800  0.618400  0.793400  1.0  0.5653
  C  C151  1  0.287500  0.426700  0.509800  1.0  0.6971
  C  C152  1  0.395000  0.464200  0.540200  1.0  0.5844
  C  C153  1  0.437200  0.229100  0.483800  1.0  0.6505
  C  C154  1  0.420100  0.174900  0.400800  1.0  0.6579
  C  C155  1  0.652000  0.118100  0.604800  1.0  0.6705
  C  C156  1  0.694900  0.129300  0.550800  1.0  0.6611
  C  C157  1  0.885000  0.224400  0.842400  1.0  0.6006
  C  C158  1  0.922500  0.145300  0.830400  1.0  0.5623
  C  C159  1  0.771700  0.109800  0.957600  1.0  0.6009
  C  C160  1  0.872600  0.112800  0.018400  1.0  0.6409
  C  C161  1  0.568600  0.373500  0.400800  1.0  0.6082
  C  C162  1  0.484200  0.402800  0.355400  1.0  0.6574
  C  C163  1  0.993300  0.043100  0.606400  1.0  0.6205
  C  C164  1  0.886800  0.998500  0.577800  1.0  0.6334
  C  C165  1  0.078000  0.319600  0.072800  1.0  0.5904
  C  C166  1  0.995200  0.341000  0.107000  1.0  0.5851
  C  C167  1  0.162300  0.294400  0.267200  1.0  -0.0694
  C  C168  1  0.996400  0.264300  0.655600  1.0  -0.0057
  C  C169  1  0.622200  0.050900  0.127200  1.0  -0.157
  C  C170  1  0.605200  0.935600  0.584400  1.0  -0.0061
  C  C171  1  0.513800  0.873800  0.534400  1.0  -0.0349
  C  C172  1  0.392800  0.871100  0.590600  1.0  0.1092
  C  C173  1  0.361100  0.845100  0.634600  1.0  0.1113
  C  C174  1  0.283600  0.855000  0.660800  1.0  -0.0594
  C  C175  1  0.382100  0.784700  0.697600  1.0  0.2135
  C  C176  1  0.714300  0.964300  0.713400  1.0  0.0107
  C  C177  1  0.638300  0.943800  0.742800  1.0  0.0081
  C  C178  1  0.670300  0.852400  0.778000  1.0  0.0238
  C  C179  1  0.651700  0.770400  0.758200  1.0  0.221
  C  C180  1  0.681600  0.735200  0.797000  1.0  -0.0536
  C  C181  1  0.579500  0.662500  0.675600  1.0  0.1177
  C  C182  1  0.752500  0.872400  0.607200  1.0  -0.0342
  C  C183  1  0.749100  0.802600  0.615800  1.0  -0.0064
  C  C184  1  0.617400  0.705500  0.518600  1.0  0.0999
  C  C185  1  0.519400  0.667800  0.491000  1.0  0.2249
  C  C186  1  0.464200  0.607500  0.427800  1.0  -0.0998
  C  C187  1  0.370800  0.656300  0.501600  1.0  0.0785
  C  C188  1  0.558800  0.930100  0.266200  1.0  -0.0086
  C  C189  1  0.510400  0.867300  0.183800  1.0  -0.0997
  C  C190  1  0.413100  0.766300  0.166600  1.0  0.0466
  C  C191  1  0.401300  0.699300  0.169000  1.0  0.1818
  C  C192  1  0.320000  0.661500  0.164000  1.0  0.0827
  C  C193  1  0.471100  0.605500  0.193600  1.0  0.1688
  C  C194  1  0.710800  0.924300  0.265600  1.0  0.0479
  C  C195  1  0.737500  0.770000  0.136600  1.0  0.0802
  C  C196  1  0.665800  0.707100  0.078600  1.0  -0.0108
  C  C197  1  0.643700  0.666667  0.996800  1.0  0.0216
  C  C198  1  0.530900  0.623200  0.028800  1.0  0.2181
  C  C199  1  0.674000  0.918900  0.369800  1.0  0.0011
  C  C200  1  0.628100  0.854200  0.367200  1.0  -0.0366
  C  C201  1  0.715900  0.752300  0.353800  1.0  0.0273
  C  C202  1  0.746100  0.689000  0.308200  1.0  0.1368
  C  C203  1  0.805200  0.640000  0.316800  1.0  -0.0022
  C  C204  1  0.737000  0.607700  0.195800  1.0  0.0791
  C  C205  1  0.784700  0.880000  0.249400  1.0  0.2144
  C  C206  1  0.020800  0.064400  0.415600  1.0  -0.0076
  C  C207  1  0.979400  0.126200  0.465600  1.0  -0.0343
  C  C208  1  0.802200  0.128900  0.409400  1.0  0.108
  C  C209  1  0.726500  0.154900  0.365400  1.0  0.1121
  C  C210  1  0.622800  0.145000  0.339200  1.0  -0.061
  C  C211  1  0.684500  0.215300  0.302400  1.0  0.2102
  C  C212  1  0.000900  0.035700  0.286600  1.0  0.0128
  C  C213  1  0.895500  0.056200  0.257200  1.0  0.0123
  C  C214  1  0.892300  0.147600  0.222000  1.0  0.0276
  C  C215  1  0.893500  0.229600  0.241800  1.0  0.2233
  C  C216  1  0.884600  0.264800  0.203000  1.0  -0.0561
  C  C217  1  0.903900  0.337500  0.324400  1.0  0.118
  C  C218  1  0.145300  0.127600  0.392800  1.0  -0.0291
  C  C219  1  0.133300  0.197400  0.384200  1.0  -0.011
  C  C220  1  0.098800  0.294500  0.481400  1.0  0.0974
  C  C221  1  0.028400  0.332200  0.509000  1.0  0.2229
  C  C222  1  0.036400  0.392500  0.572200  1.0  -0.0987
  C  C223  1  0.869200  0.343700  0.498400  1.0  0.0752
  C  C224  1  0.292600  0.069900  0.733800  1.0  -0.0081
  C  C225  1  0.326600  0.132700  0.816200  1.0  -0.0967
  C  C226  1  0.246500  0.233700  0.833400  1.0  0.0517
  C  C227  1  0.232300  0.300700  0.831000  1.0  0.1881
  C  C228  1  0.156000  0.338500  0.836000  1.0  0.0867
  C  C229  1  0.277500  0.394500  0.806400  1.0  0.1699
  C  C230  1  0.445200  0.075700  0.734400  1.0  0.0436
  C  C231  1  0.600900  0.230000  0.863400  1.0  0.0828
  C  C232  1  0.587200  0.292900  0.921400  1.0  -0.0066
  C  C233  1  0.646900  0.333400  0.003200  1.0  0.0239
  C  C234  1  0.502100  0.376800  0.971200  1.0  0.219
  C  C235  1  0.304200  0.081100  0.630200  1.0  0.0054
  C  C236  1  0.260900  0.145800  0.632800  1.0  -0.0344
  C  C237  1  0.362100  0.247700  0.646200  1.0  0.0273
  C  C238  1  0.437900  0.311000  0.691800  1.0  0.1355
  C  C239  1  0.488400  0.360000  0.683200  1.0  -0.0006
  C  C240  1  0.541200  0.392300  0.804200  1.0  0.0775
  C  C241  1  0.535300  0.120000  0.750600  1.0  0.2149
  N  N242  1  0.686100  0.920900  0.634800  1.0  -0.1601
  N  N243  1  0.478900  0.850300  0.579400  1.0  -0.3501
  N  N244  1  0.295200  0.815900  0.702400  1.0  -0.3067
  N  N245  1  0.424200  0.802600  0.659200  1.0  -0.3843
  N  N246  1  0.626100  0.870600  0.725600  1.0  -0.2827
  N  N247  1  0.632300  0.664100  0.741400  1.0  -0.3358
  N  N248  1  0.591000  0.731000  0.686400  1.0  -0.3278
  N  N249  1  0.645200  0.763200  0.580400  1.0  -0.3255
  N  N250  1  0.376600  0.601200  0.435000  1.0  -0.3366
  N  N251  1  0.460900  0.696400  0.532400  1.0  -0.2601
  N  N252  1  0.660200  0.918100  0.301000  1.0  -0.0762
  N  N253  1  0.505000  0.790600  0.185000  1.0  -0.3429
  N  N254  1  0.371000  0.592000  0.172200  1.0  -0.3225
  N  N255  1  0.490400  0.668800  0.188800  1.0  -0.3909
  N  N256  1  0.719900  0.793300  0.199000  1.0  -0.3526
  N  N257  1  0.554800  0.613400  0.972200  1.0  -0.3248
  N  N258  1  0.589000  0.680900  0.094000  1.0  -0.4144
  N  N259  1  0.651500  0.783100  0.320000  1.0  -0.3674
  N  N260  1  0.805900  0.593600  0.252400  1.0  -0.2463
  N  N261  1  0.709800  0.670000  0.233000  1.0  -0.3029
  N  N262  1  0.051300  0.079100  0.365200  1.0  -0.1602
  N  N263  1  0.899500  0.149700  0.420600  1.0  -0.3484
  N  N264  1  0.592800  0.184100  0.297600  1.0  -0.3104
  N  N265  1  0.765000  0.197400  0.340800  1.0  -0.3866
  N  N266  1  0.900500  0.129400  0.274400  1.0  -0.284
  N  N267  1  0.890900  0.335900  0.258600  1.0  -0.3348
  N  N268  1  0.904600  0.269000  0.313600  1.0  -0.3306
  N  N269  1  0.064800  0.236800  0.419600  1.0  -0.3251
  N  N270  1  0.941600  0.398800  0.565000  1.0  -0.3315
  N  N271  1  0.928500  0.303600  0.467600  1.0  -0.2579
  N  N272  1  0.359200  0.081900  0.699000  1.0  -0.0839
  N  N273  1  0.320000  0.209400  0.815000  1.0  -0.3424
  N  N274  1  0.198800  0.408000  0.827800  1.0  -0.3211
  N  N275  1  0.301600  0.331200  0.811200  1.0  -0.3892
  N  N276  1  0.520900  0.206700  0.801000  1.0  -0.3583
  N  N277  1  0.582600  0.386600  0.027800  1.0  -0.3291
  N  N278  1  0.495000  0.319100  0.906000  1.0  -0.4141
  N  N279  1  0.331500  0.216900  0.680000  1.0  -0.3663
  N  N280  1  0.553500  0.406400  0.747600  1.0  -0.2447
  N  N281  1  0.476800  0.330000  0.767000  1.0  -0.3019
  O  O282  1  0.649500  0.336500  0.148600  1.0  -0.4349
  O  O283  1  0.611600  0.477900  0.174600  1.0  -0.5943
  O  O284  1  0.660100  0.368900  0.268200  1.0  -0.5805
  O  O285  1  0.650600  0.505300  0.295200  1.0  -0.5601
  O  O286  1  0.817300  0.475200  0.398200  1.0  -0.5911
  O  O287  1  0.685200  0.547000  0.453200  1.0  -0.5613
  O  O288  1  0.946400  0.563100  0.493000  1.0  -0.581
  O  O289  1  0.811800  0.630200  0.553800  1.0  -0.5978
  O  O290  1  0.918300  0.709400  0.502400  1.0  -0.6093
  O  O291  1  0.036400  0.801300  0.648200  1.0  -0.6092
  O  O292  1  0.946300  0.795500  0.470600  1.0  -0.5595
  O  O293  1  0.044400  0.890500  0.613600  1.0  -0.5623
  O  O294  1  0.978200  0.901900  0.422200  1.0  -0.5662
  O  O295  1  0.140000  0.879300  0.510800  1.0  -0.57
  O  O296  1  0.044100  0.871400  0.334600  1.0  -0.545
  O  O297  1  0.215200  0.852000  0.430200  1.0  -0.5683
  O  O298  1  0.077400  0.762100  0.208000  1.0  -0.5508
  O  O299  1  0.164700  0.893100  0.233600  1.0  -0.5818
  O  O300  1  0.971700  0.743800  0.097000  1.0  -0.5774
  O  O301  1  0.058700  0.868600  0.116400  1.0  -0.5491
  O  O302  1  0.846600  0.845100  0.069000  1.0  -0.5884
  O  O303  1  0.917400  0.844800  0.968800  1.0  -0.5698
  O  O304  1  0.758630  0.934400  0.062260  1.0  -0.5636
  O  O305  1  0.815700  0.922200  0.947600  1.0  -0.5913
  O  O306  1  0.049200  0.610900  0.653000  1.0  -0.5602
  O  O307  1  0.119700  0.670200  0.582200  1.0  -0.5525
  O  O308  1  0.184000  0.558000  0.668400  1.0  -0.5566
  O  O309  1  0.249800  0.607400  0.591200  1.0  -0.5628
  O  O310  1  0.223400  0.974400  0.401000  1.0  -0.5844
  O  O311  1  0.354800  0.890200  0.351400  1.0  -0.5652
  O  O312  1  0.347600  0.070000  0.471400  1.0  -0.5629
  O  O313  1  0.475700  0.992300  0.420200  1.0  -0.5493
  O  O314  1  0.849700  0.702500  0.939000  1.0  -0.5765
  O  O315  1  0.043500  0.737700  0.984600  1.0  -0.5055
  O  O316  1  0.048400  0.638600  0.884800  1.0  -0.5034
  O  O317  1  0.854100  0.603700  0.830800  1.0  -0.4674
  O  O318  1  0.944700  0.736100  0.702400  1.0  -0.6094
  O  O319  1  0.251300  0.746100  0.296600  1.0  -0.5861
  O  O320  1  0.583300  0.929600  0.918000  1.0  -0.6312
  O  O321  1  0.500900  0.663500  0.851400  1.0  -0.433
  O  O322  1  0.437000  0.522100  0.825400  1.0  -0.595
  O  O323  1  0.391900  0.631100  0.731800  1.0  -0.5802
  O  O324  1  0.355400  0.494700  0.704800  1.0  -0.5591
  O  O325  1  0.419100  0.524800  0.601800  1.0  -0.5899
  O  O326  1  0.232000  0.453000  0.546800  1.0  -0.5619
  O  O327  1  0.453400  0.436900  0.507000  1.0  -0.5808
  O  O328  1  0.258000  0.369800  0.446200  1.0  -0.598
  O  O329  1  0.415900  0.290600  0.497600  1.0  -0.6096
  O  O330  1  0.388200  0.198700  0.351800  1.0  -0.6088
  O  O331  1  0.475700  0.204500  0.529400  1.0  -0.5615
  O  O332  1  0.430800  0.109500  0.386400  1.0  -0.5604
  O  O333  1  0.556000  0.098100  0.577800  1.0  -0.5643
  O  O334  1  0.629200  0.120700  0.489200  1.0  -0.5703
  O  O335  1  0.709500  0.128600  0.665400  1.0  -0.5436
  O  O336  1  0.785000  0.148000  0.569800  1.0  -0.5711
  O  O337  1  0.869400  0.237900  0.792000  1.0  -0.547
  O  O338  1  0.931100  0.106900  0.766400  1.0  -0.581
  O  O339  1  0.874700  0.256200  0.903000  1.0  -0.5779
  O  O340  1  0.942300  0.131400  0.883600  1.0  -0.5483
  O  O341  1  0.777600  0.154900  0.931000  1.0  -0.5863
  O  O342  1  0.948600  0.155200  0.031200  1.0  -0.5706
  O  O343  1  0.696370  0.065600  0.937740  1.0  -0.5621
  O  O344  1  0.868100  0.077800  0.052400  1.0  -0.5929
  O  O345  1  0.396200  0.389100  0.347000  1.0  -0.5616
  O  O346  1  0.537500  0.329800  0.417800  1.0  -0.5534
  O  O347  1  0.515600  0.442000  0.331600  1.0  -0.5524
  O  O348  1  0.658600  0.392600  0.408800  1.0  -0.5639
  O  O349  1  0.822400  0.025600  0.599000  1.0  -0.5856
  O  O350  1  0.003400  0.109800  0.648600  1.0  -0.5661
  O  O351  1  0.876200  0.930000  0.528600  1.0  -0.5637
  O  O352  1  0.055500  0.007700  0.579800  1.0  -0.5489
  O  O353  1  0.910700  0.297500  0.061000  1.0  -0.5762
  O  O354  1  0.058900  0.262300  0.015400  1.0  -0.5071
  O  O355  1  0.163600  0.361400  0.115200  1.0  -0.5003
  O  O356  1  0.023300  0.396300  0.169200  1.0  -0.4668
  O  O357  1  0.242300  0.263900  0.297600  1.0  -0.6093
  O  O358  1  0.954700  0.253900  0.703400  1.0  -0.5847
  O  O359  1  0.665300  0.070400  0.082000  1.0  -0.645
