# generated using pymatgen
data_CoH12C17(NO2)2
_symmetry_space_group_name_H-M   'P 1'
_cell_length_a   8.68640000
_cell_length_b   14.24140000
_cell_length_c   16.88500000
_cell_angle_alpha   90.00000000
_cell_angle_beta   100.04600000
_cell_angle_gamma   90.00000000
_symmetry_Int_Tables_number   1
_chemical_formula_structural   CoH12C17(NO2)2
_chemical_formula_sum   'Co4 H48 C68 N8 O16'
_cell_volume   2056.75900764
_cell_formula_units_Z   4
loop_
 _symmetry_equiv_pos_site_id
 _symmetry_equiv_pos_as_xyz
  1  'x, y, z'
loop_
 _atom_site_type_symbol
 _atom_site_label
 _atom_site_symmetry_multiplicity
 _atom_site_fract_x
 _atom_site_fract_y
 _atom_site_fract_z
 _atom_site_occupancy
 _atom_site_charge
  Co  Co1  1  0.713650  0.240310  0.766850  1.0  0.8306
  Co  Co2  1  0.786350  0.740310  0.733150  1.0  0.8319
  Co  Co3  1  0.286350  0.759690  0.233150  1.0  0.8283
  Co  Co4  1  0.213650  0.259690  0.266850  1.0  0.8278
  H  H5  1  0.446200  0.143500  0.550700  1.0  0.101
  H  H6  1  0.909500  0.577000  0.517100  1.0  0.0792
  H  H7  1  0.741500  0.452200  0.480500  1.0  0.1043
  H  H8  1  0.816300  0.431500  0.404200  1.0  0.1059
  H  H9  1  0.173700  0.569300  0.263800  1.0  0.0734
  H  H10  1  0.069200  0.481400  0.353000  1.0  0.1311
  H  H11  1  0.956300  0.720500  0.453700  1.0  0.1359
  H  H12  1  0.065100  0.800900  0.359600  1.0  0.0845
  H  H13  1  0.591400  0.606300  0.481900  1.0  0.1348
  H  H14  1  0.424600  0.707700  0.405400  1.0  0.0711
  H  H15  1  0.538400  0.611600  0.206600  1.0  0.1055
  H  H16  1  0.710000  0.507100  0.280400  1.0  0.1305
  H  H17  1  0.053800  0.643500  0.949300  1.0  0.1009
  H  H18  1  0.590500  0.077000  0.982900  1.0  0.0803
  H  H19  1  0.758500  0.952200  0.019500  1.0  0.1039
  H  H20  1  0.683700  0.931500  0.095800  1.0  0.1063
  H  H21  1  0.326300  0.069300  0.236200  1.0  0.0732
  H  H22  1  0.430800  0.981400  0.147000  1.0  0.1308
  H  H23  1  0.543700  0.220500  0.046300  1.0  0.1353
  H  H24  1  0.434900  0.300900  0.140400  1.0  0.0848
  H  H25  1  0.908600  0.106300  0.018100  1.0  0.1354
  H  H26  1  0.075400  0.207700  0.094600  1.0  0.0711
  H  H27  1  0.961600  0.111600  0.293400  1.0  0.1063
  H  H28  1  0.790000  0.007100  0.219600  1.0  0.1321
  H  H29  1  0.553800  0.856500  0.449300  1.0  0.1008
  H  H30  1  0.090500  0.423000  0.482900  1.0  0.0796
  H  H31  1  0.258500  0.547800  0.519500  1.0  0.1037
  H  H32  1  0.183700  0.568500  0.595800  1.0  0.1046
  H  H33  1  0.826300  0.430700  0.736200  1.0  0.0731
  H  H34  1  0.930800  0.518600  0.647000  1.0  0.1304
  H  H35  1  0.043700  0.279500  0.546300  1.0  0.1353
  H  H36  1  0.934900  0.199100  0.640400  1.0  0.0852
  H  H37  1  0.408600  0.393700  0.518100  1.0  0.1354
  H  H38  1  0.575400  0.292300  0.594600  1.0  0.0711
  H  H39  1  0.461600  0.388400  0.793400  1.0  0.107
  H  H40  1  0.290000  0.492900  0.719600  1.0  0.1325
  H  H41  1  0.946200  0.356500  0.050700  1.0  0.1011
  H  H42  1  0.409500  0.923000  0.017100  1.0  0.0802
  H  H43  1  0.241500  0.047800  0.980500  1.0  0.1036
  H  H44  1  0.316300  0.068500  0.904200  1.0  0.1052
  H  H45  1  0.673700  0.930700  0.763800  1.0  0.0735
  H  H46  1  0.569200  0.018600  0.853000  1.0  0.1306
  H  H47  1  0.456300  0.779500  0.953700  1.0  0.1364
  H  H48  1  0.565100  0.699100  0.859600  1.0  0.0849
  H  H49  1  0.091400  0.893700  0.981900  1.0  0.135
  H  H50  1  0.924600  0.792300  0.905400  1.0  0.0713
  H  H51  1  0.038400  0.888400  0.706600  1.0  0.1054
  H  H52  1  0.210000  0.992900  0.780400  1.0  0.131
  C  C53  1  0.263800  0.124900  0.413880  1.0  0.6794
  C  C54  1  0.379900  0.055600  0.457980  1.0  -0.0358
  C  C55  1  0.589900  0.032000  0.572380  1.0  -0.1107
  C  C56  1  0.685600  0.073000  0.648120  1.0  0.6762
  C  C57  1  0.468600  0.085600  0.529990  1.0  -0.0463
  C  C58  1  0.938700  0.533200  0.477500  1.0  -0.0764
  C  C59  1  0.788900  0.481100  0.438620  1.0  -0.2156
  C  C60  1  0.131100  0.600300  0.303440  1.0  0.188
  C  C61  1  0.068400  0.546600  0.356710  1.0  -0.2344
  C  C62  1  0.003700  0.590500  0.416350  1.0  0.1126
  C  C63  1  0.001700  0.687700  0.416080  1.0  -0.2168
  C  C64  1  0.068000  0.735600  0.359170  1.0  0.1914
  C  C65  1  0.672400  0.545400  0.389850  1.0  0.154
  C  C66  1  0.583400  0.606050  0.426220  1.0  -0.2261
  C  C67  1  0.482300  0.666480  0.379450  1.0  0.1721
  C  C68  1  0.548300  0.610600  0.262300  1.0  0.1962
  C  C69  1  0.652600  0.547930  0.306950  1.0  -0.1979
  C  C70  1  0.236200  0.624900  0.086120  1.0  0.68
  C  C71  1  0.120100  0.555600  0.042020  1.0  -0.0354
  C  C72  1  0.910100  0.532000  0.927620  1.0  -0.111
  C  C73  1  0.814400  0.573000  0.851880  1.0  0.6774
  C  C74  1  0.031400  0.585600  0.970010  1.0  -0.0448
  C  C75  1  0.561300  0.033200  0.022500  1.0  -0.0767
  C  C76  1  0.711100  0.981100  0.061380  1.0  -0.2137
  C  C77  1  0.368900  0.100300  0.196560  1.0  0.1882
  C  C78  1  0.431600  0.046600  0.143290  1.0  -0.2351
  C  C79  1  0.496300  0.090500  0.083650  1.0  0.1121
  C  C80  1  0.498300  0.187700  0.083920  1.0  -0.2171
  C  C81  1  0.432000  0.235600  0.140830  1.0  0.1911
  C  C82  1  0.827600  0.045400  0.110150  1.0  0.1551
  C  C83  1  0.916600  0.106050  0.073780  1.0  -0.2253
  C  C84  1  0.017700  0.166480  0.120550  1.0  0.1713
  C  C85  1  0.951700  0.110600  0.237700  1.0  0.1964
  C  C86  1  0.847400  0.047930  0.193050  1.0  -0.1971
  C  C87  1  0.736200  0.875100  0.586120  1.0  0.6817
  C  C88  1  0.620100  0.944400  0.542020  1.0  -0.0349
  C  C89  1  0.410100  0.968000  0.427620  1.0  -0.109
  C  C90  1  0.314400  0.927000  0.351880  1.0  0.6772
  C  C91  1  0.531400  0.914400  0.470010  1.0  -0.0464
  C  C92  1  0.061300  0.466800  0.522500  1.0  -0.0765
  C  C93  1  0.211100  0.518900  0.561380  1.0  -0.2147
  C  C94  1  0.868900  0.399700  0.696560  1.0  0.1882
  C  C95  1  0.931600  0.453400  0.643290  1.0  -0.2349
  C  C96  1  0.996300  0.409500  0.583650  1.0  0.1113
  C  C97  1  0.998300  0.312300  0.583920  1.0  -0.2169
  C  C98  1  0.932000  0.264400  0.640830  1.0  0.1905
  C  C99  1  0.327600  0.454600  0.610150  1.0  0.1552
  C  C100  1  0.416600  0.393950  0.573780  1.0  -0.2251
  C  C101  1  0.517700  0.333520  0.620550  1.0  0.171
  C  C102  1  0.451700  0.389400  0.737700  1.0  0.1965
  C  C103  1  0.347400  0.452070  0.693050  1.0  -0.198
  C  C104  1  0.763800  0.375100  0.913880  1.0  0.6808
  C  C105  1  0.879900  0.444400  0.957980  1.0  -0.0355
  C  C106  1  0.089900  0.468000  0.072380  1.0  -0.1088
  C  C107  1  0.185600  0.427000  0.148120  1.0  0.6762
  C  C108  1  0.968600  0.414400  0.029990  1.0  -0.0482
  C  C109  1  0.438700  0.966800  0.977500  1.0  -0.0771
  C  C110  1  0.288900  0.018900  0.938620  1.0  -0.2158
  C  C111  1  0.631100  0.899700  0.803440  1.0  0.1878
  C  C112  1  0.568400  0.953400  0.856710  1.0  -0.2346
  C  C113  1  0.503700  0.909500  0.916350  1.0  0.1112
  C  C114  1  0.501700  0.812300  0.916080  1.0  -0.2158
  C  C115  1  0.568000  0.764400  0.859170  1.0  0.1913
  C  C116  1  0.172400  0.954600  0.889850  1.0  0.1538
  C  C117  1  0.083400  0.893950  0.926220  1.0  -0.226
  C  C118  1  0.982300  0.833520  0.879450  1.0  0.1723
  C  C119  1  0.048300  0.889400  0.762300  1.0  0.1959
  C  C120  1  0.152600  0.952070  0.806950  1.0  -0.1973
  N  N121  1  0.135800  0.693350  0.303820  1.0  -0.3468
  N  N122  1  0.461600  0.669730  0.298860  1.0  -0.3378
  N  N123  1  0.364200  0.193350  0.196180  1.0  -0.345
  N  N124  1  0.038400  0.169730  0.201140  1.0  -0.3388
  N  N125  1  0.864200  0.306650  0.696180  1.0  -0.3464
  N  N126  1  0.538400  0.330270  0.701140  1.0  -0.3384
  N  N127  1  0.635800  0.806650  0.803820  1.0  -0.3497
  N  N128  1  0.961600  0.830270  0.798860  1.0  -0.3398
  O  O129  1  0.305900  0.162280  0.354020  1.0  -0.6217
  O  O130  1  0.143100  0.145880  0.442060  1.0  -0.5822
  O  O131  1  0.820600  0.042300  0.669260  1.0  -0.5915
  O  O132  1  0.621600  0.136140  0.682660  1.0  -0.619
  O  O133  1  0.194100  0.662280  0.145980  1.0  -0.6208
  O  O134  1  0.356900  0.645880  0.057940  1.0  -0.5841
  O  O135  1  0.679400  0.542300  0.830740  1.0  -0.5895
  O  O136  1  0.878400  0.636140  0.817340  1.0  -0.6183
  O  O137  1  0.694100  0.837720  0.645980  1.0  -0.6216
  O  O138  1  0.856900  0.854120  0.557940  1.0  -0.5842
  O  O139  1  0.179400  0.957700  0.330740  1.0  -0.5943
  O  O140  1  0.378400  0.863860  0.317340  1.0  -0.6177
  O  O141  1  0.805900  0.337720  0.854020  1.0  -0.6222
  O  O142  1  0.643100  0.354120  0.942060  1.0  -0.5819
  O  O143  1  0.320600  0.457700  0.169260  1.0  -0.5936
  O  O144  1  0.121600  0.363860  0.182660  1.0  -0.6182
