# generated using pymatgen
data_Mn2H5C9N5O6
_symmetry_space_group_name_H-M   'P 1'
_cell_length_a   7.87730000
_cell_length_b   10.79100000
_cell_length_c   19.70800000
_cell_angle_alpha   93.01000000
_cell_angle_beta   90.00000000
_cell_angle_gamma   90.00000000
_symmetry_Int_Tables_number   1
_chemical_formula_structural   Mn2H5C9N5O6
_chemical_formula_sum   'Mn8 H20 C36 N20 O24'
_cell_volume   1672.94652390
_cell_formula_units_Z   4
loop_
 _symmetry_equiv_pos_site_id
 _symmetry_equiv_pos_as_xyz
  1  'x, y, z'
loop_
 _atom_site_type_symbol
 _atom_site_label
 _atom_site_symmetry_multiplicity
 _atom_site_fract_x
 _atom_site_fract_y
 _atom_site_fract_z
 _atom_site_occupancy
 _atom_site_charge
  Mn  Mn1  1  0.579930  0.309880  0.984130  1.0  1.0383
  Mn  Mn2  1  0.642820  0.291220  0.769950  1.0  1.023
  Mn  Mn3  1  0.079930  0.690120  0.515870  1.0  1.0383
  Mn  Mn4  1  0.142820  0.708780  0.730050  1.0  1.0223
  Mn  Mn5  1  0.420070  0.690120  0.015870  1.0  1.0381
  Mn  Mn6  1  0.357180  0.708780  0.230050  1.0  1.0231
  Mn  Mn7  1  0.920070  0.309880  0.484130  1.0  1.0379
  Mn  Mn8  1  0.857180  0.291220  0.269950  1.0  1.0237
  H  H9  1  0.122700  0.081600  0.598500  1.0  0.1377
  H  H10  1  0.979900  0.045300  0.649000  1.0  0.1471
  H  H11  1  0.021900  0.120900  0.773800  1.0  0.1304
  H  H12  1  0.254800  0.221400  0.837000  1.0  0.096
  H  H13  1  0.428700  0.120100  0.657400  1.0  0.0966
  H  H14  1  0.622700  0.918400  0.901500  1.0  0.1382
  H  H15  1  0.479900  0.954700  0.851000  1.0  0.1465
  H  H16  1  0.521900  0.879100  0.726200  1.0  0.1314
  H  H17  1  0.754800  0.778600  0.663000  1.0  0.0965
  H  H18  1  0.928700  0.879900  0.842600  1.0  0.0967
  H  H19  1  0.877300  0.918400  0.401500  1.0  0.1389
  H  H20  1  0.020100  0.954700  0.351000  1.0  0.1433
  H  H21  1  0.978100  0.879100  0.226200  1.0  0.1317
  H  H22  1  0.745200  0.778600  0.163000  1.0  0.0964
  H  H23  1  0.571300  0.879900  0.342600  1.0  0.0973
  H  H24  1  0.377300  0.081600  0.098500  1.0  0.138
  H  H25  1  0.520100  0.045300  0.149000  1.0  0.1453
  H  H26  1  0.478100  0.120900  0.273800  1.0  0.1308
  H  H27  1  0.245200  0.221400  0.337000  1.0  0.096
  H  H28  1  0.071300  0.120100  0.157400  1.0  0.0967
  C  C29  1  0.449700  0.528600  0.737600  1.0  0.6647
  C  C30  1  0.445400  0.529300  0.814040  1.0  0.0096
  C  C31  1  0.389700  0.610300  0.866460  1.0  0.0083
  C  C32  1  0.307900  0.735900  0.872500  1.0  0.6728
  C  C33  1  0.141200  0.902800  0.625100  1.0  0.7159
  C  C34  1  0.100400  0.037800  0.639400  1.0  -0.247
  C  C35  1  0.131500  0.133100  0.758000  1.0  -0.139
  C  C36  1  0.261300  0.188000  0.792600  1.0  0.0373
  C  C37  1  0.357200  0.133300  0.694600  1.0  0.1437
  C  C38  1  0.949700  0.471400  0.762400  1.0  0.6657
  C  C39  1  0.945400  0.470700  0.685960  1.0  0.0095
  C  C40  1  0.889700  0.389700  0.633540  1.0  0.0084
  C  C41  1  0.807900  0.264100  0.627500  1.0  0.6743
  C  C42  1  0.641200  0.097200  0.874900  1.0  0.7154
  C  C43  1  0.600400  0.962200  0.860600  1.0  -0.2447
  C  C44  1  0.631500  0.866900  0.742000  1.0  -0.14
  C  C45  1  0.761300  0.812000  0.707400  1.0  0.0383
  C  C46  1  0.857200  0.866700  0.805400  1.0  0.1437
  C  C47  1  0.550300  0.471400  0.262400  1.0  0.6637
  C  C48  1  0.554600  0.470700  0.185960  1.0  0.0096
  C  C49  1  0.610300  0.389700  0.133540  1.0  0.0079
  C  C50  1  0.692100  0.264100  0.127500  1.0  0.6724
  C  C51  1  0.858800  0.097200  0.374900  1.0  0.7146
  C  C52  1  0.899600  0.962200  0.360600  1.0  -0.2465
  C  C53  1  0.868500  0.866900  0.242000  1.0  -0.1376
  C  C54  1  0.738700  0.812000  0.207400  1.0  0.0374
  C  C55  1  0.642800  0.866700  0.305400  1.0  0.1434
  C  C56  1  0.050300  0.528600  0.237600  1.0  0.6669
  C  C57  1  0.054600  0.529300  0.314040  1.0  0.0098
  C  C58  1  0.110300  0.610300  0.366460  1.0  0.008
  C  C59  1  0.192100  0.735900  0.372500  1.0  0.673
  C  C60  1  0.358800  0.902800  0.125100  1.0  0.7158
  C  C61  1  0.399600  0.037800  0.139400  1.0  -0.2472
  C  C62  1  0.368500  0.133100  0.258000  1.0  -0.1363
  C  C63  1  0.238700  0.188000  0.292600  1.0  0.0379
  C  C64  1  0.142800  0.133300  0.194600  1.0  0.1437
  N  N65  1  0.512900  0.428900  0.842950  1.0  -0.2
  N  N66  1  0.498400  0.447300  0.909970  1.0  -0.1075
  N  N67  1  0.426100  0.556500  0.925450  1.0  -0.2996
  N  N68  1  0.404700  0.187400  0.752680  1.0  -0.4038
  N  N69  1  0.193500  0.099100  0.695300  1.0  0.0765
  N  N70  1  0.012900  0.571100  0.657050  1.0  -0.2003
  N  N71  1  0.998400  0.552700  0.590030  1.0  -0.1091
  N  N72  1  0.926100  0.443500  0.574550  1.0  -0.2993
  N  N73  1  0.904700  0.812600  0.747320  1.0  -0.403
  N  N74  1  0.693500  0.900900  0.804700  1.0  0.0765
  N  N75  1  0.487100  0.571100  0.157050  1.0  -0.2013
  N  N76  1  0.501600  0.552700  0.090030  1.0  -0.1092
  N  N77  1  0.573900  0.443500  0.074550  1.0  -0.3002
  N  N78  1  0.595300  0.812600  0.247320  1.0  -0.4043
  N  N79  1  0.806500  0.900900  0.304700  1.0  0.0756
  N  N80  1  0.987100  0.428900  0.342950  1.0  -0.2009
  N  N81  1  0.001600  0.447300  0.409970  1.0  -0.1085
  N  N82  1  0.073900  0.556500  0.425450  1.0  -0.2988
  N  N83  1  0.095300  0.187400  0.252680  1.0  -0.405
  N  N84  1  0.306500  0.099100  0.195300  1.0  0.0753
  O  O85  1  0.238100  0.847400  0.663120  1.0  -0.6158
  O  O86  1  0.064800  0.855700  0.574590  1.0  -0.6245
  O  O87  1  0.533500  0.441700  0.708610  1.0  -0.5969
  O  O88  1  0.372900  0.609800  0.707430  1.0  -0.594
  O  O89  1  0.250800  0.785500  0.821970  1.0  -0.559
  O  O90  1  0.303200  0.784900  0.932260  1.0  -0.6105
  O  O91  1  0.738100  0.152600  0.836880  1.0  -0.6144
  O  O92  1  0.564800  0.144300  0.925410  1.0  -0.627
  O  O93  1  0.033500  0.558300  0.791390  1.0  -0.5982
  O  O94  1  0.872900  0.390200  0.792570  1.0  -0.5949
  O  O95  1  0.750800  0.214500  0.678030  1.0  -0.5586
  O  O96  1  0.803200  0.215100  0.567740  1.0  -0.6084
  O  O97  1  0.761900  0.152600  0.336880  1.0  -0.614
  O  O98  1  0.935200  0.144300  0.425410  1.0  -0.6276
  O  O99  1  0.466500  0.558300  0.291390  1.0  -0.5982
  O  O100  1  0.627100  0.390200  0.292570  1.0  -0.5952
  O  O101  1  0.749200  0.214500  0.178030  1.0  -0.5582
  O  O102  1  0.696800  0.215100  0.067740  1.0  -0.6075
  O  O103  1  0.261900  0.847400  0.163120  1.0  -0.6156
  O  O104  1  0.435200  0.855700  0.074590  1.0  -0.6255
  O  O105  1  0.966500  0.441700  0.208610  1.0  -0.597
  O  O106  1  0.127100  0.609800  0.207430  1.0  -0.5937
  O  O107  1  0.249200  0.785500  0.321970  1.0  -0.5589
  O  O108  1  0.196800  0.784900  0.432260  1.0  -0.6085
