# generated using pymatgen
data_Mn2H4C10N4O7
_symmetry_space_group_name_H-M   'P 1'
_cell_length_a   8.19390000
_cell_length_b   12.85700000
_cell_length_c   17.78900000
_cell_angle_alpha   99.86000000
_cell_angle_beta   90.00000000
_cell_angle_gamma   90.00000000
_symmetry_Int_Tables_number   1
_chemical_formula_structural   Mn2H4C10N4O7
_chemical_formula_sum   'Mn8 H16 C40 N16 O28'
_cell_volume   1846.37144928
_cell_formula_units_Z   4
loop_
 _symmetry_equiv_pos_site_id
 _symmetry_equiv_pos_as_xyz
  1  'x, y, z'
loop_
 _atom_site_type_symbol
 _atom_site_label
 _atom_site_symmetry_multiplicity
 _atom_site_fract_x
 _atom_site_fract_y
 _atom_site_fract_z
 _atom_site_occupancy
 _atom_site_charge
  Mn  Mn1  1  0.084930  0.384110  0.064670  1.0  0.9805
  Mn  Mn2  1  0.143470  0.583740  0.288700  1.0  1.1018
  Mn  Mn3  1  0.584930  0.115890  0.435330  1.0  0.9818
  Mn  Mn4  1  0.643470  0.916260  0.211300  1.0  1.1018
  Mn  Mn5  1  0.915070  0.615890  0.935330  1.0  0.9804
  Mn  Mn6  1  0.856530  0.416260  0.711300  1.0  1.1022
  Mn  Mn7  1  0.415070  0.884110  0.564670  1.0  0.9792
  Mn  Mn8  1  0.356530  0.083740  0.788700  1.0  1.1025
  H  H9  1  0.184500  0.006900  0.363900  1.0  0.1309
  H  H10  1  0.068100  0.992700  0.245000  1.0  0.1198
  H  H11  1  0.065200  0.139200  0.182700  1.0  0.1178
  H  H12  1  0.284300  0.307700  0.365400  1.0  0.1338
  H  H13  1  0.684500  0.493100  0.136100  1.0  0.1307
  H  H14  1  0.568100  0.507300  0.255000  1.0  0.121
  H  H15  1  0.565200  0.360800  0.317300  1.0  0.1182
  H  H16  1  0.784300  0.192300  0.134600  1.0  0.1339
  H  H17  1  0.815500  0.993100  0.636100  1.0  0.1304
  H  H18  1  0.931900  0.007300  0.755000  1.0  0.1204
  H  H19  1  0.934800  0.860800  0.817300  1.0  0.1183
  H  H20  1  0.715700  0.692300  0.634600  1.0  0.1333
  H  H21  1  0.315500  0.506900  0.863900  1.0  0.1304
  H  H22  1  0.431900  0.492700  0.745000  1.0  0.1206
  H  H23  1  0.434800  0.639200  0.682700  1.0  0.118
  H  H24  1  0.215700  0.807700  0.865400  1.0  0.1337
  C  C25  1  0.930900  0.771400  0.257900  1.0  0.6744
  C  C26  1  0.940700  0.698900  0.181600  1.0  0.0002
  C  C27  1  0.898200  0.706900  0.107100  1.0  0.0
  C  C28  1  0.826000  0.791000  0.067200  1.0  0.6898
  C  C29  1  0.182000  0.065200  0.339300  1.0  -0.0286
  C  C30  1  0.112600  0.056700  0.268500  1.0  -0.1012
  C  C31  1  0.108800  0.144600  0.231500  1.0  -0.001
  C  C32  1  0.171300  0.239800  0.269100  1.0  -0.1677
  C  C33  1  0.240900  0.244400  0.340200  1.0  0.0386
  C  C34  1  0.161500  0.340000  0.234000  1.0  0.6984
  C  C35  1  0.430900  0.728600  0.242100  1.0  0.676
  C  C36  1  0.440700  0.801100  0.318400  1.0  1e-04
  C  C37  1  0.398200  0.793100  0.392900  1.0  0.0008
  C  C38  1  0.326000  0.709000  0.432800  1.0  0.6917
  C  C39  1  0.682000  0.434800  0.160700  1.0  -0.0288
  C  C40  1  0.612600  0.443300  0.231500  1.0  -0.1028
  C  C41  1  0.608800  0.355400  0.268500  1.0  -0.0005
  C  C42  1  0.671300  0.260200  0.230900  1.0  -0.1684
  C  C43  1  0.740900  0.255600  0.159800  1.0  0.0412
  C  C44  1  0.661500  0.160000  0.266000  1.0  0.6979
  C  C45  1  0.069100  0.228600  0.742100  1.0  0.6758
  C  C46  1  0.059300  0.301100  0.818400  1.0  -0.0007
  C  C47  1  0.101800  0.293100  0.892900  1.0  0.0008
  C  C48  1  0.174000  0.209000  0.932800  1.0  0.6893
  C  C49  1  0.818000  0.934800  0.660700  1.0  -0.0294
  C  C50  1  0.887400  0.943300  0.731500  1.0  -0.1016
  C  C51  1  0.891200  0.855400  0.768500  1.0  -0.0004
  C  C52  1  0.828700  0.760200  0.730900  1.0  -0.1682
  C  C53  1  0.759100  0.755600  0.659800  1.0  0.0404
  C  C54  1  0.838500  0.660000  0.766000  1.0  0.6974
  C  C55  1  0.569100  0.271400  0.757900  1.0  0.6742
  C  C56  1  0.559300  0.198900  0.681600  1.0  -0.0005
  C  C57  1  0.601800  0.206900  0.607100  1.0  0.0003
  C  C58  1  0.674000  0.291000  0.567200  1.0  0.6918
  C  C59  1  0.318000  0.565200  0.839300  1.0  -0.0288
  C  C60  1  0.387400  0.556700  0.768500  1.0  -0.1006
  C  C61  1  0.391200  0.644600  0.731500  1.0  -0.0015
  C  C62  1  0.328700  0.739800  0.769100  1.0  -0.1675
  C  C63  1  0.259100  0.744400  0.840200  1.0  0.0389
  C  C64  1  0.338500  0.840000  0.734000  1.0  0.6981
  N  N65  1  0.010100  0.601900  0.179890  1.0  -0.2748
  N  N66  1  0.011200  0.553100  0.107140  1.0  -0.0653
  N  N67  1  0.944800  0.615300  0.062220  1.0  -0.2258
  N  N68  1  0.246600  0.157800  0.373600  1.0  0.3206
  N  N69  1  0.510100  0.898100  0.320110  1.0  -0.2737
  N  N70  1  0.511200  0.946900  0.392860  1.0  -0.0679
  N  N71  1  0.444800  0.884700  0.437780  1.0  -0.225
  N  N72  1  0.746600  0.342200  0.126400  1.0  0.3226
  N  N73  1  0.989900  0.398100  0.820110  1.0  -0.2751
  N  N74  1  0.988800  0.446900  0.892860  1.0  -0.0664
  N  N75  1  0.055200  0.384700  0.937780  1.0  -0.2256
  N  N76  1  0.753400  0.842200  0.626400  1.0  0.3217
  N  N77  1  0.489900  0.101900  0.679890  1.0  -0.2762
  N  N78  1  0.488800  0.053100  0.607140  1.0  -0.0644
  N  N79  1  0.555200  0.115300  0.562220  1.0  -0.2263
  N  N80  1  0.253400  0.657800  0.873600  1.0  0.3204
  O  O81  1  0.011700  0.740100  0.311630  1.0  -0.6255
  O  O82  1  0.853000  0.855000  0.265480  1.0  -0.5951
  O  O83  1  0.770000  0.874400  0.104880  1.0  -0.6091
  O  O84  1  0.829100  0.771200  0.995080  1.0  -0.5817
  O  O85  1  0.321500  0.163300  0.442790  1.0  -0.5271
  O  O86  1  0.218300  0.422700  0.272770  1.0  -0.6055
  O  O87  1  0.092000  0.331600  0.170280  1.0  -0.5994
  O  O88  1  0.511700  0.759900  0.188370  1.0  -0.6231
  O  O89  1  0.353000  0.645000  0.234520  1.0  -0.5971
  O  O90  1  0.270000  0.625600  0.395120  1.0  -0.6091
  O  O91  1  0.329100  0.728800  0.504920  1.0  -0.5821
  O  O92  1  0.821500  0.336700  0.057210  1.0  -0.5257
  O  O93  1  0.718300  0.077300  0.227230  1.0  -0.6063
  O  O94  1  0.592000  0.168400  0.329720  1.0  -0.5999
  O  O95  1  0.988300  0.259900  0.688370  1.0  -0.6237
  O  O96  1  0.147000  0.145000  0.734520  1.0  -0.5977
  O  O97  1  0.230000  0.125600  0.895120  1.0  -0.6057
  O  O98  1  0.170900  0.228800  0.004920  1.0  -0.5825
  O  O99  1  0.678500  0.836700  0.557210  1.0  -0.5266
  O  O100  1  0.781700  0.577300  0.727230  1.0  -0.6071
  O  O101  1  0.908000  0.668400  0.829720  1.0  -0.6
  O  O102  1  0.488300  0.240100  0.811630  1.0  -0.6254
  O  O103  1  0.647000  0.355000  0.765480  1.0  -0.5956
  O  O104  1  0.730000  0.374400  0.604880  1.0  -0.6136
  O  O105  1  0.670900  0.271200  0.495080  1.0  -0.5816
  O  O106  1  0.178500  0.663300  0.942790  1.0  -0.5271
  O  O107  1  0.281700  0.922700  0.772770  1.0  -0.6059
  O  O108  1  0.408000  0.831600  0.670280  1.0  -0.5993
