# generated using pymatgen
data_CsNp3(C2O5)3
_symmetry_space_group_name_H-M   'P 1'
_cell_length_a   11.75500000
_cell_length_b   11.75500000
_cell_length_c   11.75200000
_cell_angle_alpha   90.00000000
_cell_angle_beta   90.00000000
_cell_angle_gamma   120.00000000
_symmetry_Int_Tables_number   1
_chemical_formula_structural   CsNp3(C2O5)3
_chemical_formula_sum   'Cs2 Np6 C12 O30'
_cell_volume   1406.33142518
_cell_formula_units_Z   2
loop_
 _symmetry_equiv_pos_site_id
 _symmetry_equiv_pos_as_xyz
  1  'x, y, z'
loop_
 _atom_site_type_symbol
 _atom_site_label
 _atom_site_symmetry_multiplicity
 _atom_site_fract_x
 _atom_site_fract_y
 _atom_site_fract_z
 _atom_site_occupancy
 _atom_site_charge
  Cs  Cs1  1  0.666667  0.333333  0.250000  1.0  0.8624
  Cs  Cs2  1  0.333333  0.666667  0.750000  1.0  0.8624
  Np  Np3  1  0.494050  0.601380  0.250000  1.0  2.1447
  Np  Np4  1  0.398620  0.892670  0.250000  1.0  2.1451
  Np  Np5  1  0.107330  0.505950  0.250000  1.0  2.1352
  Np  Np6  1  0.505950  0.398620  0.750000  1.0  2.1449
  Np  Np7  1  0.601380  0.107330  0.750000  1.0  2.1477
  Np  Np8  1  0.892670  0.494050  0.750000  1.0  2.1217
  C  C9  1  0.502600  0.562100  0.974800  1.0  0.5565
  C  C10  1  0.437900  0.940500  0.974800  1.0  0.5573
  C  C11  1  0.059500  0.497400  0.974800  1.0  0.5582
  C  C12  1  0.497400  0.437900  0.474800  1.0  0.5562
  C  C13  1  0.562100  0.059500  0.474800  1.0  0.5575
  C  C14  1  0.940500  0.502600  0.474800  1.0  0.5586
  C  C15  1  0.497400  0.437900  0.025200  1.0  0.5559
  C  C16  1  0.562100  0.059500  0.025200  1.0  0.5571
  C  C17  1  0.940500  0.502600  0.025200  1.0  0.558
  C  C18  1  0.502600  0.562100  0.525200  1.0  0.5558
  C  C19  1  0.437900  0.940500  0.525200  1.0  0.5568
  C  C20  1  0.059500  0.497400  0.525200  1.0  0.558
  O  O21  1  0.498600  0.641200  0.043300  1.0  -0.6291
  O  O22  1  0.507000  0.572600  0.868700  1.0  -0.6944
  O  O23  1  0.358800  0.857400  0.043300  1.0  -0.6275
  O  O24  1  0.427400  0.934400  0.868700  1.0  -0.6971
  O  O25  1  0.142600  0.501400  0.043300  1.0  -0.6298
  O  O26  1  0.065600  0.493000  0.868700  1.0  -0.6949
  O  O27  1  0.501400  0.358800  0.543300  1.0  -0.6268
  O  O28  1  0.493000  0.427400  0.368700  1.0  -0.6966
  O  O29  1  0.641200  0.142600  0.543300  1.0  -0.6302
  O  O30  1  0.572600  0.065600  0.368700  1.0  -0.6972
  O  O31  1  0.857400  0.498600  0.543300  1.0  -0.6293
  O  O32  1  0.934400  0.507000  0.368700  1.0  -0.6964
  O  O33  1  0.501400  0.358800  0.956700  1.0  -0.627
  O  O34  1  0.493000  0.427400  0.131300  1.0  -0.6936
  O  O35  1  0.641200  0.142600  0.956700  1.0  -0.63
  O  O36  1  0.572600  0.065600  0.131300  1.0  -0.6952
  O  O37  1  0.857400  0.498600  0.956700  1.0  -0.6289
  O  O38  1  0.934400  0.507000  0.131300  1.0  -0.6943
  O  O39  1  0.498600  0.641200  0.456700  1.0  -0.6288
  O  O40  1  0.507000  0.572600  0.631300  1.0  -0.6945
  O  O41  1  0.358800  0.857400  0.456700  1.0  -0.6278
  O  O42  1  0.427400  0.934400  0.631300  1.0  -0.6954
  O  O43  1  0.142600  0.501400  0.456700  1.0  -0.6294
  O  O44  1  0.065600  0.493000  0.631300  1.0  -0.6938
  O  O45  1  0.310300  0.505500  0.250000  1.0  -0.894
  O  O46  1  0.494500  0.804800  0.250000  1.0  -0.8915
  O  O47  1  0.195200  0.689700  0.250000  1.0  -0.8952
  O  O48  1  0.689700  0.494500  0.750000  1.0  -0.8948
  O  O49  1  0.505500  0.195200  0.750000  1.0  -0.8927
  O  O50  1  0.804800  0.310300  0.750000  1.0  -0.8938
