# generated using pymatgen
data_NiH8C14N2O5
_symmetry_space_group_name_H-M   'P 1'
_cell_length_a   18.70700000
_cell_length_b   10.18200000
_cell_length_c   20.35300000
_cell_angle_alpha   90.00000000
_cell_angle_beta   90.00000000
_cell_angle_gamma   90.00000000
_symmetry_Int_Tables_number   1
_chemical_formula_structural   NiH8C14N2O5
_chemical_formula_sum   'Ni8 H64 C112 N16 O40'
_cell_volume   3876.73103992
_cell_formula_units_Z   8
loop_
 _symmetry_equiv_pos_site_id
 _symmetry_equiv_pos_as_xyz
  1  'x, y, z'
loop_
 _atom_site_type_symbol
 _atom_site_label
 _atom_site_symmetry_multiplicity
 _atom_site_fract_x
 _atom_site_fract_y
 _atom_site_fract_z
 _atom_site_occupancy
 _atom_site_charge
  Ni  Ni1  1  0.450820  0.663280  0.551430  1.0  0.6817
  Ni  Ni2  1  0.549180  0.336720  0.448570  1.0  0.6795
  Ni  Ni3  1  0.049180  0.836720  0.051430  1.0  0.6809
  Ni  Ni4  1  0.950820  0.163280  0.948570  1.0  0.68
  Ni  Ni5  1  0.549180  0.663280  0.948570  1.0  0.6794
  Ni  Ni6  1  0.450820  0.336720  0.051430  1.0  0.6816
  Ni  Ni7  1  0.950820  0.836720  0.448570  1.0  0.68
  Ni  Ni8  1  0.049180  0.163280  0.551430  1.0  0.681
  H  H9  1  0.546100  0.874300  0.449000  1.0  0.1179
  H  H10  1  0.697500  0.033700  0.334600  1.0  0.1189
  H  H11  1  0.693400  0.643200  0.363000  1.0  0.1134
  H  H12  1  0.924100  0.027200  0.090400  1.0  0.1141
  H  H13  1  0.823400  0.039300  0.156500  1.0  0.1231
  H  H14  1  0.883600  0.707800  0.248000  1.0  0.1273
  H  H15  1  0.983000  0.696700  0.180500  1.0  0.1069
  H  H16  1  0.802100  0.772300  0.315700  1.0  0.2986
  H  H17  1  0.453900  0.125700  0.551000  1.0  0.1181
  H  H18  1  0.302500  0.966300  0.665400  1.0  0.1196
  H  H19  1  0.306600  0.356800  0.637000  1.0  0.1131
  H  H20  1  0.075900  0.972800  0.909600  1.0  0.1139
  H  H21  1  0.176600  0.960700  0.843500  1.0  0.1229
  H  H22  1  0.116400  0.292200  0.752000  1.0  0.1273
  H  H23  1  0.017000  0.303300  0.819500  1.0  0.1071
  H  H24  1  0.197900  0.227700  0.684300  1.0  0.2982
  H  H25  1  0.953900  0.625700  0.949000  1.0  0.1179
  H  H26  1  0.802500  0.466300  0.834600  1.0  0.1195
  H  H27  1  0.806600  0.856800  0.863000  1.0  0.1133
  H  H28  1  0.575900  0.472800  0.590400  1.0  0.1141
  H  H29  1  0.676600  0.460700  0.656500  1.0  0.1229
  H  H30  1  0.616400  0.792200  0.748000  1.0  0.1273
  H  H31  1  0.517000  0.803300  0.680500  1.0  0.1072
  H  H32  1  0.697900  0.727700  0.815700  1.0  0.2978
  H  H33  1  0.046100  0.374300  0.051000  1.0  0.1184
  H  H34  1  0.197500  0.533700  0.165400  1.0  0.1188
  H  H35  1  0.193400  0.143200  0.137000  1.0  0.1132
  H  H36  1  0.424100  0.527200  0.409600  1.0  0.1138
  H  H37  1  0.323400  0.539300  0.343500  1.0  0.1233
  H  H38  1  0.383600  0.207800  0.252000  1.0  0.1275
  H  H39  1  0.483000  0.196700  0.319500  1.0  0.107
  H  H40  1  0.302100  0.272300  0.184300  1.0  0.2989
  H  H41  1  0.453900  0.874300  0.051000  1.0  0.1182
  H  H42  1  0.302500  0.033700  0.165400  1.0  0.1188
  H  H43  1  0.306600  0.643200  0.137000  1.0  0.1132
  H  H44  1  0.075900  0.027200  0.409600  1.0  0.1137
  H  H45  1  0.176600  0.039300  0.343500  1.0  0.1231
  H  H46  1  0.116400  0.707800  0.252000  1.0  0.1273
  H  H47  1  0.017000  0.696700  0.319500  1.0  0.107
  H  H48  1  0.197900  0.772300  0.184300  1.0  0.2985
  H  H49  1  0.546100  0.125700  0.949000  1.0  0.118
  H  H50  1  0.697500  0.966300  0.834600  1.0  0.1197
  H  H51  1  0.693400  0.356800  0.863000  1.0  0.1136
  H  H52  1  0.924100  0.972800  0.590400  1.0  0.1137
  H  H53  1  0.823400  0.960700  0.656500  1.0  0.1225
  H  H54  1  0.883600  0.292200  0.748000  1.0  0.1273
  H  H55  1  0.983000  0.303300  0.680500  1.0  0.107
  H  H56  1  0.802100  0.227700  0.815700  1.0  0.298
  H  H57  1  0.046100  0.625700  0.551000  1.0  0.1182
  H  H58  1  0.197500  0.466300  0.665400  1.0  0.1197
  H  H59  1  0.193400  0.856800  0.637000  1.0  0.1134
  H  H60  1  0.424100  0.472800  0.909600  1.0  0.1138
  H  H61  1  0.323400  0.460700  0.843500  1.0  0.1227
  H  H62  1  0.383600  0.792200  0.752000  1.0  0.1276
  H  H63  1  0.483000  0.803300  0.819500  1.0  0.1069
  H  H64  1  0.302100  0.727700  0.684300  1.0  0.2983
  H  H65  1  0.953900  0.374300  0.449000  1.0  0.1176
  H  H66  1  0.802500  0.533700  0.334600  1.0  0.1189
  H  H67  1  0.806600  0.143200  0.363000  1.0  0.1133
  H  H68  1  0.575900  0.527200  0.090400  1.0  0.1143
  H  H69  1  0.676600  0.539300  0.156500  1.0  0.123
  H  H70  1  0.616400  0.207800  0.248000  1.0  0.1273
  H  H71  1  0.517000  0.196700  0.180500  1.0  0.1069
  H  H72  1  0.697900  0.272300  0.315700  1.0  0.2982
  C  C73  1  0.578410  0.622400  0.439320  1.0  0.7547
  C  C74  1  0.614530  0.740400  0.411510  1.0  -0.1508
  C  C75  1  0.585940  0.864500  0.422170  1.0  0.0362
  C  C76  1  0.616300  0.972700  0.393220  1.0  -0.1363
  C  C77  1  0.676820  0.959900  0.353740  1.0  -0.1172
  C  C78  1  0.706100  0.835800  0.343170  1.0  0.2108
  C  C79  1  0.674620  0.726300  0.371090  1.0  -0.1275
  C  C80  1  0.587660  0.108100  0.405250  1.0  0.6581
  C  C81  1  0.773330  0.888500  0.245990  1.0  0.5965
  C  C82  1  0.915710  0.962700  0.121780  1.0  0.1454
  C  C83  1  0.855440  0.970300  0.161690  1.0  -0.0564
  C  C84  1  0.843050  0.875600  0.209050  1.0  -0.0795
  C  C85  1  0.891260  0.772000  0.216300  1.0  -0.1145
  C  C86  1  0.950820  0.765700  0.175760  1.0  0.1666
  C  C87  1  0.421590  0.377600  0.560680  1.0  0.7547
  C  C88  1  0.385470  0.259600  0.588490  1.0  -0.1502
  C  C89  1  0.414060  0.135500  0.577830  1.0  0.0363
  C  C90  1  0.383700  0.027300  0.606780  1.0  -0.1374
  C  C91  1  0.323180  0.040100  0.646260  1.0  -0.1183
  C  C92  1  0.293900  0.164200  0.656830  1.0  0.2104
  C  C93  1  0.325380  0.273700  0.628910  1.0  -0.127
  C  C94  1  0.412340  0.891900  0.594750  1.0  0.6576
  C  C95  1  0.226670  0.111500  0.754010  1.0  0.5962
  C  C96  1  0.084290  0.037300  0.878220  1.0  0.1445
  C  C97  1  0.144560  0.029700  0.838310  1.0  -0.0552
  C  C98  1  0.156950  0.124400  0.790950  1.0  -0.0825
  C  C99  1  0.108740  0.228000  0.783700  1.0  -0.1144
  C  C100  1  0.049180  0.234300  0.824240  1.0  0.1668
  C  C101  1  0.921590  0.877600  0.939320  1.0  0.7549
  C  C102  1  0.885470  0.759600  0.911510  1.0  -0.1506
  C  C103  1  0.914060  0.635500  0.922170  1.0  0.0366
  C  C104  1  0.883700  0.527300  0.893220  1.0  -0.1364
  C  C105  1  0.823180  0.540100  0.853740  1.0  -0.1186
  C  C106  1  0.793900  0.664200  0.843170  1.0  0.2104
  C  C107  1  0.825380  0.773700  0.871090  1.0  -0.127
  C  C108  1  0.912340  0.391900  0.905250  1.0  0.6571
  C  C109  1  0.726670  0.611500  0.745990  1.0  0.5974
  C  C110  1  0.584290  0.537300  0.621780  1.0  0.1448
  C  C111  1  0.644560  0.529700  0.661690  1.0  -0.0561
  C  C112  1  0.656950  0.624400  0.709050  1.0  -0.0814
  C  C113  1  0.608740  0.728000  0.716300  1.0  -0.1149
  C  C114  1  0.549180  0.734300  0.675760  1.0  0.1667
  C  C115  1  0.078410  0.122400  0.060680  1.0  0.7547
  C  C116  1  0.114530  0.240400  0.088490  1.0  -0.1507
  C  C117  1  0.085940  0.364500  0.077830  1.0  0.0361
  C  C118  1  0.116300  0.472700  0.106780  1.0  -0.1373
  C  C119  1  0.176820  0.459900  0.146260  1.0  -0.1171
  C  C120  1  0.206100  0.335800  0.156830  1.0  0.2108
  C  C121  1  0.174620  0.226300  0.128910  1.0  -0.1268
  C  C122  1  0.087660  0.608100  0.094750  1.0  0.6583
  C  C123  1  0.273330  0.388500  0.254010  1.0  0.5947
  C  C124  1  0.415710  0.462700  0.378220  1.0  0.1449
  C  C125  1  0.355440  0.470300  0.338310  1.0  -0.0558
  C  C126  1  0.343050  0.375600  0.290950  1.0  -0.08
  C  C127  1  0.391260  0.272000  0.283700  1.0  -0.1143
  C  C128  1  0.450820  0.265700  0.324240  1.0  0.1664
  C  C129  1  0.421590  0.622400  0.060680  1.0  0.755
  C  C130  1  0.385470  0.740400  0.088490  1.0  -0.1504
  C  C131  1  0.414060  0.864500  0.077830  1.0  0.0366
  C  C132  1  0.383700  0.972700  0.106780  1.0  -0.1374
  C  C133  1  0.323180  0.959900  0.146260  1.0  -0.1179
  C  C134  1  0.293900  0.835800  0.156830  1.0  0.2103
  C  C135  1  0.325380  0.726300  0.128910  1.0  -0.1273
  C  C136  1  0.412340  0.108100  0.094750  1.0  0.658
  C  C137  1  0.226670  0.888500  0.254010  1.0  0.5962
  C  C138  1  0.084290  0.962700  0.378220  1.0  0.1443
  C  C139  1  0.144560  0.970300  0.338310  1.0  -0.0556
  C  C140  1  0.156950  0.875600  0.290950  1.0  -0.0822
  C  C141  1  0.108740  0.772000  0.283700  1.0  -0.1153
  C  C142  1  0.049180  0.765700  0.324240  1.0  0.1662
  C  C143  1  0.578410  0.377600  0.939320  1.0  0.7545
  C  C144  1  0.614530  0.259600  0.911510  1.0  -0.1505
  C  C145  1  0.585940  0.135500  0.922170  1.0  0.0361
  C  C146  1  0.616300  0.027300  0.893220  1.0  -0.1364
  C  C147  1  0.676820  0.040100  0.853740  1.0  -0.1179
  C  C148  1  0.706100  0.164200  0.843170  1.0  0.211
  C  C149  1  0.674620  0.273700  0.871090  1.0  -0.1267
  C  C150  1  0.587660  0.891900  0.905250  1.0  0.6575
  C  C151  1  0.773330  0.111500  0.745990  1.0  0.5968
  C  C152  1  0.915710  0.037300  0.621780  1.0  0.1455
  C  C153  1  0.855440  0.029700  0.661690  1.0  -0.055
  C  C154  1  0.843050  0.124400  0.709050  1.0  -0.0797
  C  C155  1  0.891260  0.228000  0.716300  1.0  -0.114
  C  C156  1  0.950820  0.234300  0.675760  1.0  0.1665
  C  C157  1  0.078410  0.877600  0.560680  1.0  0.7543
  C  C158  1  0.114530  0.759600  0.588490  1.0  -0.1502
  C  C159  1  0.085940  0.635500  0.577830  1.0  0.0359
  C  C160  1  0.116300  0.527300  0.606780  1.0  -0.1375
  C  C161  1  0.176820  0.540100  0.646260  1.0  -0.1175
  C  C162  1  0.206100  0.664200  0.656830  1.0  0.2109
  C  C163  1  0.174620  0.773700  0.628910  1.0  -0.1268
  C  C164  1  0.087660  0.391900  0.594750  1.0  0.6581
  C  C165  1  0.273330  0.611500  0.754010  1.0  0.5947
  C  C166  1  0.415710  0.537300  0.878220  1.0  0.1454
  C  C167  1  0.355440  0.529700  0.838310  1.0  -0.0543
  C  C168  1  0.343050  0.624400  0.790950  1.0  -0.0803
  C  C169  1  0.391260  0.728000  0.783700  1.0  -0.1135
  C  C170  1  0.450820  0.734300  0.824240  1.0  0.1667
  C  C171  1  0.921590  0.122400  0.439320  1.0  0.755
  C  C172  1  0.885470  0.240400  0.411510  1.0  -0.1506
  C  C173  1  0.914060  0.364500  0.422170  1.0  0.0368
  C  C174  1  0.883700  0.472700  0.393220  1.0  -0.1367
  C  C175  1  0.823180  0.459900  0.353740  1.0  -0.1179
  C  C176  1  0.793900  0.335800  0.343170  1.0  0.2103
  C  C177  1  0.825380  0.226300  0.371090  1.0  -0.128
  C  C178  1  0.912340  0.608100  0.405250  1.0  0.6579
  C  C179  1  0.726670  0.388500  0.245990  1.0  0.5972
  C  C180  1  0.584290  0.462700  0.121780  1.0  0.1449
  C  C181  1  0.644560  0.470300  0.161690  1.0  -0.0564
  C  C182  1  0.656950  0.375600  0.209050  1.0  -0.0811
  C  C183  1  0.608740  0.272000  0.216300  1.0  -0.1154
  C  C184  1  0.549180  0.265700  0.175760  1.0  0.1666
  N  N185  1  0.767840  0.822700  0.303260  1.0  -0.3937
  N  N186  1  0.963020  0.860000  0.128650  1.0  -0.3311
  N  N187  1  0.232160  0.177300  0.696740  1.0  -0.3919
  N  N188  1  0.036980  0.140000  0.871350  1.0  -0.3296
  N  N189  1  0.732160  0.677300  0.803260  1.0  -0.392
  N  N190  1  0.536980  0.640000  0.628650  1.0  -0.33
  N  N191  1  0.267840  0.322700  0.196740  1.0  -0.3938
  N  N192  1  0.463020  0.360000  0.371350  1.0  -0.3304
  N  N193  1  0.232160  0.822700  0.196740  1.0  -0.3924
  N  N194  1  0.036980  0.860000  0.371350  1.0  -0.3296
  N  N195  1  0.767840  0.177300  0.803260  1.0  -0.3938
  N  N196  1  0.963020  0.140000  0.628650  1.0  -0.3309
  N  N197  1  0.267840  0.677300  0.696740  1.0  -0.3937
  N  N198  1  0.463020  0.640000  0.871350  1.0  -0.3304
  N  N199  1  0.732160  0.322700  0.303260  1.0  -0.3924
  N  N200  1  0.536980  0.360000  0.128650  1.0  -0.3301
  O  O201  1  0.601660  0.511630  0.424560  1.0  -0.5805
  O  O202  1  0.525520  0.638890  0.475480  1.0  -0.6471
  O  O203  1  0.533220  0.119260  0.440640  1.0  -0.5617
  O  O204  1  0.617500  0.206010  0.381050  1.0  -0.5986
  O  O205  1  0.726450  0.954700  0.223320  1.0  -0.472
  O  O206  1  0.398340  0.488370  0.575440  1.0  -0.5817
  O  O207  1  0.474480  0.361110  0.524520  1.0  -0.6469
  O  O208  1  0.466780  0.880740  0.559360  1.0  -0.5615
  O  O209  1  0.382500  0.793990  0.618950  1.0  -0.5995
  O  O210  1  0.273550  0.045300  0.776680  1.0  -0.4716
  O  O211  1  0.898340  0.988370  0.924560  1.0  -0.5811
  O  O212  1  0.974480  0.861110  0.975480  1.0  -0.6466
  O  O213  1  0.966780  0.380740  0.940640  1.0  -0.562
  O  O214  1  0.882500  0.293990  0.881050  1.0  -0.6003
  O  O215  1  0.773550  0.545300  0.723320  1.0  -0.4725
  O  O216  1  0.101660  0.011630  0.075440  1.0  -0.5808
  O  O217  1  0.025520  0.138890  0.024520  1.0  -0.6473
  O  O218  1  0.033220  0.619260  0.059360  1.0  -0.5622
  O  O219  1  0.117500  0.706010  0.118950  1.0  -0.5987
  O  O220  1  0.226450  0.454700  0.276680  1.0  -0.472
  O  O221  1  0.398340  0.511630  0.075440  1.0  -0.5818
  O  O222  1  0.474480  0.638890  0.024520  1.0  -0.6472
  O  O223  1  0.466780  0.119260  0.059360  1.0  -0.5617
  O  O224  1  0.382500  0.206010  0.118950  1.0  -0.5992
  O  O225  1  0.273550  0.954700  0.276680  1.0  -0.4722
  O  O226  1  0.601660  0.488370  0.924560  1.0  -0.5805
  O  O227  1  0.525520  0.361110  0.975480  1.0  -0.647
  O  O228  1  0.533220  0.880740  0.940640  1.0  -0.5617
  O  O229  1  0.617500  0.793990  0.881050  1.0  -0.5988
  O  O230  1  0.726450  0.045300  0.723320  1.0  -0.4725
  O  O231  1  0.101660  0.988370  0.575440  1.0  -0.5811
  O  O232  1  0.025520  0.861110  0.524520  1.0  -0.6471
  O  O233  1  0.033220  0.380740  0.559360  1.0  -0.5619
  O  O234  1  0.117500  0.293990  0.618950  1.0  -0.5983
  O  O235  1  0.226450  0.545300  0.776680  1.0  -0.4719
  O  O236  1  0.898340  0.011630  0.424560  1.0  -0.5814
  O  O237  1  0.974480  0.138890  0.475480  1.0  -0.6469
  O  O238  1  0.966780  0.619260  0.440640  1.0  -0.5624
  O  O239  1  0.882500  0.706010  0.381050  1.0  -0.599
  O  O240  1  0.773550  0.454700  0.223320  1.0  -0.4728
