# generated using pymatgen
data_MnPHCO6
_symmetry_space_group_name_H-M   'P 1'
_cell_length_a   5.97780000
_cell_length_b   16.67470000
_cell_length_c   8.46600000
_cell_angle_alpha   90.00000000
_cell_angle_beta   90.38400000
_cell_angle_gamma   90.00000000
_symmetry_Int_Tables_number   1
_chemical_formula_structural   MnPHCO6
_chemical_formula_sum   'Mn4 P4 H4 C4 O24'
_cell_volume   843.85517902
_cell_formula_units_Z   4
loop_
 _symmetry_equiv_pos_site_id
 _symmetry_equiv_pos_as_xyz
  1  'x, y, z'
loop_
 _atom_site_type_symbol
 _atom_site_label
 _atom_site_symmetry_multiplicity
 _atom_site_fract_x
 _atom_site_fract_y
 _atom_site_fract_z
 _atom_site_occupancy
 _atom_site_charge
  Mn  Mn1  1  0.515300  0.176460  0.504460  1.0  1.1595
  Mn  Mn2  1  0.984700  0.676460  0.995540  1.0  1.1604
  Mn  Mn3  1  0.484700  0.823540  0.495540  1.0  1.16
  Mn  Mn4  1  0.015300  0.323540  0.004460  1.0  1.1595
  P  P5  1  0.007100  0.245150  0.377500  1.0  1.715
  P  P6  1  0.492900  0.745150  0.122500  1.0  1.7152
  P  P7  1  0.992900  0.754850  0.622500  1.0  1.715
  P  P8  1  0.507100  0.254850  0.877500  1.0  1.7148
  H  H9  1  0.040000  0.127000  0.333000  1.0  0.482
  H  H10  1  0.460000  0.627000  0.167000  1.0  0.4788
  H  H11  1  0.960000  0.873000  0.667000  1.0  0.4836
  H  H12  1  0.540000  0.373000  0.833000  1.0  0.4846
  C  C13  1  0.628800  0.999000  0.516000  1.0  0.6006
  C  C14  1  0.871200  0.499000  0.984000  1.0  0.6012
  C  C15  1  0.371200  0.001000  0.484000  1.0  0.602
  C  C16  1  0.128800  0.501000  0.016000  1.0  0.6013
  O  O17  1  0.823400  0.244000  0.500800  1.0  -0.7429
  O  O18  1  0.723700  0.064900  0.538200  1.0  -0.4688
  O  O19  1  0.719300  0.930900  0.515000  1.0  -0.5298
  O  O20  1  0.004800  0.160500  0.287400  1.0  -0.6706
  O  O21  1  0.237300  0.255700  0.450700  1.0  -0.751
  O  O22  1  0.958500  0.306800  0.250200  1.0  -0.7966
  O  O23  1  0.676600  0.744000  0.999200  1.0  -0.7423
  O  O24  1  0.776300  0.564900  0.961800  1.0  -0.4686
  O  O25  1  0.780700  0.430900  0.985000  1.0  -0.5303
  O  O26  1  0.495200  0.660500  0.212600  1.0  -0.6703
  O  O27  1  0.262700  0.755700  0.049300  1.0  -0.7522
  O  O28  1  0.541500  0.806800  0.249800  1.0  -0.7964
  O  O29  1  0.176600  0.756000  0.499200  1.0  -0.7419
  O  O30  1  0.276300  0.935100  0.461800  1.0  -0.4687
  O  O31  1  0.280700  0.069100  0.485000  1.0  -0.5294
  O  O32  1  0.995200  0.839500  0.712600  1.0  -0.6705
  O  O33  1  0.762700  0.744300  0.549300  1.0  -0.7503
  O  O34  1  0.041500  0.693200  0.749800  1.0  -0.7957
  O  O35  1  0.323400  0.256000  0.000800  1.0  -0.7422
  O  O36  1  0.223700  0.435100  0.038200  1.0  -0.4686
  O  O37  1  0.219300  0.569100  0.015000  1.0  -0.5287
  O  O38  1  0.504800  0.339500  0.787400  1.0  -0.6713
  O  O39  1  0.737300  0.244300  0.950700  1.0  -0.7505
  O  O40  1  0.458500  0.193200  0.750200  1.0  -0.7959
