# generated using pymatgen
data_Ni3H6C6N9O
_symmetry_space_group_name_H-M   'P 1'
_cell_length_a   17.82630000
_cell_length_b   17.82630000
_cell_length_c   17.82630000
_cell_angle_alpha   60.00000000
_cell_angle_beta   60.00000000
_cell_angle_gamma   60.00000000
_symmetry_Int_Tables_number   1
_chemical_formula_structural   Ni3H6C6N9O
_chemical_formula_sum   'Ni24 H48 C48 N72 O8'
_cell_volume   4005.60974746
_cell_formula_units_Z   8
loop_
 _symmetry_equiv_pos_site_id
 _symmetry_equiv_pos_as_xyz
  1  'x, y, z'
loop_
 _atom_site_type_symbol
 _atom_site_label
 _atom_site_symmetry_multiplicity
 _atom_site_fract_x
 _atom_site_fract_y
 _atom_site_fract_z
 _atom_site_occupancy
 _atom_site_charge
  Ni  Ni1  1  0.135510  0.750000  0.864490  1.0  0.3203
  Ni  Ni2  1  0.250000  0.635510  0.250000  1.0  0.3204
  Ni  Ni3  1  0.364490  0.250000  0.635510  1.0  0.3209
  Ni  Ni4  1  0.750000  0.864490  0.750000  1.0  0.3204
  Ni  Ni5  1  0.135510  0.864490  0.250000  1.0  0.3204
  Ni  Ni6  1  0.250000  0.250000  0.864490  1.0  0.321
  Ni  Ni7  1  0.364490  0.635510  0.750000  1.0  0.3211
  Ni  Ni8  1  0.750000  0.750000  0.635510  1.0  0.3215
  Ni  Ni9  1  0.135510  0.250000  0.750000  1.0  0.3204
  Ni  Ni10  1  0.250000  0.864490  0.635510  1.0  0.3205
  Ni  Ni11  1  0.364490  0.750000  0.250000  1.0  0.3208
  Ni  Ni12  1  0.750000  0.635510  0.864490  1.0  0.3203
  Ni  Ni13  1  0.864490  0.250000  0.135510  1.0  0.3209
  Ni  Ni14  1  0.750000  0.364490  0.750000  1.0  0.3204
  Ni  Ni15  1  0.635510  0.750000  0.364490  1.0  0.3203
  Ni  Ni16  1  0.250000  0.135510  0.250000  1.0  0.3204
  Ni  Ni17  1  0.864490  0.135510  0.750000  1.0  0.3211
  Ni  Ni18  1  0.750000  0.750000  0.135510  1.0  0.3215
  Ni  Ni19  1  0.635510  0.364490  0.250000  1.0  0.3204
  Ni  Ni20  1  0.250000  0.250000  0.364490  1.0  0.321
  Ni  Ni21  1  0.864490  0.750000  0.250000  1.0  0.3208
  Ni  Ni22  1  0.750000  0.135510  0.364490  1.0  0.3203
  Ni  Ni23  1  0.635510  0.250000  0.750000  1.0  0.3204
  Ni  Ni24  1  0.250000  0.364490  0.135510  1.0  0.3205
  H  H25  1  0.121800  0.568800  0.050400  1.0  0.0901
  H  H26  1  0.068800  0.621800  0.259000  1.0  0.0908
  H  H27  1  0.550400  0.259000  0.621800  1.0  0.0887
  H  H28  1  0.759000  0.050400  0.568800  1.0  0.0875
  H  H29  1  0.121800  0.050400  0.259000  1.0  0.0897
  H  H30  1  0.068800  0.259000  0.050400  1.0  0.0907
  H  H31  1  0.550400  0.621800  0.568800  1.0  0.0914
  H  H32  1  0.759000  0.568800  0.621800  1.0  0.0907
  H  H33  1  0.121800  0.259000  0.568800  1.0  0.0901
  H  H34  1  0.068800  0.050400  0.621800  1.0  0.0899
  H  H35  1  0.550400  0.568800  0.259000  1.0  0.09
  H  H36  1  0.759000  0.621800  0.050400  1.0  0.091
  H  H37  1  0.431200  0.878200  0.449600  1.0  0.0904
  H  H38  1  0.378200  0.931200  0.241000  1.0  0.09
  H  H39  1  0.741000  0.449600  0.878200  1.0  0.0883
  H  H40  1  0.949600  0.241000  0.931200  1.0  0.0886
  H  H41  1  0.949600  0.878200  0.241000  1.0  0.0917
  H  H42  1  0.741000  0.931200  0.449600  1.0  0.0914
  H  H43  1  0.378200  0.449600  0.931200  1.0  0.0899
  H  H44  1  0.431200  0.241000  0.878200  1.0  0.0912
  H  H45  1  0.741000  0.878200  0.931200  1.0  0.0904
  H  H46  1  0.949600  0.931200  0.878200  1.0  0.0897
  H  H47  1  0.431200  0.449600  0.241000  1.0  0.0902
  H  H48  1  0.378200  0.241000  0.449600  1.0  0.0895
  H  H49  1  0.878200  0.431200  0.949600  1.0  0.0896
  H  H50  1  0.931200  0.378200  0.741000  1.0  0.0908
  H  H51  1  0.449600  0.741000  0.378200  1.0  0.0884
  H  H52  1  0.241000  0.949600  0.431200  1.0  0.0883
  H  H53  1  0.878200  0.949600  0.741000  1.0  0.0897
  H  H54  1  0.931200  0.741000  0.949600  1.0  0.0906
  H  H55  1  0.449600  0.378200  0.431200  1.0  0.0914
  H  H56  1  0.241000  0.431200  0.378200  1.0  0.0915
  H  H57  1  0.878200  0.741000  0.431200  1.0  0.0902
  H  H58  1  0.931200  0.949600  0.378200  1.0  0.0906
  H  H59  1  0.449600  0.431200  0.741000  1.0  0.0897
  H  H60  1  0.241000  0.378200  0.949600  1.0  0.0904
  H  H61  1  0.568800  0.121800  0.550400  1.0  0.091
  H  H62  1  0.621800  0.068800  0.759000  1.0  0.0899
  H  H63  1  0.259000  0.550400  0.121800  1.0  0.0883
  H  H64  1  0.050400  0.759000  0.068800  1.0  0.0879
  H  H65  1  0.050400  0.121800  0.759000  1.0  0.0915
  H  H66  1  0.259000  0.068800  0.550400  1.0  0.0913
  H  H67  1  0.621800  0.550400  0.068800  1.0  0.09
  H  H68  1  0.568800  0.759000  0.121800  1.0  0.0904
  H  H69  1  0.259000  0.121800  0.068800  1.0  0.0906
  H  H70  1  0.050400  0.068800  0.121800  1.0  0.0895
  H  H71  1  0.568800  0.550400  0.759000  1.0  0.0897
  H  H72  1  0.621800  0.759000  0.550400  1.0  0.0902
  C  C73  1  0.180580  0.557500  0.007300  1.0  0.1721
  C  C74  1  0.057500  0.680580  0.254620  1.0  0.1719
  C  C75  1  0.507300  0.254620  0.680580  1.0  0.1744
  C  C76  1  0.754620  0.007300  0.557500  1.0  0.1735
  C  C77  1  0.180580  0.007300  0.254620  1.0  0.1728
  C  C78  1  0.057500  0.254620  0.007300  1.0  0.1732
  C  C79  1  0.507300  0.680580  0.557500  1.0  0.1714
  C  C80  1  0.754620  0.557500  0.680580  1.0  0.1731
  C  C81  1  0.180580  0.254620  0.557500  1.0  0.1729
  C  C82  1  0.057500  0.007300  0.680580  1.0  0.1731
  C  C83  1  0.507300  0.557500  0.254620  1.0  0.1747
  C  C84  1  0.754620  0.680580  0.007300  1.0  0.1717
  C  C85  1  0.442500  0.819420  0.492700  1.0  0.1727
  C  C86  1  0.319420  0.942500  0.245380  1.0  0.1724
  C  C87  1  0.745380  0.492700  0.819420  1.0  0.1737
  C  C88  1  0.992700  0.245380  0.942500  1.0  0.1747
  C  C89  1  0.992700  0.819420  0.245380  1.0  0.1713
  C  C90  1  0.745380  0.942500  0.492700  1.0  0.1739
  C  C91  1  0.319420  0.492700  0.942500  1.0  0.1728
  C  C92  1  0.442500  0.245380  0.819420  1.0  0.1734
  C  C93  1  0.745380  0.819420  0.942500  1.0  0.1726
  C  C94  1  0.992700  0.942500  0.819420  1.0  0.1742
  C  C95  1  0.442500  0.492700  0.245380  1.0  0.1734
  C  C96  1  0.319420  0.245380  0.492700  1.0  0.1733
  C  C97  1  0.819420  0.442500  0.992700  1.0  0.1723
  C  C98  1  0.942500  0.319420  0.745380  1.0  0.1724
  C  C99  1  0.492700  0.745380  0.319420  1.0  0.1747
  C  C100  1  0.245380  0.992700  0.442500  1.0  0.1738
  C  C101  1  0.819420  0.992700  0.745380  1.0  0.1727
  C  C102  1  0.942500  0.745380  0.992700  1.0  0.1733
  C  C103  1  0.492700  0.319420  0.442500  1.0  0.1716
  C  C104  1  0.245380  0.442500  0.319420  1.0  0.1736
  C  C105  1  0.819420  0.745380  0.442500  1.0  0.1735
  C  C106  1  0.942500  0.992700  0.319420  1.0  0.1733
  C  C107  1  0.492700  0.442500  0.745380  1.0  0.1743
  C  C108  1  0.245380  0.319420  0.992700  1.0  0.1729
  C  C109  1  0.557500  0.180580  0.507300  1.0  0.1719
  C  C110  1  0.680580  0.057500  0.754620  1.0  0.1721
  C  C111  1  0.254620  0.507300  0.180580  1.0  0.1735
  C  C112  1  0.007300  0.754620  0.057500  1.0  0.1742
  C  C113  1  0.007300  0.180580  0.754620  1.0  0.1715
  C  C114  1  0.254620  0.057500  0.507300  1.0  0.1735
  C  C115  1  0.680580  0.507300  0.057500  1.0  0.1725
  C  C116  1  0.557500  0.754620  0.180580  1.0  0.173
  C  C117  1  0.254620  0.180580  0.057500  1.0  0.1715
  C  C118  1  0.007300  0.057500  0.180580  1.0  0.1741
  C  C119  1  0.557500  0.507300  0.754620  1.0  0.1737
  C  C120  1  0.680580  0.754620  0.507300  1.0  0.173
  N  N121  1  0.205390  0.617590  0.924790  1.0  -0.149
  N  N122  1  0.117590  0.705390  0.252230  1.0  -0.1508
  N  N123  1  0.424790  0.252230  0.705390  1.0  -0.1491
  N  N124  1  0.752230  0.924790  0.617590  1.0  -0.1498
  N  N125  1  0.205390  0.924790  0.252230  1.0  -0.1505
  N  N126  1  0.117590  0.252230  0.924790  1.0  -0.1518
  N  N127  1  0.424790  0.705390  0.617590  1.0  -0.1516
  N  N128  1  0.752230  0.617590  0.705390  1.0  -0.1496
  N  N129  1  0.205390  0.252230  0.617590  1.0  -0.1487
  N  N130  1  0.117590  0.924790  0.705390  1.0  -0.1504
  N  N131  1  0.424790  0.617590  0.252230  1.0  -0.1499
  N  N132  1  0.752230  0.705390  0.924790  1.0  -0.1484
  N  N133  1  0.382410  0.794610  0.575210  1.0  -0.1518
  N  N134  1  0.294610  0.882410  0.247770  1.0  -0.1504
  N  N135  1  0.747770  0.575210  0.794610  1.0  -0.1497
  N  N136  1  0.075210  0.247770  0.882410  1.0  -0.1496
  N  N137  1  0.075210  0.794610  0.247770  1.0  -0.1524
  N  N138  1  0.747770  0.882410  0.575210  1.0  -0.1507
  N  N139  1  0.294610  0.575210  0.882410  1.0  -0.151
  N  N140  1  0.382410  0.247770  0.794610  1.0  -0.1521
  N  N141  1  0.747770  0.794610  0.882410  1.0  -0.1483
  N  N142  1  0.075210  0.882410  0.794610  1.0  -0.1499
  N  N143  1  0.382410  0.575210  0.247770  1.0  -0.1512
  N  N144  1  0.294610  0.247770  0.575210  1.0  -0.149
  N  N145  1  0.794610  0.382410  0.075210  1.0  -0.1491
  N  N146  1  0.882410  0.294610  0.747770  1.0  -0.1495
  N  N147  1  0.575210  0.747770  0.294610  1.0  -0.1489
  N  N148  1  0.247770  0.075210  0.382410  1.0  -0.1481
  N  N149  1  0.794610  0.075210  0.747770  1.0  -0.1495
  N  N150  1  0.882410  0.747770  0.075210  1.0  -0.1508
  N  N151  1  0.575210  0.294610  0.382410  1.0  -0.1512
  N  N152  1  0.247770  0.382410  0.294610  1.0  -0.1497
  N  N153  1  0.794610  0.747770  0.382410  1.0  -0.1463
  N  N154  1  0.882410  0.075210  0.294610  1.0  -0.1504
  N  N155  1  0.575210  0.382410  0.747770  1.0  -0.1488
  N  N156  1  0.247770  0.294610  0.075210  1.0  -0.1491
  N  N157  1  0.617590  0.205390  0.424790  1.0  -0.1506
  N  N158  1  0.705390  0.117590  0.752230  1.0  -0.1496
  N  N159  1  0.252230  0.424790  0.205390  1.0  -0.1498
  N  N160  1  0.924790  0.752230  0.117590  1.0  -0.15
  N  N161  1  0.924790  0.205390  0.752230  1.0  -0.152
  N  N162  1  0.252230  0.117590  0.424790  1.0  -0.1499
  N  N163  1  0.705390  0.424790  0.117590  1.0  -0.1501
  N  N164  1  0.617590  0.752230  0.205390  1.0  -0.1517
  N  N165  1  0.252230  0.205390  0.117590  1.0  -0.1496
  N  N166  1  0.924790  0.117590  0.205390  1.0  -0.1495
  N  N167  1  0.617590  0.424790  0.752230  1.0  -0.1505
  N  N168  1  0.705390  0.752230  0.424790  1.0  -0.147
  N  N169  1  0.250000  0.478580  0.021420  1.0  -0.3272
  N  N170  1  0.978580  0.750000  0.250000  1.0  -0.3273
  N  N171  1  0.521420  0.250000  0.750000  1.0  -0.326
  N  N172  1  0.750000  0.021420  0.478580  1.0  -0.3273
  N  N173  1  0.250000  0.021420  0.250000  1.0  -0.3274
  N  N174  1  0.978580  0.250000  0.021420  1.0  -0.3274
  N  N175  1  0.521420  0.750000  0.478580  1.0  -0.3259
  N  N176  1  0.750000  0.478580  0.750000  1.0  -0.3273
  N  N177  1  0.250000  0.250000  0.478580  1.0  -0.3256
  N  N178  1  0.978580  0.021420  0.750000  1.0  -0.3275
  N  N179  1  0.521420  0.478580  0.250000  1.0  -0.3255
  N  N180  1  0.750000  0.750000  0.021420  1.0  -0.3267
  N  N181  1  0.750000  0.521420  0.978580  1.0  -0.3273
  N  N182  1  0.021420  0.250000  0.750000  1.0  -0.326
  N  N183  1  0.478580  0.750000  0.250000  1.0  -0.3273
  N  N184  1  0.250000  0.978580  0.521420  1.0  -0.3272
  N  N185  1  0.750000  0.978580  0.750000  1.0  -0.3273
  N  N186  1  0.021420  0.750000  0.978580  1.0  -0.3259
  N  N187  1  0.478580  0.250000  0.521420  1.0  -0.3274
  N  N188  1  0.250000  0.521420  0.250000  1.0  -0.3274
  N  N189  1  0.750000  0.750000  0.521420  1.0  -0.3267
  N  N190  1  0.021420  0.978580  0.250000  1.0  -0.3255
  N  N191  1  0.478580  0.521420  0.750000  1.0  -0.3275
  N  N192  1  0.250000  0.250000  0.978580  1.0  -0.3256
  O  O193  1  0.250000  0.750000  0.750000  1.0  -0.6607
  O  O194  1  0.250000  0.750000  0.250000  1.0  -0.6607
  O  O195  1  0.250000  0.250000  0.750000  1.0  -0.6607
  O  O196  1  0.750000  0.750000  0.750000  1.0  -0.6607
  O  O197  1  0.750000  0.250000  0.250000  1.0  -0.6607
  O  O198  1  0.750000  0.250000  0.750000  1.0  -0.6607
  O  O199  1  0.750000  0.750000  0.250000  1.0  -0.6607
  O  O200  1  0.250000  0.250000  0.250000  1.0  -0.6607
