# generated using pymatgen
data_Mn2PHC3O10
_symmetry_space_group_name_H-M   'P 1'
_cell_length_a   7.83000000
_cell_length_b   8.04100000
_cell_length_c   9.65200000
_cell_angle_alpha   76.29000000
_cell_angle_beta   78.47000000
_cell_angle_gamma   86.36000000
_symmetry_Int_Tables_number   1
_chemical_formula_structural   Mn2PHC3O10
_chemical_formula_sum   'Mn4 P2 H2 C6 O20'
_cell_volume   578.38838230
_cell_formula_units_Z   2
loop_
 _symmetry_equiv_pos_site_id
 _symmetry_equiv_pos_as_xyz
  1  'x, y, z'
loop_
 _atom_site_type_symbol
 _atom_site_label
 _atom_site_symmetry_multiplicity
 _atom_site_fract_x
 _atom_site_fract_y
 _atom_site_fract_z
 _atom_site_occupancy
 _atom_site_charge
  Mn  Mn1  1  0.190760  0.310330  0.614600  1.0  1.1382
  Mn  Mn2  1  0.842830  0.033890  0.748180  1.0  1.1132
  Mn  Mn3  1  0.809240  0.689670  0.385400  1.0  1.1396
  Mn  Mn4  1  0.157170  0.966110  0.251820  1.0  1.1127
  P  P5  1  0.077800  0.732900  0.590300  1.0  1.764
  P  P6  1  0.922200  0.267100  0.409700  1.0  1.7644
  H  H7  1  0.284000  0.874000  0.585000  1.0  0.4504
  H  H8  1  0.716000  0.126000  0.415000  1.0  0.4485
  C  C9  1  0.519600  0.238000  0.730800  1.0  0.6124
  C  C10  1  0.481700  0.067000  0.695100  1.0  0.6474
  C  C11  1  0.063900  0.073500  0.958900  1.0  0.6411
  C  C12  1  0.480400  0.762000  0.269200  1.0  0.617
  C  C13  1  0.518300  0.933000  0.304900  1.0  0.6467
  C  C14  1  0.936100  0.926500  0.041100  1.0  0.6415
  O  O15  1  0.415700  0.360100  0.703900  1.0  -0.5102
  O  O16  1  0.344400  0.061600  0.649300  1.0  -0.5647
  O  O17  1  0.031100  0.158500  0.838200  1.0  -0.6394
  O  O18  1  0.074400  0.540500  0.635000  1.0  -0.7712
  O  O19  1  0.186200  0.098500  0.016400  1.0  -0.5202
  O  O20  1  0.590400  0.946900  0.716900  1.0  -0.529
  O  O21  1  0.653800  0.239000  0.783000  1.0  -0.5227
  O  O22  1  0.274800  0.785900  0.565000  1.0  -0.6361
  O  O23  1  0.971700  0.810700  0.709900  1.0  -0.7723
  O  O24  1  0.016600  0.801500  0.445800  1.0  -0.8997
  O  O25  1  0.584300  0.639900  0.296100  1.0  -0.5109
  O  O26  1  0.655600  0.938400  0.350700  1.0  -0.5663
  O  O27  1  0.968900  0.841500  0.161800  1.0  -0.6379
  O  O28  1  0.925600  0.459500  0.365000  1.0  -0.7721
  O  O29  1  0.813800  0.901500  0.983600  1.0  -0.5206
  O  O30  1  0.409600  0.053100  0.283100  1.0  -0.5312
  O  O31  1  0.346200  0.761000  0.217000  1.0  -0.5213
  O  O32  1  0.725200  0.214100  0.435000  1.0  -0.6355
  O  O33  1  0.028300  0.189300  0.290100  1.0  -0.7751
  O  O34  1  0.983400  0.198500  0.554200  1.0  -0.9008
