# generated using pymatgen
data_MnPHCO6
_symmetry_space_group_name_H-M   'P 1'
_cell_length_a   5.45730000
_cell_length_b   8.96500000
_cell_length_c   15.25300000
_cell_angle_alpha   90.00000000
_cell_angle_beta   98.92400000
_cell_angle_gamma   90.00000000
_symmetry_Int_Tables_number   1
_chemical_formula_structural   MnPHCO6
_chemical_formula_sum   'Mn4 P4 H4 C4 O24'
_cell_volume   737.21500947
_cell_formula_units_Z   4
loop_
 _symmetry_equiv_pos_site_id
 _symmetry_equiv_pos_as_xyz
  1  'x, y, z'
loop_
 _atom_site_type_symbol
 _atom_site_label
 _atom_site_symmetry_multiplicity
 _atom_site_fract_x
 _atom_site_fract_y
 _atom_site_fract_z
 _atom_site_occupancy
 _atom_site_charge
  Mn  Mn1  1  0.101000  0.483800  0.818160  1.0  1.1527
  Mn  Mn2  1  0.399000  0.983800  0.681840  1.0  1.1546
  Mn  Mn3  1  0.899000  0.516200  0.181840  1.0  1.1538
  Mn  Mn4  1  0.601000  0.016200  0.318160  1.0  1.1516
  P  P5  1  0.609700  0.259600  0.819430  1.0  1.7378
  P  P6  1  0.890300  0.759600  0.680570  1.0  1.7361
  P  P7  1  0.390300  0.740400  0.180570  1.0  1.7352
  P  P8  1  0.109700  0.240400  0.319430  1.0  1.7369
  H  H9  1  0.540000  0.290000  0.933000  1.0  0.4606
  H  H10  1  0.960000  0.790000  0.567000  1.0  0.4604
  H  H11  1  0.460000  0.710000  0.067000  1.0  0.4604
  H  H12  1  0.040000  0.210000  0.433000  1.0  0.4606
  C  C13  1  0.101000  0.440200  0.014200  1.0  0.6318
  C  C14  1  0.399000  0.940200  0.485800  1.0  0.6305
  C  C15  1  0.899000  0.559800  0.985800  1.0  0.6305
  C  C16  1  0.601000  0.059800  0.514200  1.0  0.6311
  O  O17  1  0.224900  0.398600  0.956600  1.0  -0.5714
  O  O18  1  0.852400  0.301600  0.789900  1.0  -0.7249
  O  O19  1  0.546300  0.095600  0.801200  1.0  -0.6931
  O  O20  1  0.124800  0.394300  0.092700  1.0  -0.5484
  O  O21  1  0.397500  0.360200  0.779500  1.0  -0.7514
  O  O22  1  0.654800  0.278400  0.925200  1.0  -0.6934
  O  O23  1  0.275100  0.898600  0.543400  1.0  -0.5705
  O  O24  1  0.647600  0.801600  0.710100  1.0  -0.7269
  O  O25  1  0.953700  0.595600  0.698800  1.0  -0.6934
  O  O26  1  0.375200  0.894300  0.407300  1.0  -0.5478
  O  O27  1  0.102500  0.860200  0.720500  1.0  -0.7514
  O  O28  1  0.845200  0.778400  0.574800  1.0  -0.6927
  O  O29  1  0.775100  0.601400  0.043400  1.0  -0.571
  O  O30  1  0.147600  0.698400  0.210100  1.0  -0.7266
  O  O31  1  0.453700  0.904400  0.198800  1.0  -0.6916
  O  O32  1  0.875200  0.605700  0.907300  1.0  -0.5463
  O  O33  1  0.602500  0.639800  0.220500  1.0  -0.7519
  O  O34  1  0.345200  0.721600  0.074800  1.0  -0.6918
  O  O35  1  0.724900  0.101400  0.456600  1.0  -0.5715
  O  O36  1  0.352400  0.198400  0.289900  1.0  -0.7248
  O  O37  1  0.046300  0.404400  0.301200  1.0  -0.6911
  O  O38  1  0.624800  0.105700  0.592700  1.0  -0.5478
  O  O39  1  0.897500  0.139800  0.279500  1.0  -0.7523
  O  O40  1  0.154800  0.221600  0.425200  1.0  -0.6925
