# generated using pymatgen
data_Zn2H6PtC14N2(ClO4)2
_symmetry_space_group_name_H-M   'P 1'
_cell_length_a   12.76600000
_cell_length_b   23.34000000
_cell_length_c   14.90300000
_cell_angle_alpha   90.00000000
_cell_angle_beta   90.00000000
_cell_angle_gamma   90.00000000
_symmetry_Int_Tables_number   1
_chemical_formula_structural   Zn2H6PtC14N2(ClO4)2
_chemical_formula_sum   'Zn8 H24 Pt4 C56 N8 Cl8 O32'
_cell_volume   4440.47463132
_cell_formula_units_Z   4
loop_
 _symmetry_equiv_pos_site_id
 _symmetry_equiv_pos_as_xyz
  1  'x, y, z'
loop_
 _atom_site_type_symbol
 _atom_site_label
 _atom_site_symmetry_multiplicity
 _atom_site_fract_x
 _atom_site_fract_y
 _atom_site_fract_z
 _atom_site_occupancy
 _atom_site_charge
  Zn  Zn1  1  0.849440  0.098630  0.488280  1.0  0.8823
  Zn  Zn2  1  0.747460  0.984680  0.605800  1.0  1.0119
  Zn  Zn3  1  0.150560  0.901370  0.988280  1.0  0.8816
  Zn  Zn4  1  0.252540  0.015320  0.105800  1.0  1.0117
  Zn  Zn5  1  0.650560  0.598630  0.488280  1.0  0.8813
  Zn  Zn6  1  0.752540  0.484680  0.605800  1.0  1.0114
  Zn  Zn7  1  0.349440  0.401370  0.988280  1.0  0.8804
  Zn  Zn8  1  0.247460  0.515320  0.105800  1.0  1.0124
  H  H9  1  0.932100  0.169400  0.733600  1.0  0.0997
  H  H10  1  0.978400  0.011800  0.831200  1.0  0.125
  H  H11  1  0.101400  0.150900  0.951600  1.0  0.1089
  H  H12  1  0.123000  0.354900  0.956000  1.0  0.0905
  H  H13  1  0.002800  0.500600  0.860400  1.0  0.1248
  H  H14  1  0.921700  0.349700  0.756100  1.0  0.1045
  H  H15  1  0.067900  0.830600  0.233600  1.0  0.0989
  H  H16  1  0.021600  0.988200  0.331200  1.0  0.1245
  H  H17  1  0.898600  0.849100  0.451600  1.0  0.1098
  H  H18  1  0.877000  0.645100  0.456000  1.0  0.0891
  H  H19  1  0.997200  0.499400  0.360400  1.0  0.1251
  H  H20  1  0.078300  0.650300  0.256100  1.0  0.1053
  H  H21  1  0.567900  0.669400  0.733600  1.0  0.0996
  H  H22  1  0.521600  0.511800  0.831200  1.0  0.1247
  H  H23  1  0.398600  0.650900  0.951600  1.0  0.1096
  H  H24  1  0.377000  0.854900  0.956000  1.0  0.0905
  H  H25  1  0.497200  0.000600  0.860400  1.0  0.1249
  H  H26  1  0.578300  0.849700  0.756100  1.0  0.1044
  H  H27  1  0.432100  0.330600  0.233600  1.0  0.0989
  H  H28  1  0.478400  0.488200  0.331200  1.0  0.1245
  H  H29  1  0.601400  0.349100  0.451600  1.0  0.109
  H  H30  1  0.623000  0.145100  0.456000  1.0  0.0891
  H  H31  1  0.502800  0.999400  0.360400  1.0  0.1255
  H  H32  1  0.421700  0.150300  0.256100  1.0  0.1062
  Pt  Pt33  1  0.026660  0.255890  0.850730  1.0  0.1947
  Pt  Pt34  1  0.973340  0.744110  0.350730  1.0  0.1948
  Pt  Pt35  1  0.473340  0.755890  0.850730  1.0  0.1947
  Pt  Pt36  1  0.526660  0.244110  0.350730  1.0  0.1949
  C  C37  1  0.963100  0.145400  0.776000  1.0  0.1593
  C  C38  1  0.948900  0.087000  0.767800  1.0  -0.1803
  C  C39  1  0.990400  0.051000  0.833100  1.0  0.0551
  C  C40  1  0.050100  0.075200  0.901300  1.0  -0.1934
  C  C41  1  0.062600  0.134400  0.905700  1.0  0.1651
  C  C42  1  0.894000  0.065000  0.685200  1.0  0.729
  C  C43  1  0.105400  0.036800  0.968000  1.0  0.7199
  C  C44  1  0.080500  0.374000  0.915100  1.0  0.1302
  C  C45  1  0.074300  0.433100  0.917700  1.0  -0.1864
  C  C46  1  0.009300  0.461100  0.858600  1.0  0.0405
  C  C47  1  0.954200  0.428900  0.796200  1.0  -0.1596
  C  C48  1  0.961300  0.370600  0.796400  1.0  0.1592
  C  C49  1  0.133900  0.467200  0.984800  1.0  0.6743
  C  C50  1  0.883900  0.458000  0.727300  1.0  0.6451
  C  C51  1  0.036900  0.854600  0.276000  1.0  0.159
  C  C52  1  0.051100  0.913000  0.267800  1.0  -0.1804
  C  C53  1  0.009600  0.949000  0.333100  1.0  0.0545
  C  C54  1  0.949900  0.924800  0.401300  1.0  -0.1941
  C  C55  1  0.937400  0.865600  0.405700  1.0  0.1758
  C  C56  1  0.106000  0.935000  0.185200  1.0  0.7288
  C  C57  1  0.894600  0.963200  0.468000  1.0  0.7187
  C  C58  1  0.919500  0.626000  0.415100  1.0  0.133
  C  C59  1  0.925700  0.566900  0.417700  1.0  -0.1871
  C  C60  1  0.990700  0.538900  0.358600  1.0  0.0415
  C  C61  1  0.045800  0.571100  0.296200  1.0  -0.159
  C  C62  1  0.038700  0.629400  0.296400  1.0  0.1596
  C  C63  1  0.866100  0.532800  0.484800  1.0  0.6746
  C  C64  1  0.116100  0.542000  0.227300  1.0  0.6444
  C  C65  1  0.536900  0.645400  0.776000  1.0  0.1582
  C  C66  1  0.551100  0.587000  0.767800  1.0  -0.1803
  C  C67  1  0.509600  0.551000  0.833100  1.0  0.0559
  C  C68  1  0.449900  0.575200  0.901300  1.0  -0.1932
  C  C69  1  0.437400  0.634400  0.905700  1.0  0.1676
  C  C70  1  0.606000  0.565000  0.685200  1.0  0.728
  C  C71  1  0.394600  0.536800  0.968000  1.0  0.7186
  C  C72  1  0.419500  0.874000  0.915100  1.0  0.1351
  C  C73  1  0.425700  0.933100  0.917700  1.0  -0.1873
  C  C74  1  0.490700  0.961100  0.858600  1.0  0.0405
  C  C75  1  0.545800  0.928900  0.796200  1.0  -0.1594
  C  C76  1  0.538700  0.870600  0.796400  1.0  0.159
  C  C77  1  0.366100  0.967200  0.984800  1.0  0.6742
  C  C78  1  0.616100  0.958000  0.727300  1.0  0.6447
  C  C79  1  0.463100  0.354600  0.276000  1.0  0.1624
  C  C80  1  0.448900  0.413000  0.267800  1.0  -0.18
  C  C81  1  0.490400  0.449000  0.333100  1.0  0.0537
  C  C82  1  0.550100  0.424800  0.401300  1.0  -0.1943
  C  C83  1  0.562600  0.365600  0.405700  1.0  0.1662
  C  C84  1  0.394000  0.435000  0.185200  1.0  0.7286
  C  C85  1  0.605400  0.463200  0.468000  1.0  0.7199
  C  C86  1  0.580500  0.126000  0.415100  1.0  0.1285
  C  C87  1  0.574300  0.066900  0.417700  1.0  -0.1861
  C  C88  1  0.509300  0.038900  0.358600  1.0  0.0414
  C  C89  1  0.454200  0.071100  0.296200  1.0  -0.1595
  C  C90  1  0.461300  0.129400  0.296400  1.0  0.1607
  C  C91  1  0.633900  0.032800  0.484800  1.0  0.6752
  C  C92  1  0.383900  0.042000  0.227300  1.0  0.6444
  N  N93  1  0.019300  0.168720  0.842900  1.0  -0.1429
  N  N94  1  0.024300  0.342250  0.853700  1.0  -0.1113
  N  N95  1  0.980700  0.831280  0.342900  1.0  -0.1391
  N  N96  1  0.975700  0.657750  0.353700  1.0  -0.1119
  N  N97  1  0.480700  0.668720  0.842900  1.0  -0.1415
  N  N98  1  0.475700  0.842250  0.853700  1.0  -0.1141
  N  N99  1  0.519300  0.331280  0.342900  1.0  -0.1419
  N  N100  1  0.524300  0.157750  0.353700  1.0  -0.113
  Cl  Cl101  1  0.057800  0.261130  0.698380  1.0  -0.3221
  Cl  Cl102  1  0.994030  0.251200  0.002270  1.0  -0.3167
  Cl  Cl103  1  0.942200  0.738870  0.198380  1.0  -0.3311
  Cl  Cl104  1  0.005970  0.748800  0.502270  1.0  -0.3163
  Cl  Cl105  1  0.442200  0.761130  0.698380  1.0  -0.3261
  Cl  Cl106  1  0.505970  0.751200  0.002270  1.0  -0.3164
  Cl  Cl107  1  0.557800  0.238870  0.198380  1.0  -0.321
  Cl  Cl108  1  0.494030  0.248800  0.502270  1.0  -0.3167
  O  O109  1  0.893700  0.097930  0.618500  1.0  -0.6029
  O  O110  1  0.850900  0.016220  0.691900  1.0  -0.5599
  O  O111  1  0.092800  0.983900  0.957800  1.0  -0.6283
  O  O112  1  0.160900  0.061810  0.025400  1.0  -0.5405
  O  O113  1  0.207700  0.442300  0.029900  1.0  -0.6304
  O  O114  1  0.112200  0.517900  0.997600  1.0  -0.5109
  O  O115  1  0.891300  0.510400  0.715200  1.0  -0.5549
  O  O116  1  0.822900  0.425300  0.682900  1.0  -0.5776
  O  O117  1  0.106300  0.902070  0.118500  1.0  -0.5996
  O  O118  1  0.149100  0.983780  0.191900  1.0  -0.5601
  O  O119  1  0.907200  0.016100  0.457800  1.0  -0.6319
  O  O120  1  0.839100  0.938190  0.525400  1.0  -0.5426
  O  O121  1  0.792300  0.557700  0.529900  1.0  -0.6293
  O  O122  1  0.887800  0.482100  0.497600  1.0  -0.5089
  O  O123  1  0.108700  0.489600  0.215200  1.0  -0.5591
  O  O124  1  0.177100  0.574700  0.182900  1.0  -0.5754
  O  O125  1  0.606300  0.597930  0.618500  1.0  -0.6025
  O  O126  1  0.649100  0.516220  0.691900  1.0  -0.5597
  O  O127  1  0.407200  0.483900  0.957800  1.0  -0.6296
  O  O128  1  0.339100  0.561810  0.025400  1.0  -0.5403
  O  O129  1  0.292300  0.942300  0.029900  1.0  -0.6301
  O  O130  1  0.387800  0.017900  0.997600  1.0  -0.5083
  O  O131  1  0.608700  0.010400  0.715200  1.0  -0.5582
  O  O132  1  0.677100  0.925300  0.682900  1.0  -0.5776
  O  O133  1  0.393700  0.402070  0.118500  1.0  -0.6029
  O  O134  1  0.350900  0.483780  0.191900  1.0  -0.5599
  O  O135  1  0.592800  0.516100  0.457800  1.0  -0.6313
  O  O136  1  0.660900  0.438190  0.525400  1.0  -0.5421
  O  O137  1  0.707700  0.057700  0.529900  1.0  -0.6301
  O  O138  1  0.612200  0.982100  0.497600  1.0  -0.5118
  O  O139  1  0.391300  0.989600  0.215200  1.0  -0.5591
  O  O140  1  0.322900  0.074700  0.182900  1.0  -0.5768
