# generated using pymatgen
data_Zn3P4H12C10(N2O7)2
_symmetry_space_group_name_H-M   'P 1'
_cell_length_a   14.38070000
_cell_length_b   14.38070000
_cell_length_c   14.35520000
_cell_angle_alpha   90.00000000
_cell_angle_beta   90.00000000
_cell_angle_gamma   120.00000000
_symmetry_Int_Tables_number   1
_chemical_formula_structural   Zn3P4H12C10(N2O7)2
_chemical_formula_sum   'Zn9 P12 H36 C30 N12 O42'
_cell_volume   2570.98730461
_cell_formula_units_Z   3
loop_
 _symmetry_equiv_pos_site_id
 _symmetry_equiv_pos_as_xyz
  1  'x, y, z'
loop_
 _atom_site_type_symbol
 _atom_site_label
 _atom_site_symmetry_multiplicity
 _atom_site_fract_x
 _atom_site_fract_y
 _atom_site_fract_z
 _atom_site_occupancy
 _atom_site_charge
  Zn  Zn1  1  0.585070  0.257850  0.835410  1.0  1.0115
  Zn  Zn2  1  0.742150  0.327220  0.502080  1.0  1.0112
  Zn  Zn3  1  0.672780  0.414930  0.168740  1.0  1.0109
  Zn  Zn4  1  0.257850  0.585070  0.164590  1.0  1.0113
  Zn  Zn5  1  0.327220  0.742150  0.497920  1.0  1.0114
  Zn  Zn6  1  0.414930  0.672780  0.831260  1.0  1.0124
  Zn  Zn7  1  0.343660  0.000000  0.666667  1.0  1.1404
  Zn  Zn8  1  0.000000  0.343660  0.333333  1.0  1.1412
  Zn  Zn9  1  0.656340  0.656340  0.000000  1.0  1.1414
  P  P10  1  0.532700  0.220120  0.619500  1.0  1.5287
  P  P11  1  0.364350  0.208700  0.759240  1.0  1.5335
  P  P12  1  0.779880  0.312580  0.286170  1.0  1.5304
  P  P13  1  0.791300  0.155650  0.425910  1.0  1.5285
  P  P14  1  0.687420  0.467300  0.952830  1.0  1.5219
  P  P15  1  0.844350  0.635650  0.092570  1.0  1.5391
  P  P16  1  0.220120  0.532700  0.380500  1.0  1.5228
  P  P17  1  0.208700  0.364350  0.240760  1.0  1.5429
  P  P18  1  0.312580  0.779880  0.713830  1.0  1.5287
  P  P19  1  0.155650  0.791300  0.574090  1.0  1.5372
  P  P20  1  0.467300  0.687420  0.047170  1.0  1.5324
  P  P21  1  0.635650  0.844350  0.907430  1.0  1.5317
  H  H22  1  0.306000  0.223900  0.593800  1.0  0.409
  H  H23  1  0.561000  0.409200  0.705700  1.0  0.1464
  H  H24  1  0.544000  0.419500  0.599500  1.0  0.1479
  H  H25  1  0.516500  0.520400  0.803300  1.0  0.1188
  H  H26  1  0.346900  0.415400  0.571100  1.0  0.1346
  H  H27  1  0.300000  0.540700  0.649400  1.0  0.1279
  H  H28  1  0.776100  0.082100  0.260470  1.0  0.4053
  H  H29  1  0.590800  0.151800  0.372370  1.0  0.1464
  H  H30  1  0.580500  0.124500  0.266170  1.0  0.1476
  H  H31  1  0.479600  0.996100  0.469970  1.0  0.1171
  H  H32  1  0.584600  0.931500  0.237770  1.0  0.1343
  H  H33  1  0.459300  0.759300  0.316070  1.0  0.1292
  H  H34  1  0.917900  0.694000  0.927130  1.0  0.4059
  H  H35  1  0.848200  0.439000  0.039030  1.0  0.1457
  H  H36  1  0.875500  0.456000  0.932830  1.0  0.1484
  H  H37  1  0.003900  0.483500  0.136630  1.0  0.1168
  H  H38  1  0.068500  0.653100  0.904430  1.0  0.1339
  H  H39  1  0.240700  0.700000  0.982730  1.0  0.129
  H  H40  1  0.223900  0.306000  0.406200  1.0  0.4078
  H  H41  1  0.409200  0.561000  0.294300  1.0  0.1458
  H  H42  1  0.419500  0.544000  0.400500  1.0  0.1494
  H  H43  1  0.520400  0.516500  0.196700  1.0  0.1162
  H  H44  1  0.415400  0.346900  0.428900  1.0  0.1341
  H  H45  1  0.540700  0.300000  0.350600  1.0  0.1288
  H  H46  1  0.082100  0.776100  0.739530  1.0  0.4058
  H  H47  1  0.151800  0.590800  0.627630  1.0  0.1457
  H  H48  1  0.124500  0.580500  0.733830  1.0  0.1483
  H  H49  1  0.996100  0.479600  0.530030  1.0  0.118
  H  H50  1  0.931500  0.584600  0.762230  1.0  0.1339
  H  H51  1  0.759300  0.459300  0.683930  1.0  0.1279
  H  H52  1  0.694000  0.917900  0.072870  1.0  0.4044
  H  H53  1  0.439000  0.848200  0.960970  1.0  0.1462
  H  H54  1  0.456000  0.875500  0.067170  1.0  0.1488
  H  H55  1  0.483500  0.003900  0.863370  1.0  0.1166
  H  H56  1  0.653100  0.068500  0.095570  1.0  0.1342
  H  H57  1  0.700000  0.240700  0.017270  1.0  0.1292
  C  C58  1  0.439900  0.270900  0.650700  1.0  -0.3449
  C  C59  1  0.506800  0.392100  0.658200  1.0  -0.1127
  C  C60  1  0.468600  0.510900  0.755800  1.0  0.1243
  C  C61  1  0.375200  0.452200  0.626600  1.0  -0.152
  C  C62  1  0.348900  0.521000  0.670500  1.0  -0.0326
  C  C63  1  0.729100  0.169000  0.317370  1.0  -0.3447
  C  C64  1  0.607900  0.114700  0.324870  1.0  -0.1115
  C  C65  1  0.489100  0.957700  0.422470  1.0  0.1234
  C  C66  1  0.547800  0.923000  0.293270  1.0  -0.1506
  C  C67  1  0.479000  0.827900  0.337170  1.0  -0.0335
  C  C68  1  0.831000  0.560100  0.984030  1.0  -0.3442
  C  C69  1  0.885300  0.493200  0.991530  1.0  -0.1148
  C  C70  1  0.042300  0.531400  0.089130  1.0  0.1234
  C  C71  1  0.077000  0.624800  0.959930  1.0  -0.1511
  C  C72  1  0.172100  0.651100  0.003830  1.0  -0.0316
  C  C73  1  0.270900  0.439900  0.349300  1.0  -0.3454
  C  C74  1  0.392100  0.506800  0.341800  1.0  -0.1156
  C  C75  1  0.510900  0.468600  0.244200  1.0  0.1238
  C  C76  1  0.452200  0.375200  0.373400  1.0  -0.1502
  C  C77  1  0.521000  0.348900  0.329500  1.0  -0.0313
  C  C78  1  0.169000  0.729100  0.682630  1.0  -0.3453
  C  C79  1  0.114700  0.607900  0.675130  1.0  -0.1136
  C  C80  1  0.957700  0.489100  0.577530  1.0  0.1241
  C  C81  1  0.923000  0.547800  0.706730  1.0  -0.151
  C  C82  1  0.827900  0.479000  0.662830  1.0  -0.0328
  C  C83  1  0.560100  0.831000  0.015970  1.0  -0.3445
  C  C84  1  0.493200  0.885300  0.008470  1.0  -0.1127
  C  C85  1  0.531400  0.042300  0.910870  1.0  0.1253
  C  C86  1  0.624800  0.077000  0.040070  1.0  -0.1486
  C  C87  1  0.651100  0.172100  0.996170  1.0  -0.033
  N  N88  1  0.450200  0.449000  0.680100  1.0  0.0741
  N  N89  1  0.408700  0.555700  0.752500  1.0  -0.2988
  N  N90  1  0.551000  0.001200  0.346770  1.0  0.0744
  N  N91  1  0.444300  0.853000  0.419170  1.0  -0.2981
  N  N92  1  0.998800  0.549800  0.013430  1.0  0.0735
  N  N93  1  0.147000  0.591300  0.085830  1.0  -0.2977
  N  N94  1  0.449000  0.450200  0.319900  1.0  0.074
  N  N95  1  0.555700  0.408700  0.247500  1.0  -0.2997
  N  N96  1  0.001200  0.551000  0.653230  1.0  0.0734
  N  N97  1  0.853000  0.444300  0.580830  1.0  -0.3004
  N  N98  1  0.549800  0.998800  0.986570  1.0  0.074
  N  N99  1  0.591300  0.147000  0.914170  1.0  -0.2993
  O  O100  1  0.464900  0.103600  0.593200  1.0  -0.7803
  O  O101  1  0.602800  0.237200  0.703600  1.0  -0.7738
  O  O102  1  0.448100  0.251600  0.836800  1.0  -0.7473
  O  O103  1  0.283600  0.242800  0.771900  1.0  -0.5987
  O  O104  1  0.313400  0.088300  0.747100  1.0  -0.775
  O  O105  1  0.367200  0.247900  0.573900  1.0  -0.4984
  O  O106  1  0.595500  0.285700  0.537200  1.0  -0.8004
  O  O107  1  0.896400  0.361300  0.259870  1.0  -0.7796
  O  O108  1  0.762800  0.365600  0.370270  1.0  -0.7783
  O  O109  1  0.748400  0.196500  0.503470  1.0  -0.7481
  O  O110  1  0.757200  0.040800  0.438570  1.0  -0.6083
  O  O111  1  0.911700  0.225100  0.413770  1.0  -0.7701
  O  O112  1  0.752100  0.119300  0.240570  1.0  -0.4998
  O  O113  1  0.714300  0.309800  0.203870  1.0  -0.8001
  O  O114  1  0.638700  0.535100  0.926530  1.0  -0.7801
  O  O115  1  0.634400  0.397200  0.036930  1.0  -0.7743
  O  O116  1  0.803500  0.551900  0.170130  1.0  -0.7448
  O  O117  1  0.959200  0.716400  0.105230  1.0  -0.6062
  O  O118  1  0.774900  0.686600  0.080430  1.0  -0.7753
  O  O119  1  0.880700  0.632800  0.907230  1.0  -0.4998
  O  O120  1  0.690200  0.404500  0.870530  1.0  -0.8018
  O  O121  1  0.103600  0.464900  0.406800  1.0  -0.7791
  O  O122  1  0.237200  0.602800  0.296400  1.0  -0.7764
  O  O123  1  0.251600  0.448100  0.163200  1.0  -0.749
  O  O124  1  0.242800  0.283600  0.228100  1.0  -0.606
  O  O125  1  0.088300  0.313400  0.252900  1.0  -0.7754
  O  O126  1  0.247900  0.367200  0.426100  1.0  -0.4981
  O  O127  1  0.285700  0.595500  0.462800  1.0  -0.8022
  O  O128  1  0.361300  0.896400  0.740130  1.0  -0.78
  O  O129  1  0.365600  0.762800  0.629730  1.0  -0.7735
  O  O130  1  0.196500  0.748400  0.496530  1.0  -0.7509
  O  O131  1  0.040800  0.757200  0.561430  1.0  -0.5998
  O  O132  1  0.225100  0.911700  0.586230  1.0  -0.7769
  O  O133  1  0.119300  0.752100  0.759430  1.0  -0.4989
  O  O134  1  0.309800  0.714300  0.796130  1.0  -0.8016
  O  O135  1  0.535100  0.638700  0.073470  1.0  -0.7788
  O  O136  1  0.397200  0.634400  0.963070  1.0  -0.7791
  O  O137  1  0.551900  0.803500  0.829870  1.0  -0.7514
  O  O138  1  0.716400  0.959200  0.894770  1.0  -0.6093
  O  O139  1  0.686600  0.774900  0.919570  1.0  -0.771
  O  O140  1  0.632800  0.880700  0.092770  1.0  -0.5009
  O  O141  1  0.404500  0.690200  0.129470  1.0  -0.8006
