# generated using pymatgen
data_Cd3HC5N5O
_symmetry_space_group_name_H-M   'P 1'
_cell_length_a   11.35800000
_cell_length_b   12.36600000
_cell_length_c   12.61900000
_cell_angle_alpha   90.00000000
_cell_angle_beta   90.00000000
_cell_angle_gamma   104.05000000
_symmetry_Int_Tables_number   1
_chemical_formula_structural   Cd3HC5N5O
_chemical_formula_sum   'Cd12 H4 C20 N20 O4'
_cell_volume   1719.35476283
_cell_formula_units_Z   4
loop_
 _symmetry_equiv_pos_site_id
 _symmetry_equiv_pos_as_xyz
  1  'x, y, z'
loop_
 _atom_site_type_symbol
 _atom_site_label
 _atom_site_symmetry_multiplicity
 _atom_site_fract_x
 _atom_site_fract_y
 _atom_site_fract_z
 _atom_site_occupancy
 _atom_site_charge
  Cd  Cd1  1  0.515500  0.055980  0.371330  1.0  0.797
  Cd  Cd2  1  0.308820  0.129960  0.976740  1.0  0.7798
  Cd  Cd3  1  0.736000  0.489720  0.244010  1.0  1.0119
  Cd  Cd4  1  0.984500  0.944020  0.871330  1.0  0.7975
  Cd  Cd5  1  0.191180  0.870040  0.476740  1.0  0.7782
  Cd  Cd6  1  0.764000  0.510280  0.744010  1.0  1.0127
  Cd  Cd7  1  0.484500  0.944020  0.628670  1.0  0.7981
  Cd  Cd8  1  0.691180  0.870040  0.023260  1.0  0.7785
  Cd  Cd9  1  0.264000  0.510280  0.755990  1.0  1.0123
  Cd  Cd10  1  0.015500  0.055980  0.128670  1.0  0.7974
  Cd  Cd11  1  0.808820  0.129960  0.523260  1.0  0.7801
  Cd  Cd12  1  0.236000  0.489720  0.255990  1.0  1.0117
  H  H13  1  0.648600  0.909000  0.487200  1.0  0.337
  H  H14  1  0.851400  0.091000  0.987200  1.0  0.3381
  H  H15  1  0.351400  0.091000  0.512800  1.0  0.3379
  H  H16  1  0.148600  0.909000  0.012800  1.0  0.337
  C  C17  1  0.618200  0.234100  0.361500  1.0  -0.0657
  C  C18  1  0.259700  0.275300  0.906200  1.0  -0.0271
  C  C19  1  0.433700  0.486200  0.259200  1.0  -0.0977
  C  C20  1  0.355100  0.100200  0.142800  1.0  -0.1119
  C  C21  1  0.579900  0.955900  0.247700  1.0  -0.0806
  C  C22  1  0.881800  0.765900  0.861500  1.0  -0.0646
  C  C23  1  0.240300  0.724700  0.406200  1.0  -0.0284
  C  C24  1  0.066300  0.513800  0.759200  1.0  -0.0981
  C  C25  1  0.144900  0.899800  0.642800  1.0  -0.1095
  C  C26  1  0.920100  0.044100  0.747700  1.0  -0.0808
  C  C27  1  0.381800  0.765900  0.638500  1.0  -0.0643
  C  C28  1  0.740300  0.724700  0.093800  1.0  -0.0274
  C  C29  1  0.566300  0.513800  0.740800  1.0  -0.0977
  C  C30  1  0.644900  0.899800  0.857200  1.0  -0.0994
  C  C31  1  0.420100  0.044100  0.752300  1.0  -0.0821
  C  C32  1  0.118200  0.234100  0.138500  1.0  -0.0653
  C  C33  1  0.759700  0.275300  0.593800  1.0  -0.0266
  C  C34  1  0.933700  0.486200  0.240800  1.0  -0.0973
  C  C35  1  0.855100  0.100200  0.357200  1.0  -0.1041
  C  C36  1  0.079900  0.955900  0.252300  1.0  -0.0824
  N  N37  1  0.672400  0.322800  0.342900  1.0  -0.3991
  N  N38  1  0.242100  0.351200  0.863000  1.0  -0.4066
  N  N39  1  0.536300  0.490000  0.257300  1.0  -0.3154
  N  N40  1  0.383200  0.087400  0.227100  1.0  -0.312
  N  N41  1  0.617700  0.932800  0.170000  1.0  -0.3439
  N  N42  1  0.827600  0.677200  0.842900  1.0  -0.3986
  N  N43  1  0.257900  0.648800  0.363000  1.0  -0.4092
  N  N44  1  0.963700  0.510000  0.757300  1.0  -0.3167
  N  N45  1  0.116800  0.912600  0.727100  1.0  -0.3131
  N  N46  1  0.882300  0.067200  0.670000  1.0  -0.3469
  N  N47  1  0.327600  0.677200  0.657100  1.0  -0.399
  N  N48  1  0.757900  0.648800  0.137000  1.0  -0.4067
  N  N49  1  0.463700  0.510000  0.742700  1.0  -0.3167
  N  N50  1  0.616800  0.912600  0.772900  1.0  -0.3114
  N  N51  1  0.382300  0.067200  0.830000  1.0  -0.3452
  N  N52  1  0.172400  0.322800  0.157100  1.0  -0.3994
  N  N53  1  0.742100  0.351200  0.637000  1.0  -0.411
  N  N54  1  0.036300  0.490000  0.242700  1.0  -0.3154
  N  N55  1  0.883200  0.087400  0.272900  1.0  -0.3107
  N  N56  1  0.117700  0.932800  0.330000  1.0  -0.3421
  O  O57  1  0.628200  0.997000  0.511200  1.0  -0.7702
  O  O58  1  0.871800  0.003000  0.011200  1.0  -0.7686
  O  O59  1  0.371800  0.003000  0.488800  1.0  -0.7669
  O  O60  1  0.128200  0.997000  0.988800  1.0  -0.7694
