# generated using pymatgen
data_Cu2H12C13NO9
_symmetry_space_group_name_H-M   'P 1'
_cell_length_a   10.59440000
_cell_length_b   11.59340000
_cell_length_c   15.82200000
_cell_angle_alpha   106.13000000
_cell_angle_beta   90.00000000
_cell_angle_gamma   90.00000000
_symmetry_Int_Tables_number   1
_chemical_formula_structural   Cu2H12C13NO9
_chemical_formula_sum   'Cu8 H48 C52 N4 O36'
_cell_volume   1866.83716930
_cell_formula_units_Z   4
loop_
 _symmetry_equiv_pos_site_id
 _symmetry_equiv_pos_as_xyz
  1  'x, y, z'
loop_
 _atom_site_type_symbol
 _atom_site_label
 _atom_site_symmetry_multiplicity
 _atom_site_fract_x
 _atom_site_fract_y
 _atom_site_fract_z
 _atom_site_occupancy
 _atom_site_charge
  Cu  Cu1  1  0.636770  0.985200  0.499210  1.0  0.9546
  Cu  Cu2  1  0.636770  0.014800  0.000790  1.0  0.9545
  Cu  Cu3  1  0.502420  0.140670  0.685620  1.0  1.0021
  Cu  Cu4  1  0.497580  0.859330  0.314380  1.0  1.0023
  Cu  Cu5  1  0.497580  0.140670  0.185620  1.0  1.0021
  Cu  Cu6  1  0.363230  0.014800  0.500790  1.0  0.9548
  Cu  Cu7  1  0.502420  0.859330  0.814380  1.0  1.0018
  Cu  Cu8  1  0.363230  0.985200  0.999210  1.0  0.9536
  H  H9  1  0.995500  0.054100  0.120600  1.0  0.1041
  H  H10  1  0.505000  0.061300  0.400600  1.0  0.3437
  H  H11  1  0.520300  0.501000  0.351900  1.0  0.1157
  H  H12  1  0.495000  0.061300  0.900600  1.0  0.3442
  H  H13  1  0.004500  0.054100  0.620600  1.0  0.1041
  H  H14  1  0.995500  0.945900  0.379400  1.0  0.1038
  H  H15  1  0.004500  0.945900  0.879400  1.0  0.1038
  H  H16  1  0.495000  0.938700  0.599400  1.0  0.3435
  H  H17  1  0.479700  0.499000  0.648100  1.0  0.1128
  H  H18  1  0.505000  0.938700  0.099400  1.0  0.343
  H  H19  1  0.479700  0.501000  0.851900  1.0  0.1155
  H  H20  1  0.520300  0.499000  0.148100  1.0  0.1151
  H  H21  1  0.070500  0.653100  0.856600  1.0  0.202
  H  H22  1  0.216000  0.745900  0.013200  1.0  0.2045
  H  H23  1  0.065200  0.548100  0.695400  1.0  0.2017
  H  H24  1  0.207700  0.549100  0.963100  1.0  0.174
  H  H25  1  0.210500  0.546300  0.705800  1.0  0.1733
  H  H26  1  0.069100  0.555300  0.965700  1.0  0.2296
  H  H27  1  0.148500  0.303000  0.418200  1.0  0.2472
  H  H28  1  0.213400  0.357200  0.644300  1.0  0.1534
  H  H29  1  0.070500  0.346900  0.643400  1.0  0.2008
  H  H30  1  0.216000  0.254100  0.486800  1.0  0.1993
  H  H31  1  0.065200  0.451900  0.804600  1.0  0.2002
  H  H32  1  0.069100  0.444700  0.534300  1.0  0.2308
  H  H33  1  0.210500  0.453700  0.794200  1.0  0.1725
  H  H34  1  0.074400  0.253300  0.475700  1.0  0.1448
  H  H35  1  0.213400  0.642800  0.855700  1.0  0.1522
  H  H36  1  0.148500  0.697000  0.081800  1.0  0.2472
  H  H37  1  0.207700  0.450900  0.536900  1.0  0.1748
  H  H38  1  0.074400  0.746700  0.024300  1.0  0.146
  H  H39  1  0.934800  0.548100  0.195400  1.0  0.1975
  H  H40  1  0.929500  0.653100  0.356600  1.0  0.2012
  H  H41  1  0.789500  0.546300  0.205800  1.0  0.176
  H  H42  1  0.784000  0.745900  0.513200  1.0  0.2024
  H  H43  1  0.789500  0.453700  0.294200  1.0  0.1737
  H  H44  1  0.786600  0.357200  0.144300  1.0  0.1526
  H  H45  1  0.784000  0.254100  0.986800  1.0  0.1976
  H  H46  1  0.934800  0.451900  0.304600  1.0  0.1966
  H  H47  1  0.925600  0.746700  0.524300  1.0  0.1477
  H  H48  1  0.930900  0.555300  0.465700  1.0  0.2267
  H  H49  1  0.851500  0.303000  0.918200  1.0  0.2478
  H  H50  1  0.851500  0.697000  0.581800  1.0  0.2473
  H  H51  1  0.786600  0.642800  0.355700  1.0  0.1538
  H  H52  1  0.925600  0.253300  0.975700  1.0  0.1482
  H  H53  1  0.792300  0.450900  0.036900  1.0  0.1764
  H  H54  1  0.792300  0.549100  0.463100  1.0  0.1742
  H  H55  1  0.930900  0.444700  0.034300  1.0  0.2265
  H  H56  1  0.929500  0.346900  0.143400  1.0  0.2003
  C  C57  1  0.003200  0.032700  0.672900  1.0  -0.0398
  C  C58  1  0.236400  0.956200  0.834100  1.0  0.6847
  C  C59  1  0.118300  0.017600  0.710800  1.0  -0.0819
  C  C60  1  0.494100  0.389700  0.520000  1.0  -0.0804
  C  C61  1  0.763600  0.043800  0.165900  1.0  0.6837
  C  C62  1  0.111000  0.983000  0.289500  1.0  -0.0797
  C  C63  1  0.881700  0.017600  0.210800  1.0  -0.0824
  C  C64  1  0.881700  0.982400  0.289200  1.0  -0.0826
  C  C65  1  0.230800  0.961300  0.333333  1.0  0.7055
  C  C66  1  0.517200  0.721700  0.140700  1.0  0.6704
  C  C67  1  0.505900  0.610300  0.480000  1.0  -0.0803
  C  C68  1  0.517200  0.278300  0.359300  1.0  0.6703
  C  C69  1  0.510200  0.497300  0.086500  1.0  -0.0851
  C  C70  1  0.510200  0.502700  0.413500  1.0  -0.0857
  C  C71  1  0.482800  0.278300  0.859300  1.0  0.6702
  C  C72  1  0.996800  0.032700  0.172900  1.0  -0.0395
  C  C73  1  0.769200  0.961300  0.833300  1.0  0.707
  C  C74  1  0.118300  0.982400  0.789200  1.0  -0.082
  C  C75  1  0.495600  0.607500  0.567400  1.0  -0.1442
  C  C76  1  0.476700  0.724600  0.952100  1.0  0.6881
  C  C77  1  0.230800  0.038700  0.166700  1.0  0.7051
  C  C78  1  0.996800  0.967300  0.327100  1.0  -0.0397
  C  C79  1  0.111000  0.017000  0.210500  1.0  -0.0802
  C  C80  1  0.523300  0.724600  0.452100  1.0  0.6889
  C  C81  1  0.489800  0.497300  0.586500  1.0  -0.0858
  C  C82  1  0.482800  0.721700  0.640700  1.0  0.6706
  C  C83  1  0.236400  0.043800  0.665900  1.0  0.6852
  C  C84  1  0.889000  0.983000  0.789500  1.0  -0.079
  C  C85  1  0.504400  0.392500  0.432600  1.0  -0.143
  C  C86  1  0.523300  0.275400  0.047900  1.0  0.6875
  C  C87  1  0.763600  0.956200  0.334100  1.0  0.6833
  C  C88  1  0.769200  0.038700  0.666667  1.0  0.7057
  C  C89  1  0.495600  0.392500  0.932600  1.0  -0.1439
  C  C90  1  0.505900  0.389700  0.020000  1.0  -0.081
  C  C91  1  0.504400  0.607500  0.067400  1.0  -0.1437
  C  C92  1  0.476700  0.275400  0.547900  1.0  0.6876
  C  C93  1  0.003200  0.967300  0.827100  1.0  -0.0399
  C  C94  1  0.494100  0.610300  0.980000  1.0  -0.0797
  C  C95  1  0.489800  0.502700  0.913500  1.0  -0.0861
  C  C96  1  0.889000  0.017000  0.710500  1.0  -0.0794
  C  C97  1  0.135400  0.508400  0.704100  1.0  -0.1724
  C  C98  1  0.135400  0.491600  0.795900  1.0  -0.1726
  C  C99  1  0.140200  0.406500  0.543000  1.0  -0.0486
  C  C100  1  0.138800  0.387500  0.632900  1.0  -0.1867
  C  C101  1  0.138800  0.612500  0.867100  1.0  -0.186
  C  C102  1  0.140200  0.593500  0.957000  1.0  -0.05
  C  C103  1  0.861200  0.612500  0.367100  1.0  -0.1871
  C  C104  1  0.859800  0.593500  0.457000  1.0  -0.049
  C  C105  1  0.864600  0.508400  0.204100  1.0  -0.1723
  C  C106  1  0.861200  0.387500  0.132900  1.0  -0.1893
  C  C107  1  0.864600  0.491600  0.295900  1.0  -0.172
  C  C108  1  0.859800  0.406500  0.043000  1.0  -0.0487
  N  N109  1  0.147700  0.708400  0.027500  1.0  -0.3457
  N  N110  1  0.147700  0.291600  0.472500  1.0  -0.3471
  N  N111  1  0.852300  0.708400  0.527500  1.0  -0.3445
  N  N112  1  0.852300  0.291600  0.972500  1.0  -0.3466
  O  O113  1  0.319500  0.891800  0.789300  1.0  -0.5854
  O  O114  1  0.319500  0.108200  0.710700  1.0  -0.5856
  O  O115  1  0.512500  0.284200  0.782700  1.0  -0.5869
  O  O116  1  0.498400  0.005800  0.582900  1.0  -0.959
  O  O117  1  0.233900  0.999500  0.917200  1.0  -0.6048
  O  O118  1  0.440500  0.252000  0.097500  1.0  -0.5887
  O  O119  1  0.233200  0.010500  0.415200  1.0  -0.5955
  O  O120  1  0.559500  0.748000  0.902500  1.0  -0.5888
  O  O121  1  0.487500  0.715800  0.217300  1.0  -0.5862
  O  O122  1  0.622800  0.782700  0.474500  1.0  -0.6208
  O  O123  1  0.622800  0.217300  0.025500  1.0  -0.62
  O  O124  1  0.501600  0.994200  0.417100  1.0  -0.9584
  O  O125  1  0.512500  0.715800  0.717300  1.0  -0.5859
  O  O126  1  0.498400  0.994200  0.917100  1.0  -0.9585
  O  O127  1  0.487500  0.284200  0.282700  1.0  -0.5869
  O  O128  1  0.766100  0.000500  0.082800  1.0  -0.6041
  O  O129  1  0.686300  0.104200  0.712000  1.0  -0.5987
  O  O130  1  0.766100  0.999500  0.417200  1.0  -0.605
  O  O131  1  0.559500  0.252000  0.597500  1.0  -0.5903
  O  O132  1  0.377200  0.782700  0.974500  1.0  -0.6211
  O  O133  1  0.233900  0.000500  0.582800  1.0  -0.6042
  O  O134  1  0.680500  0.108200  0.210700  1.0  -0.5854
  O  O135  1  0.313700  0.895800  0.288000  1.0  -0.5994
  O  O136  1  0.501600  0.005800  0.082900  1.0  -0.9593
  O  O137  1  0.440500  0.748000  0.402500  1.0  -0.5887
  O  O138  1  0.680500  0.891800  0.289300  1.0  -0.5857
  O  O139  1  0.766800  0.010500  0.915200  1.0  -0.5958
  O  O140  1  0.442200  0.188200  0.877600  1.0  -0.5856
  O  O141  1  0.557800  0.188200  0.377600  1.0  -0.5868
  O  O142  1  0.557800  0.811800  0.122400  1.0  -0.5865
  O  O143  1  0.766800  0.989500  0.584800  1.0  -0.5969
  O  O144  1  0.686300  0.895800  0.788000  1.0  -0.5997
  O  O145  1  0.377200  0.217300  0.525500  1.0  -0.6205
  O  O146  1  0.442200  0.811800  0.622400  1.0  -0.5853
  O  O147  1  0.313700  0.104200  0.212000  1.0  -0.5993
  O  O148  1  0.233200  0.989500  0.084800  1.0  -0.5966
