# generated using pymatgen
data_EuH6(C2O)8
_symmetry_space_group_name_H-M   'P 1'
_cell_length_a   11.66000000
_cell_length_b   12.24500000
_cell_length_c   13.56800000
_cell_angle_alpha   64.88000000
_cell_angle_beta   68.25000000
_cell_angle_gamma   88.14000000
_symmetry_Int_Tables_number   1
_chemical_formula_structural   EuH6(C2O)8
_chemical_formula_sum   'Eu3 H18 C48 O24'
_cell_volume   1611.05614230
_cell_formula_units_Z   3
loop_
 _symmetry_equiv_pos_site_id
 _symmetry_equiv_pos_as_xyz
  1  'x, y, z'
loop_
 _atom_site_type_symbol
 _atom_site_label
 _atom_site_symmetry_multiplicity
 _atom_site_fract_x
 _atom_site_fract_y
 _atom_site_fract_z
 _atom_site_occupancy
 _atom_site_charge
  Eu  Eu1  1  0.071170  0.170600  0.172310  1.0  2.1393
  Eu  Eu2  1  0.928830  0.829400  0.827690  1.0  2.1399
  Eu  Eu3  1  0.000000  0.000000  0.000000  1.0  2.1679
  H  H4  1  0.421500  0.995900  0.851600  1.0  0.138
  H  H5  1  0.745200  0.132000  0.822300  1.0  0.1164
  H  H6  1  0.435700  0.278800  0.926200  1.0  0.1327
  H  H7  1  0.989300  0.897700  0.415000  1.0  0.1381
  H  H8  1  0.996800  0.624000  0.324500  1.0  0.1389
  H  H9  1  0.990500  0.554300  0.641400  1.0  0.1424
  H  H10  1  0.863400  0.492400  0.952800  1.0  0.1258
  H  H11  1  0.774600  0.170000  0.968500  1.0  0.121
  H  H12  1  0.600300  0.454100  0.839800  1.0  0.1346
  H  H13  1  0.578500  0.004100  0.148400  1.0  0.1379
  H  H14  1  0.254800  0.868000  0.177700  1.0  0.1172
  H  H15  1  0.564300  0.721200  0.073800  1.0  0.1335
  H  H16  1  0.010700  0.102300  0.585000  1.0  0.1373
  H  H17  1  0.003200  0.376000  0.675500  1.0  0.1383
  H  H18  1  0.009500  0.445700  0.358600  1.0  0.1425
  H  H19  1  0.136600  0.507600  0.047200  1.0  0.1263
  H  H20  1  0.225400  0.830000  0.031500  1.0  0.1215
  H  H21  1  0.399700  0.545900  0.160200  1.0  0.1355
  C  C22  1  0.993200  0.856000  0.233700  1.0  0.7318
  C  C23  1  0.993800  0.773600  0.351800  1.0  -0.1149
  C  C24  1  0.710800  0.623000  0.865500  1.0  0.735
  C  C25  1  0.267700  0.126400  0.935600  1.0  0.724
  C  C26  1  0.408100  0.138700  0.893300  1.0  -0.1264
  C  C27  1  0.467100  0.051700  0.858000  1.0  -0.014
  C  C28  1  0.591700  0.049500  0.833200  1.0  -0.1195
  C  C29  1  0.660000  0.133100  0.841800  1.0  -0.069
  C  C30  1  0.603900  0.219300  0.879100  1.0  0.0833
  C  C31  1  0.475400  0.221200  0.903300  1.0  -0.0466
  C  C32  1  0.976600  0.770700  0.636400  1.0  0.7201
  C  C33  1  0.921100  0.268600  0.029200  1.0  0.7174
  C  C34  1  0.653300  0.948100  0.808700  1.0  0.7174
  C  C35  1  0.990200  0.815600  0.433000  1.0  0.0151
  C  C36  1  0.996100  0.650200  0.379800  1.0  -0.0923
  C  C37  1  0.997300  0.565200  0.486500  1.0  0.032
  C  C38  1  0.991700  0.608800  0.567900  1.0  -0.0287
  C  C39  1  0.988000  0.730800  0.542400  1.0  -0.1105
  C  C40  1  0.816200  0.443800  0.940100  1.0  0.0361
  C  C41  1  0.833100  0.323100  0.969800  1.0  -0.1212
  C  C42  1  0.763500  0.251100  0.948800  1.0  -0.0856
  C  C43  1  0.677000  0.299600  0.898400  1.0  0.0549
  C  C44  1  0.659000  0.421500  0.871200  1.0  -0.0473
  C  C45  1  0.729400  0.493200  0.891600  1.0  -0.1219
  C  C46  1  0.006800  0.144000  0.766300  1.0  0.7326
  C  C47  1  0.006200  0.226400  0.648200  1.0  -0.1163
  C  C48  1  0.289200  0.377000  0.134500  1.0  0.7341
  C  C49  1  0.732300  0.873600  0.064400  1.0  0.723
  C  C50  1  0.591900  0.861300  0.106700  1.0  -0.1253
  C  C51  1  0.532900  0.948300  0.142000  1.0  -0.011
  C  C52  1  0.408300  0.950500  0.166800  1.0  -0.1171
  C  C53  1  0.340000  0.866900  0.158200  1.0  -0.0688
  C  C54  1  0.396100  0.780700  0.120900  1.0  0.0835
  C  C55  1  0.524600  0.778800  0.096700  1.0  -0.0474
  C  C56  1  0.023400  0.229300  0.363600  1.0  0.719
  C  C57  1  0.078900  0.731400  0.970800  1.0  0.7177
  C  C58  1  0.346700  0.051900  0.191300  1.0  0.7191
  C  C59  1  0.009800  0.184400  0.567000  1.0  0.0159
  C  C60  1  0.003900  0.349800  0.620200  1.0  -0.0918
  C  C61  1  0.002700  0.434800  0.513500  1.0  0.0314
  C  C62  1  0.008300  0.391200  0.432100  1.0  -0.0301
  C  C63  1  0.012000  0.269200  0.457600  1.0  -0.1101
  C  C64  1  0.183800  0.556200  0.059900  1.0  0.0356
  C  C65  1  0.166900  0.676900  0.030200  1.0  -0.1214
  C  C66  1  0.236500  0.748900  0.051200  1.0  -0.0876
  C  C67  1  0.323000  0.700400  0.101600  1.0  0.0553
  C  C68  1  0.341000  0.578500  0.128800  1.0  -0.0472
  C  C69  1  0.270600  0.506800  0.108400  1.0  -0.1219
  O  O70  1  0.210000  0.193600  0.979900  1.0  -0.7239
  O  O71  1  0.028100  0.970100  0.186300  1.0  -0.7916
  O  O72  1  0.934300  0.157300  0.055900  1.0  -0.7786
  O  O73  1  0.940700  0.871300  0.628600  1.0  -0.5776
  O  O74  1  0.766000  0.944500  0.791700  1.0  -0.6568
  O  O75  1  0.001300  0.699600  0.723400  1.0  -0.6661
  O  O76  1  0.976700  0.331300  0.054900  1.0  -0.6759
  O  O77  1  0.762800  0.676400  0.902400  1.0  -0.6948
  O  O78  1  0.959000  0.811100  0.180400  1.0  -0.6464
  O  O79  1  0.214800  0.046500  0.924900  1.0  -0.6367
  O  O80  1  0.643400  0.672300  0.808600  1.0  -0.5318
  O  O81  1  0.581300  0.869600  0.808900  1.0  -0.5087
  O  O82  1  0.790000  0.806400  0.020100  1.0  -0.7236
  O  O83  1  0.971900  0.029900  0.813700  1.0  -0.7908
  O  O84  1  0.065700  0.842700  0.944100  1.0  -0.777
  O  O85  1  0.059300  0.128700  0.371400  1.0  -0.577
  O  O86  1  0.234000  0.055500  0.208300  1.0  -0.6577
  O  O87  1  0.998700  0.300400  0.276600  1.0  -0.6664
  O  O88  1  0.023300  0.668700  0.945100  1.0  -0.6738
  O  O89  1  0.237200  0.323600  0.097600  1.0  -0.6944
  O  O90  1  0.041000  0.188900  0.819600  1.0  -0.6452
  O  O91  1  0.785200  0.953500  0.075100  1.0  -0.6344
  O  O92  1  0.356600  0.327700  0.191400  1.0  -0.5302
  O  O93  1  0.418700  0.130400  0.191100  1.0  -0.506
