# generated using pymatgen
data_NdH6(C2O)8
_symmetry_space_group_name_H-M   'P 1'
_cell_length_a   12.14300000
_cell_length_b   24.87500000
_cell_length_c   19.66900000
_cell_angle_alpha   90.00000000
_cell_angle_beta   102.90000000
_cell_angle_gamma   90.00000000
_symmetry_Int_Tables_number   1
_chemical_formula_structural   NdH6(C2O)8
_chemical_formula_sum   'Nd8 H48 C128 O64'
_cell_volume   5791.21376794
_cell_formula_units_Z   8
loop_
 _symmetry_equiv_pos_site_id
 _symmetry_equiv_pos_as_xyz
  1  'x, y, z'
loop_
 _atom_site_type_symbol
 _atom_site_label
 _atom_site_symmetry_multiplicity
 _atom_site_fract_x
 _atom_site_fract_y
 _atom_site_fract_z
 _atom_site_occupancy
 _atom_site_charge
  Nd  Nd1  1  0.920560  0.449540  0.055230  1.0  2.2701
  Nd  Nd2  1  0.079440  0.449540  0.444770  1.0  2.2702
  Nd  Nd3  1  0.079440  0.550460  0.944770  1.0  2.2707
  Nd  Nd4  1  0.920560  0.550460  0.555230  1.0  2.2709
  Nd  Nd5  1  0.420560  0.949540  0.055230  1.0  2.2701
  Nd  Nd6  1  0.579440  0.949540  0.444770  1.0  2.2702
  Nd  Nd7  1  0.579440  0.050460  0.944770  1.0  2.2707
  Nd  Nd8  1  0.420560  0.050460  0.555230  1.0  2.2709
  H  H9  1  0.108600  0.304700  0.975300  1.0  0.125
  H  H10  1  0.338800  0.426100  0.991800  1.0  0.1155
  H  H11  1  0.577900  0.473200  0.160900  1.0  0.1111
  H  H12  1  0.877900  0.491900  0.294800  1.0  0.1226
  H  H13  1  0.449400  0.278000  0.048600  1.0  0.1235
  H  H14  1  0.590400  0.518400  0.358300  1.0  0.1117
  H  H15  1  0.891400  0.304700  0.524700  1.0  0.1246
  H  H16  1  0.661200  0.426100  0.508200  1.0  0.1153
  H  H17  1  0.422100  0.473200  0.339100  1.0  0.1111
  H  H18  1  0.122100  0.491900  0.205200  1.0  0.1222
  H  H19  1  0.550600  0.278000  0.451400  1.0  0.1237
  H  H20  1  0.409600  0.518400  0.141700  1.0  0.1122
  H  H21  1  0.891400  0.695300  0.024700  1.0  0.1246
  H  H22  1  0.661200  0.573900  0.008200  1.0  0.1153
  H  H23  1  0.422100  0.526800  0.839100  1.0  0.1107
  H  H24  1  0.122100  0.508100  0.705200  1.0  0.122
  H  H25  1  0.550600  0.722000  0.951400  1.0  0.1239
  H  H26  1  0.409600  0.481600  0.641700  1.0  0.112
  H  H27  1  0.108600  0.695300  0.475300  1.0  0.1249
  H  H28  1  0.338800  0.573900  0.491800  1.0  0.1153
  H  H29  1  0.577900  0.526800  0.660900  1.0  0.1113
  H  H30  1  0.877900  0.508100  0.794800  1.0  0.1225
  H  H31  1  0.449400  0.722000  0.548600  1.0  0.1234
  H  H32  1  0.590400  0.481600  0.858300  1.0  0.1123
  H  H33  1  0.608600  0.804700  0.975300  1.0  0.1255
  H  H34  1  0.838800  0.926100  0.991800  1.0  0.1155
  H  H35  1  0.077900  0.973200  0.160900  1.0  0.1111
  H  H36  1  0.377900  0.991900  0.294800  1.0  0.1226
  H  H37  1  0.949400  0.778000  0.048600  1.0  0.1235
  H  H38  1  0.090400  0.018400  0.358300  1.0  0.1117
  H  H39  1  0.391400  0.804700  0.524700  1.0  0.1249
  H  H40  1  0.161200  0.926100  0.508200  1.0  0.1153
  H  H41  1  0.922100  0.973200  0.339100  1.0  0.1111
  H  H42  1  0.622100  0.991900  0.205200  1.0  0.1222
  H  H43  1  0.050600  0.778000  0.451400  1.0  0.1237
  H  H44  1  0.909600  0.018400  0.141700  1.0  0.1122
  H  H45  1  0.391400  0.195300  0.024700  1.0  0.1248
  H  H46  1  0.161200  0.073900  0.008200  1.0  0.1153
  H  H47  1  0.922100  0.026800  0.839100  1.0  0.1107
  H  H48  1  0.622100  0.008100  0.705200  1.0  0.122
  H  H49  1  0.050600  0.222000  0.951400  1.0  0.1241
  H  H50  1  0.909600  0.981600  0.641700  1.0  0.112
  H  H51  1  0.608600  0.195300  0.475300  1.0  0.1254
  H  H52  1  0.838800  0.073900  0.491800  1.0  0.1153
  H  H53  1  0.077900  0.026800  0.660900  1.0  0.1113
  H  H54  1  0.377900  0.008100  0.794800  1.0  0.1225
  H  H55  1  0.949400  0.222000  0.548600  1.0  0.1236
  H  H56  1  0.090400  0.981600  0.858300  1.0  0.1123
  C  C57  1  0.112300  0.412000  0.964500  1.0  0.7623
  C  C58  1  0.797200  0.467300  0.162100  1.0  0.69
  C  C59  1  0.206300  0.370800  0.978700  1.0  -0.0793
  C  C60  1  0.736400  0.481800  0.218500  1.0  -0.1337
  C  C61  1  0.182700  0.317200  0.986400  1.0  -0.0938
  C  C62  1  0.324600  0.389800  0.997600  1.0  0.0086
  C  C63  1  0.619300  0.482100  0.205200  1.0  -0.0573
  C  C64  1  0.799400  0.493100  0.285300  1.0  0.0315
  C  C65  1  0.273000  0.281800  0.011500  1.0  -0.1309
  C  C66  1  0.415800  0.356200  0.023700  1.0  -0.0653
  C  C67  1  0.562300  0.495500  0.257400  1.0  0.0532
  C  C68  1  0.743800  0.506100  0.337500  1.0  -0.1376
  C  C69  1  0.391100  0.301900  0.031100  1.0  -0.0434
  C  C70  1  0.537500  0.373800  0.032500  1.0  0.6129
  C  C71  1  0.626500  0.508300  0.323300  1.0  -0.0434
  C  C72  1  0.808700  0.518600  0.410100  1.0  0.7581
  C  C73  1  0.887700  0.412000  0.535500  1.0  0.762
  C  C74  1  0.202800  0.467300  0.337900  1.0  0.6896
  C  C75  1  0.793700  0.370800  0.521300  1.0  -0.0812
  C  C76  1  0.263600  0.481800  0.281500  1.0  -0.1336
  C  C77  1  0.817300  0.317200  0.513600  1.0  -0.0914
  C  C78  1  0.675400  0.389800  0.502400  1.0  0.0084
  C  C79  1  0.380700  0.482100  0.294800  1.0  -0.0566
  C  C80  1  0.200600  0.493100  0.214700  1.0  0.0307
  C  C81  1  0.727000  0.281800  0.488500  1.0  -0.1311
  C  C82  1  0.584200  0.356200  0.476300  1.0  -0.0654
  C  C83  1  0.437700  0.495500  0.242600  1.0  0.0529
  C  C84  1  0.256200  0.506100  0.162500  1.0  -0.1379
  C  C85  1  0.608900  0.301900  0.468900  1.0  -0.0441
  C  C86  1  0.462500  0.373800  0.467500  1.0  0.6162
  C  C87  1  0.373500  0.508300  0.176700  1.0  -0.0496
  C  C88  1  0.191300  0.518600  0.089900  1.0  0.7581
  C  C89  1  0.887700  0.588000  0.035500  1.0  0.7653
  C  C90  1  0.202800  0.532700  0.837900  1.0  0.6893
  C  C91  1  0.793700  0.629200  0.021300  1.0  -0.0809
  C  C92  1  0.263600  0.518200  0.781500  1.0  -0.1338
  C  C93  1  0.817300  0.682800  0.013600  1.0  -0.0914
  C  C94  1  0.675400  0.610200  0.002400  1.0  0.0068
  C  C95  1  0.380700  0.517900  0.794800  1.0  -0.0566
  C  C96  1  0.200600  0.506900  0.714700  1.0  0.031
  C  C97  1  0.727000  0.718200  0.988500  1.0  -0.1293
  C  C98  1  0.584200  0.643800  0.976300  1.0  -0.0654
  C  C99  1  0.437700  0.504500  0.742600  1.0  0.0529
  C  C100  1  0.256200  0.493900  0.662500  1.0  -0.138
  C  C101  1  0.608900  0.698100  0.968900  1.0  -0.044
  C  C102  1  0.462500  0.626200  0.967500  1.0  0.6159
  C  C103  1  0.373500  0.491700  0.676700  1.0  -0.0437
  C  C104  1  0.191300  0.481400  0.589900  1.0  0.7583
  C  C105  1  0.112300  0.588000  0.464500  1.0  0.765
  C  C106  1  0.797200  0.532700  0.662100  1.0  0.6903
  C  C107  1  0.206300  0.629200  0.478700  1.0  -0.0799
  C  C108  1  0.736400  0.518200  0.718500  1.0  -0.1337
  C  C109  1  0.182700  0.682800  0.486400  1.0  -0.0942
  C  C110  1  0.324600  0.610200  0.497600  1.0  0.0081
  C  C111  1  0.619300  0.517900  0.705200  1.0  -0.0574
  C  C112  1  0.799400  0.506900  0.785300  1.0  0.0316
  C  C113  1  0.273000  0.718200  0.511500  1.0  -0.1296
  C  C114  1  0.415800  0.643800  0.523700  1.0  -0.0656
  C  C115  1  0.562300  0.504500  0.757400  1.0  0.0533
  C  C116  1  0.743800  0.493900  0.837500  1.0  -0.1375
  C  C117  1  0.391100  0.698100  0.531100  1.0  -0.0436
  C  C118  1  0.537500  0.626200  0.532500  1.0  0.6138
  C  C119  1  0.626500  0.491700  0.823300  1.0  -0.0487
  C  C120  1  0.808700  0.481400  0.910100  1.0  0.7585
  C  C121  1  0.612300  0.912000  0.964500  1.0  0.7623
  C  C122  1  0.297200  0.967300  0.162100  1.0  0.69
  C  C123  1  0.706300  0.870800  0.978700  1.0  -0.0793
  C  C124  1  0.236400  0.981800  0.218500  1.0  -0.1337
  C  C125  1  0.682700  0.817200  0.986400  1.0  -0.093
  C  C126  1  0.824600  0.889800  0.997600  1.0  0.0086
  C  C127  1  0.119300  0.982100  0.205200  1.0  -0.0573
  C  C128  1  0.299400  0.993100  0.285300  1.0  0.0315
  C  C129  1  0.773000  0.781800  0.011500  1.0  -0.1309
  C  C130  1  0.915800  0.856200  0.023700  1.0  -0.0653
  C  C131  1  0.062300  0.995500  0.257400  1.0  0.0532
  C  C132  1  0.243800  0.006100  0.337500  1.0  -0.1376
  C  C133  1  0.891100  0.801900  0.031100  1.0  -0.0434
  C  C134  1  0.037500  0.873800  0.032500  1.0  0.6129
  C  C135  1  0.126500  0.008300  0.323300  1.0  -0.0434
  C  C136  1  0.308700  0.018600  0.410100  1.0  0.7581
  C  C137  1  0.387700  0.912000  0.535500  1.0  0.762
  C  C138  1  0.702800  0.967300  0.337900  1.0  0.6896
  C  C139  1  0.293700  0.870800  0.521300  1.0  -0.0812
  C  C140  1  0.763600  0.981800  0.281500  1.0  -0.1336
  C  C141  1  0.317300  0.817200  0.513600  1.0  -0.0908
  C  C142  1  0.175400  0.889800  0.502400  1.0  0.0084
  C  C143  1  0.880700  0.982100  0.294800  1.0  -0.0566
  C  C144  1  0.700600  0.993100  0.214700  1.0  0.0307
  C  C145  1  0.227000  0.781800  0.488500  1.0  -0.1311
  C  C146  1  0.084200  0.856200  0.476300  1.0  -0.0654
  C  C147  1  0.937700  0.995500  0.242600  1.0  0.0529
  C  C148  1  0.756200  0.006100  0.162500  1.0  -0.1379
  C  C149  1  0.108900  0.801900  0.468900  1.0  -0.0441
  C  C150  1  0.962500  0.873800  0.467500  1.0  0.6162
  C  C151  1  0.873500  0.008300  0.176700  1.0  -0.0496
  C  C152  1  0.691300  0.018600  0.089900  1.0  0.7581
  C  C153  1  0.387700  0.088000  0.035500  1.0  0.7653
  C  C154  1  0.702800  0.032700  0.837900  1.0  0.6893
  C  C155  1  0.293700  0.129200  0.021300  1.0  -0.0809
  C  C156  1  0.763600  0.018200  0.781500  1.0  -0.1338
  C  C157  1  0.317300  0.182800  0.013600  1.0  -0.0909
  C  C158  1  0.175400  0.110200  0.002400  1.0  0.0068
  C  C159  1  0.880700  0.017900  0.794800  1.0  -0.0566
  C  C160  1  0.700600  0.006900  0.714700  1.0  0.031
  C  C161  1  0.227000  0.218200  0.988500  1.0  -0.1293
  C  C162  1  0.084200  0.143800  0.976300  1.0  -0.0654
  C  C163  1  0.937700  0.004500  0.742600  1.0  0.0529
  C  C164  1  0.756200  0.993900  0.662500  1.0  -0.138
  C  C165  1  0.108900  0.198100  0.968900  1.0  -0.044
  C  C166  1  0.962500  0.126200  0.967500  1.0  0.6159
  C  C167  1  0.873500  0.991700  0.676700  1.0  -0.0437
  C  C168  1  0.691300  0.981400  0.589900  1.0  0.7583
  C  C169  1  0.612300  0.088000  0.464500  1.0  0.765
  C  C170  1  0.297200  0.032700  0.662100  1.0  0.6903
  C  C171  1  0.706300  0.129200  0.478700  1.0  -0.0799
  C  C172  1  0.236400  0.018200  0.718500  1.0  -0.1337
  C  C173  1  0.682700  0.182800  0.486400  1.0  -0.0934
  C  C174  1  0.824600  0.110200  0.497600  1.0  0.0081
  C  C175  1  0.119300  0.017900  0.705200  1.0  -0.0574
  C  C176  1  0.299400  0.006900  0.785300  1.0  0.0316
  C  C177  1  0.773000  0.218200  0.511500  1.0  -0.1296
  C  C178  1  0.915800  0.143800  0.523700  1.0  -0.0656
  C  C179  1  0.062300  0.004500  0.757400  1.0  0.0533
  C  C180  1  0.243800  0.993900  0.837500  1.0  -0.1375
  C  C181  1  0.891100  0.198100  0.531100  1.0  -0.0436
  C  C182  1  0.037500  0.126200  0.532500  1.0  0.6138
  C  C183  1  0.126500  0.991700  0.823300  1.0  -0.0487
  C  C184  1  0.308700  0.981400  0.910100  1.0  0.7585
  O  O185  1  0.025000  0.399300  0.983800  1.0  -0.7033
  O  O186  1  0.741800  0.453200  0.103000  1.0  -0.6679
  O  O187  1  0.902800  0.468600  0.175700  1.0  -0.6801
  O  O188  1  0.763100  0.454300  0.949600  1.0  -0.6917
  O  O189  1  0.091700  0.501300  0.070300  1.0  -0.824
  O  O190  1  0.864000  0.543500  0.057100  1.0  -0.6871
  O  O191  1  0.534900  0.420600  0.037500  1.0  -0.4345
  O  O192  1  0.610500  0.341100  0.046300  1.0  -0.4223
  O  O193  1  0.975000  0.399300  0.516200  1.0  -0.7038
  O  O194  1  0.258200  0.453200  0.397000  1.0  -0.67
  O  O195  1  0.097200  0.468600  0.324300  1.0  -0.6808
  O  O196  1  0.236900  0.454300  0.550400  1.0  -0.6924
  O  O197  1  0.908300  0.501300  0.429700  1.0  -0.8235
  O  O198  1  0.136000  0.543500  0.442900  1.0  -0.6855
  O  O199  1  0.465100  0.420600  0.462500  1.0  -0.4349
  O  O200  1  0.389500  0.341100  0.453700  1.0  -0.4219
  O  O201  1  0.975000  0.600700  0.016200  1.0  -0.7022
  O  O202  1  0.258200  0.546800  0.897000  1.0  -0.6705
  O  O203  1  0.097200  0.531400  0.824300  1.0  -0.6797
  O  O204  1  0.236900  0.545700  0.050400  1.0  -0.6926
  O  O205  1  0.908300  0.498700  0.929700  1.0  -0.8239
  O  O206  1  0.136000  0.456500  0.942900  1.0  -0.6874
  O  O207  1  0.465100  0.579400  0.962500  1.0  -0.4345
  O  O208  1  0.389500  0.658900  0.953700  1.0  -0.4224
  O  O209  1  0.025000  0.600700  0.483800  1.0  -0.7023
  O  O210  1  0.741800  0.546800  0.603000  1.0  -0.6676
  O  O211  1  0.902800  0.531400  0.675700  1.0  -0.6803
  O  O212  1  0.763100  0.545700  0.449600  1.0  -0.6919
  O  O213  1  0.091700  0.498700  0.570300  1.0  -0.8242
  O  O214  1  0.864000  0.456500  0.557100  1.0  -0.6873
  O  O215  1  0.534900  0.579400  0.537500  1.0  -0.4339
  O  O216  1  0.610500  0.658900  0.546300  1.0  -0.422
  O  O217  1  0.525000  0.899300  0.983800  1.0  -0.7033
  O  O218  1  0.241800  0.953200  0.103000  1.0  -0.6679
  O  O219  1  0.402800  0.968600  0.175700  1.0  -0.6801
  O  O220  1  0.263100  0.954300  0.949600  1.0  -0.6917
  O  O221  1  0.591700  0.001300  0.070300  1.0  -0.824
  O  O222  1  0.364000  0.043500  0.057100  1.0  -0.6871
  O  O223  1  0.034900  0.920600  0.037500  1.0  -0.4345
  O  O224  1  0.110500  0.841100  0.046300  1.0  -0.4223
  O  O225  1  0.475000  0.899300  0.516200  1.0  -0.7038
  O  O226  1  0.758200  0.953200  0.397000  1.0  -0.67
  O  O227  1  0.597200  0.968600  0.324300  1.0  -0.6808
  O  O228  1  0.736900  0.954300  0.550400  1.0  -0.6924
  O  O229  1  0.408300  0.001300  0.429700  1.0  -0.8235
  O  O230  1  0.636000  0.043500  0.442900  1.0  -0.6855
  O  O231  1  0.965100  0.920600  0.462500  1.0  -0.4349
  O  O232  1  0.889500  0.841100  0.453700  1.0  -0.4219
  O  O233  1  0.475000  0.100700  0.016200  1.0  -0.7022
  O  O234  1  0.758200  0.046800  0.897000  1.0  -0.6705
  O  O235  1  0.597200  0.031400  0.824300  1.0  -0.6797
  O  O236  1  0.736900  0.045700  0.050400  1.0  -0.6926
  O  O237  1  0.408300  0.998700  0.929700  1.0  -0.8239
  O  O238  1  0.636000  0.956500  0.942900  1.0  -0.6874
  O  O239  1  0.965100  0.079400  0.962500  1.0  -0.4345
  O  O240  1  0.889500  0.158900  0.953700  1.0  -0.4224
  O  O241  1  0.525000  0.100700  0.483800  1.0  -0.7023
  O  O242  1  0.241800  0.046800  0.603000  1.0  -0.6676
  O  O243  1  0.402800  0.031400  0.675700  1.0  -0.6803
  O  O244  1  0.263100  0.045700  0.449600  1.0  -0.6919
  O  O245  1  0.591700  0.998700  0.570300  1.0  -0.8242
  O  O246  1  0.364000  0.956500  0.557100  1.0  -0.6873
  O  O247  1  0.034900  0.079400  0.537500  1.0  -0.4339
  O  O248  1  0.110500  0.158900  0.546300  1.0  -0.422
