# generated using pymatgen
data_TbH6(C2O)8
_symmetry_space_group_name_H-M   'P 1'
_cell_length_a   11.60900000
_cell_length_b   12.22700000
_cell_length_c   13.55400000
_cell_angle_alpha   65.00000000
_cell_angle_beta   69.14000000
_cell_angle_gamma   87.75000000
_symmetry_Int_Tables_number   1
_chemical_formula_structural   TbH6(C2O)8
_chemical_formula_sum   'Tb3 H18 C48 O24'
_cell_volume   1615.24069961
_cell_formula_units_Z   3
loop_
 _symmetry_equiv_pos_site_id
 _symmetry_equiv_pos_as_xyz
  1  'x, y, z'
loop_
 _atom_site_type_symbol
 _atom_site_label
 _atom_site_symmetry_multiplicity
 _atom_site_fract_x
 _atom_site_fract_y
 _atom_site_fract_z
 _atom_site_occupancy
 _atom_site_charge
  Tb  Tb1  1  0.426320  0.830310  0.326900  1.0  2.2627
  Tb  Tb2  1  0.573680  0.169690  0.673100  1.0  2.2623
  Tb  Tb3  1  0.500000  0.000000  0.500000  1.0  2.2956
  H  H4  1  0.065700  0.721100  0.571700  1.0  0.1204
  H  H5  1  0.083600  0.004500  0.646000  1.0  0.1263
  H  H6  1  0.757600  0.868800  0.676300  1.0  0.1091
  H  H7  1  0.634100  0.507400  0.548800  1.0  0.1261
  H  H8  1  0.900800  0.545600  0.661000  1.0  0.1193
  H  H9  1  0.507800  0.103100  0.084400  1.0  0.1229
  H  H10  1  0.727200  0.830500  0.531100  1.0  0.1116
  H  H11  1  0.499500  0.373300  0.178000  1.0  0.1227
  H  H12  1  0.511700  0.445500  0.858000  1.0  0.1254
  H  H13  1  0.934300  0.278900  0.428300  1.0  0.1201
  H  H14  1  0.916400  0.995500  0.354000  1.0  0.1263
  H  H15  1  0.242400  0.131200  0.323700  1.0  0.1091
  H  H16  1  0.365900  0.492600  0.451200  1.0  0.1258
  H  H17  1  0.099200  0.454400  0.339000  1.0  0.1184
  H  H18  1  0.492200  0.896900  0.915600  1.0  0.123
  H  H19  1  0.272800  0.169500  0.468900  1.0  0.1117
  H  H20  1  0.500500  0.626700  0.822000  1.0  0.1243
  H  H21  1  0.488300  0.554500  0.142000  1.0  0.1257
  C  C22  1  0.523800  0.228700  0.863700  1.0  0.7023
  C  C23  1  0.236200  0.872800  0.560500  1.0  0.7104
  C  C24  1  0.026400  0.778500  0.595300  1.0  -0.0634
  C  C25  1  0.095800  0.862600  0.604300  1.0  -0.1289
  C  C26  1  0.037500  0.948700  0.640000  1.0  0.0154
  C  C27  1  0.849600  0.052100  0.692600  1.0  0.7075
  C  C28  1  0.911300  0.951100  0.666500  1.0  -0.1258
  C  C29  1  0.842700  0.867100  0.657600  1.0  -0.0903
  C  C30  1  0.899000  0.780000  0.621100  1.0  0.0671
  C  C31  1  0.789200  0.377700  0.634400  1.0  0.7168
  C  C32  1  0.771400  0.507200  0.608600  1.0  -0.1434
  C  C33  1  0.682600  0.555900  0.560600  1.0  0.0048
  C  C34  1  0.666800  0.678600  0.530400  1.0  -0.1338
  C  C35  1  0.502300  0.141200  0.266700  1.0  0.6995
  C  C36  1  0.577400  0.733000  0.471400  1.0  0.7083
  C  C37  1  0.825400  0.700600  0.602100  1.0  0.0676
  C  C38  1  0.503900  0.225700  0.148700  1.0  -0.1376
  C  C39  1  0.841800  0.579100  0.629000  1.0  -0.0599
  C  C40  1  0.507800  0.185400  0.066300  1.0  0.0087
  C  C41  1  0.738000  0.749100  0.551400  1.0  -0.1033
  C  C42  1  0.501300  0.347600  0.122000  1.0  -0.0739
  C  C43  1  0.501100  0.433700  0.014300  1.0  0.0455
  C  C44  1  0.511800  0.268600  0.956800  1.0  -0.1357
  C  C45  1  0.508700  0.390500  0.931900  1.0  -0.0284
  C  C46  1  0.476200  0.771300  0.136300  1.0  0.7038
  C  C47  1  0.763800  0.127200  0.439500  1.0  0.7124
  C  C48  1  0.973600  0.221500  0.404700  1.0  -0.064
  C  C49  1  0.904200  0.137400  0.395700  1.0  -0.1282
  C  C50  1  0.962500  0.051300  0.360000  1.0  0.0131
  C  C51  1  0.150400  0.947900  0.307400  1.0  0.7059
  C  C52  1  0.088700  0.048900  0.333500  1.0  -0.1269
  C  C53  1  0.157300  0.132900  0.342400  1.0  -0.0908
  C  C54  1  0.101000  0.220000  0.378900  1.0  0.067
  C  C55  1  0.210800  0.622300  0.365600  1.0  0.7171
  C  C56  1  0.228600  0.492800  0.391400  1.0  -0.1422
  C  C57  1  0.317400  0.444100  0.439400  1.0  0.0049
  C  C58  1  0.333200  0.321400  0.469600  1.0  -0.1352
  C  C59  1  0.497700  0.858800  0.733300  1.0  0.6979
  C  C60  1  0.422600  0.267000  0.528600  1.0  0.7082
  C  C61  1  0.174600  0.299400  0.397900  1.0  0.0664
  C  C62  1  0.496100  0.774300  0.851300  1.0  -0.135
  C  C63  1  0.158200  0.420900  0.371000  1.0  -0.0603
  C  C64  1  0.492200  0.814600  0.933700  1.0  0.0085
  C  C65  1  0.262000  0.250900  0.448600  1.0  -0.1023
  C  C66  1  0.498700  0.652400  0.878000  1.0  -0.0779
  C  C67  1  0.498900  0.566300  0.985700  1.0  0.0453
  C  C68  1  0.488200  0.731400  0.043200  1.0  -0.1367
  C  C69  1  0.491300  0.609500  0.068100  1.0  -0.03
  O  O70  1  0.561900  0.129900  0.869400  1.0  -0.5821
  O  O71  1  0.498600  0.300600  0.775600  1.0  -0.699
  O  O72  1  0.290800  0.806700  0.515500  1.0  -0.7087
  O  O73  1  0.289100  0.953700  0.570500  1.0  -0.6333
  O  O74  1  0.738800  0.055200  0.708800  1.0  -0.6314
  O  O75  1  0.920200  0.129900  0.691900  1.0  -0.5048
  O  O76  1  0.733100  0.322000  0.603500  1.0  -0.6645
  O  O77  1  0.563700  0.845300  0.444100  1.0  -0.7695
  O  O78  1  0.468100  0.029700  0.312900  1.0  -0.7475
  O  O79  1  0.521300  0.671500  0.445200  1.0  -0.6108
  O  O80  1  0.533900  0.185600  0.323300  1.0  -0.6133
  O  O81  1  0.859500  0.328300  0.691000  1.0  -0.5507
  O  O82  1  0.438100  0.870100  0.130600  1.0  -0.5821
  O  O83  1  0.501400  0.699400  0.224400  1.0  -0.7003
  O  O84  1  0.709200  0.193300  0.484500  1.0  -0.7079
  O  O85  1  0.710900  0.046300  0.429500  1.0  -0.6357
  O  O86  1  0.261200  0.944800  0.291200  1.0  -0.6312
  O  O87  1  0.079800  0.870100  0.308100  1.0  -0.5047
  O  O88  1  0.266900  0.678000  0.396500  1.0  -0.6639
  O  O89  1  0.436300  0.154700  0.555900  1.0  -0.7706
  O  O90  1  0.531900  0.970300  0.687100  1.0  -0.7487
  O  O91  1  0.478700  0.328500  0.554800  1.0  -0.6125
  O  O92  1  0.466100  0.814400  0.676700  1.0  -0.6134
  O  O93  1  0.140500  0.671700  0.309000  1.0  -0.5532
