# generated using pymatgen
data_SmH6(C2O)8
_symmetry_space_group_name_H-M   'P 1'
_cell_length_a   11.64700000
_cell_length_b   12.24700000
_cell_length_c   13.60400000
_cell_angle_alpha   65.01000000
_cell_angle_beta   67.88000000
_cell_angle_gamma   88.32000000
_symmetry_Int_Tables_number   1
_chemical_formula_structural   SmH6(C2O)8
_chemical_formula_sum   'Sm3 H18 C48 O24'
_cell_volume   1609.79298712
_cell_formula_units_Z   3
loop_
 _symmetry_equiv_pos_site_id
 _symmetry_equiv_pos_as_xyz
  1  'x, y, z'
loop_
 _atom_site_type_symbol
 _atom_site_label
 _atom_site_symmetry_multiplicity
 _atom_site_fract_x
 _atom_site_fract_y
 _atom_site_fract_z
 _atom_site_occupancy
 _atom_site_charge
  Sm  Sm1  1  0.570530  0.171170  0.671860  1.0  2.2899
  Sm  Sm2  1  0.429480  0.828830  0.328140  1.0  2.2908
  Sm  Sm3  1  0.500000  0.000000  0.500000  1.0  2.3382
  H  H4  1  0.489100  0.897000  0.915700  1.0  0.1283
  H  H5  1  0.497900  0.624000  0.823900  1.0  0.1327
  H  H6  1  0.936000  0.278300  0.426400  1.0  0.1239
  H  H7  1  0.923500  0.996200  0.349600  1.0  0.1266
  H  H8  1  0.489800  0.555300  0.141800  1.0  0.1286
  H  H9  1  0.245900  0.130300  0.326200  1.0  0.1116
  H  H10  1  0.100900  0.453300  0.342100  1.0  0.1253
  H  H11  1  0.271500  0.170200  0.470500  1.0  0.1173
  H  H12  1  0.360300  0.492300  0.456600  1.0  0.1275
  H  H13  1  0.510900  0.103000  0.084300  1.0  0.1277
  H  H14  1  0.502100  0.376000  0.176100  1.0  0.1311
  H  H15  1  0.064000  0.721700  0.573600  1.0  0.1247
  H  H16  1  0.076500  0.003800  0.650400  1.0  0.1269
  H  H17  1  0.510200  0.444700  0.858200  1.0  0.1293
  H  H18  1  0.754100  0.869700  0.673800  1.0  0.112
  H  H19  1  0.899100  0.546700  0.657900  1.0  0.1257
  H  H20  1  0.728500  0.829800  0.529500  1.0  0.1179
  H  H21  1  0.639700  0.507700  0.543400  1.0  0.1266
  C  C22  1  0.491000  0.855700  0.735000  1.0  0.7226
  C  C23  1  0.769100  0.127500  0.432200  1.0  0.6904
  C  C24  1  0.492300  0.772700  0.852400  1.0  -0.1504
  C  C25  1  0.908200  0.137300  0.392800  1.0  -0.1425
  C  C26  1  0.489100  0.814800  0.933800  1.0  0.0102
  C  C27  1  0.496200  0.650000  0.879500  1.0  -0.0378
  C  C28  1  0.976000  0.221000  0.403300  1.0  -0.0567
  C  C29  1  0.968300  0.051400  0.357500  1.0  -0.0274
  C  C30  1  0.485900  0.731100  0.042200  1.0  -0.0985
  C  C31  1  0.497700  0.564500  0.986400  1.0  0.0277
  C  C32  1  0.102800  0.219200  0.379600  1.0  0.0729
  C  C33  1  0.092800  0.048600  0.334500  1.0  -0.1262
  C  C34  1  0.490900  0.609000  0.068500  1.0  -0.0335
  C  C35  1  0.475200  0.770500  0.136400  1.0  0.7421
  C  C36  1  0.160800  0.131900  0.343800  1.0  -0.0815
  C  C37  1  0.175200  0.298100  0.400500  1.0  0.0689
  C  C38  1  0.155500  0.948200  0.308800  1.0  0.696
  C  C39  1  0.158500  0.419700  0.374500  1.0  -0.0526
  C  C40  1  0.260500  0.251200  0.450800  1.0  -0.0869
  C  C41  1  0.227400  0.489900  0.396900  1.0  -0.1151
  C  C42  1  0.330000  0.322300  0.472500  1.0  -0.1328
  C  C43  1  0.208300  0.621600  0.370000  1.0  0.7276
  C  C44  1  0.313400  0.443300  0.443900  1.0  0.0189
  C  C45  1  0.419800  0.268000  0.529900  1.0  0.7117
  C  C46  1  0.509000  0.144300  0.265000  1.0  0.7238
  C  C47  1  0.230900  0.872500  0.567800  1.0  0.6858
  C  C48  1  0.507700  0.227300  0.147600  1.0  -0.1464
  C  C49  1  0.091800  0.862700  0.607200  1.0  -0.1431
  C  C50  1  0.510900  0.185200  0.066200  1.0  0.0101
  C  C51  1  0.503800  0.350000  0.120500  1.0  -0.0403
  C  C52  1  0.024000  0.779000  0.596700  1.0  -0.0554
  C  C53  1  0.031700  0.948600  0.642500  1.0  -0.0234
  C  C54  1  0.514100  0.268900  0.957800  1.0  -0.1042
  C  C55  1  0.502300  0.435500  0.013600  1.0  0.0271
  C  C56  1  0.897200  0.780800  0.620400  1.0  0.0738
  C  C57  1  0.907200  0.951400  0.665500  1.0  -0.1217
  C  C58  1  0.509100  0.391000  0.931500  1.0  -0.0334
  C  C59  1  0.524800  0.229500  0.863600  1.0  0.7431
  C  C60  1  0.839200  0.868100  0.656200  1.0  -0.0831
  C  C61  1  0.824800  0.701900  0.599500  1.0  0.0704
  C  C62  1  0.844500  0.051800  0.691200  1.0  0.6987
  C  C63  1  0.841500  0.580300  0.625500  1.0  -0.0546
  C  C64  1  0.739500  0.748800  0.549200  1.0  -0.0882
  C  C65  1  0.772600  0.510100  0.603100  1.0  -0.115
  C  C66  1  0.670000  0.677700  0.527500  1.0  -0.1321
  C  C67  1  0.791700  0.378400  0.630000  1.0  0.7257
  C  C68  1  0.686600  0.556700  0.556100  1.0  0.0183
  C  C69  1  0.580200  0.732000  0.470100  1.0  0.7105
  O  O70  1  0.475100  0.030700  0.311700  1.0  -0.8033
  O  O71  1  0.540300  0.190000  0.319700  1.0  -0.6605
  O  O72  1  0.282400  0.952200  0.580400  1.0  -0.678
  O  O73  1  0.567300  0.842300  0.442100  1.0  -0.7534
  O  O74  1  0.739700  0.325500  0.593600  1.0  -0.6941
  O  O75  1  0.709300  0.192000  0.477900  1.0  -0.729
  O  O76  1  0.500400  0.302300  0.776000  1.0  -0.6247
  O  O77  1  0.560000  0.129200  0.871300  1.0  -0.5954
  O  O78  1  0.474800  0.331900  0.555600  1.0  -0.6548
  O  O79  1  0.735200  0.056600  0.705100  1.0  -0.6495
  O  O80  1  0.082600  0.868900  0.310300  1.0  -0.5341
  O  O81  1  0.142000  0.670200  0.313200  1.0  -0.5557
  O  O82  1  0.524900  0.969300  0.688300  1.0  -0.8043
  O  O83  1  0.459700  0.810000  0.680300  1.0  -0.6614
  O  O84  1  0.717600  0.047800  0.419600  1.0  -0.676
  O  O85  1  0.432700  0.157700  0.557900  1.0  -0.7535
  O  O86  1  0.260300  0.674500  0.406400  1.0  -0.6927
  O  O87  1  0.290700  0.808000  0.522100  1.0  -0.7295
  O  O88  1  0.499600  0.697700  0.224000  1.0  -0.6246
  O  O89  1  0.440000  0.870800  0.128700  1.0  -0.5971
  O  O90  1  0.525200  0.668100  0.444400  1.0  -0.6531
  O  O91  1  0.264800  0.943400  0.294900  1.0  -0.6495
  O  O92  1  0.917400  0.131100  0.689700  1.0  -0.5314
  O  O93  1  0.858000  0.329800  0.686800  1.0  -0.5504
