# generated using pymatgen
data_DyH6(C2O)8
_symmetry_space_group_name_H-M   'P 1'
_cell_length_a   11.59760000
_cell_length_b   12.21300000
_cell_length_c   13.51870000
_cell_angle_alpha   65.03900000
_cell_angle_beta   68.35100000
_cell_angle_gamma   87.85800000
_symmetry_Int_Tables_number   1
_chemical_formula_structural   DyH6(C2O)8
_chemical_formula_sum   'Dy3 H18 C48 O24'
_cell_volume   1597.52224309
_cell_formula_units_Z   3
loop_
 _symmetry_equiv_pos_site_id
 _symmetry_equiv_pos_as_xyz
  1  'x, y, z'
loop_
 _atom_site_type_symbol
 _atom_site_label
 _atom_site_symmetry_multiplicity
 _atom_site_fract_x
 _atom_site_fract_y
 _atom_site_fract_z
 _atom_site_occupancy
 _atom_site_charge
  Dy  Dy1  1  0.071240  0.669990  0.672560  1.0  2.2741
  Dy  Dy2  1  0.928760  0.330010  0.327440  1.0  2.2731
  Dy  Dy3  1  0.000000  0.500000  0.500000  1.0  2.2825
  H  H4  1  0.998600  0.124000  0.823700  1.0  0.1311
  H  H5  1  0.994200  0.399300  0.915000  1.0  0.1309
  H  H6  1  0.435300  0.781000  0.425700  1.0  0.1265
  H  H7  1  0.419900  0.498300  0.349900  1.0  0.1271
  H  H8  1  0.995300  0.053500  0.141100  1.0  0.1303
  H  H9  1  0.744600  0.633200  0.322700  1.0  0.1109
  H  H10  1  0.772800  0.670200  0.469300  1.0  0.1117
  H  H11  1  0.601900  0.955400  0.337600  1.0  0.1218
  H  H12  1  0.865400  0.991900  0.452600  1.0  0.1196
  H  H13  1  0.001400  0.876000  0.176300  1.0  0.1308
  H  H14  1  0.005800  0.600700  0.085000  1.0  0.1305
  H  H15  1  0.564700  0.219000  0.574300  1.0  0.1278
  H  H16  1  0.580100  0.501700  0.650100  1.0  0.1271
  H  H17  1  0.004700  0.946500  0.858900  1.0  0.1317
  H  H18  1  0.255400  0.366800  0.677300  1.0  0.1111
  H  H19  1  0.227200  0.329800  0.530700  1.0  0.112
  H  H20  1  0.398100  0.044600  0.662400  1.0  0.1224
  H  H21  1  0.134600  0.008100  0.547400  1.0  0.1198
  C  C22  1  0.993700  0.359100  0.733500  1.0  0.7231
  C  C23  1  0.265300  0.627800  0.437800  1.0  0.7181
  C  C24  1  0.994700  0.274800  0.852200  1.0  -0.1155
  C  C25  1  0.406000  0.638300  0.393900  1.0  -0.1361
  C  C26  1  0.997400  0.150300  0.879400  1.0  -0.0462
  C  C27  1  0.992700  0.316600  0.933800  1.0  0.0134
  C  C28  1  0.474700  0.722700  0.403000  1.0  -0.0526
  C  C29  1  0.465500  0.553300  0.357300  1.0  0.0073
  C  C30  1  0.998300  0.065700  0.987000  1.0  -0.0048
  C  C31  1  0.988400  0.232600  0.043700  1.0  -0.1291
  C  C32  1  0.601300  0.719500  0.378300  1.0  0.008
  C  C33  1  0.590400  0.549800  0.332200  1.0  -0.1547
  C  C34  1  0.994200  0.108100  0.068400  1.0  -0.0359
  C  C35  1  0.979100  0.270600  0.137900  1.0  0.7238
  C  C36  1  0.675400  0.800600  0.397400  1.0  0.0579
  C  C37  1  0.659000  0.634300  0.341500  1.0  -0.0923
  C  C38  1  0.654300  0.449400  0.306900  1.0  0.7028
  C  C39  1  0.762600  0.751700  0.448800  1.0  -0.0915
  C  C40  1  0.659700  0.921500  0.370700  1.0  -0.057
  C  C41  1  0.833800  0.822200  0.469700  1.0  -0.1389
  C  C42  1  0.728800  0.992800  0.392500  1.0  -0.1433
  C  C43  1  0.922700  0.767000  0.528300  1.0  0.7073
  C  C44  1  0.817300  0.943300  0.440400  1.0  0.0255
  C  C45  1  0.711600  0.122300  0.365400  1.0  0.7049
  C  C46  1  0.006300  0.640900  0.266500  1.0  0.7236
  C  C47  1  0.734700  0.372200  0.562200  1.0  0.7176
  C  C48  1  0.005300  0.725200  0.147800  1.0  -0.1169
  C  C49  1  0.594000  0.361700  0.606100  1.0  -0.1341
  C  C50  1  0.002600  0.849700  0.120600  1.0  -0.0457
  C  C51  1  0.007300  0.683400  0.066200  1.0  0.0144
  C  C52  1  0.525300  0.277300  0.597000  1.0  -0.052
  C  C53  1  0.534500  0.446700  0.642700  1.0  0.0091
  C  C54  1  0.001700  0.934300  0.013000  1.0  -0.0057
  C  C55  1  0.011600  0.767400  0.956300  1.0  -0.1292
  C  C56  1  0.398700  0.280500  0.621700  1.0  0.0075
  C  C57  1  0.409600  0.450200  0.667800  1.0  -0.151
  C  C58  1  0.005800  0.891900  0.931600  1.0  -0.0375
  C  C59  1  0.020900  0.729400  0.862100  1.0  0.7237
  C  C60  1  0.324600  0.199400  0.602600  1.0  0.0591
  C  C61  1  0.341000  0.365700  0.658500  1.0  -0.092
  C  C62  1  0.345700  0.550600  0.693100  1.0  0.7046
  C  C63  1  0.237400  0.248300  0.551200  1.0  -0.0936
  C  C64  1  0.340300  0.078500  0.629300  1.0  -0.0556
  C  C65  1  0.166200  0.177800  0.530300  1.0  -0.1365
  C  C66  1  0.271200  0.007200  0.607500  1.0  -0.1432
  C  C67  1  0.077300  0.233000  0.471700  1.0  0.7076
  C  C68  1  0.182700  0.056700  0.559600  1.0  0.0249
  C  C69  1  0.288400  0.877700  0.634600  1.0  0.7041
  O  O70  1  0.971500  0.528600  0.312000  1.0  -0.7663
  O  O71  1  0.064700  0.344800  0.444300  1.0  -0.7614
  O  O72  1  0.789500  0.453400  0.572000  1.0  -0.6357
  O  O73  1  0.039300  0.684700  0.321700  1.0  -0.6075
  O  O74  1  0.236200  0.557200  0.706200  1.0  -0.6505
  O  O75  1  0.978900  0.827800  0.554800  1.0  -0.6069
  O  O76  1  0.058000  0.629600  0.869200  1.0  -0.5787
  O  O77  1  0.995000  0.799900  0.775600  1.0  -0.6648
  O  O78  1  0.208200  0.694300  0.483000  1.0  -0.7163
  O  O79  1  0.233800  0.822500  0.601000  1.0  -0.6762
  O  O80  1  0.583600  0.371200  0.304800  1.0  -0.5184
  O  O81  1  0.641600  0.171600  0.311500  1.0  -0.5414
  O  O82  1  0.028500  0.471400  0.688000  1.0  -0.7677
  O  O83  1  0.935300  0.655200  0.555700  1.0  -0.7623
  O  O84  1  0.210500  0.546600  0.428000  1.0  -0.6376
  O  O85  1  0.960700  0.315300  0.678300  1.0  -0.6077
  O  O86  1  0.763800  0.442800  0.293800  1.0  -0.6508
  O  O87  1  0.021100  0.172200  0.445200  1.0  -0.6054
  O  O88  1  0.942000  0.370400  0.130800  1.0  -0.5781
  O  O89  1  0.005000  0.200100  0.224400  1.0  -0.6669
  O  O90  1  0.791800  0.305700  0.517000  1.0  -0.7182
  O  O91  1  0.766200  0.177500  0.399000  1.0  -0.6755
  O  O92  1  0.416400  0.628800  0.695200  1.0  -0.5155
  O  O93  1  0.358400  0.828400  0.688500  1.0  -0.5405
