# generated using pymatgen
data_TbH12C12(NO3)3
_symmetry_space_group_name_H-M   'P 1'
_cell_length_a   7.94180000
_cell_length_b   12.08700000
_cell_length_c   13.35800000
_cell_angle_alpha   112.10100000
_cell_angle_beta   105.05100000
_cell_angle_gamma   91.19700000
_symmetry_Int_Tables_number   1
_chemical_formula_structural   TbH12C12(NO3)3
_chemical_formula_sum   'Tb2 H24 C24 N6 O18'
_cell_volume   1137.17153888
_cell_formula_units_Z   2
loop_
 _symmetry_equiv_pos_site_id
 _symmetry_equiv_pos_as_xyz
  1  'x, y, z'
loop_
 _atom_site_type_symbol
 _atom_site_label
 _atom_site_symmetry_multiplicity
 _atom_site_fract_x
 _atom_site_fract_y
 _atom_site_fract_z
 _atom_site_occupancy
 _atom_site_charge
  Tb  Tb1  1  0.249360  0.980990  0.010700  1.0  2.2772
  Tb  Tb2  1  0.750640  0.019010  0.989300  1.0  2.2769
  H  H3  1  0.005400  0.610300  0.657500  1.0  0.0951
  H  H4  1  0.116700  0.600300  0.768900  1.0  0.0817
  H  H5  1  0.852400  0.592000  0.819200  1.0  0.1401
  H  H6  1  0.754300  0.617200  0.713800  1.0  0.1294
  H  H7  1  0.568500  0.274500  0.398800  1.0  0.094
  H  H8  1  0.576300  0.152100  0.413800  1.0  0.0967
  H  H9  1  0.756900  0.225000  0.289400  1.0  0.1129
  H  H10  1  0.791100  0.109100  0.314100  1.0  0.1167
  H  H11  1  0.189500  0.224100  0.777500  1.0  0.0948
  H  H12  1  0.085200  0.106800  0.675600  1.0  0.096
  H  H13  1  0.944500  0.242700  0.852800  1.0  0.1292
  H  H14  1  0.849300  0.120700  0.753700  1.0  0.1316
  H  H15  1  0.994600  0.389700  0.342500  1.0  0.0942
  H  H16  1  0.883300  0.399700  0.231100  1.0  0.0831
  H  H17  1  0.147600  0.408000  0.180800  1.0  0.1383
  H  H18  1  0.245700  0.382800  0.286200  1.0  0.129
  H  H19  1  0.431500  0.725500  0.601200  1.0  0.0935
  H  H20  1  0.423700  0.847900  0.586200  1.0  0.0956
  H  H21  1  0.243100  0.775000  0.710600  1.0  0.1137
  H  H22  1  0.208900  0.890900  0.685900  1.0  0.1165
  H  H23  1  0.810500  0.775900  0.222500  1.0  0.0959
  H  H24  1  0.914800  0.893200  0.324400  1.0  0.0945
  H  H25  1  0.055500  0.757300  0.147200  1.0  0.1309
  H  H26  1  0.150700  0.879300  0.246300  1.0  0.1307
  C  C27  1  0.838200  0.397500  0.555700  1.0  0.5852
  C  C28  1  0.863500  0.199100  0.565600  1.0  0.4957
  C  C29  1  0.032200  0.382400  0.722600  1.0  0.5325
  C  C30  1  0.001700  0.578600  0.713800  1.0  0.0864
  C  C31  1  0.866000  0.632900  0.771100  1.0  -0.4049
  C  C32  1  0.904800  0.766200  0.841500  1.0  0.7707
  C  C33  1  0.645000  0.215100  0.407200  1.0  0.0314
  C  C34  1  0.703200  0.161200  0.303000  1.0  -0.3561
  C  C35  1  0.552200  0.090400  0.202900  1.0  0.7835
  C  C36  1  0.072800  0.184300  0.729700  1.0  0.0487
  C  C37  1  0.963400  0.165100  0.802100  1.0  -0.345
  C  C38  1  0.052900  0.097200  0.869800  1.0  0.7668
  C  C39  1  0.161800  0.602500  0.444300  1.0  0.5845
  C  C40  1  0.136500  0.800900  0.434400  1.0  0.4955
  C  C41  1  0.967800  0.617600  0.277400  1.0  0.5327
  C  C42  1  0.998300  0.421400  0.286200  1.0  0.0876
  C  C43  1  0.134000  0.367100  0.228900  1.0  -0.4042
  C  C44  1  0.095200  0.233800  0.158500  1.0  0.771
  C  C45  1  0.355000  0.784900  0.592800  1.0  0.0316
  C  C46  1  0.296800  0.838800  0.697000  1.0  -0.3547
  C  C47  1  0.447800  0.909600  0.797100  1.0  0.7817
  C  C48  1  0.927200  0.815700  0.270300  1.0  0.0485
  C  C49  1  0.036600  0.834900  0.197900  1.0  -0.3452
  C  C50  1  0.947100  0.902800  0.130200  1.0  0.7697
  N  N51  1  0.959400  0.447000  0.659500  1.0  -0.302
  N  N52  1  0.988900  0.258100  0.669000  1.0  -0.3106
  N  N53  1  0.789600  0.272900  0.512500  1.0  -0.3208
  N  N54  1  0.040600  0.553000  0.340500  1.0  -0.301
  N  N55  1  0.011100  0.741900  0.331000  1.0  -0.3108
  N  N56  1  0.210400  0.727100  0.487500  1.0  -0.3197
  O  O57  1  0.773600  0.456800  0.503700  1.0  -0.5047
  O  O58  1  0.130400  0.429500  0.815300  1.0  -0.4641
  O  O59  1  0.822200  0.091700  0.524600  1.0  -0.4944
  O  O60  1  0.785400  0.816300  0.879400  1.0  -0.6927
  O  O61  1  0.058500  0.815300  0.859800  1.0  -0.6976
  O  O62  1  0.964800  0.052600  0.914500  1.0  -0.7582
  O  O63  1  0.213200  0.084900  0.880900  1.0  -0.6591
  O  O64  1  0.555300  0.086000  0.105700  1.0  -0.7724
  O  O65  1  0.424100  0.041200  0.214000  1.0  -0.617
  O  O66  1  0.226400  0.543200  0.496300  1.0  -0.5048
  O  O67  1  0.869600  0.570500  0.184700  1.0  -0.4637
  O  O68  1  0.177800  0.908300  0.475400  1.0  -0.4924
  O  O69  1  0.214600  0.183700  0.120600  1.0  -0.6902
  O  O70  1  0.941500  0.184700  0.140200  1.0  -0.6994
  O  O71  1  0.035200  0.947400  0.085500  1.0  -0.7579
  O  O72  1  0.786800  0.915100  0.119100  1.0  -0.659
  O  O73  1  0.444700  0.914000  0.894300  1.0  -0.7719
  O  O74  1  0.575900  0.958800  0.786000  1.0  -0.6171
