# generated using pymatgen
data_ZnH12C20NO5
_symmetry_space_group_name_H-M   'P 1'
_cell_length_a   14.17800000
_cell_length_b   14.17800000
_cell_length_c   25.75080000
_cell_angle_alpha   83.39060000
_cell_angle_beta   83.39060000
_cell_angle_gamma   87.33740000
_symmetry_Int_Tables_number   1
_chemical_formula_structural   ZnH12C20NO5
_chemical_formula_sum   'Zn8 H96 C160 N8 O40'
_cell_volume   5104.84565978
_cell_formula_units_Z   8
loop_
 _symmetry_equiv_pos_site_id
 _symmetry_equiv_pos_as_xyz
  1  'x, y, z'
loop_
 _atom_site_type_symbol
 _atom_site_label
 _atom_site_symmetry_multiplicity
 _atom_site_fract_x
 _atom_site_fract_y
 _atom_site_fract_z
 _atom_site_occupancy
 _atom_site_charge
  Zn  Zn1  1  0.181800  0.875640  0.079440  1.0  0.8808
  Zn  Zn2  1  0.846570  0.408130  0.558410  1.0  0.9915
  Zn  Zn3  1  0.875640  0.181800  0.579440  1.0  0.8846
  Zn  Zn4  1  0.408130  0.846570  0.058410  1.0  0.9925
  Zn  Zn5  1  0.124360  0.818200  0.420560  1.0  0.8867
  Zn  Zn6  1  0.818200  0.124360  0.920560  1.0  0.8811
  Zn  Zn7  1  0.153430  0.591870  0.441590  1.0  0.9909
  Zn  Zn8  1  0.591870  0.153430  0.941590  1.0  0.9915
  H  H9  1  0.305580  0.006180  0.230910  1.0  0.1306
  H  H10  1  0.770190  0.014410  0.643410  1.0  0.109
  H  H11  1  0.446070  0.430030  0.677280  1.0  0.1306
  H  H12  1  0.748150  0.839330  0.987090  1.0  0.1192
  H  H13  1  0.885420  0.889360  0.496380  1.0  0.1653
  H  H14  1  0.586240  0.859840  0.986910  1.0  0.1189
  H  H15  1  0.604910  0.423750  0.639500  1.0  0.132
  H  H16  1  0.369650  0.848350  0.811400  1.0  0.1077
  H  H17  1  0.980220  0.121560  0.723020  1.0  0.1218
  H  H18  1  0.859840  0.586240  0.486910  1.0  0.1156
  H  H19  1  0.176470  0.550070  0.079580  1.0  0.1316
  H  H20  1  0.155670  0.033370  0.840120  1.0  0.1404
  H  H21  1  0.174370  0.998730  0.927220  1.0  0.1369
  H  H22  1  0.385130  0.809470  0.898740  1.0  0.1277
  H  H23  1  0.701850  0.801110  0.146770  1.0  0.1304
  H  H24  1  0.121560  0.980220  0.223020  1.0  0.1219
  H  H25  1  0.801110  0.701850  0.646770  1.0  0.1298
  H  H26  1  0.542220  0.826800  0.141750  1.0  0.112
  H  H27  1  0.423750  0.604910  0.139500  1.0  0.1309
  H  H28  1  0.062930  0.096150  0.276230  1.0  0.2186
  H  H29  1  0.159370  0.038550  0.600780  1.0  0.1124
  H  H30  1  0.243240  0.301280  0.597360  1.0  0.11
  H  H31  1  0.045920  0.903840  0.002480  1.0  0.1135
  H  H32  1  0.290560  0.159920  0.253710  1.0  0.1237
  H  H33  1  0.550070  0.176470  0.579580  1.0  0.1316
  H  H34  1  0.998730  0.174370  0.427220  1.0  0.1369
  H  H35  1  0.809470  0.385130  0.398740  1.0  0.1274
  H  H36  1  0.889360  0.885420  0.996380  1.0  0.1637
  H  H37  1  0.977550  0.273590  0.153830  1.0  0.1379
  H  H38  1  0.839330  0.748150  0.487090  1.0  0.1197
  H  H39  1  0.088210  0.309930  0.575690  1.0  0.1519
  H  H40  1  0.014410  0.770190  0.143410  1.0  0.109
  H  H41  1  0.033370  0.155670  0.340120  1.0  0.1416
  H  H42  1  0.430030  0.446070  0.177280  1.0  0.1302
  H  H43  1  0.096150  0.062930  0.776230  1.0  0.2202
  H  H44  1  0.903840  0.045920  0.502480  1.0  0.1148
  H  H45  1  0.309930  0.088210  0.075690  1.0  0.1516
  H  H46  1  0.179770  0.394290  0.121220  1.0  0.1306
  H  H47  1  0.301280  0.243240  0.097360  1.0  0.1086
  H  H48  1  0.038550  0.159370  0.100780  1.0  0.1115
  H  H49  1  0.856010  0.754290  0.143250  1.0  0.1352
  H  H50  1  0.159920  0.290560  0.753710  1.0  0.125
  H  H51  1  0.273590  0.977550  0.653830  1.0  0.1374
  H  H52  1  0.006180  0.305580  0.730910  1.0  0.1331
  H  H53  1  0.826800  0.542220  0.641750  1.0  0.1122
  H  H54  1  0.754290  0.856010  0.643250  1.0  0.1333
  H  H55  1  0.848350  0.369650  0.311400  1.0  0.108
  H  H56  1  0.394290  0.179770  0.621220  1.0  0.1307
  H  H57  1  0.825630  0.001270  0.072780  1.0  0.1372
  H  H58  1  0.911790  0.690070  0.424310  1.0  0.1519
  H  H59  1  0.160670  0.251850  0.512910  1.0  0.1185
  H  H60  1  0.022450  0.726410  0.846170  1.0  0.1365
  H  H61  1  0.576250  0.395090  0.860500  1.0  0.1319
  H  H62  1  0.840080  0.709440  0.246290  1.0  0.1251
  H  H63  1  0.823530  0.449930  0.920420  1.0  0.1317
  H  H64  1  0.553930  0.569970  0.322720  1.0  0.131
  H  H65  1  0.961450  0.840630  0.899220  1.0  0.111
  H  H66  1  0.878440  0.019780  0.776980  1.0  0.1214
  H  H67  1  0.630350  0.151650  0.188600  1.0  0.1085
  H  H68  1  0.140160  0.413760  0.513090  1.0  0.1156
  H  H69  1  0.694420  0.993820  0.769090  1.0  0.1323
  H  H70  1  0.395090  0.576250  0.360500  1.0  0.1316
  H  H71  1  0.251850  0.160670  0.012910  1.0  0.1187
  H  H72  1  0.820230  0.605710  0.878780  1.0  0.132
  H  H73  1  0.605710  0.820230  0.378780  1.0  0.1303
  H  H74  1  0.726410  0.022450  0.346170  1.0  0.1376
  H  H75  1  0.143990  0.245710  0.856750  1.0  0.1358
  H  H76  1  0.844330  0.966630  0.159880  1.0  0.1416
  H  H77  1  0.993820  0.694420  0.269090  1.0  0.1321
  H  H78  1  0.966630  0.844330  0.659880  1.0  0.1392
  H  H79  1  0.449930  0.823530  0.420420  1.0  0.1323
  H  H80  1  0.756760  0.698720  0.402640  1.0  0.1097
  H  H81  1  0.569970  0.553930  0.822720  1.0  0.1293
  H  H82  1  0.840630  0.961450  0.399220  1.0  0.1113
  H  H83  1  0.614870  0.190530  0.101260  1.0  0.1276
  H  H84  1  0.190530  0.614870  0.601260  1.0  0.1267
  H  H85  1  0.937070  0.903850  0.723770  1.0  0.2192
  H  H86  1  0.114580  0.110640  0.503620  1.0  0.1662
  H  H87  1  0.198890  0.298150  0.353230  1.0  0.1301
  H  H88  1  0.110640  0.114580  0.003620  1.0  0.1669
  H  H89  1  0.298150  0.198890  0.853230  1.0  0.1312
  H  H90  1  0.096160  0.954080  0.497520  1.0  0.116
  H  H91  1  0.151650  0.630350  0.688600  1.0  0.1076
  H  H92  1  0.985590  0.229810  0.856590  1.0  0.1085
  H  H93  1  0.903850  0.937070  0.223770  1.0  0.2195
  H  H94  1  0.229810  0.985590  0.356590  1.0  0.1082
  H  H95  1  0.690070  0.911790  0.924310  1.0  0.1524
  H  H96  1  0.173200  0.457780  0.358250  1.0  0.1123
  H  H97  1  0.457780  0.173200  0.858250  1.0  0.1117
  H  H98  1  0.001270  0.825630  0.572780  1.0  0.137
  H  H99  1  0.954080  0.096160  0.997520  1.0  0.1132
  H  H100  1  0.698720  0.756760  0.902640  1.0  0.1088
  H  H101  1  0.019780  0.878440  0.276980  1.0  0.1206
  H  H102  1  0.709440  0.840080  0.746290  1.0  0.1245
  H  H103  1  0.245710  0.143990  0.356750  1.0  0.1348
  H  H104  1  0.413760  0.140160  0.013090  1.0  0.1147
  C  C105  1  0.202590  0.989170  0.851860  1.0  -0.0463
  C  C106  1  0.744790  0.821250  0.067150  1.0  0.0515
  C  C107  1  0.562520  0.374840  0.635600  1.0  -0.0867
  C  C108  1  0.282110  0.900890  0.922320  1.0  -0.0784
  C  C109  1  0.793680  0.988920  0.613460  1.0  0.1716
  C  C110  1  0.815120  0.680240  0.613720  1.0  -0.1176
  C  C111  1  0.266590  0.965390  0.756610  1.0  0.1511
  C  C112  1  0.102750  0.307590  0.611290  1.0  -0.1496
  C  C113  1  0.094010  0.039710  0.209100  1.0  -0.1225
  C  C114  1  0.931960  0.324580  0.638300  1.0  0.6614
  C  C115  1  0.861610  0.912790  0.526980  1.0  -0.1201
  C  C116  1  0.146970  0.043870  0.635950  1.0  -0.0318
  C  C117  1  0.377690  0.468050  0.158900  1.0  -0.0825
  C  C118  1  0.213290  0.968070  0.904050  1.0  -0.1229
  C  C119  1  0.837270  0.707830  0.519040  1.0  -0.2147
  C  C120  1  0.988920  0.793680  0.113460  1.0  0.17
  C  C121  1  0.530080  0.226480  0.600240  1.0  -0.0799
  C  C122  1  0.374840  0.562520  0.135600  1.0  -0.0856
  C  C123  1  0.593800  0.298060  0.606260  1.0  -0.076
  C  C124  1  0.989170  0.202590  0.351860  1.0  -0.0478
  C  C125  1  0.217890  0.294950  0.677730  1.0  -0.0444
  C  C126  1  0.196790  0.014230  0.720710  1.0  -0.0244
  C  C127  1  0.108790  0.057870  0.741060  1.0  -0.0834
  C  C128  1  0.310170  0.313330  0.189290  1.0  0.2166
  C  C129  1  0.887560  0.296480  0.478680  1.0  0.6908
  C  C130  1  0.195660  0.301300  0.624350  1.0  -0.1076
  C  C131  1  0.707830  0.837270  0.019040  1.0  -0.2181
  C  C132  1  0.893730  0.783470  0.113560  1.0  -0.1929
  C  C133  1  0.405680  0.303620  0.655040  1.0  -0.0736
  C  C134  1  0.261040  0.945320  0.816480  1.0  -0.0354
  C  C135  1  0.215180  0.007160  0.667680  1.0  -0.0999
  C  C136  1  0.855400  0.339780  0.386950  1.0  -0.1198
  C  C137  1  0.313330  0.310170  0.689290  1.0  0.2176
  C  C138  1  0.031190  0.310370  0.651180  1.0  -0.066
  C  C139  1  0.304100  0.053720  0.204140  1.0  -0.0814
  C  C140  1  0.965390  0.266590  0.256610  1.0  0.1529
  C  C141  1  0.816890  0.854270  0.569000  1.0  0.0914
  C  C142  1  0.821250  0.744790  0.567150  1.0  0.0487
  C  C143  1  0.324580  0.931960  0.138300  1.0  0.6651
  C  C144  1  0.339780  0.855400  0.886950  1.0  -0.1176
  C  C145  1  0.329940  0.878020  0.834700  1.0  -0.054
  C  C146  1  0.146060  0.295660  0.717950  1.0  -0.154
  C  C147  1  0.850060  0.610220  0.519280  1.0  0.1471
  C  C148  1  0.007160  0.215180  0.167680  1.0  -0.1012
  C  C149  1  0.298060  0.593800  0.106260  1.0  -0.0762
  C  C150  1  0.310370  0.031190  0.151180  1.0  -0.0687
  C  C151  1  0.089020  0.059760  0.156240  1.0  -0.0225
  C  C152  1  0.436480  0.228760  0.624920  1.0  -0.0785
  C  C153  1  0.053720  0.304100  0.704140  1.0  -0.0844
  C  C154  1  0.968070  0.213290  0.404050  1.0  -0.1208
  C  C155  1  0.057870  0.108790  0.241060  1.0  -0.0813
  C  C156  1  0.983350  0.119650  0.622840  1.0  0.6332
  C  C157  1  0.039710  0.094010  0.709100  1.0  -0.1264
  C  C158  1  0.912790  0.861610  0.026980  1.0  -0.1266
  C  C159  1  0.007860  0.870940  0.030800  1.0  0.1536
  C  C160  1  0.119650  0.983350  0.122840  1.0  0.6363
  C  C161  1  0.680240  0.815120  0.113720  1.0  -0.1231
  C  C162  1  0.014230  0.196790  0.220710  1.0  -0.0235
  C  C163  1  0.829970  0.584310  0.610370  1.0  0.1611
  C  C164  1  0.854270  0.816890  0.069000  1.0  0.1012
  C  C165  1  0.226480  0.530080  0.100240  1.0  -0.0802
  C  C166  1  0.870940  0.007860  0.530800  1.0  0.157
  C  C167  1  0.468050  0.377690  0.658900  1.0  -0.0842
  C  C168  1  0.698910  0.297050  0.588620  1.0  0.6809
  C  C169  1  0.296480  0.887560  0.978680  1.0  0.6914
  C  C170  1  0.610220  0.850060  0.019280  1.0  0.1453
  C  C171  1  0.059760  0.089020  0.656240  1.0  -0.0236
  C  C172  1  0.228760  0.436480  0.124920  1.0  -0.0773
  C  C173  1  0.584310  0.829970  0.110370  1.0  0.163
  C  C174  1  0.878020  0.329940  0.334700  1.0  -0.0526
  C  C175  1  0.307590  0.102750  0.111290  1.0  -0.1454
  C  C176  1  0.900890  0.282110  0.422320  1.0  -0.0814
  C  C177  1  0.301300  0.195660  0.124350  1.0  -0.109
  C  C178  1  0.783470  0.893730  0.613560  1.0  -0.1935
  C  C179  1  0.303620  0.405680  0.155040  1.0  -0.0751
  C  C180  1  0.294950  0.217890  0.177730  1.0  -0.0416
  C  C181  1  0.295660  0.146060  0.217950  1.0  -0.1518
  C  C182  1  0.297050  0.698910  0.088620  1.0  0.6814
  C  C183  1  0.043870  0.146970  0.135950  1.0  -0.0354
  C  C184  1  0.945320  0.261040  0.316480  1.0  -0.0298
  C  C185  1  0.121980  0.670060  0.665300  1.0  -0.0541
  C  C186  1  0.563520  0.771240  0.375080  1.0  -0.0793
  C  C187  1  0.594320  0.696380  0.344960  1.0  -0.0737
  C  C188  1  0.853940  0.704340  0.282050  1.0  -0.1545
  C  C189  1  0.853030  0.956130  0.364050  1.0  -0.0286
  C  C190  1  0.087210  0.138390  0.973020  1.0  -0.1244
  C  C191  1  0.112440  0.703520  0.521320  1.0  0.6914
  C  C192  1  0.717890  0.099110  0.077680  1.0  -0.0797
  C  C193  1  0.660220  0.144600  0.113050  1.0  -0.1171
  C  C194  1  0.255210  0.178750  0.932850  1.0  0.0523
  C  C195  1  0.129060  0.992140  0.469200  1.0  0.158
  C  C196  1  0.149940  0.389780  0.480720  1.0  0.145
  C  C197  1  0.216530  0.106270  0.386440  1.0  -0.1939
  C  C198  1  0.705050  0.782110  0.822270  1.0  -0.0352
  C  C199  1  0.622310  0.531950  0.841100  1.0  -0.0856
  C  C200  1  0.910980  0.940240  0.843760  1.0  -0.0228
  C  C201  1  0.803210  0.985770  0.279290  1.0  -0.0255
  C  C202  1  0.956130  0.853030  0.864050  1.0  -0.036
  C  C203  1  0.992140  0.129060  0.969200  1.0  0.1546
  C  C204  1  0.733410  0.034610  0.243390  1.0  0.1512
  C  C205  1  0.946280  0.695900  0.295860  1.0  -0.0793
  C  C206  1  0.686670  0.689830  0.310710  1.0  0.2188
  C  C207  1  0.011080  0.206320  0.886540  1.0  0.1693
  C  C208  1  0.675420  0.068040  0.861700  1.0  0.6614
  C  C209  1  0.695900  0.946280  0.795860  1.0  -0.0796
  C  C210  1  0.804340  0.698700  0.375650  1.0  -0.1077
  C  C211  1  0.692410  0.897250  0.888710  1.0  -0.1457
  C  C212  1  0.702950  0.301090  0.911380  1.0  0.6832
  C  C213  1  0.625160  0.437480  0.864400  1.0  -0.0859
  C  C214  1  0.389780  0.149940  0.980720  1.0  0.1448
  C  C215  1  0.786710  0.031930  0.095950  1.0  -0.1234
  C  C216  1  0.183110  0.145730  0.431000  1.0  0.0936
  C  C217  1  0.880350  0.016650  0.877160  1.0  0.6351
  C  C218  1  0.406200  0.701940  0.393740  1.0  -0.0753
  C  C219  1  0.031930  0.786710  0.595950  1.0  -0.1306
  C  C220  1  0.670060  0.121980  0.165300  1.0  -0.0547
  C  C221  1  0.068040  0.675420  0.361700  1.0  0.6626
  C  C222  1  0.696380  0.594320  0.844960  1.0  -0.0669
  C  C223  1  0.531950  0.622310  0.341100  1.0  -0.0842
  C  C224  1  0.437480  0.625160  0.364400  1.0  -0.0866
  C  C225  1  0.162730  0.292170  0.480960  1.0  -0.2143
  C  C226  1  0.968810  0.689630  0.348820  1.0  -0.0666
  C  C227  1  0.782110  0.705050  0.322270  1.0  -0.0376
  C  C228  1  0.144600  0.660220  0.613050  1.0  -0.1181
  C  C229  1  0.985770  0.803210  0.779290  1.0  -0.0251
  C  C230  1  0.469920  0.773520  0.399760  1.0  -0.081
  C  C231  1  0.178750  0.255210  0.432850  1.0  0.0486
  C  C232  1  0.773520  0.469920  0.899760  1.0  -0.0783
  C  C233  1  0.138390  0.087210  0.473020  1.0  -0.1206
  C  C234  1  0.016650  0.880350  0.377160  1.0  0.6322
  C  C235  1  0.689830  0.686670  0.810710  1.0  0.2186
  C  C236  1  0.942130  0.891210  0.758940  1.0  -0.0825
  C  C237  1  0.703520  0.112440  0.021320  1.0  0.6911
  C  C238  1  0.891210  0.942130  0.258940  1.0  -0.0836
  C  C239  1  0.960290  0.905990  0.290900  1.0  -0.1221
  C  C240  1  0.170030  0.415690  0.389630  1.0  0.1527
  C  C241  1  0.784820  0.992840  0.332320  1.0  -0.1054
  C  C242  1  0.738960  0.054680  0.183520  1.0  -0.0284
  C  C243  1  0.704340  0.853940  0.782050  1.0  -0.151
  C  C244  1  0.701940  0.406200  0.893740  1.0  -0.0753
  C  C245  1  0.099110  0.717890  0.577680  1.0  -0.0803
  C  C246  1  0.771240  0.563520  0.875080  1.0  -0.0776
  C  C247  1  0.184880  0.319760  0.386280  1.0  -0.1198
  C  C248  1  0.145730  0.183110  0.931000  1.0  0.1035
  C  C249  1  0.797410  0.010830  0.148140  1.0  -0.0459
  C  C250  1  0.698700  0.804340  0.875650  1.0  -0.108
  C  C251  1  0.897250  0.692410  0.388710  1.0  -0.1488
  C  C252  1  0.206320  0.011080  0.386540  1.0  0.1714
  C  C253  1  0.054680  0.738960  0.683520  1.0  -0.0346
  C  C254  1  0.992840  0.784820  0.832320  1.0  -0.0986
  C  C255  1  0.301090  0.702950  0.411380  1.0  0.6849
  C  C256  1  0.905990  0.960290  0.790900  1.0  -0.1224
  C  C257  1  0.940240  0.910980  0.343760  1.0  -0.0223
  C  C258  1  0.292170  0.162730  0.980960  1.0  -0.2171
  C  C259  1  0.319760  0.184880  0.886280  1.0  -0.1249
  C  C260  1  0.106270  0.216530  0.886440  1.0  -0.1886
  C  C261  1  0.034610  0.733410  0.743390  1.0  0.1511
  C  C262  1  0.689630  0.968810  0.848820  1.0  -0.0663
  C  C263  1  0.010830  0.797410  0.648140  1.0  -0.0462
  C  C264  1  0.415690  0.170030  0.889630  1.0  0.1513
  N  N265  1  0.046850  0.836010  0.072040  1.0  -0.3024
  N  N266  1  0.836010  0.046850  0.572040  1.0  -0.304
  N  N267  1  0.848980  0.548940  0.564120  1.0  -0.3362
  N  N268  1  0.548940  0.848980  0.064120  1.0  -0.3358
  N  N269  1  0.451060  0.151020  0.935880  1.0  -0.3378
  N  N270  1  0.953150  0.163990  0.927960  1.0  -0.3035
  N  N271  1  0.151020  0.451060  0.435880  1.0  -0.3382
  N  N272  1  0.163990  0.953150  0.427960  1.0  -0.3023
  O  O273  1  0.219560  0.890460  0.009730  1.0  -0.6299
  O  O274  1  0.939330  0.342710  0.232640  1.0  -0.4974
  O  O275  1  0.898030  0.134570  0.645750  1.0  -0.5525
  O  O276  1  0.380030  0.874670  0.991400  1.0  -0.5694
  O  O277  1  0.310360  0.911260  0.093580  1.0  -0.6519
  O  O278  1  0.219260  0.749800  0.094780  1.0  -0.6173
  O  O279  1  0.134570  0.898030  0.145750  1.0  -0.5524
  O  O280  1  0.342710  0.939330  0.732640  1.0  -0.4933
  O  O281  1  0.340380  0.316180  0.231510  1.0  -0.4341
  O  O282  1  0.749800  0.219260  0.594780  1.0  -0.6163
  O  O283  1  0.730270  0.379910  0.572250  1.0  -0.5759
  O  O284  1  0.890460  0.219560  0.509730  1.0  -0.6263
  O  O285  1  0.316180  0.340380  0.731510  1.0  -0.4348
  O  O286  1  0.870190  0.351750  0.673030  1.0  -0.5597
  O  O287  1  0.136610  0.002170  0.073940  1.0  -0.5463
  O  O288  1  0.351750  0.870190  0.173030  1.0  -0.5587
  O  O289  1  0.379910  0.730270  0.072250  1.0  -0.5773
  O  O290  1  0.874670  0.380030  0.491400  1.0  -0.5714
  O  O291  1  0.002170  0.136610  0.573940  1.0  -0.5468
  O  O292  1  0.911260  0.310360  0.593580  1.0  -0.6529
  O  O293  1  0.619970  0.125330  0.008600  1.0  -0.5706
  O  O294  1  0.648250  0.129810  0.826970  1.0  -0.5625
  O  O295  1  0.060670  0.657290  0.767360  1.0  -0.4956
  O  O296  1  0.997830  0.863390  0.426060  1.0  -0.5464
  O  O297  1  0.125330  0.619970  0.508600  1.0  -0.5719
  O  O298  1  0.865430  0.101970  0.854250  1.0  -0.5537
  O  O299  1  0.780740  0.250200  0.905220  1.0  -0.6169
  O  O300  1  0.659620  0.683820  0.768490  1.0  -0.4322
  O  O301  1  0.657290  0.060670  0.267360  1.0  -0.4965
  O  O302  1  0.620090  0.269730  0.927750  1.0  -0.5748
  O  O303  1  0.101970  0.865430  0.354250  1.0  -0.5525
  O  O304  1  0.088740  0.689640  0.406420  1.0  -0.6518
  O  O305  1  0.689640  0.088740  0.906420  1.0  -0.6522
  O  O306  1  0.250200  0.780740  0.405220  1.0  -0.6124
  O  O307  1  0.129810  0.648250  0.326970  1.0  -0.561
  O  O308  1  0.863390  0.997830  0.926060  1.0  -0.547
  O  O309  1  0.683820  0.659620  0.268490  1.0  -0.4328
  O  O310  1  0.109540  0.780440  0.490270  1.0  -0.6249
  O  O311  1  0.269730  0.620090  0.427750  1.0  -0.5745
  O  O312  1  0.780440  0.109540  0.990270  1.0  -0.6257
