# generated using pymatgen
data_Zn3H30C50(N2O7)2
_symmetry_space_group_name_H-M   'P 1'
_cell_length_a   8.26400000
_cell_length_b   18.43990000
_cell_length_c   19.18000000
_cell_angle_alpha   110.06300000
_cell_angle_beta   90.00000000
_cell_angle_gamma   102.94900000
_symmetry_Int_Tables_number   1
_chemical_formula_structural   Zn3H30C50(N2O7)2
_chemical_formula_sum   'Zn6 H60 C100 N8 O28'
_cell_volume   2666.15566208
_cell_formula_units_Z   2
loop_
 _symmetry_equiv_pos_site_id
 _symmetry_equiv_pos_as_xyz
  1  'x, y, z'
loop_
 _atom_site_type_symbol
 _atom_site_label
 _atom_site_symmetry_multiplicity
 _atom_site_fract_x
 _atom_site_fract_y
 _atom_site_fract_z
 _atom_site_occupancy
 _atom_site_charge
  Zn  Zn1  1  0.526850  0.582920  0.227520  1.0  0.9627
  Zn  Zn2  1  0.275020  0.000000  0.750000  1.0  0.8265
  Zn  Zn3  1  0.473150  0.417080  0.772480  1.0  0.963
  Zn  Zn4  1  0.724980  0.000000  0.250000  1.0  0.8258
  Zn  Zn5  1  0.056070  0.582920  0.727520  1.0  0.962
  Zn  Zn6  1  0.943930  0.417080  0.272480  1.0  0.9634
  H  H7  1  0.433000  0.789800  0.984000  1.0  0.0962
  H  H8  1  0.540600  0.155400  0.191800  1.0  0.1191
  H  H9  1  0.187000  0.211000  0.454100  1.0  0.1119
  H  H10  1  0.028100  0.999000  0.335600  1.0  0.071
  H  H11  1  0.366000  0.168000  0.366900  1.0  0.088
  H  H12  1  0.614800  0.155400  0.691800  1.0  0.119
  H  H13  1  0.457500  0.244000  0.703900  1.0  0.0702
  H  H14  1  0.588300  0.423600  0.295400  1.0  0.0823
  H  H15  1  0.008900  0.340200  0.782700  1.0  0.1143
  H  H16  1  0.567000  0.210200  0.016000  1.0  0.0946
  H  H17  1  0.970900  0.999000  0.835600  1.0  0.0712
  H  H18  1  0.729900  0.937600  0.448500  1.0  0.1217
  H  H19  1  0.385800  0.655800  0.924300  1.0  0.1031
  H  H20  1  0.029100  0.001000  0.164400  1.0  0.0714
  H  H21  1  0.730000  0.344200  0.575700  1.0  0.1036
  H  H22  1  0.976000  0.789000  0.045900  1.0  0.1115
  H  H23  1  0.280100  0.083000  0.160500  1.0  0.1011
  H  H24  1  0.356800  0.789800  0.484000  1.0  0.0963
  H  H25  1  0.459400  0.844600  0.808200  1.0  0.1189
  H  H26  1  0.197100  0.917000  0.339500  1.0  0.1013
  H  H27  1  0.802000  0.168000  0.866900  1.0  0.0882
  H  H28  1  0.634000  0.832000  0.633100  1.0  0.0877
  H  H29  1  0.786500  0.244000  0.203900  1.0  0.0699
  H  H30  1  0.835300  0.423600  0.795400  1.0  0.0827
  H  H31  1  0.863500  0.738600  0.689300  1.0  0.1117
  H  H32  1  0.281700  0.175200  0.812200  1.0  0.0759
  H  H33  1  0.270000  0.655800  0.424300  1.0  0.1034
  H  H34  1  0.270100  0.062400  0.551500  1.0  0.1217
  H  H35  1  0.411700  0.576400  0.704600  1.0  0.083
  H  H36  1  0.198000  0.832000  0.133100  1.0  0.0875
  H  H37  1  0.207700  0.937600  0.948500  1.0  0.1218
  H  H38  1  0.385200  0.844600  0.308200  1.0  0.1185
  H  H39  1  0.643200  0.210200  0.516000  1.0  0.0966
  H  H40  1  0.826100  0.128200  0.512000  1.0  0.1201
  H  H41  1  0.802900  0.083000  0.660500  1.0  0.1009
  H  H42  1  0.302100  0.128200  0.012000  1.0  0.1199
  H  H43  1  0.124900  0.261400  0.810700  1.0  0.111
  H  H44  1  0.971900  0.001000  0.664400  1.0  0.0716
  H  H45  1  0.024000  0.211000  0.954100  1.0  0.1119
  H  H46  1  0.991100  0.659800  0.217300  1.0  0.1129
  H  H47  1  0.718300  0.824800  0.187800  1.0  0.0761
  H  H48  1  0.213500  0.756000  0.796100  1.0  0.0699
  H  H49  1  0.164700  0.576400  0.204600  1.0  0.0828
  H  H50  1  0.875100  0.738600  0.189300  1.0  0.1113
  H  H51  1  0.439600  0.014800  0.459700  1.0  0.0934
  H  H52  1  0.697900  0.871800  0.988000  1.0  0.1203
  H  H53  1  0.792300  0.062400  0.051500  1.0  0.1217
  H  H54  1  0.542500  0.756000  0.296100  1.0  0.0696
  H  H55  1  0.813000  0.789000  0.545900  1.0  0.1117
  H  H56  1  0.173900  0.871800  0.488000  1.0  0.1203
  H  H57  1  0.719900  0.917000  0.839500  1.0  0.1008
  H  H58  1  0.331300  0.340200  0.282700  1.0  0.1133
  H  H59  1  0.575200  0.014800  0.959700  1.0  0.0934
  H  H60  1  0.560400  0.985200  0.540300  1.0  0.0936
  H  H61  1  0.668700  0.659800  0.717300  1.0  0.1128
  H  H62  1  0.424800  0.985200  0.040300  1.0  0.0935
  H  H63  1  0.106500  0.824800  0.687800  1.0  0.0758
  H  H64  1  0.136500  0.261400  0.310700  1.0  0.111
  H  H65  1  0.893500  0.175200  0.312200  1.0  0.0758
  H  H66  1  0.614200  0.344200  0.075700  1.0  0.1038
  C  C67  1  0.662690  0.209580  0.713500  1.0  -0.1751
  C  C68  1  0.804840  0.312480  0.572000  1.0  -0.0588
  C  C69  1  0.072000  0.857200  0.987300  1.0  0.2888
  C  C70  1  0.248200  0.767600  0.462400  1.0  -0.1286
  C  C71  1  0.921050  0.700700  0.399500  1.0  -0.0702
  C  C72  1  0.569530  0.263060  0.721200  1.0  0.1702
  C  C73  1  0.758740  0.827080  0.543300  1.0  -0.1688
  C  C74  1  0.710550  0.916100  0.485900  1.0  -0.1709
  C  C75  1  0.195160  0.687520  0.428000  1.0  -0.0626
  C  C76  1  0.198490  0.219380  0.066800  1.0  0.2696
  C  C77  1  0.799200  0.146800  0.904600  1.0  -0.0314
  C  C78  1  0.480600  0.232400  0.037600  1.0  -0.1288
  C  C79  1  0.571430  0.910660  0.593300  1.0  -0.0669
  C  C80  1  0.200800  0.853200  0.095400  1.0  -0.0352
  C  C81  1  0.241260  0.172920  0.456700  1.0  -0.168
  C  C82  1  0.746680  0.665960  0.363300  1.0  0.6854
  C  C83  1  0.519400  0.767600  0.962400  1.0  -0.1283
  C  C84  1  0.899850  0.103500  0.692400  1.0  -0.1644
  C  C85  1  0.203650  0.103500  0.192400  1.0  -0.1647
  C  C86  1  0.445400  0.933800  0.647800  1.0  0.6348
  C  C87  1  0.337310  0.790420  0.286500  1.0  -0.1753
  C  C88  1  0.413160  0.436320  0.137400  1.0  0.6972
  C  C89  1  0.208650  0.630900  0.225400  1.0  0.1744
  C  C90  1  0.620990  0.652180  0.898300  1.0  -0.1145
  C  C91  1  0.322500  0.183200  0.034700  1.0  -0.19
  C  C92  1  0.339230  0.910660  0.093300  1.0  -0.067
  C  C93  1  0.976840  0.563680  0.362600  1.0  0.6973
  C  C94  1  0.059340  0.818080  0.264000  1.0  0.1
  C  C95  1  0.492360  0.687520  0.928000  1.0  -0.0631
  C  C96  1  0.511600  0.066200  0.852200  1.0  0.6341
  C  C97  1  0.577000  0.681000  0.732200  1.0  -0.206
  C  C98  1  0.100150  0.896500  0.307600  1.0  -0.164
  C  C99  1  0.393300  0.056400  0.459800  1.0  -0.0846
  C  C100  1  0.663100  0.056400  0.959800  1.0  -0.0833
  C  C101  1  0.080720  0.334040  0.136700  1.0  0.6876
  C  C102  1  0.423000  0.319000  0.267800  1.0  -0.2029
  C  C103  1  0.430470  0.736940  0.278800  1.0  0.1687
  C  C104  1  0.785200  0.857200  0.487300  1.0  0.2894
  C  C105  1  0.940660  0.181920  0.736000  1.0  0.1008
  C  C106  1  0.834370  0.236940  0.738700  1.0  0.0874
  C  C107  1  0.693530  0.263060  0.221200  1.0  0.1708
  C  C108  1  0.205550  0.916100  0.985900  1.0  -0.1752
  C  C109  1  0.973070  0.156140  0.281500  1.0  0.1751
  C  C110  1  0.402570  0.236940  0.238700  1.0  0.0867
  C  C111  1  0.241260  0.181920  0.236000  1.0  0.1005
  C  C112  1  0.214800  0.142800  0.512700  1.0  0.2888
  C  C113  1  0.052440  0.054080  0.195300  1.0  0.1645
  C  C114  1  0.347600  0.146800  0.404600  1.0  -0.0309
  C  C115  1  0.779650  0.700700  0.899500  1.0  -0.0697
  C  C116  1  0.488400  0.933800  0.147800  1.0  0.6355
  C  C117  1  0.183070  0.156140  0.781500  1.0  0.1739
  C  C118  1  0.165630  0.763060  0.261300  1.0  0.0862
  C  C119  1  0.078950  0.299300  0.600500  1.0  -0.0695
  C  C120  1  0.881190  0.791980  0.719100  1.0  -0.211
  C  C121  1  0.794450  0.083900  0.014100  1.0  -0.1741
  C  C122  1  0.758740  0.818080  0.764000  1.0  0.1001
  C  C123  1  0.089210  0.208020  0.780900  1.0  -0.2117
  C  C124  1  0.796350  0.896500  0.807600  1.0  -0.1628
  C  C125  1  0.422250  0.630900  0.725400  1.0  0.1744
  C  C126  1  0.586840  0.563680  0.862600  1.0  0.7002
  C  C127  1  0.979110  0.780620  0.433200  1.0  0.2704
  C  C128  1  0.139300  0.816800  0.465300  1.0  -0.1882
  C  C129  1  0.026930  0.843860  0.718500  1.0  0.174
  C  C130  1  0.020890  0.219380  0.566800  1.0  0.2693
  C  C131  1  0.453110  0.790420  0.786500  1.0  -0.1748
  C  C132  1  0.816930  0.843860  0.218500  1.0  0.1734
  C  C133  1  0.660770  0.089340  0.906700  1.0  -0.0651
  C  C134  1  0.968810  0.347820  0.601700  1.0  -0.1214
  C  C135  1  0.577750  0.369100  0.274600  1.0  0.1782
  C  C136  1  0.791350  0.369100  0.774600  1.0  0.1775
  C  C137  1  0.751800  0.232400  0.537600  1.0  -0.1279
  C  C138  1  0.023160  0.436320  0.637400  1.0  0.697
  C  C139  1  0.001640  0.054080  0.695300  1.0  0.1641
  C  C140  1  0.379010  0.347820  0.101700  1.0  -0.1151
  C  C141  1  0.597430  0.763060  0.761300  1.0  0.0867
  C  C142  1  0.931660  0.172920  0.956700  1.0  -0.1657
  C  C143  1  0.253320  0.334040  0.636700  1.0  0.6861
  C  C144  1  0.677500  0.816800  0.965300  1.0  -0.1894
  C  C145  1  0.919280  0.665960  0.863300  1.0  0.686
  C  C146  1  0.896000  0.319000  0.767800  1.0  -0.2031
  C  C147  1  0.336900  0.943600  0.040200  1.0  -0.084
  C  C148  1  0.860700  0.183200  0.534700  1.0  -0.1888
  C  C149  1  0.546890  0.209580  0.213500  1.0  -0.1753
  C  C150  1  0.104000  0.681000  0.232200  1.0  -0.2046
  C  C151  1  0.652400  0.853200  0.595400  1.0  -0.0318
  C  C152  1  0.998360  0.945920  0.304700  1.0  0.1635
  C  C153  1  0.220350  0.299300  0.100500  1.0  -0.0698
  C  C154  1  0.306470  0.736940  0.778800  1.0  0.1696
  C  C155  1  0.031190  0.652180  0.398300  1.0  -0.115
  C  C156  1  0.118810  0.208020  0.280900  1.0  -0.2108
  C  C157  1  0.554600  0.066200  0.352200  1.0  0.6355
  C  C158  1  0.910790  0.791980  0.219100  1.0  -0.2099
  C  C159  1  0.507640  0.312480  0.072000  1.0  -0.0609
  C  C160  1  0.947560  0.945920  0.804700  1.0  0.164
  C  C161  1  0.068340  0.827080  0.043300  1.0  -0.1688
  C  C162  1  0.801510  0.780620  0.933200  1.0  0.2651
  C  C163  1  0.428570  0.089340  0.406700  1.0  -0.0651
  C  C164  1  0.289450  0.083900  0.514100  1.0  -0.171
  C  C165  1  0.928000  0.142800  0.012700  1.0  0.2897
  C  C166  1  0.606700  0.943600  0.540200  1.0  -0.0838
  N  N167  1  0.712650  0.342300  0.252500  1.0  -0.3359
  N  N168  1  0.287350  0.657700  0.747500  1.0  -0.3376
  N  N169  1  0.370350  0.657700  0.247500  1.0  -0.3353
  N  N170  1  0.940090  0.079580  0.240200  1.0  -0.3333
  N  N171  1  0.629650  0.342300  0.752500  1.0  -0.3346
  N  N172  1  0.139490  0.079580  0.740200  1.0  -0.3302
  N  N173  1  0.059910  0.920420  0.759800  1.0  -0.3303
  N  N174  1  0.860510  0.920420  0.259800  1.0  -0.3326
  O  O175  1  0.370380  0.334560  0.596500  1.0  -0.56
  O  O176  1  0.908030  0.641660  0.792800  1.0  -0.5963
  O  O177  1  0.698080  0.529560  0.863200  1.0  -0.6024
  O  O178  1  0.400400  0.011400  0.848900  1.0  -0.5785
  O  O179  1  0.168520  0.470440  0.636800  1.0  -0.6014
  O  O180  1  0.831480  0.529560  0.363200  1.0  -0.6038
  O  O181  1  0.301920  0.470440  0.136800  1.0  -0.6009
  O  O182  1  0.035820  0.665440  0.903500  1.0  -0.5578
  O  O183  1  0.629620  0.665440  0.403500  1.0  -0.5588
  O  O184  1  0.916660  0.473720  0.670200  1.0  -0.6094
  O  O185  1  0.505200  0.103000  0.810500  1.0  -0.587
  O  O186  1  0.047520  0.169440  0.071700  1.0  -0.2609
  O  O187  1  0.121920  0.169440  0.571700  1.0  -0.2602
  O  O188  1  0.599600  0.988600  0.151100  1.0  -0.5791
  O  O189  1  0.083340  0.526280  0.329800  1.0  -0.6107
  O  O190  1  0.389000  0.988600  0.651100  1.0  -0.5796
  O  O191  1  0.442940  0.526280  0.829800  1.0  -0.6104
  O  O192  1  0.952480  0.830560  0.928300  1.0  -0.2604
  O  O193  1  0.964180  0.334560  0.096500  1.0  -0.5606
  O  O194  1  0.597800  0.103000  0.310500  1.0  -0.5866
  O  O195  1  0.878080  0.830560  0.428300  1.0  -0.26
  O  O196  1  0.733630  0.641660  0.292800  1.0  -0.5963
  O  O197  1  0.611000  0.011400  0.348900  1.0  -0.5781
  O  O198  1  0.494800  0.897000  0.189500  1.0  -0.5855
  O  O199  1  0.266370  0.358340  0.707200  1.0  -0.5953
  O  O200  1  0.091970  0.358340  0.207200  1.0  -0.5955
  O  O201  1  0.402200  0.897000  0.689500  1.0  -0.5858
  O  O202  1  0.557060  0.473720  0.170200  1.0  -0.6109
