# generated using pymatgen
data_Ce2Cu2H5(C5O4)5
_symmetry_space_group_name_H-M   'P 1'
_cell_length_a   10.99400000
_cell_length_b   19.83800000
_cell_length_c   23.09800000
_cell_angle_alpha   90.00000000
_cell_angle_beta   90.00000000
_cell_angle_gamma   99.89000000
_symmetry_Int_Tables_number   1
_chemical_formula_structural   Ce2Cu2H5(C5O4)5
_chemical_formula_sum   'Ce8 Cu8 H20 C100 O80'
_cell_volume   4962.78714197
_cell_formula_units_Z   4
loop_
 _symmetry_equiv_pos_site_id
 _symmetry_equiv_pos_as_xyz
  1  'x, y, z'
loop_
 _atom_site_type_symbol
 _atom_site_label
 _atom_site_symmetry_multiplicity
 _atom_site_fract_x
 _atom_site_fract_y
 _atom_site_fract_z
 _atom_site_occupancy
 _atom_site_charge
  Ce  Ce1  1  0.960370  0.101030  0.645280  1.0  2.016
  Ce  Ce2  1  0.647350  0.354040  0.644200  1.0  1.7807
  Ce  Ce3  1  0.039630  0.898970  0.354720  1.0  2.0098
  Ce  Ce4  1  0.460370  0.601030  0.854720  1.0  2.01
  Ce  Ce5  1  0.352650  0.645960  0.355800  1.0  1.7751
  Ce  Ce6  1  0.539630  0.398970  0.145280  1.0  2.0156
  Ce  Ce7  1  0.852650  0.145960  0.144200  1.0  1.7823
  Ce  Ce8  1  0.147350  0.854040  0.855800  1.0  1.7787
  Cu  Cu9  1  0.591320  0.398490  0.321390  1.0  1.0089
  Cu  Cu10  1  0.408680  0.601510  0.678610  1.0  1.0071
  Cu  Cu11  1  0.302920  0.651180  0.179300  1.0  1.1424
  Cu  Cu12  1  0.091320  0.898490  0.178610  1.0  1.0094
  Cu  Cu13  1  0.197080  0.848820  0.679300  1.0  1.1432
  Cu  Cu14  1  0.697080  0.348820  0.820700  1.0  1.1467
  Cu  Cu15  1  0.802920  0.151180  0.320700  1.0  1.1477
  Cu  Cu16  1  0.908680  0.101510  0.821390  1.0  1.006
  H  H17  1  0.017500  0.491400  0.304500  1.0  0.1181
  H  H18  1  0.879000  0.557200  0.195500  1.0  0.1192
  H  H19  1  0.982500  0.508600  0.695500  1.0  0.1175
  H  H20  1  0.918200  0.541500  0.917900  1.0  0.1052
  H  H21  1  0.081800  0.458500  0.082100  1.0  0.1042
  H  H22  1  0.418200  0.041500  0.582100  1.0  0.1045
  H  H23  1  0.773000  0.742900  0.294100  1.0  0.1041
  H  H24  1  0.379000  0.057200  0.304500  1.0  0.119
  H  H25  1  0.482500  0.008600  0.804500  1.0  0.1189
  H  H26  1  0.621000  0.942800  0.695500  1.0  0.1196
  H  H27  1  0.581800  0.958500  0.417900  1.0  0.1049
  H  H28  1  0.121000  0.442800  0.804500  1.0  0.1198
  H  H29  1  0.227000  0.257100  0.705900  1.0  0.1031
  H  H30  1  0.110100  0.307300  0.199700  1.0  0.1044
  H  H31  1  0.610100  0.807300  0.300300  1.0  0.1047
  H  H32  1  0.389900  0.192700  0.699700  1.0  0.1039
  H  H33  1  0.727000  0.757100  0.794100  1.0  0.1031
  H  H34  1  0.517500  0.991400  0.195500  1.0  0.1169
  H  H35  1  0.273000  0.242900  0.205900  1.0  0.1047
  H  H36  1  0.889900  0.692700  0.800300  1.0  0.1037
  C  C37  1  0.898700  0.863500  0.812200  1.0  0.6942
  C  C38  1  0.791200  0.465000  0.760900  1.0  0.7425
  C  C39  1  0.752800  0.585000  0.250300  1.0  -0.0626
  C  C40  1  0.592800  0.843900  0.278500  1.0  -0.0165
  C  C41  1  0.639200  0.963600  0.253200  1.0  -0.0768
  C  C42  1  0.212500  0.087300  0.683300  1.0  0.6608
  C  C43  1  0.315200  0.486300  0.740200  1.0  0.7438
  C  C44  1  0.929000  0.659200  0.208500  1.0  -0.055
  C  C45  1  0.657700  0.053800  0.595000  1.0  0.7355
  C  C46  1  0.206500  0.294200  0.726000  1.0  -0.0193
  C  C47  1  0.407200  0.156100  0.721500  1.0  -0.0181
  C  C48  1  0.706500  0.794200  0.774000  1.0  -0.0193
  C  C49  1  0.101300  0.136500  0.187800  1.0  0.691
  C  C50  1  0.126300  0.498900  0.003700  1.0  -0.0561
  C  C51  1  0.360800  0.036400  0.746800  1.0  -0.0746
  C  C52  1  0.578400  0.024300  0.545500  1.0  -0.1388
  C  C53  1  0.184800  0.013700  0.240200  1.0  0.7304
  C  C54  1  0.842300  0.446200  0.095000  1.0  0.734
  C  C55  1  0.149900  0.613400  0.672200  1.0  0.675
  C  C56  1  0.536600  0.109900  0.790400  1.0  -0.0528
  C  C57  1  0.626300  0.998900  0.496300  1.0  -0.0559
  C  C58  1  0.071000  0.340800  0.791500  1.0  -0.0523
  C  C59  1  0.167400  0.407200  0.216000  1.0  -0.0748
  C  C60  1  0.873700  0.501100  0.996300  1.0  -0.0556
  C  C61  1  0.357100  0.094400  0.285000  1.0  -0.0559
  C  C62  1  0.423200  0.763300  0.231500  1.0  0.7338
  C  C63  1  0.507800  0.165900  0.759000  1.0  -0.1016
  C  C64  1  0.342300  0.946200  0.405000  1.0  0.7339
  C  C65  1  0.463300  0.045700  0.784000  1.0  -0.0421
  C  C66  1  0.850100  0.386600  0.327800  1.0  0.6711
  C  C67  1  0.157700  0.553800  0.905000  1.0  0.7227
  C  C68  1  0.046300  0.664300  0.173900  1.0  0.6758
  C  C69  1  0.546300  0.164300  0.326100  1.0  0.6754
  C  C70  1  0.078400  0.524300  0.954500  1.0  -0.139
  C  C71  1  0.465000  0.286300  0.270900  1.0  0.7418
  C  C72  1  0.761200  0.991900  0.490300  1.0  0.6448
  C  C73  1  0.450800  0.024900  0.548900  1.0  -0.0616
  C  C74  1  0.907200  0.656100  0.778500  1.0  -0.0195
  C  C75  1  0.291200  0.965000  0.739100  1.0  0.7427
  C  C76  1  0.857100  0.594400  0.215000  1.0  -0.0562
  C  C77  1  0.603100  0.784900  0.737900  1.0  -0.1028
  C  C78  1  0.549200  0.975100  0.451100  1.0  -0.0597
  C  C79  1  0.332600  0.092800  0.716000  1.0  -0.0732
  C  C80  1  0.787500  0.912700  0.316700  1.0  0.6615
  C  C81  1  0.293500  0.205800  0.226000  1.0  -0.0216
  C  C82  1  0.396900  0.215100  0.262100  1.0  -0.0977
  C  C83  1  0.221100  0.141600  0.219900  1.0  -0.098
  C  C84  1  0.398700  0.363500  0.687800  1.0  0.6901
  C  C85  1  0.923200  0.263300  0.268500  1.0  0.7342
  C  C86  1  0.421600  0.975700  0.454500  1.0  -0.1379
  C  C87  1  0.103100  0.284900  0.762100  1.0  -0.1048
  C  C88  1  0.535000  0.713700  0.729100  1.0  0.7433
  C  C89  1  0.953700  0.335700  0.826100  1.0  0.6744
  C  C90  1  0.963300  0.545700  0.716000  1.0  -0.0421
  C  C91  1  0.238800  0.008100  0.509700  1.0  0.6439
  C  C92  1  0.139200  0.463600  0.246800  1.0  -0.0756
  C  C93  1  0.815200  0.986300  0.759800  1.0  0.7316
  C  C94  1  0.453700  0.835700  0.673900  1.0  0.6766
  C  C95  1  0.036700  0.454300  0.284000  1.0  -0.0424
  C  C96  1  0.747200  0.915000  0.750300  1.0  -0.0635
  C  C97  1  0.992200  0.334100  0.259000  1.0  -0.0931
  C  C98  1  0.287500  0.412700  0.183300  1.0  0.6608
  C  C99  1  0.576800  0.236700  0.768500  1.0  0.7338
  C  C100  1  0.463400  0.890100  0.209600  1.0  -0.0538
  C  C101  1  0.208800  0.535000  0.239100  1.0  0.7367
  C  C102  1  0.965000  0.786300  0.229100  1.0  0.7416
  C  C103  1  0.035000  0.213700  0.770900  1.0  0.7438
  C  C104  1  0.712500  0.587300  0.816700  1.0  0.6611
  C  C105  1  0.252800  0.085000  0.249700  1.0  -0.0626
  C  C106  1  0.429000  0.159200  0.291500  1.0  -0.0528
  C  C107  1  0.350100  0.886600  0.172200  1.0  0.6771
  C  C108  1  0.092800  0.343900  0.221500  1.0  -0.0184
  C  C109  1  0.778900  0.858400  0.780100  1.0  -0.1039
  C  C110  1  0.708800  0.035000  0.260900  1.0  0.7412
  C  C111  1  0.571000  0.840800  0.708500  1.0  -0.0552
  C  C112  1  0.142900  0.405600  0.785000  1.0  -0.0582
  C  C113  1  0.247200  0.415000  0.749700  1.0  -0.0636
  C  C114  1  0.896900  0.715100  0.237900  1.0  -0.0975
  C  C115  1  0.950800  0.524900  0.951100  1.0  -0.0614
  C  C116  1  0.721100  0.641600  0.280100  1.0  -0.1018
  C  C117  1  0.832600  0.592800  0.784000  1.0  -0.0731
  C  C118  1  0.667400  0.907200  0.284000  1.0  -0.0765
  C  C119  1  0.963400  0.390100  0.290400  1.0  -0.0514
  C  C120  1  0.373700  0.001100  0.503700  1.0  -0.0562
  C  C121  1  0.049200  0.475100  0.048900  1.0  -0.0592
  C  C122  1  0.536700  0.954300  0.216000  1.0  -0.042
  C  C123  1  0.642900  0.905600  0.715000  1.0  -0.0563
  C  C124  1  0.793500  0.705800  0.274000  1.0  -0.0196
  C  C125  1  0.007800  0.665900  0.741000  1.0  -0.0944
  C  C126  1  0.492200  0.834100  0.241000  1.0  -0.1004
  C  C127  1  0.278900  0.358400  0.719900  1.0  -0.1037
  C  C128  1  0.684800  0.513700  0.259800  1.0  0.7341
  C  C129  1  0.601300  0.636500  0.312200  1.0  0.693
  C  C130  1  0.860800  0.536400  0.753200  1.0  -0.0761
  C  C131  1  0.076800  0.736700  0.731500  1.0  0.7337
  C  C132  1  0.649900  0.113400  0.827800  1.0  0.6709
  C  C133  1  0.738800  0.508100  0.990300  1.0  0.6439
  C  C134  1  0.921600  0.475700  0.045500  1.0  -0.1375
  C  C135  1  0.036600  0.609900  0.709600  1.0  -0.0541
  C  C136  1  0.261200  0.491900  0.009700  1.0  0.6445
  O  O137  1  0.089900  0.778000  0.772900  1.0  -0.7583
  O  O138  1  0.275800  0.943790  0.688000  1.0  -0.5673
  O  O139  1  0.093500  0.172300  0.144300  1.0  -0.6177
  O  O140  1  0.772900  0.060300  0.589200  1.0  -0.793
  O  O141  1  0.826400  0.006500  0.811600  1.0  -0.5886
  O  O142  1  0.992000  0.903400  0.791500  1.0  -0.6267
  O  O143  1  0.227100  0.939700  0.410800  1.0  -0.7935
  O  O144  1  0.752100  0.133500  0.802600  1.0  -0.5943
  O  O145  1  0.240100  0.570000  0.283600  1.0  -0.7726
  O  O146  1  0.473300  0.326700  0.228700  1.0  -0.7472
  O  O147  1  0.992700  0.197000  0.820410  1.0  -0.5757
  O  O148  1  0.361900  0.906200  0.121600  1.0  -0.5105
  O  O149  1  0.203800  0.122600  0.638700  1.0  -0.6764
  O  O150  1  0.618900  0.549000  0.795700  1.0  -0.6784
  O  O151  1  0.259900  0.930000  0.783600  1.0  -0.7721
  O  O152  1  0.355600  0.821100  0.703240  1.0  -0.6431
  O  O153  1  0.881100  0.951000  0.295700  1.0  -0.6792
  O  O154  1  0.526700  0.673300  0.771300  1.0  -0.7487
  O  O155  1  0.605300  0.072000  0.638600  1.0  -0.5368
  O  O156  1  0.224200  0.556210  0.188000  1.0  -0.5673
  O  O157  1  0.775800  0.443790  0.812000  1.0  -0.5671
  O  O158  1  0.138100  0.593800  0.621600  1.0  -0.5103
  O  O159  1  0.381100  0.451000  0.204300  1.0  -0.679
  O  O160  1  0.105300  0.572000  0.861400  1.0  -0.5351
  O  O161  1  0.894700  0.428000  0.138600  1.0  -0.5351
  O  O162  1  0.394700  0.928000  0.361400  1.0  -0.5342
  O  O163  1  0.614300  0.253200  0.818860  1.0  -0.5726
  O  O164  1  0.492700  0.697000  0.679590  1.0  -0.5754
  O  O165  1  0.039200  0.650900  0.121400  1.0  -0.5242
  O  O166  1  0.759900  0.430000  0.716400  1.0  -0.7724
  O  O167  1  0.147200  0.978200  0.283400  1.0  -0.7548
  O  O168  1  0.272900  0.560300  0.910800  1.0  -0.793
  O  O169  1  0.673600  0.493500  0.311600  1.0  -0.5902
  O  O170  1  0.852800  0.021800  0.716600  1.0  -0.7546
  O  O171  1  0.960800  0.349100  0.878600  1.0  -0.5247
  O  O172  1  0.973300  0.826700  0.271300  1.0  -0.7483
  O  O173  1  0.007300  0.803000  0.179590  1.0  -0.5789
  O  O174  1  0.460800  0.849100  0.621400  1.0  -0.5241
  O  O175  1  0.797600  0.941400  0.512600  1.0  -0.4577
  O  O176  1  0.702400  0.558600  0.012600  1.0  -0.4603
  O  O177  1  0.507300  0.303000  0.320410  1.0  -0.5798
  O  O178  1  0.724200  0.056210  0.312000  1.0  -0.5669
  O  O179  1  0.144400  0.678900  0.203240  1.0  -0.6434
  O  O180  1  0.589900  0.278000  0.727100  1.0  -0.7592
  O  O181  1  0.910100  0.222000  0.227100  1.0  -0.7602
  O  O182  1  0.252100  0.633500  0.697400  1.0  -0.5953
  O  O183  1  0.202400  0.058600  0.487400  1.0  -0.4602
  O  O184  1  0.539200  0.150900  0.378600  1.0  -0.5236
  O  O185  1  0.593500  0.672300  0.355700  1.0  -0.6183
  O  O186  1  0.508000  0.596600  0.291500  1.0  -0.6255
  O  O187  1  0.329600  0.537000  0.039700  1.0  -0.5153
  O  O188  1  0.008000  0.096600  0.208500  1.0  -0.626
  O  O189  1  0.727100  0.439700  0.089200  1.0  -0.7928
  O  O190  1  0.406500  0.327700  0.644300  1.0  -0.6166
  O  O191  1  0.170400  0.963000  0.539700  1.0  -0.5122
  O  O192  1  0.855600  0.321100  0.796760  1.0  -0.6435
  O  O193  1  0.644400  0.178900  0.296760  1.0  -0.6444
  O  O194  1  0.173600  0.993500  0.188400  1.0  -0.5911
  O  O195  1  0.492000  0.403400  0.708500  1.0  -0.6273
  O  O196  1  0.829600  0.037000  0.460300  1.0  -0.5138
  O  O197  1  0.026700  0.173300  0.728700  1.0  -0.7477
  O  O198  1  0.703800  0.622600  0.861300  1.0  -0.6772
  O  O199  1  0.747900  0.366500  0.302600  1.0  -0.5933
  O  O200  1  0.114300  0.753200  0.681140  1.0  -0.5761
  O  O201  1  0.410100  0.722000  0.272900  1.0  -0.7585
  O  O202  1  0.638100  0.093800  0.878400  1.0  -0.5075
  O  O203  1  0.647200  0.478200  0.216600  1.0  -0.7552
  O  O204  1  0.906500  0.827700  0.855700  1.0  -0.616
  O  O205  1  0.796200  0.877400  0.361300  1.0  -0.676
  O  O206  1  0.670400  0.463000  0.960300  1.0  -0.5129
  O  O207  1  0.385700  0.746800  0.181140  1.0  -0.5747
  O  O208  1  0.247900  0.866500  0.197400  1.0  -0.5938
  O  O209  1  0.296200  0.377400  0.138700  1.0  -0.6748
  O  O210  1  0.885700  0.246800  0.318860  1.0  -0.575
  O  O211  1  0.326400  0.506500  0.688400  1.0  -0.5909
  O  O212  1  0.352800  0.521800  0.783400  1.0  -0.7546
  O  O213  1  0.740100  0.070000  0.216400  1.0  -0.7718
  O  O214  1  0.297600  0.441400  0.987400  1.0  -0.4568
  O  O215  1  0.861900  0.406200  0.378400  1.0  -0.5079
  O  O216  1  0.118900  0.049000  0.704300  1.0  -0.6778
