# generated using pymatgen
data_La2Cu2H5(C5O4)5
_symmetry_space_group_name_H-M   'P 1'
_cell_length_a   11.00600000
_cell_length_b   19.84700000
_cell_length_c   23.22800000
_cell_angle_alpha   90.00000000
_cell_angle_beta   90.00000000
_cell_angle_gamma   99.91000000
_symmetry_Int_Tables_number   1
_chemical_formula_structural   La2Cu2H5(C5O4)5
_chemical_formula_sum   'La8 Cu8 H20 C100 O80'
_cell_volume   4998.12818758
_cell_formula_units_Z   4
loop_
 _symmetry_equiv_pos_site_id
 _symmetry_equiv_pos_as_xyz
  1  'x, y, z'
loop_
 _atom_site_type_symbol
 _atom_site_label
 _atom_site_symmetry_multiplicity
 _atom_site_fract_x
 _atom_site_fract_y
 _atom_site_fract_z
 _atom_site_occupancy
 _atom_site_charge
  La  La1  1  0.461930  0.601770  0.855610  1.0  2.0467
  La  La2  1  0.538070  0.398230  0.144390  1.0  2.0487
  La  La3  1  0.148860  0.855270  0.856310  1.0  1.9192
  La  La4  1  0.851140  0.144730  0.143690  1.0  1.902
  La  La5  1  0.038070  0.898230  0.355610  1.0  2.046
  La  La6  1  0.648860  0.355270  0.643690  1.0  1.8999
  La  La7  1  0.961930  0.101770  0.644390  1.0  2.0497
  La  La8  1  0.351140  0.644730  0.356310  1.0  1.9162
  Cu  Cu9  1  0.909850  0.102480  0.820380  1.0  0.907
  Cu  Cu10  1  0.409850  0.602480  0.679620  1.0  0.9077
  Cu  Cu11  1  0.198670  0.849960  0.679920  1.0  0.926
  Cu  Cu12  1  0.590150  0.397520  0.320380  1.0  0.9056
  Cu  Cu13  1  0.090150  0.897520  0.179620  1.0  0.9072
  Cu  Cu14  1  0.801330  0.150040  0.320080  1.0  0.929
  Cu  Cu15  1  0.301330  0.650040  0.179920  1.0  0.9265
  Cu  Cu16  1  0.698670  0.349960  0.820080  1.0  0.9296
  H  H17  1  0.271800  0.241000  0.205900  1.0  0.0986
  H  H18  1  0.419500  0.040900  0.581600  1.0  0.1003
  H  H19  1  0.379200  0.056500  0.303400  1.0  0.1085
  H  H20  1  0.580500  0.959100  0.418400  1.0  0.101
  H  H21  1  0.484200  0.009700  0.803300  1.0  0.1246
  H  H22  1  0.771800  0.741000  0.294100  1.0  0.1001
  H  H23  1  0.015800  0.490300  0.303300  1.0  0.1238
  H  H24  1  0.879200  0.556500  0.196600  1.0  0.1094
  H  H25  1  0.608600  0.806400  0.299700  1.0  0.1091
  H  H26  1  0.391400  0.193600  0.700300  1.0  0.108
  H  H27  1  0.891400  0.693600  0.799700  1.0  0.108
  H  H28  1  0.984200  0.509700  0.696700  1.0  0.1233
  H  H29  1  0.108600  0.306400  0.200300  1.0  0.1083
  H  H30  1  0.728200  0.759000  0.794100  1.0  0.1001
  H  H31  1  0.919500  0.540900  0.918400  1.0  0.1012
  H  H32  1  0.228200  0.259000  0.705900  1.0  0.0988
  H  H33  1  0.080500  0.459100  0.081600  1.0  0.1
  H  H34  1  0.620800  0.943500  0.696600  1.0  0.1096
  H  H35  1  0.120800  0.443500  0.803400  1.0  0.1087
  H  H36  1  0.515800  0.990300  0.196700  1.0  0.1228
  C  C37  1  0.720600  0.641100  0.279800  1.0  -0.0994
  C  C38  1  0.834900  0.593500  0.784200  1.0  -0.0908
  C  C39  1  0.279400  0.358900  0.720200  1.0  -0.1001
  C  C40  1  0.165100  0.406500  0.215800  1.0  -0.093
  C  C41  1  0.423000  0.976500  0.454300  1.0  -0.1202
  C  C42  1  0.991200  0.332900  0.259300  1.0  -0.0983
  C  C43  1  0.455600  0.836600  0.674600  1.0  0.6715
  C  C44  1  0.372900  0.002000  0.503600  1.0  -0.0648
  C  C45  1  0.220600  0.141100  0.220200  1.0  -0.106
  C  C46  1  0.408900  0.156900  0.721800  1.0  -0.0087
  C  C47  1  0.535800  0.715000  0.729800  1.0  0.7247
  C  C48  1  0.104100  0.285900  0.761600  1.0  -0.109
  C  C49  1  0.604100  0.785900  0.738400  1.0  -0.1136
  C  C50  1  0.792400  0.704000  0.274000  1.0  -0.0474
  C  C51  1  0.577000  0.023500  0.545700  1.0  -0.1187
  C  C52  1  0.292400  0.204000  0.226000  1.0  -0.0473
  C  C53  1  0.923000  0.476500  0.045700  1.0  -0.1197
  C  C54  1  0.428200  0.158400  0.291200  1.0  -0.047
  C  C55  1  0.601400  0.634900  0.311700  1.0  0.6872
  C  C56  1  0.239400  0.008200  0.510000  1.0  0.7069
  C  C57  1  0.659100  0.053900  0.594300  1.0  0.7241
  C  C58  1  0.739400  0.508200  0.990000  1.0  0.7068
  C  C59  1  0.285200  0.411500  0.183100  1.0  0.6567
  C  C60  1  0.491200  0.832900  0.240700  1.0  -0.099
  C  C61  1  0.207600  0.296000  0.726000  1.0  -0.0471
  C  C62  1  0.538000  0.111000  0.790000  1.0  -0.0457
  C  C63  1  0.591100  0.843100  0.278200  1.0  -0.0079
  C  C64  1  0.251900  0.083800  0.249700  1.0  -0.0731
  C  C65  1  0.214800  0.088500  0.683100  1.0  0.6565
  C  C66  1  0.964200  0.785000  0.229800  1.0  0.7242
  C  C67  1  0.651500  0.114900  0.826800  1.0  0.6945
  C  C68  1  0.898600  0.865100  0.811700  1.0  0.6889
  C  C69  1  0.038000  0.611000  0.710000  1.0  -0.0469
  C  C70  1  0.964900  0.546900  0.716900  1.0  -0.0347
  C  C71  1  0.071800  0.341600  0.791200  1.0  -0.0466
  C  C72  1  0.816700  0.987100  0.759500  1.0  0.7324
  C  C73  1  0.398600  0.365100  0.688300  1.0  0.687
  C  C74  1  0.683300  0.512900  0.259500  1.0  0.7313
  C  C75  1  0.707600  0.796000  0.774000  1.0  -0.0465
  C  C76  1  0.077000  0.523500  0.954300  1.0  -0.1178
  C  C77  1  0.508800  0.167100  0.759300  1.0  -0.099
  C  C78  1  0.714800  0.588500  0.816900  1.0  0.6572
  C  C79  1  0.856600  0.593700  0.215600  1.0  -0.0621
  C  C80  1  0.008800  0.667100  0.740700  1.0  -0.0985
  C  C81  1  0.395900  0.214100  0.261600  1.0  -0.1084
  C  C82  1  0.707200  0.033500  0.260700  1.0  0.7453
  C  C83  1  0.316700  0.487100  0.740500  1.0  0.7295
  C  C84  1  0.292800  0.966500  0.739300  1.0  0.7319
  C  C85  1  0.151500  0.614900  0.673200  1.0  0.6967
  C  C86  1  0.577900  0.238200  0.768200  1.0  0.7308
  C  C87  1  0.544400  0.163400  0.325400  1.0  0.6633
  C  C88  1  0.760600  0.991800  0.490000  1.0  0.7056
  C  C89  1  0.451600  0.024500  0.548400  1.0  -0.0656
  C  C90  1  0.571800  0.841600  0.708800  1.0  -0.0494
  C  C91  1  0.863700  0.537900  0.753300  1.0  -0.0734
  C  C92  1  0.643400  0.906300  0.715600  1.0  -0.0646
  C  C93  1  0.334900  0.093500  0.715800  1.0  -0.0936
  C  C94  1  0.462000  0.889000  0.210000  1.0  -0.0467
  C  C95  1  0.464200  0.285000  0.270200  1.0  0.7242
  C  C96  1  0.091100  0.343100  0.221800  1.0  -0.0089
  C  C97  1  0.101400  0.134900  0.188300  1.0  0.6871
  C  C98  1  0.159100  0.553900  0.905700  1.0  0.7247
  C  C99  1  0.348500  0.885100  0.173200  1.0  0.6993
  C  C100  1  0.363700  0.037900  0.746700  1.0  -0.0712
  C  C101  1  0.785200  0.911500  0.316900  1.0  0.6579
  C  C102  1  0.535100  0.953100  0.216900  1.0  -0.0376
  C  C103  1  0.044400  0.663400  0.174600  1.0  0.6709
  C  C104  1  0.895900  0.714100  0.238400  1.0  -0.1081
  C  C105  1  0.908900  0.656900  0.778200  1.0  -0.0089
  C  C106  1  0.548400  0.975500  0.451600  1.0  -0.065
  C  C107  1  0.636300  0.962100  0.253300  1.0  -0.0734
  C  C108  1  0.627100  0.998000  0.496400  1.0  -0.0645
  C  C109  1  0.955600  0.336600  0.825400  1.0  0.6694
  C  C110  1  0.779400  0.858900  0.779800  1.0  -0.104
  C  C111  1  0.356600  0.093700  0.284400  1.0  -0.0633
  C  C112  1  0.260600  0.491800  0.010000  1.0  0.7059
  C  C113  1  0.751900  0.583800  0.250300  1.0  -0.073
  C  C114  1  0.464900  0.046900  0.783100  1.0  -0.0369
  C  C115  1  0.248100  0.416200  0.749700  1.0  -0.0738
  C  C116  1  0.962000  0.389000  0.290000  1.0  -0.0448
  C  C117  1  0.048400  0.475500  0.048400  1.0  -0.0645
  C  C118  1  0.127100  0.498000  0.003600  1.0  -0.0647
  C  C119  1  0.840900  0.446100  0.094300  1.0  0.7254
  C  C120  1  0.035800  0.215000  0.770200  1.0  0.7426
  C  C121  1  0.792800  0.466500  0.760700  1.0  0.732
  C  C122  1  0.183300  0.012900  0.240500  1.0  0.7308
  C  C123  1  0.207200  0.533500  0.239300  1.0  0.7303
  C  C124  1  0.143400  0.406300  0.784400  1.0  -0.0652
  C  C125  1  0.422100  0.761800  0.231800  1.0  0.7359
  C  C126  1  0.928200  0.658400  0.208800  1.0  -0.0493
  C  C127  1  0.922100  0.261800  0.268200  1.0  0.7366
  C  C128  1  0.136300  0.462100  0.246700  1.0  -0.0715
  C  C129  1  0.665100  0.906500  0.284200  1.0  -0.0928
  C  C130  1  0.077900  0.738200  0.731800  1.0  0.73
  C  C131  1  0.035100  0.453100  0.283100  1.0  -0.0355
  C  C132  1  0.848500  0.385100  0.326800  1.0  0.695
  C  C133  1  0.872900  0.502000  0.996400  1.0  -0.0643
  C  C134  1  0.748100  0.916200  0.750300  1.0  -0.0737
  C  C135  1  0.951600  0.524500  0.951600  1.0  -0.0653
  C  C136  1  0.340900  0.946100  0.405700  1.0  0.725
  O  O137  1  0.592700  0.670700  0.355400  1.0  -0.6362
  O  O138  1  0.090200  0.779000  0.773000  1.0  -0.7528
  O  O139  1  0.797000  0.941900  0.512900  1.0  -0.4833
  O  O140  1  0.961900  0.348800  0.877400  1.0  -0.5136
  O  O141  1  0.141200  0.595300  0.623100  1.0  -0.5181
  O  O142  1  0.526200  0.674700  0.771600  1.0  -0.7384
  O  O143  1  0.604900  0.071300  0.637800  1.0  -0.5116
  O  O144  1  0.506600  0.595400  0.291700  1.0  -0.641
  O  O145  1  0.326700  0.508000  0.688800  1.0  -0.5979
  O  O146  1  0.878800  0.950200  0.296000  1.0  -0.6577
  O  O147  1  0.384600  0.745300  0.181700  1.0  -0.5708
  O  O148  1  0.641200  0.095300  0.876900  1.0  -0.5144
  O  O149  1  0.538100  0.151200  0.377400  1.0  -0.513
  O  O150  1  0.746400  0.365700  0.301300  1.0  -0.5805
  O  O151  1  0.760900  0.431600  0.716400  1.0  -0.7782
  O  O152  1  0.973800  0.825300  0.271600  1.0  -0.7376
  O  O153  1  0.473800  0.325300  0.228400  1.0  -0.7375
  O  O154  1  0.378800  0.450200  0.204000  1.0  -0.6574
  O  O155  1  0.771000  0.059800  0.589000  1.0  -0.7645
  O  O156  1  0.993400  0.904600  0.791700  1.0  -0.6439
  O  O157  1  0.173300  0.992000  0.188800  1.0  -0.599
  O  O158  1  0.356300  0.822400  0.703800  1.0  -0.6098
  O  O159  1  0.203000  0.058100  0.487100  1.0  -0.4872
  O  O160  1  0.246400  0.865700  0.198700  1.0  -0.5818
  O  O161  1  0.328100  0.535700  0.039700  1.0  -0.4941
  O  O162  1  0.038100  0.651200  0.122600  1.0  -0.5132
  O  O163  1  0.407300  0.329300  0.644600  1.0  -0.635
  O  O164  1  0.507000  0.302000  0.319300  1.0  -0.5742
  O  O165  1  0.753600  0.134300  0.801300  1.0  -0.583
  O  O166  1  0.092700  0.170700  0.144600  1.0  -0.6371
  O  O167  1  0.895100  0.428700  0.137800  1.0  -0.5106
  O  O168  1  0.792200  0.876500  0.361400  1.0  -0.6541
  O  O169  1  0.253600  0.634300  0.698700  1.0  -0.5836
  O  O170  1  0.621200  0.549800  0.796000  1.0  -0.6566
  O  O171  1  0.007000  0.802000  0.180700  1.0  -0.5779
  O  O172  1  0.884600  0.245300  0.318300  1.0  -0.5691
  O  O173  1  0.171900  0.964300  0.539700  1.0  -0.4903
  O  O174  1  0.703000  0.558100  0.012900  1.0  -0.4858
  O  O175  1  0.026200  0.174700  0.728400  1.0  -0.7387
  O  O176  1  0.104900  0.571300  0.862200  1.0  -0.5107
  O  O177  1  0.409800  0.721000  0.273000  1.0  -0.7526
  O  O178  1  0.395100  0.928700  0.362200  1.0  -0.5107
  O  O179  1  0.260900  0.931600  0.783600  1.0  -0.7773
  O  O180  1  0.229000  0.940200  0.411000  1.0  -0.7655
  O  O181  1  0.858800  0.404700  0.376900  1.0  -0.515
  O  O182  1  0.145600  0.978000  0.283100  1.0  -0.7042
  O  O183  1  0.115400  0.754700  0.681700  1.0  -0.5719
  O  O184  1  0.729000  0.440200  0.089000  1.0  -0.7656
  O  O185  1  0.777100  0.444800  0.811700  1.0  -0.5718
  O  O186  1  0.993000  0.198000  0.819300  1.0  -0.5741
  O  O187  1  0.854400  0.022000  0.716900  1.0  -0.7065
  O  O188  1  0.909800  0.221000  0.227000  1.0  -0.7536
  O  O189  1  0.615400  0.254700  0.818300  1.0  -0.5701
  O  O190  1  0.643700  0.177600  0.296200  1.0  -0.6098
  O  O191  1  0.826700  0.008000  0.811200  1.0  -0.5968
  O  O192  1  0.006600  0.095400  0.208300  1.0  -0.6414
  O  O193  1  0.590200  0.279000  0.727000  1.0  -0.7529
  O  O194  1  0.856300  0.322400  0.796200  1.0  -0.6099
  O  O195  1  0.297000  0.441900  0.987100  1.0  -0.4819
  O  O196  1  0.239100  0.568400  0.283600  1.0  -0.777
  O  O197  1  0.493000  0.698000  0.680700  1.0  -0.5782
  O  O198  1  0.121200  0.049800  0.704000  1.0  -0.656
  O  O199  1  0.461900  0.848800  0.622600  1.0  -0.5129
  O  O200  1  0.493400  0.404600  0.708300  1.0  -0.6436
  O  O201  1  0.673300  0.492000  0.311200  1.0  -0.5983
  O  O202  1  0.722900  0.055200  0.311700  1.0  -0.5715
  O  O203  1  0.207800  0.123500  0.638600  1.0  -0.655
  O  O204  1  0.292200  0.376500  0.138600  1.0  -0.6546
  O  O205  1  0.907300  0.829300  0.855400  1.0  -0.6348
  O  O206  1  0.143700  0.677600  0.203800  1.0  -0.6103
  O  O207  1  0.358800  0.904700  0.123100  1.0  -0.5175
  O  O208  1  0.277100  0.944800  0.688300  1.0  -0.5722
  O  O209  1  0.707800  0.623500  0.861400  1.0  -0.6554
  O  O210  1  0.645600  0.478000  0.216900  1.0  -0.7045
  O  O211  1  0.739100  0.068400  0.216400  1.0  -0.7766
  O  O212  1  0.354400  0.522000  0.783100  1.0  -0.7075
  O  O213  1  0.222900  0.555200  0.188300  1.0  -0.5713
  O  O214  1  0.271000  0.559800  0.911000  1.0  -0.7644
  O  O215  1  0.828100  0.035700  0.460300  1.0  -0.4916
  O  O216  1  0.671900  0.464300  0.960300  1.0  -0.4911
