# generated using pymatgen
data_Nd2Cu2H5(C5O4)5
_symmetry_space_group_name_H-M   'P 1'
_cell_length_a   10.85600000
_cell_length_b   19.70600000
_cell_length_c   22.79900000
_cell_angle_alpha   90.00000000
_cell_angle_beta   90.00000000
_cell_angle_gamma   99.49000000
_symmetry_Int_Tables_number   1
_chemical_formula_structural   Nd2Cu2H5(C5O4)5
_chemical_formula_sum   'Nd8 Cu8 H20 C100 O80'
_cell_volume   4810.60260679
_cell_formula_units_Z   4
loop_
 _symmetry_equiv_pos_site_id
 _symmetry_equiv_pos_as_xyz
  1  'x, y, z'
loop_
 _atom_site_type_symbol
 _atom_site_label
 _atom_site_symmetry_multiplicity
 _atom_site_fract_x
 _atom_site_fract_y
 _atom_site_fract_z
 _atom_site_occupancy
 _atom_site_charge
  Nd  Nd1  1  0.649610  0.347360  0.644420  1.0  1.7639
  Nd  Nd2  1  0.850390  0.152640  0.144420  1.0  1.7651
  Nd  Nd3  1  0.149610  0.847360  0.855580  1.0  1.7695
  Nd  Nd4  1  0.458740  0.596730  0.851490  1.0  2.0875
  Nd  Nd5  1  0.350390  0.652640  0.355580  1.0  1.7634
  Nd  Nd6  1  0.541260  0.403270  0.148510  1.0  2.0877
  Nd  Nd7  1  0.958740  0.096730  0.648510  1.0  2.0881
  Nd  Nd8  1  0.041260  0.903270  0.351490  1.0  2.0864
  Cu  Cu9  1  0.693700  0.344120  0.822990  1.0  0.9612
  Cu  Cu10  1  0.090050  0.904120  0.173190  1.0  0.7875
  Cu  Cu11  1  0.909950  0.095880  0.826810  1.0  0.7894
  Cu  Cu12  1  0.193700  0.844120  0.677010  1.0  0.9563
  Cu  Cu13  1  0.306300  0.655880  0.177010  1.0  0.9559
  Cu  Cu14  1  0.590050  0.404120  0.326810  1.0  0.7894
  Cu  Cu15  1  0.806300  0.155880  0.322990  1.0  0.9632
  Cu  Cu16  1  0.409950  0.595880  0.673190  1.0  0.788
  H  H17  1  0.517900  0.997400  0.193100  1.0  0.1243
  H  H18  1  0.391300  0.188500  0.699500  1.0  0.1105
  H  H19  1  0.108700  0.311500  0.199500  1.0  0.1102
  H  H20  1  0.381500  0.060500  0.302800  1.0  0.1211
  H  H21  1  0.618500  0.939500  0.697200  1.0  0.12
  H  H22  1  0.482100  0.002600  0.806900  1.0  0.1261
  H  H23  1  0.225600  0.251000  0.704400  1.0  0.1122
  H  H24  1  0.086700  0.466100  0.086300  1.0  0.1182
  H  H25  1  0.982100  0.502600  0.693100  1.0  0.1248
  H  H26  1  0.017900  0.497400  0.306900  1.0  0.1255
  H  H27  1  0.725600  0.751000  0.795600  1.0  0.1118
  H  H28  1  0.586700  0.966100  0.413700  1.0  0.1187
  H  H29  1  0.413300  0.033900  0.586300  1.0  0.1186
  H  H30  1  0.891300  0.688500  0.800500  1.0  0.1106
  H  H31  1  0.913300  0.533900  0.913700  1.0  0.1189
  H  H32  1  0.118500  0.439500  0.802800  1.0  0.1211
  H  H33  1  0.774400  0.749000  0.295600  1.0  0.112
  H  H34  1  0.274400  0.249000  0.204400  1.0  0.1133
  H  H35  1  0.881500  0.560500  0.197200  1.0  0.1213
  H  H36  1  0.608700  0.811500  0.300500  1.0  0.1111
  C  C37  1  0.454100  0.832400  0.672200  1.0  0.6821
  C  C38  1  0.536200  0.104800  0.793300  1.0  -0.0526
  C  C39  1  0.344200  0.954000  0.401300  1.0  0.6893
  C  C40  1  0.141300  0.401500  0.784100  1.0  -0.0985
  C  C41  1  0.491200  0.838900  0.239400  1.0  -0.0816
  C  C42  1  0.814300  0.981900  0.762800  1.0  0.724
  C  C43  1  0.638900  0.969300  0.252400  1.0  -0.0759
  C  C44  1  0.928600  0.663800  0.207700  1.0  -0.0461
  C  C45  1  0.954100  0.332400  0.827800  1.0  0.6797
  C  C46  1  0.463800  0.895200  0.206700  1.0  -0.0549
  C  C47  1  0.648900  0.108200  0.831900  1.0  0.711
  C  C48  1  0.036200  0.604800  0.706700  1.0  -0.055
  C  C49  1  0.627700  0.998600  0.496600  1.0  -0.0373
  C  C50  1  0.872300  0.501400  0.996600  1.0  -0.0375
  C  C51  1  0.896100  0.720500  0.236600  1.0  -0.0977
  C  C52  1  0.076000  0.731800  0.728800  1.0  0.7254
  C  C53  1  0.424000  0.768200  0.228800  1.0  0.7273
  C  C54  1  0.209400  0.540700  0.239800  1.0  0.7027
  C  C55  1  0.991200  0.338900  0.260600  1.0  -0.0868
  C  C56  1  0.641300  0.901500  0.715900  1.0  -0.0953
  C  C57  1  0.746200  0.909300  0.752600  1.0  -0.0636
  C  C58  1  0.463600  0.291700  0.274100  1.0  0.7428
  C  C59  1  0.045900  0.667600  0.172200  1.0  0.6817
  C  C60  1  0.314300  0.481900  0.737200  1.0  0.7251
  C  C61  1  0.737500  0.506700  0.990500  1.0  0.649
  C  C62  1  0.253800  0.090700  0.247400  1.0  -0.0632
  C  C63  1  0.923400  0.480500  0.047800  1.0  -0.1109
  C  C64  1  0.536400  0.708300  0.725900  1.0  0.7447
  C  C65  1  0.287400  0.417900  0.183100  1.0  0.6683
  C  C66  1  0.071400  0.336200  0.792300  1.0  -0.0428
  C  C67  1  0.103900  0.279500  0.763400  1.0  -0.0957
  C  C68  1  0.571400  0.836200  0.707700  1.0  -0.0458
  C  C69  1  0.290600  0.959300  0.739800  1.0  0.7048
  C  C70  1  0.099900  0.142700  0.186100  1.0  0.6857
  C  C71  1  0.545900  0.167600  0.327800  1.0  0.6806
  C  C72  1  0.372300  0.001400  0.503400  1.0  -0.0378
  C  C73  1  0.762500  0.993300  0.490500  1.0  0.6483
  C  C74  1  0.576600  0.019500  0.547800  1.0  -0.111
  C  C75  1  0.206500  0.288300  0.725400  1.0  -0.0244
  C  C76  1  0.237500  0.006700  0.509500  1.0  0.6487
  C  C77  1  0.400100  0.357300  0.686100  1.0  0.6853
  C  C78  1  0.246200  0.409300  0.747400  1.0  -0.0636
  C  C79  1  0.212600  0.082100  0.683100  1.0  0.6674
  C  C80  1  0.709400  0.040700  0.260200  1.0  0.7063
  C  C81  1  0.167400  0.412900  0.216000  1.0  -0.0717
  C  C82  1  0.138900  0.469300  0.247600  1.0  -0.0745
  C  C83  1  0.963800  0.395200  0.293300  1.0  -0.0511
  C  C84  1  0.552300  0.979500  0.448300  1.0  -0.0535
  C  C85  1  0.787400  0.917900  0.316900  1.0  0.6681
  C  C86  1  0.008800  0.661100  0.739400  1.0  -0.0856
  C  C87  1  0.851100  0.391800  0.331900  1.0  0.7108
  C  C88  1  0.706500  0.788300  0.774600  1.0  -0.0224
  C  C89  1  0.832600  0.587100  0.784000  1.0  -0.0713
  C  C90  1  0.148900  0.608200  0.668100  1.0  0.7144
  C  C91  1  0.423400  0.980500  0.452200  1.0  -0.107
  C  C92  1  0.720400  0.647600  0.280900  1.0  -0.0816
  C  C93  1  0.900100  0.857300  0.813900  1.0  0.6863
  C  C94  1  0.793500  0.711700  0.274600  1.0  -0.0235
  C  C95  1  0.537200  0.960100  0.214100  1.0  -0.04
  C  C96  1  0.220400  0.147600  0.219100  1.0  -0.0884
  C  C97  1  0.599900  0.642700  0.313900  1.0  0.6849
  C  C98  1  0.858700  0.598500  0.215900  1.0  -0.0943
  C  C99  1  0.712600  0.582100  0.816900  1.0  0.6665
  C  C100  1  0.408300  0.151600  0.721800  1.0  -0.0169
  C  C101  1  0.655800  0.046000  0.598700  1.0  0.6908
  C  C102  1  0.396100  0.220500  0.263400  1.0  -0.0961
  C  C103  1  0.790600  0.459300  0.760200  1.0  0.7047
  C  C104  1  0.279600  0.352400  0.719100  1.0  -0.0838
  C  C105  1  0.428600  0.163800  0.292300  1.0  -0.0433
  C  C106  1  0.036400  0.208300  0.774100  1.0  0.7451
  C  C107  1  0.667400  0.912900  0.284000  1.0  -0.0716
  C  C108  1  0.753800  0.590700  0.252600  1.0  -0.0632
  C  C109  1  0.924000  0.268200  0.271200  1.0  0.7281
  C  C110  1  0.861100  0.530700  0.752400  1.0  -0.0745
  C  C111  1  0.091700  0.348400  0.221800  1.0  -0.0189
  C  C112  1  0.844200  0.454000  0.098700  1.0  0.6895
  C  C113  1  0.962800  0.539900  0.714100  1.0  -0.0381
  C  C114  1  0.963600  0.791700  0.225900  1.0  0.743
  C  C115  1  0.603900  0.779500  0.736600  1.0  -0.0959
  C  C116  1  0.332600  0.087100  0.716000  1.0  -0.0737
  C  C117  1  0.591700  0.848400  0.278200  1.0  -0.0181
  C  C118  1  0.947700  0.520500  0.948300  1.0  -0.0548
  C  C119  1  0.447700  0.020500  0.551700  1.0  -0.0553
  C  C120  1  0.351100  0.891800  0.168100  1.0  0.7155
  C  C121  1  0.908300  0.651600  0.778200  1.0  -0.019
  C  C122  1  0.076600  0.519500  0.952200  1.0  -0.1072
  C  C123  1  0.037200  0.460100  0.285900  1.0  -0.0396
  C  C124  1  0.358700  0.098500  0.284100  1.0  -0.0957
  C  C125  1  0.185700  0.018100  0.237200  1.0  0.7257
  C  C126  1  0.685700  0.518100  0.262800  1.0  0.7236
  C  C127  1  0.052300  0.479500  0.051700  1.0  -0.0531
  C  C128  1  0.262500  0.493300  0.009500  1.0  0.6481
  C  C129  1  0.127700  0.498600  0.003400  1.0  -0.0373
  C  C130  1  0.361100  0.030700  0.747600  1.0  -0.0731
  C  C131  1  0.293500  0.211700  0.225400  1.0  -0.0243
  C  C132  1  0.508800  0.161100  0.760600  1.0  -0.0867
  C  C133  1  0.576000  0.231800  0.771200  1.0  0.726
  C  C134  1  0.779600  0.852400  0.780900  1.0  -0.083
  C  C135  1  0.462800  0.039900  0.785900  1.0  -0.0398
  C  C136  1  0.155800  0.546000  0.901300  1.0  0.6905
  O  O137  1  0.331600  0.539400  0.039000  1.0  -0.4987
  O  O138  1  0.960800  0.348300  0.880500  1.0  -0.5328
  O  O139  1  0.301500  0.441800  0.987600  1.0  -0.4915
  O  O140  1  0.408400  0.726000  0.271000  1.0  -0.7349
  O  O141  1  0.853200  0.017600  0.719600  1.0  -0.7106
  O  O142  1  0.799000  0.882000  0.361600  1.0  -0.672
  O  O143  1  0.908400  0.226000  0.229000  1.0  -0.7371
  O  O144  1  0.668400  0.460600  0.961000  1.0  -0.4979
  O  O145  1  0.910300  0.820700  0.857900  1.0  -0.634
  O  O146  1  0.824300  0.000600  0.815600  1.0  -0.5881
  O  O147  1  0.747500  0.370800  0.307700  1.0  -0.5824
  O  O148  1  0.006800  0.103700  0.207300  1.0  -0.6323
  O  O149  1  0.226000  0.560700  0.186800  1.0  -0.5736
  O  O150  1  0.091600  0.774000  0.771000  1.0  -0.735
  O  O151  1  0.675700  0.499400  0.315600  1.0  -0.5895
  O  O152  1  0.003800  0.807300  0.174800  1.0  -0.5703
  O  O153  1  0.496200  0.692700  0.674800  1.0  -0.5748
  O  O154  1  0.168400  0.960600  0.539000  1.0  -0.4971
  O  O155  1  0.388700  0.752400  0.177100  1.0  -0.5597
  O  O156  1  0.774000  0.055300  0.592000  1.0  -0.7489
  O  O157  1  0.759400  0.423600  0.716300  1.0  -0.7357
  O  O158  1  0.460800  0.848300  0.619500  1.0  -0.5342
  O  O159  1  0.146800  0.982400  0.280400  1.0  -0.7089
  O  O160  1  0.353200  0.517600  0.780400  1.0  -0.7098
  O  O161  1  0.410300  0.320700  0.642100  1.0  -0.6323
  O  O162  1  0.698500  0.558200  0.012400  1.0  -0.4968
  O  O163  1  0.247500  0.870800  0.192300  1.0  -0.5832
  O  O164  1  0.039200  0.651700  0.119500  1.0  -0.5354
  O  O165  1  0.198500  0.058200  0.487600  1.0  -0.4951
  O  O166  1  0.506800  0.603700  0.292700  1.0  -0.634
  O  O167  1  0.801500  0.941800  0.512400  1.0  -0.4932
  O  O168  1  0.864300  0.412800  0.383300  1.0  -0.4782
  O  O169  1  0.524500  0.667000  0.768100  1.0  -0.7342
  O  O170  1  0.024500  0.167000  0.731900  1.0  -0.7342
  O  O171  1  0.646800  0.482400  0.219600  1.0  -0.709
  O  O172  1  0.996200  0.192700  0.825200  1.0  -0.5691
  O  O173  1  0.604300  0.059400  0.645700  1.0  -0.5016
  O  O174  1  0.364300  0.912800  0.116700  1.0  -0.4775
  O  O175  1  0.975500  0.833000  0.268100  1.0  -0.7343
  O  O176  1  0.646200  0.185100  0.298800  1.0  -0.5761
  O  O177  1  0.252500  0.629200  0.692300  1.0  -0.5847
  O  O178  1  0.591600  0.274000  0.729000  1.0  -0.7362
  O  O179  1  0.201000  0.118000  0.638400  1.0  -0.6726
  O  O180  1  0.353800  0.814900  0.701200  1.0  -0.5762
  O  O181  1  0.888700  0.252400  0.322900  1.0  -0.561
  O  O182  1  0.752500  0.129200  0.807700  1.0  -0.5842
  O  O183  1  0.882500  0.955500  0.294400  1.0  -0.6593
  O  O184  1  0.774000  0.439300  0.813200  1.0  -0.5725
  O  O185  1  0.611300  0.247600  0.822900  1.0  -0.5615
  O  O186  1  0.503800  0.307300  0.325200  1.0  -0.5747
  O  O187  1  0.617500  0.544500  0.794400  1.0  -0.6575
  O  O188  1  0.259400  0.923600  0.783700  1.0  -0.7348
  O  O189  1  0.831600  0.039400  0.461000  1.0  -0.4987
  O  O190  1  0.274000  0.939300  0.686800  1.0  -0.5728
  O  O191  1  0.299000  0.382000  0.138400  1.0  -0.6729
  O  O192  1  0.226000  0.944700  0.408000  1.0  -0.7495
  O  O193  1  0.104300  0.559400  0.854300  1.0  -0.5027
  O  O194  1  0.726000  0.060700  0.313200  1.0  -0.5744
  O  O195  1  0.135700  0.587200  0.616700  1.0  -0.4769
  O  O196  1  0.493200  0.396300  0.707300  1.0  -0.633
  O  O197  1  0.089700  0.179300  0.142100  1.0  -0.6336
  O  O198  1  0.240600  0.576400  0.283700  1.0  -0.7347
  O  O199  1  0.589700  0.679300  0.357900  1.0  -0.6363
  O  O200  1  0.111300  0.747600  0.677100  1.0  -0.5609
  O  O201  1  0.701000  0.618000  0.861600  1.0  -0.6718
  O  O202  1  0.853800  0.314900  0.798800  1.0  -0.5761
  O  O203  1  0.382500  0.455500  0.205600  1.0  -0.6585
  O  O204  1  0.117500  0.044500  0.705600  1.0  -0.6559
  O  O205  1  0.146200  0.685100  0.201200  1.0  -0.5761
  O  O206  1  0.175700  0.999400  0.184400  1.0  -0.5902
  O  O207  1  0.740600  0.076400  0.216300  1.0  -0.7352
  O  O208  1  0.274000  0.555300  0.908000  1.0  -0.7494
  O  O209  1  0.726000  0.444700  0.092000  1.0  -0.7489
  O  O210  1  0.635700  0.087200  0.883300  1.0  -0.4779
  O  O211  1  0.324300  0.500600  0.684400  1.0  -0.5893
  O  O212  1  0.539200  0.151700  0.380500  1.0  -0.5343
  O  O213  1  0.475500  0.333000  0.231900  1.0  -0.7335
  O  O214  1  0.395700  0.940600  0.354300  1.0  -0.5024
  O  O215  1  0.993200  0.896300  0.792700  1.0  -0.6333
  O  O216  1  0.895700  0.440600  0.145700  1.0  -0.5007
