# generated using pymatgen
data_La2Cu2H5(C5O4)5
_symmetry_space_group_name_H-M   'P 1'
_cell_length_a   10.98500000
_cell_length_b   19.85600000
_cell_length_c   20.45000000
_cell_angle_alpha   90.00000000
_cell_angle_beta   90.00000000
_cell_angle_gamma   99.73000000
_symmetry_Int_Tables_number   1
_chemical_formula_structural   La2Cu2H5(C5O4)5
_chemical_formula_sum   'La8 Cu8 H20 C100 O80'
_cell_volume   4396.35234866
_cell_formula_units_Z   4
loop_
 _symmetry_equiv_pos_site_id
 _symmetry_equiv_pos_as_xyz
  1  'x, y, z'
loop_
 _atom_site_type_symbol
 _atom_site_label
 _atom_site_symmetry_multiplicity
 _atom_site_fract_x
 _atom_site_fract_y
 _atom_site_fract_z
 _atom_site_occupancy
 _atom_site_charge
  La  La1  1  0.464610  0.654940  0.873390  1.0  2.0063
  La  La2  1  0.659700  0.418280  0.626000  1.0  1.756
  La  La3  1  0.035390  0.845060  0.373390  1.0  2.0067
  La  La4  1  0.840300  0.081720  0.126000  1.0  1.7581
  La  La5  1  0.535390  0.345060  0.126610  1.0  2.0089
  La  La6  1  0.159700  0.918280  0.874000  1.0  1.7643
  La  La7  1  0.340300  0.581720  0.374000  1.0  1.7593
  La  La8  1  0.964610  0.154940  0.626610  1.0  2.0087
  Cu  Cu9  1  0.792540  0.089270  0.325930  1.0  1.1711
  Cu  Cu10  1  0.292540  0.589270  0.174070  1.0  1.1708
  Cu  Cu11  1  0.580300  0.331610  0.325400  1.0  0.886
  Cu  Cu12  1  0.419700  0.668390  0.674600  1.0  0.8865
  Cu  Cu13  1  0.207460  0.910730  0.674070  1.0  1.1692
  Cu  Cu14  1  0.707460  0.410730  0.825930  1.0  1.1702
  Cu  Cu15  1  0.080300  0.831610  0.174600  1.0  0.8842
  Cu  Cu16  1  0.919700  0.168390  0.825400  1.0  0.8883
  H  H17  1  0.630900  0.004000  0.695100  1.0  0.1134
  H  H18  1  0.990600  0.573400  0.688400  1.0  0.1271
  H  H19  1  0.009400  0.426600  0.311600  1.0  0.1282
  H  H20  1  0.509400  0.926600  0.188400  1.0  0.1268
  H  H21  1  0.581500  0.937300  0.421000  1.0  0.1122
  H  H22  1  0.369100  0.996000  0.304900  1.0  0.1132
  H  H23  1  0.490600  0.073400  0.811600  1.0  0.1282
  H  H24  1  0.081500  0.437300  0.079000  1.0  0.1114
  H  H25  1  0.418500  0.062700  0.579000  1.0  0.1113
  H  H26  1  0.130900  0.504000  0.804900  1.0  0.1131
  H  H27  1  0.918500  0.562700  0.921000  1.0  0.1119
  H  H28  1  0.606900  0.746400  0.309700  1.0  0.1118
  H  H29  1  0.766600  0.675800  0.316500  1.0  0.1116
  H  H30  1  0.733400  0.824200  0.816500  1.0  0.1119
  H  H31  1  0.233400  0.324200  0.683500  1.0  0.1108
  H  H32  1  0.893100  0.753600  0.809700  1.0  0.1112
  H  H33  1  0.393100  0.253600  0.690300  1.0  0.1129
  H  H34  1  0.106900  0.246400  0.190300  1.0  0.1118
  H  H35  1  0.266600  0.175800  0.183500  1.0  0.112
  H  H36  1  0.869100  0.496000  0.195100  1.0  0.1132
  C  C37  1  0.874100  0.486600  0.986500  1.0  -0.067
  C  C38  1  0.660800  0.177000  0.832700  1.0  0.6129
  C  C39  1  0.739400  0.475300  0.968400  1.0  0.6727
  C  C40  1  0.218300  0.146600  0.672400  1.0  0.6873
  C  C41  1  0.485000  0.771200  0.243400  1.0  -0.1041
  C  C42  1  0.048700  0.462600  0.047300  1.0  -0.0184
  C  C43  1  0.781700  0.853400  0.327600  1.0  0.6878
  C  C44  1  0.045000  0.277700  0.759300  1.0  0.7108
  C  C45  1  0.260600  0.524700  0.031600  1.0  0.6732
  C  C46  1  0.760600  0.024700  0.468400  1.0  0.6727
  C  C47  1  0.661800  0.846400  0.289700  1.0  -0.0869
  C  C48  1  0.583400  0.299600  0.766100  1.0  0.7096
  C  C49  1  0.285700  0.140100  0.208700  1.0  -0.0284
  C  C50  1  0.083400  0.799600  0.733900  1.0  0.7116
  C  C51  1  0.287800  0.424000  0.704800  1.0  -0.0869
  C  C52  1  0.964700  0.394200  0.827400  1.0  0.5338
  C  C53  1  0.744000  0.521500  0.259400  1.0  -0.0599
  C  C54  1  0.718300  0.646600  0.827600  1.0  0.6875
  C  C55  1  0.077400  0.550800  0.965700  1.0  -0.1461
  C  C56  1  0.160800  0.677000  0.667300  1.0  0.6235
  C  C57  1  0.035300  0.605800  0.172600  1.0  0.5343
  C  C58  1  0.132000  0.400500  0.246800  1.0  -0.0727
  C  C59  1  0.158000  0.604000  0.925800  1.0  0.6546
  C  C60  1  0.787800  0.924000  0.795200  1.0  -0.0857
  C  C61  1  0.970800  0.609700  0.712600  1.0  -0.0626
  C  C62  1  0.409100  0.429800  0.670300  1.0  0.6802
  C  C63  1  0.825600  0.050000  0.766400  1.0  0.7163
  C  C64  1  0.658000  0.104000  0.574200  1.0  0.655
  C  C65  1  0.214300  0.359900  0.708700  1.0  -0.0284
  C  C66  1  0.212200  0.076000  0.204800  1.0  -0.0878
  C  C67  1  0.887600  0.651100  0.249900  1.0  -0.1143
  C  C68  1  0.455000  0.222300  0.259300  1.0  0.7074
  C  C69  1  0.455300  0.826100  0.207700  1.0  -0.0572
  C  C70  1  0.325600  0.550000  0.733600  1.0  0.7162
  C  C71  1  0.847900  0.532200  0.219000  1.0  -0.0602
  C  C72  1  0.298800  0.027700  0.740000  1.0  0.7269
  C  C73  1  0.090900  0.070200  0.170300  1.0  0.6807
  C  C74  1  0.955300  0.326100  0.292300  1.0  -0.0549
  C  C75  1  0.416600  0.700400  0.233900  1.0  0.7143
  C  C76  1  0.625900  0.013400  0.486500  1.0  -0.0675
  C  C77  1  0.951300  0.537400  0.952700  1.0  -0.0186
  C  C78  1  0.087700  0.282400  0.215100  1.0  -0.0074
  C  C79  1  0.985000  0.271200  0.256600  1.0  -0.1054
  C  C80  1  0.374100  0.986600  0.513500  1.0  -0.0675
  C  C81  1  0.916600  0.200400  0.266100  1.0  0.7109
  C  C82  1  0.174400  0.950000  0.233600  1.0  0.7175
  C  C83  1  0.548700  0.962600  0.452700  1.0  -0.0187
  C  C84  1  0.347900  0.032200  0.281000  1.0  -0.0592
  C  C85  1  0.387600  0.151100  0.250100  1.0  -0.1131
  C  C86  1  0.161800  0.346400  0.210300  1.0  -0.088
  C  C87  1  0.125900  0.513400  0.013500  1.0  -0.0678
  C  C88  1  0.632000  0.900500  0.253200  1.0  -0.0735
  C  C89  1  0.044700  0.673900  0.707700  1.0  -0.0575
  C  C90  1  0.612400  0.848900  0.749900  1.0  -0.111
  C  C91  1  0.912300  0.717600  0.784900  1.0  -0.0105
  C  C92  1  0.079800  0.403200  0.785700  1.0  -0.0405
  C  C93  1  0.338200  0.153600  0.710300  1.0  -0.0849
  C  C94  1  0.909100  0.929800  0.829700  1.0  0.6815
  C  C95  1  0.029200  0.390300  0.287400  1.0  -0.0619
  C  C96  1  0.239400  0.975300  0.531600  1.0  0.6731
  C  C97  1  0.112400  0.348900  0.750100  1.0  -0.1107
  C  C98  1  0.714300  0.859900  0.791300  1.0  -0.0284
  C  C99  1  0.420200  0.096800  0.285700  1.0  -0.0398
  C  C100  1  0.451300  0.037400  0.547300  1.0  -0.0185
  C  C101  1  0.545000  0.777700  0.740700  1.0  0.7078
  C  C102  1  0.839200  0.323000  0.332700  1.0  0.6141
  C  C103  1  0.756000  0.978500  0.759400  1.0  -0.0605
  C  C104  1  0.515000  0.228800  0.756600  1.0  -0.1042
  C  C105  1  0.701200  0.972300  0.260000  1.0  0.727
  C  C106  1  0.652100  0.967800  0.719000  1.0  -0.06
  C  C107  1  0.785700  0.640100  0.291300  1.0  -0.0261
  C  C108  1  0.838200  0.653600  0.789700  1.0  -0.0857
  C  C109  1  0.920200  0.596800  0.214300  1.0  -0.0401
  C  C110  1  0.842000  0.396000  0.074200  1.0  0.6539
  C  C111  1  0.464700  0.894200  0.672600  1.0  0.5344
  C  C112  1  0.152100  0.467800  0.781000  1.0  -0.0617
  C  C113  1  0.244000  0.021500  0.240600  1.0  -0.0602
  C  C114  1  0.412300  0.217600  0.715100  1.0  -0.0117
  C  C115  1  0.342000  0.896000  0.425800  1.0  0.6544
  C  C116  1  0.587700  0.782400  0.284900  1.0  -0.0102
  C  C117  1  0.201200  0.472300  0.240000  1.0  0.7275
  C  C118  1  0.579800  0.903200  0.714300  1.0  -0.0409
  C  C119  1  0.544700  0.173900  0.792300  1.0  -0.0561
  C  C120  1  0.470800  0.109700  0.787400  1.0  -0.0629
  C  C121  1  0.339200  0.823000  0.167300  1.0  0.6272
  C  C122  1  0.674400  0.450000  0.266400  1.0  0.7315
  C  C123  1  0.535300  0.105800  0.327400  1.0  0.5327
  C  C124  1  0.368000  0.099500  0.746800  1.0  -0.0716
  C  C125  1  0.529200  0.890300  0.212600  1.0  -0.0634
  C  C126  1  0.577400  0.050800  0.534300  1.0  -0.1458
  C  C127  1  0.955000  0.722300  0.240700  1.0  0.7059
  C  C128  1  0.281700  0.353400  0.172400  1.0  0.6872
  C  C129  1  0.712200  0.576000  0.295200  1.0  -0.0859
  C  C130  1  0.015000  0.728800  0.743400  1.0  -0.1036
  C  C131  1  0.256000  0.478500  0.740600  1.0  -0.0609
  C  C132  1  0.590900  0.570200  0.329700  1.0  0.6799
  C  C133  1  0.798800  0.527700  0.760000  1.0  0.7286
  C  C134  1  0.422600  0.949200  0.465700  1.0  -0.1461
  C  C135  1  0.868000  0.599500  0.753200  1.0  -0.0789
  C  C136  1  0.922600  0.449200  0.034300  1.0  -0.1456
  O  O137  1  0.726500  0.396400  0.074240  1.0  -0.7285
  O  O138  1  0.501300  0.467640  0.694520  1.0  -0.644
  O  O139  1  0.239000  0.803680  0.198680  1.0  -0.5445
  O  O140  1  0.210500  0.178100  0.620590  1.0  -0.6167
  O  O141  1  0.339100  0.572700  0.675920  1.0  -0.5652
  O  O142  1  0.789500  0.821900  0.379410  1.0  -0.6149
  O  O143  1  0.126400  0.815320  0.677790  1.0  -0.5722
  O  O144  1  0.538200  0.737030  0.787400  1.0  -0.7332
  O  O145  1  0.461800  0.262970  0.212600  1.0  -0.7301
  O  O146  1  0.805200  0.076100  0.434180  1.0  -0.6569
  O  O147  1  0.289500  0.321900  0.120590  1.0  -0.6156
  O  O148  1  0.217500  0.493730  0.182710  1.0  -0.5863
  O  O149  1  0.135800  0.614640  0.205310  1.0  -0.6092
  O  O150  1  0.001300  0.967640  0.805480  1.0  -0.6436
  O  O151  1  0.407500  0.659510  0.281340  1.0  -0.7412
  O  O152  1  0.373600  0.684680  0.177790  1.0  -0.5711
  O  O153  1  0.846300  0.342300  0.389900  1.0  -0.3961
  O  O154  1  0.138300  0.916280  0.283490  1.0  -0.7078
  O  O155  1  0.730000  0.006780  0.209370  1.0  -0.735
  O  O156  1  0.270000  0.993220  0.790630  1.0  -0.7379
  O  O157  1  0.498700  0.532360  0.305480  1.0  -0.6431
  O  O158  1  0.626400  0.315320  0.822210  1.0  -0.5724
  O  O159  1  0.038200  0.237030  0.712600  1.0  -0.7316
  O  O160  1  0.194800  0.923900  0.565820  1.0  -0.656
  O  O161  1  0.694800  0.423900  0.934180  1.0  -0.6565
  O  O162  1  0.581300  0.606000  0.379920  1.0  -0.6575
  O  O163  1  0.153700  0.657700  0.610100  1.0  -0.3937
  O  O164  1  0.997800  0.737250  0.184900  1.0  -0.5656
  O  O165  1  0.497800  0.237250  0.315100  1.0  -0.5682
  O  O166  1  0.027400  0.602000  0.113200  1.0  -0.3735
  O  O167  1  0.653700  0.157700  0.889900  1.0  -0.397
  O  O168  1  0.364200  0.885360  0.705310  1.0  -0.6093
  O  O169  1  0.782500  0.506270  0.817290  1.0  -0.5859
  O  O170  1  0.273500  0.603600  0.925760  1.0  -0.7264
  O  O171  1  0.305200  0.576100  0.065820  1.0  -0.6562
  O  O172  1  0.998700  0.032360  0.194520  1.0  -0.6442
  O  O173  1  0.282500  0.006270  0.682710  1.0  -0.5852
  O  O174  1  0.739000  0.303680  0.301320  1.0  -0.5426
  O  O175  1  0.717500  0.993730  0.317290  1.0  -0.5875
  O  O176  1  0.961800  0.762970  0.287400  1.0  -0.7315
  O  O177  1  0.092500  0.840490  0.781340  1.0  -0.7414
  O  O178  1  0.625300  0.609850  0.801860  1.0  -0.6641
  O  O179  1  0.761000  0.196320  0.801320  1.0  -0.5444
  O  O180  1  0.418700  0.394000  0.620080  1.0  -0.6562
  O  O181  1  0.918700  0.894000  0.879920  1.0  -0.6551
  O  O182  1  0.635800  0.114640  0.294690  1.0  -0.6093
  O  O183  1  0.160900  0.927300  0.175920  1.0  -0.5672
  O  O184  1  0.907500  0.159510  0.218660  1.0  -0.7415
  O  O185  1  0.502200  0.762750  0.684900  1.0  -0.5649
  O  O186  1  0.873600  0.184680  0.322210  1.0  -0.5705
  O  O187  1  0.892300  0.355100  0.107200  1.0  -0.4994
  O  O188  1  0.226500  0.896400  0.425760  1.0  -0.7291
  O  O189  1  0.002200  0.262750  0.815100  1.0  -0.5665
  O  O190  1  0.710500  0.678100  0.879410  1.0  -0.6161
  O  O191  1  0.472600  0.898000  0.613200  1.0  -0.3594
  O  O192  1  0.230000  0.506780  0.290630  1.0  -0.7364
  O  O193  1  0.107700  0.644900  0.892800  1.0  -0.4981
  O  O194  1  0.638300  0.416280  0.216510  1.0  -0.7067
  O  O195  1  0.592500  0.340490  0.718660  1.0  -0.7404
  O  O196  1  0.321000  0.479900  0.012200  1.0  -0.498
  O  O197  1  0.527400  0.102000  0.386800  1.0  -0.4063
  O  O198  1  0.374700  0.390150  0.198140  1.0  -0.6638
  O  O199  1  0.874700  0.890150  0.301860  1.0  -0.6643
  O  O200  1  0.179000  0.020100  0.512200  1.0  -0.5001
  O  O201  1  0.839100  0.072700  0.824080  1.0  -0.5652
  O  O202  1  0.864200  0.385360  0.794690  1.0  -0.6097
  O  O203  1  0.607700  0.144900  0.607200  1.0  -0.5014
  O  O204  1  0.773500  0.103600  0.574240  1.0  -0.7264
  O  O205  1  0.125300  0.109850  0.698140  1.0  -0.6631
  O  O206  1  0.392300  0.855100  0.392800  1.0  -0.4997
  O  O207  1  0.660900  0.427300  0.324080  1.0  -0.569
  O  O208  1  0.972600  0.398000  0.886800  1.0  -0.3897
  O  O209  1  0.081300  0.106000  0.120080  1.0  -0.6594
  O  O210  1  0.861700  0.083720  0.716510  1.0  -0.7084
  O  O211  1  0.679000  0.520100  0.987800  1.0  -0.4991
  O  O212  1  0.261000  0.696320  0.698680  1.0  -0.5457
  O  O213  1  0.770000  0.493220  0.709370  1.0  -0.7358
  O  O214  1  0.346300  0.842300  0.110100  1.0  -0.3945
  O  O215  1  0.821000  0.979900  0.487800  1.0  -0.4994
  O  O216  1  0.361700  0.583720  0.783490  1.0  -0.7088
