# generated using pymatgen
data_Sm2Cu2H5(C5O4)5
_symmetry_space_group_name_H-M   'P 1'
_cell_length_a   10.92300000
_cell_length_b   19.75800000
_cell_length_c   22.77100000
_cell_angle_alpha   90.00000000
_cell_angle_beta   90.00000000
_cell_angle_gamma   99.64000000
_symmetry_Int_Tables_number   1
_chemical_formula_structural   Sm2Cu2H5(C5O4)5
_chemical_formula_sum   'Sm8 Cu8 H20 C100 O80'
_cell_volume   4844.96670671
_cell_formula_units_Z   4
loop_
 _symmetry_equiv_pos_site_id
 _symmetry_equiv_pos_as_xyz
  1  'x, y, z'
loop_
 _atom_site_type_symbol
 _atom_site_label
 _atom_site_symmetry_multiplicity
 _atom_site_fract_x
 _atom_site_fract_y
 _atom_site_fract_z
 _atom_site_occupancy
 _atom_site_charge
  Sm  Sm1  1  0.853340  0.147340  0.146440  1.0  1.8767
  Sm  Sm2  1  0.459210  0.599910  0.853120  1.0  2.1034
  Sm  Sm3  1  0.959210  0.099910  0.646880  1.0  2.1038
  Sm  Sm4  1  0.040790  0.900090  0.353120  1.0  2.103
  Sm  Sm5  1  0.353340  0.647340  0.353560  1.0  1.8654
  Sm  Sm6  1  0.146660  0.852660  0.853560  1.0  1.872
  Sm  Sm7  1  0.646660  0.352660  0.646440  1.0  1.8741
  Sm  Sm8  1  0.540790  0.400090  0.146870  1.0  2.1032
  Cu  Cu9  1  0.695150  0.346620  0.822790  1.0  1.1449
  Cu  Cu10  1  0.195150  0.846620  0.677210  1.0  1.1366
  Cu  Cu11  1  0.304850  0.653380  0.177210  1.0  1.1359
  Cu  Cu12  1  0.804850  0.153380  0.322790  1.0  1.1439
  Cu  Cu13  1  0.590790  0.399740  0.323960  1.0  0.798
  Cu  Cu14  1  0.090790  0.899740  0.176040  1.0  0.7985
  Cu  Cu15  1  0.409210  0.600260  0.676040  1.0  0.8011
  Cu  Cu16  1  0.909210  0.100260  0.823960  1.0  0.8025
  H  H17  1  0.418200  0.045600  0.581700  1.0  0.1037
  H  H18  1  0.727700  0.756600  0.796200  1.0  0.1048
  H  H19  1  0.120500  0.442200  0.804500  1.0  0.1147
  H  H20  1  0.272300  0.243400  0.203800  1.0  0.1043
  H  H21  1  0.019900  0.493800  0.305500  1.0  0.1215
  H  H22  1  0.111600  0.308800  0.199200  1.0  0.1047
  H  H23  1  0.888400  0.691200  0.800800  1.0  0.1039
  H  H24  1  0.620500  0.942200  0.695500  1.0  0.1146
  H  H25  1  0.581800  0.954400  0.418300  1.0  0.1036
  H  H26  1  0.388400  0.191200  0.699200  1.0  0.104
  H  H27  1  0.081800  0.454400  0.081700  1.0  0.1037
  H  H28  1  0.980100  0.506200  0.694500  1.0  0.1211
  H  H29  1  0.227700  0.256600  0.703800  1.0  0.1056
  H  H30  1  0.879500  0.557800  0.195500  1.0  0.1139
  H  H31  1  0.772300  0.743400  0.296200  1.0  0.1038
  H  H32  1  0.379500  0.057800  0.304500  1.0  0.1137
  H  H33  1  0.918200  0.545600  0.918300  1.0  0.1036
  H  H34  1  0.480100  0.006200  0.805500  1.0  0.1224
  H  H35  1  0.611600  0.808800  0.300800  1.0  0.1052
  H  H36  1  0.519900  0.993800  0.194500  1.0  0.1205
  C  C37  1  0.034500  0.607700  0.709000  1.0  -0.0599
  C  C38  1  0.993400  0.336400  0.259100  1.0  -0.0988
  C  C39  1  0.829200  0.590000  0.785000  1.0  -0.0766
  C  C40  1  0.454000  0.834800  0.673100  1.0  0.7094
  C  C41  1  0.658400  0.057100  0.594600  1.0  0.7368
  C  C42  1  0.670800  0.910000  0.285000  1.0  -0.0778
  C  C43  1  0.594300  0.845800  0.278900  1.0  -0.0262
  C  C44  1  0.711000  0.036900  0.261100  1.0  0.7296
  C  C45  1  0.789000  0.463100  0.761100  1.0  0.73
  C  C46  1  0.039000  0.456700  0.284400  1.0  -0.0464
  C  C47  1  0.493400  0.836400  0.240900  1.0  -0.0989
  C  C48  1  0.357100  0.095300  0.285100  1.0  -0.0668
  C  C49  1  0.963800  0.787500  0.229400  1.0  0.728
  C  C50  1  0.961000  0.543300  0.715600  1.0  -0.0467
  C  C51  1  0.575100  0.234900  0.769100  1.0  0.7314
  C  C52  1  0.539000  0.956700  0.215600  1.0  -0.0479
  C  C53  1  0.006600  0.663600  0.740900  1.0  -0.0992
  C  C54  1  0.315800  0.486000  0.739700  1.0  0.7323
  C  C55  1  0.289000  0.963100  0.738900  1.0  0.732
  C  C56  1  0.405700  0.154200  0.721100  1.0  -0.025
  C  C57  1  0.549200  0.972800  0.451200  1.0  -0.0611
  C  C58  1  0.571200  0.840000  0.707800  1.0  -0.044
  C  C59  1  0.141200  0.466100  0.246600  1.0  -0.0745
  C  C60  1  0.578700  0.026600  0.545800  1.0  -0.111
  C  C61  1  0.396200  0.216400  0.262000  1.0  -0.1159
  C  C62  1  0.841600  0.442900  0.094600  1.0  0.7348
  C  C63  1  0.747300  0.913900  0.750600  1.0  -0.061
  C  C64  1  0.900600  0.862600  0.812700  1.0  0.673
  C  C65  1  0.075100  0.734900  0.730900  1.0  0.7311
  C  C66  1  0.921300  0.473400  0.045800  1.0  -0.1104
  C  C67  1  0.071200  0.340000  0.792200  1.0  -0.0411
  C  C68  1  0.341600  0.942900  0.405400  1.0  0.7348
  C  C69  1  0.779900  0.858000  0.780500  1.0  -0.0991
  C  C70  1  0.184200  0.014000  0.239700  1.0  0.7285
  C  C71  1  0.208400  0.085100  0.682300  1.0  0.6569
  C  C72  1  0.099400  0.137400  0.187300  1.0  0.6734
  C  C73  1  0.905700  0.654200  0.778900  1.0  -0.0268
  C  C74  1  0.791600  0.914900  0.317700  1.0  0.6589
  C  C75  1  0.450800  0.027200  0.548800  1.0  -0.0636
  C  C76  1  0.924900  0.265100  0.269100  1.0  0.7369
  C  C77  1  0.358800  0.033900  0.746600  1.0  -0.0736
  C  C78  1  0.599400  0.637400  0.312700  1.0  0.6717
  C  C79  1  0.954000  0.334800  0.826900  1.0  0.7086
  C  C80  1  0.707300  0.793400  0.775000  1.0  -0.0663
  C  C81  1  0.506600  0.163600  0.759100  1.0  -0.0966
  C  C82  1  0.262700  0.492600  0.010100  1.0  0.6109
  C  C83  1  0.373200  0.001400  0.504200  1.0  -0.0491
  C  C84  1  0.950800  0.527200  0.951200  1.0  -0.0632
  C  C85  1  0.126800  0.498600  0.004200  1.0  -0.0488
  C  C86  1  0.752700  0.586100  0.250600  1.0  -0.0599
  C  C87  1  0.252700  0.086100  0.249400  1.0  -0.0601
  C  C88  1  0.237300  0.007400  0.510100  1.0  0.6124
  C  C89  1  0.292700  0.206600  0.225000  1.0  -0.0701
  C  C90  1  0.078700  0.526600  0.954200  1.0  -0.1113
  C  C91  1  0.147700  0.611100  0.670300  1.0  0.6827
  C  C92  1  0.291600  0.414900  0.182300  1.0  0.6576
  C  C93  1  0.211000  0.536900  0.238900  1.0  0.7303
  C  C94  1  0.352300  0.888900  0.170300  1.0  0.6835
  C  C95  1  0.792700  0.706600  0.275000  1.0  -0.0676
  C  C96  1  0.720100  0.642000  0.280500  1.0  -0.0927
  C  C97  1  0.737300  0.507400  0.989900  1.0  0.6122
  C  C98  1  0.428800  0.160000  0.292200  1.0  -0.0411
  C  C99  1  0.857100  0.595300  0.214900  1.0  -0.0656
  C  C100  1  0.158400  0.557100  0.905400  1.0  0.7372
  C  C101  1  0.049200  0.472800  0.048800  1.0  -0.0611
  C  C102  1  0.536200  0.712500  0.729400  1.0  0.7284
  C  C103  1  0.815800  0.986000  0.760300  1.0  0.7303
  C  C104  1  0.684200  0.514000  0.260300  1.0  0.7316
  C  C105  1  0.220100  0.142000  0.219500  1.0  -0.0938
  C  C106  1  0.708400  0.585100  0.817700  1.0  0.6576
  C  C107  1  0.641200  0.966100  0.253400  1.0  -0.076
  C  C108  1  0.400600  0.362600  0.687300  1.0  0.6728
  C  C109  1  0.965500  0.392300  0.291000  1.0  -0.0576
  C  C110  1  0.046000  0.665200  0.173100  1.0  0.7094
  C  C111  1  0.247300  0.413900  0.749400  1.0  -0.0611
  C  C112  1  0.642900  0.904700  0.714900  1.0  -0.0695
  C  C113  1  0.142900  0.404700  0.785100  1.0  -0.0695
  C  C114  1  0.762700  0.992600  0.489900  1.0  0.6109
  C  C115  1  0.546000  0.165200  0.326900  1.0  0.7099
  C  C116  1  0.463800  0.287500  0.270600  1.0  0.731
  C  C117  1  0.603800  0.783600  0.738000  1.0  -0.1154
  C  C118  1  0.852300  0.388900  0.329700  1.0  0.6775
  C  C119  1  0.421300  0.973400  0.454200  1.0  -0.1106
  C  C120  1  0.873200  0.501400  0.995800  1.0  -0.0484
  C  C121  1  0.461000  0.043300  0.784400  1.0  -0.0467
  C  C122  1  0.896200  0.716400  0.238000  1.0  -0.1157
  C  C123  1  0.279900  0.358000  0.719500  1.0  -0.1007
  C  C124  1  0.858800  0.533900  0.753400  1.0  -0.075
  C  C125  1  0.036200  0.212500  0.770600  1.0  0.7283
  C  C126  1  0.647700  0.111100  0.829700  1.0  0.6783
  C  C127  1  0.928800  0.660000  0.207800  1.0  -0.0435
  C  C128  1  0.207300  0.293400  0.725000  1.0  -0.0684
  C  C129  1  0.626800  0.998600  0.495800  1.0  -0.0485
  C  C130  1  0.534500  0.107700  0.791000  1.0  -0.0586
  C  C131  1  0.103800  0.283600  0.762000  1.0  -0.1097
  C  C132  1  0.094300  0.345800  0.221100  1.0  -0.024
  C  C133  1  0.424900  0.765100  0.230900  1.0  0.7324
  C  C134  1  0.465500  0.892300  0.209000  1.0  -0.0599
  C  C135  1  0.329200  0.090000  0.715000  1.0  -0.078
  C  C136  1  0.170800  0.410000  0.215000  1.0  -0.0779
  O  O137  1  0.412400  0.723900  0.273400  1.0  -0.7454
  O  O138  1  0.006700  0.803700  0.178400  1.0  -0.5787
  O  O139  1  0.892500  0.420900  0.137700  1.0  -0.5478
  O  O140  1  0.724600  0.438300  0.090300  1.0  -0.7678
  O  O141  1  0.201400  0.059500  0.487800  1.0  -0.4866
  O  O142  1  0.227900  0.557800  0.186500  1.0  -0.5766
  O  O143  1  0.529000  0.671200  0.771500  1.0  -0.7336
  O  O144  1  0.775400  0.061700  0.590300  1.0  -0.7688
  O  O145  1  0.168500  0.962000  0.539500  1.0  -0.523
  O  O146  1  0.911200  0.826600  0.856900  1.0  -0.5845
  O  O147  1  0.538500  0.151900  0.380500  1.0  -0.5413
  O  O148  1  0.250400  0.631700  0.694700  1.0  -0.5956
  O  O149  1  0.494500  0.401300  0.709100  1.0  -0.6377
  O  O150  1  0.038500  0.651900  0.119500  1.0  -0.5419
  O  O151  1  0.301000  0.379600  0.137400  1.0  -0.6286
  O  O152  1  0.506700  0.303700  0.321600  1.0  -0.5772
  O  O153  1  0.994500  0.901300  0.790900  1.0  -0.6375
  O  O154  1  0.645100  0.180300  0.298300  1.0  -0.6272
  O  O155  1  0.392500  0.920900  0.362300  1.0  -0.5478
  O  O156  1  0.759100  0.426900  0.716600  1.0  -0.7628
  O  O157  1  0.350900  0.522300  0.783200  1.0  -0.7558
  O  O158  1  0.029000  0.171200  0.728500  1.0  -0.7326
  O  O159  1  0.199000  0.120400  0.637400  1.0  -0.6284
  O  O160  1  0.971000  0.828800  0.271500  1.0  -0.7333
  O  O161  1  0.005500  0.098700  0.209100  1.0  -0.6368
  O  O162  1  0.588800  0.673400  0.356900  1.0  -0.5866
  O  O163  1  0.614900  0.547400  0.795500  1.0  -0.6436
  O  O164  1  0.172500  0.995000  0.187200  1.0  -0.5994
  O  O165  1  0.887900  0.249500  0.320300  1.0  -0.5638
  O  O166  1  0.727900  0.057800  0.313500  1.0  -0.5762
  O  O167  1  0.750400  0.131700  0.805300  1.0  -0.595
  O  O168  1  0.298600  0.440500  0.987800  1.0  -0.4831
  O  O169  1  0.354900  0.819700  0.701700  1.0  -0.6267
  O  O170  1  0.134700  0.591100  0.619100  1.0  -0.5036
  O  O171  1  0.331500  0.538000  0.039500  1.0  -0.527
  O  O172  1  0.107500  0.579100  0.862300  1.0  -0.5473
  O  O173  1  0.634700  0.091100  0.880900  1.0  -0.5024
  O  O174  1  0.831500  0.038000  0.460500  1.0  -0.526
  O  O175  1  0.327500  0.505000  0.687200  1.0  -0.5991
  O  O176  1  0.699000  0.620400  0.862600  1.0  -0.6303
  O  O177  1  0.993300  0.196300  0.821600  1.0  -0.5788
  O  O178  1  0.088800  0.173400  0.143100  1.0  -0.5831
  O  O179  1  0.411200  0.326600  0.643100  1.0  -0.5827
  O  O180  1  0.505500  0.598700  0.290900  1.0  -0.6371
  O  O181  1  0.259100  0.926900  0.783400  1.0  -0.7613
  O  O182  1  0.149100  0.977700  0.283200  1.0  -0.7552
  O  O183  1  0.885100  0.952600  0.295500  1.0  -0.6455
  O  O184  1  0.672500  0.495000  0.312800  1.0  -0.5979
  O  O185  1  0.649100  0.477700  0.216800  1.0  -0.7544
  O  O186  1  0.145100  0.680300  0.201700  1.0  -0.6268
  O  O187  1  0.249600  0.868300  0.194700  1.0  -0.5961
  O  O188  1  0.240900  0.573100  0.283400  1.0  -0.7617
  O  O189  1  0.387900  0.749500  0.179700  1.0  -0.5635
  O  O190  1  0.607500  0.079100  0.637700  1.0  -0.5491
  O  O191  1  0.772100  0.442200  0.813500  1.0  -0.5764
  O  O192  1  0.668500  0.462000  0.960500  1.0  -0.5241
  O  O193  1  0.112100  0.750500  0.679700  1.0  -0.5648
  O  O194  1  0.087600  0.776100  0.773400  1.0  -0.7452
  O  O195  1  0.365300  0.908900  0.119100  1.0  -0.5028
  O  O196  1  0.749600  0.368300  0.305300  1.0  -0.5953
  O  O197  1  0.275400  0.561700  0.909700  1.0  -0.7688
  O  O198  1  0.224600  0.938300  0.409700  1.0  -0.768
  O  O199  1  0.701400  0.559500  0.012200  1.0  -0.4864
  O  O200  1  0.385100  0.452600  0.204500  1.0  -0.6453
  O  O201  1  0.493300  0.696300  0.678400  1.0  -0.5782
  O  O202  1  0.114900  0.047400  0.704500  1.0  -0.6427
  O  O203  1  0.827500  0.005000  0.812800  1.0  -0.5963
  O  O204  1  0.272100  0.942200  0.686500  1.0  -0.5768
  O  O205  1  0.912400  0.223900  0.226600  1.0  -0.7467
  O  O206  1  0.587600  0.276100  0.726600  1.0  -0.7463
  O  O207  1  0.850900  0.022300  0.716800  1.0  -0.7527
  O  O208  1  0.961500  0.348100  0.880500  1.0  -0.5425
  O  O209  1  0.854900  0.319700  0.798300  1.0  -0.6271
  O  O210  1  0.471000  0.328800  0.228500  1.0  -0.7319
  O  O211  1  0.801000  0.879600  0.362600  1.0  -0.6288
  O  O212  1  0.798600  0.940500  0.512200  1.0  -0.483
  O  O213  1  0.612100  0.250500  0.820300  1.0  -0.5666
  O  O214  1  0.865300  0.408900  0.380900  1.0  -0.5026
  O  O215  1  0.740900  0.073100  0.216600  1.0  -0.7636
  O  O216  1  0.461500  0.848100  0.619500  1.0  -0.5422
