# generated using pymatgen
data_Ce2Cu2H5(C5O4)5
_symmetry_space_group_name_H-M   'P 1'
_cell_length_a   10.97180000
_cell_length_b   19.78210000
_cell_length_c   20.26680000
_cell_angle_alpha   90.00000000
_cell_angle_beta   90.00000000
_cell_angle_gamma   99.31200000
_symmetry_Int_Tables_number   1
_chemical_formula_structural   Ce2Cu2H5(C5O4)5
_chemical_formula_sum   'Ce8 Cu8 H20 C100 O80'
_cell_volume   4340.84434865
_cell_formula_units_Z   4
loop_
 _symmetry_equiv_pos_site_id
 _symmetry_equiv_pos_as_xyz
  1  'x, y, z'
loop_
 _atom_site_type_symbol
 _atom_site_label
 _atom_site_symmetry_multiplicity
 _atom_site_fract_x
 _atom_site_fract_y
 _atom_site_fract_z
 _atom_site_occupancy
 _atom_site_charge
  Ce  Ce1  1  0.342330  0.581670  0.375580  1.0  1.674
  Ce  Ce2  1  0.037410  0.844200  0.373610  1.0  1.8208
  Ce  Ce3  1  0.842330  0.081670  0.124420  1.0  1.6762
  Ce  Ce4  1  0.462590  0.655800  0.873610  1.0  1.8208
  Ce  Ce5  1  0.157670  0.918330  0.875580  1.0  1.6766
  Ce  Ce6  1  0.537410  0.344200  0.126390  1.0  1.8281
  Ce  Ce7  1  0.657670  0.418330  0.624420  1.0  1.6726
  Ce  Ce8  1  0.962590  0.155800  0.626390  1.0  1.828
  Cu  Cu9  1  0.295670  0.588210  0.173890  1.0  1.2199
  Cu  Cu10  1  0.581060  0.330900  0.326710  1.0  0.939
  Cu  Cu11  1  0.081060  0.830900  0.173290  1.0  0.9358
  Cu  Cu12  1  0.204330  0.911790  0.673890  1.0  1.2206
  Cu  Cu13  1  0.704330  0.411790  0.826110  1.0  1.2221
  Cu  Cu14  1  0.918940  0.169100  0.826710  1.0  0.9417
  Cu  Cu15  1  0.418940  0.669100  0.673290  1.0  0.9375
  Cu  Cu16  1  0.795670  0.088210  0.326110  1.0  1.221
  H  H17  1  0.608900  0.745200  0.310100  1.0  0.1098
  H  H18  1  0.231200  0.324800  0.682100  1.0  0.1097
  H  H19  1  0.371600  0.994700  0.305300  1.0  0.1125
  H  H20  1  0.416600  0.065200  0.577200  1.0  0.1142
  H  H21  1  0.108900  0.245200  0.189900  1.0  0.1096
  H  H22  1  0.987600  0.574500  0.685500  1.0  0.1256
  H  H23  1  0.128400  0.505300  0.805300  1.0  0.1124
  H  H24  1  0.268800  0.175200  0.182100  1.0  0.1101
  H  H25  1  0.871600  0.494700  0.194700  1.0  0.1125
  H  H26  1  0.012400  0.425500  0.314500  1.0  0.1267
  H  H27  1  0.583400  0.934800  0.422800  1.0  0.1142
  H  H28  1  0.891100  0.754800  0.810100  1.0  0.1091
  H  H29  1  0.768800  0.675200  0.317900  1.0  0.1109
  H  H30  1  0.628400  0.005300  0.694700  1.0  0.1127
  H  H31  1  0.512400  0.925500  0.185500  1.0  0.125
  H  H32  1  0.391100  0.254800  0.689900  1.0  0.1091
  H  H33  1  0.487600  0.074500  0.814500  1.0  0.1267
  H  H34  1  0.083400  0.434800  0.077200  1.0  0.1144
  H  H35  1  0.731200  0.824800  0.817900  1.0  0.1109
  H  H36  1  0.916600  0.565200  0.922800  1.0  0.1149
  C  C37  1  0.076400  0.551500  0.965600  1.0  -0.1474
  C  C38  1  0.450300  0.038800  0.546200  1.0  -0.057
  C  C39  1  0.650000  0.968900  0.718700  1.0  -0.0594
  C  C40  1  0.468100  0.110700  0.789600  1.0  -0.0527
  C  C41  1  0.889400  0.650200  0.250100  1.0  -0.1473
  C  C42  1  0.610600  0.849800  0.750100  1.0  -0.1471
  C  C43  1  0.487500  0.769800  0.242700  1.0  -0.1007
  C  C44  1  0.823200  0.051100  0.767200  1.0  0.7211
  C  C45  1  0.753600  0.979800  0.759400  1.0  -0.063
  C  C46  1  0.797200  0.528400  0.758900  1.0  0.728
  C  C47  1  0.049700  0.461200  0.046200  1.0  -0.057
  C  C48  1  0.089800  0.281300  0.215300  1.0  -0.0169
  C  C49  1  0.836300  0.654900  0.789400  1.0  -0.074
  C  C50  1  0.844100  0.394800  0.073900  1.0  0.6316
  C  C51  1  0.842100  0.321700  0.334600  1.0  0.6496
  C  C52  1  0.746400  0.520200  0.259400  1.0  -0.0621
  C  C53  1  0.910200  0.718700  0.784700  1.0  -0.0178
  C  C54  1  0.874000  0.487800  0.987000  1.0  -0.0867
  C  C55  1  0.581000  0.300600  0.766600  1.0  0.7113
  C  C56  1  0.285600  0.424500  0.704100  1.0  -0.0876
  C  C57  1  0.783400  0.852700  0.327400  1.0  0.6645
  C  C58  1  0.919000  0.199400  0.266600  1.0  0.7124
  C  C59  1  0.297200  0.028400  0.741100  1.0  0.7385
  C  C60  1  0.419000  0.699400  0.233400  1.0  0.7115
  C  C61  1  0.261300  0.523000  0.029900  1.0  0.6878
  C  C62  1  0.176800  0.948900  0.232800  1.0  0.7215
  C  C63  1  0.785600  0.924500  0.795900  1.0  -0.0867
  C  C64  1  0.950300  0.538800  0.953800  1.0  -0.0571
  C  C65  1  0.655900  0.105200  0.573900  1.0  0.6339
  C  C66  1  0.012500  0.730200  0.742700  1.0  -0.1017
  C  C67  1  0.406700  0.430800  0.668600  1.0  0.6717
  C  C68  1  0.365300  0.100200  0.748300  1.0  -0.0778
  C  C69  1  0.336300  0.154900  0.710600  1.0  -0.0734
  C  C70  1  0.537400  0.105300  0.327800  1.0  0.5665
  C  C71  1  0.389400  0.150200  0.249900  1.0  -0.1472
  C  C72  1  0.512500  0.230200  0.757300  1.0  -0.0993
  C  C73  1  0.216600  0.147300  0.672600  1.0  0.6627
  C  C74  1  0.956700  0.721400  0.240500  1.0  0.7282
  C  C75  1  0.787600  0.639400  0.292200  1.0  -0.0197
  C  C76  1  0.037400  0.605300  0.172200  1.0  0.5675
  C  C77  1  0.906700  0.930800  0.831400  1.0  0.6733
  C  C78  1  0.462600  0.894700  0.672200  1.0  0.5671
  C  C79  1  0.212400  0.360600  0.707800  1.0  -0.021
  C  C80  1  0.456700  0.221400  0.259500  1.0  0.7281
  C  C81  1  0.093300  0.069200  0.168600  1.0  0.6724
  C  C82  1  0.865300  0.600200  0.751700  1.0  -0.0797
  C  C83  1  0.031900  0.389300  0.289600  1.0  -0.0542
  C  C84  1  0.110600  0.349800  0.749900  1.0  -0.1472
  C  C85  1  0.214400  0.075500  0.204100  1.0  -0.0866
  C  C86  1  0.626000  0.012200  0.487000  1.0  -0.0869
  C  C87  1  0.043300  0.278600  0.759500  1.0  0.73
  C  C88  1  0.342100  0.821700  0.165400  1.0  0.6575
  C  C89  1  0.663700  0.845100  0.289400  1.0  -0.0734
  C  C90  1  0.712400  0.860600  0.792200  1.0  -0.0199
  C  C91  1  0.657900  0.178300  0.834600  1.0  0.6488
  C  C92  1  0.716600  0.647300  0.827400  1.0  0.6631
  C  C93  1  0.593300  0.569200  0.331400  1.0  0.6714
  C  C94  1  0.702800  0.971600  0.258900  1.0  0.7263
  C  C95  1  0.738700  0.477000  0.970100  1.0  0.6875
  C  C96  1  0.374000  0.987800  0.513000  1.0  -0.087
  C  C97  1  0.157900  0.678300  0.665400  1.0  0.655
  C  C98  1  0.962600  0.394700  0.827800  1.0  0.5667
  C  C99  1  0.968100  0.610700  0.710400  1.0  -0.0535
  C  C100  1  0.987500  0.269800  0.257300  1.0  -0.1008
  C  C101  1  0.041500  0.674300  0.706000  1.0  -0.0396
  C  C102  1  0.578400  0.904200  0.713600  1.0  -0.041
  C  C103  1  0.958500  0.325700  0.294000  1.0  -0.0371
  C  C104  1  0.850000  0.531100  0.218700  1.0  -0.0584
  C  C105  1  0.423600  0.948500  0.465600  1.0  -0.1482
  C  C106  1  0.761300  0.023000  0.470100  1.0  0.6878
  C  C107  1  0.283400  0.352700  0.172600  1.0  0.6634
  C  C108  1  0.344100  0.894800  0.426100  1.0  0.6333
  C  C109  1  0.287600  0.139400  0.207800  1.0  -0.0209
  C  C110  1  0.253600  0.479800  0.740600  1.0  -0.0633
  C  C111  1  0.150000  0.468900  0.781300  1.0  -0.0598
  C  C112  1  0.126000  0.512200  0.013000  1.0  -0.0868
  C  C113  1  0.421600  0.095800  0.286400  1.0  -0.0401
  C  C114  1  0.634700  0.899800  0.251700  1.0  -0.0789
  C  C115  1  0.238700  0.977000  0.529900  1.0  0.6879
  C  C116  1  0.246400  0.020200  0.240600  1.0  -0.0622
  C  C117  1  0.202800  0.471600  0.241100  1.0  0.7282
  C  C118  1  0.676800  0.448900  0.267200  1.0  0.7236
  C  C119  1  0.350000  0.031100  0.281300  1.0  -0.0604
  C  C120  1  0.576400  0.051500  0.534400  1.0  -0.148
  C  C121  1  0.410200  0.218700  0.715300  1.0  -0.0184
  C  C122  1  0.078400  0.404200  0.786400  1.0  -0.0408
  C  C123  1  0.549700  0.961200  0.453800  1.0  -0.0571
  C  C124  1  0.714400  0.575500  0.295900  1.0  -0.0868
  C  C125  1  0.923600  0.448500  0.034400  1.0  -0.1476
  C  C126  1  0.134700  0.399800  0.248300  1.0  -0.0779
  C  C127  1  0.589800  0.781300  0.284700  1.0  -0.0174
  C  C128  1  0.541500  0.174300  0.794000  1.0  -0.038
  C  C129  1  0.458500  0.825700  0.206000  1.0  -0.0399
  C  C130  1  0.543300  0.778600  0.740500  1.0  0.7305
  C  C131  1  0.155900  0.605200  0.926100  1.0  0.6341
  C  C132  1  0.081000  0.800600  0.733400  1.0  0.7114
  C  C133  1  0.323200  0.551100  0.732800  1.0  0.7192
  C  C134  1  0.921600  0.595800  0.213600  1.0  -0.0403
  C  C135  1  0.531900  0.889300  0.210400  1.0  -0.0519
  C  C136  1  0.163700  0.345100  0.210600  1.0  -0.0737
  O  O137  1  0.679000  0.522500  0.990400  1.0  -0.462
  O  O138  1  0.082400  0.105400  0.118030  1.0  -0.6916
  O  O139  1  0.123700  0.816000  0.676860  1.0  -0.5644
  O  O140  1  0.837100  0.073600  0.825700  1.0  -0.5576
  O  O141  1  0.140800  0.915100  0.283080  1.0  -0.7155
  O  O142  1  0.720400  0.993000  0.317200  1.0  -0.5945
  O  O143  1  0.123200  0.110680  0.698680  1.0  -0.6668
  O  O144  1  0.731200  0.006500  0.207900  1.0  -0.7348
  O  O145  1  0.999900  0.263700  0.815800  1.0  -0.5564
  O  O146  1  0.258700  0.697600  0.697070  1.0  -0.5374
  O  O147  1  0.359200  0.584900  0.783080  1.0  -0.7153
  O  O148  1  0.728300  0.395600  0.073980  1.0  -0.7311
  O  O149  1  0.876300  0.184000  0.323140  1.0  -0.5673
  O  O150  1  0.499900  0.763700  0.684200  1.0  -0.5546
  O  O151  1  0.529600  0.101900  0.388100  1.0  -0.2955
  O  O152  1  0.228300  0.895600  0.426020  1.0  -0.7317
  O  O153  1  0.821000  0.977500  0.490400  1.0  -0.463
  O  O154  1  0.231200  0.506500  0.292100  1.0  -0.7378
  O  O155  1  0.662900  0.426400  0.325700  1.0  -0.5623
  O  O156  1  0.150200  0.660100  0.607200  1.0  -0.4354
  O  O157  1  0.394500  0.852400  0.394000  1.0  -0.4676
  O  O158  1  0.999800  0.968700  0.806190  1.0  -0.6526
  O  O159  1  0.637500  0.113600  0.295000  1.0  -0.5976
  O  O160  1  0.337100  0.573600  0.674300  1.0  -0.5573
  O  O161  1  0.376800  0.389320  0.198680  1.0  -0.6683
  O  O162  1  0.417600  0.394600  0.618030  1.0  -0.6882
  O  O163  1  0.268800  0.993500  0.792100  1.0  -0.737
  O  O164  1  0.000100  0.736300  0.184200  1.0  -0.5558
  O  O165  1  0.859200  0.084900  0.716920  1.0  -0.7156
  O  O166  1  0.779600  0.507000  0.817200  1.0  -0.5934
  O  O167  1  0.849800  0.339900  0.392800  1.0  -0.439
  O  O168  1  0.894500  0.352400  0.106000  1.0  -0.4682
  O  O169  1  0.500200  0.531300  0.306190  1.0  -0.6516
  O  O170  1  0.410200  0.658700  0.281420  1.0  -0.7315
  O  O171  1  0.193200  0.926000  0.564850  1.0  -0.6539
  O  O172  1  0.640800  0.415100  0.216920  1.0  -0.7147
  O  O173  1  0.362500  0.886400  0.705000  1.0  -0.5977
  O  O174  1  0.000200  0.031300  0.193810  1.0  -0.6505
  O  O175  1  0.650200  0.160100  0.892800  1.0  -0.4388
  O  O176  1  0.207800  0.178900  0.619660  1.0  -0.5801
  O  O177  1  0.792200  0.821100  0.380340  1.0  -0.5776
  O  O178  1  0.537900  0.737400  0.787600  1.0  -0.7371
  O  O179  1  0.499800  0.468700  0.693810  1.0  -0.6515
  O  O180  1  0.768800  0.493500  0.707900  1.0  -0.7338
  O  O181  1  0.089800  0.841300  0.781420  1.0  -0.7318
  O  O182  1  0.970400  0.398100  0.888100  1.0  -0.2646
  O  O183  1  0.771700  0.104400  0.573980  1.0  -0.7289
  O  O184  1  0.806800  0.074000  0.435150  1.0  -0.6521
  O  O185  1  0.623700  0.316000  0.823140  1.0  -0.5659
  O  O186  1  0.105500  0.647600  0.894000  1.0  -0.4664
  O  O187  1  0.589800  0.341300  0.718580  1.0  -0.731
  O  O188  1  0.029600  0.601900  0.111900  1.0  -0.2524
  O  O189  1  0.582400  0.605400  0.381970  1.0  -0.6909
  O  O190  1  0.605500  0.147600  0.606000  1.0  -0.4718
  O  O191  1  0.349800  0.839900  0.107200  1.0  -0.4347
  O  O192  1  0.271700  0.604400  0.926020  1.0  -0.7288
  O  O193  1  0.741300  0.302400  0.302930  1.0  -0.5361
  O  O194  1  0.470400  0.898100  0.611900  1.0  -0.2335
  O  O195  1  0.862500  0.386400  0.795000  1.0  -0.5987
  O  O196  1  0.292200  0.321100  0.119660  1.0  -0.5765
  O  O197  1  0.707800  0.678900  0.880340  1.0  -0.581
  O  O198  1  0.910200  0.158700  0.218580  1.0  -0.7315
  O  O199  1  0.037900  0.237400  0.712400  1.0  -0.7369
  O  O200  1  0.279600  0.007000  0.682800  1.0  -0.5929
  O  O201  1  0.137500  0.613600  0.205000  1.0  -0.5969
  O  O202  1  0.241300  0.802400  0.197070  1.0  -0.5375
  O  O203  1  0.917600  0.894600  0.881970  1.0  -0.6888
  O  O204  1  0.162900  0.926400  0.174300  1.0  -0.5601
  O  O205  1  0.179000  0.022500  0.509600  1.0  -0.4642
  O  O206  1  0.321000  0.477500  0.009600  1.0  -0.4612
  O  O207  1  0.876800  0.889320  0.301320  1.0  -0.6686
  O  O208  1  0.758700  0.197600  0.802930  1.0  -0.536
  O  O209  1  0.500100  0.236300  0.315800  1.0  -0.5581
  O  O210  1  0.962100  0.762600  0.287600  1.0  -0.7367
  O  O211  1  0.220400  0.493000  0.182800  1.0  -0.5936
  O  O212  1  0.306800  0.574000  0.064850  1.0  -0.6535
  O  O213  1  0.376300  0.684000  0.176860  1.0  -0.5644
  O  O214  1  0.623200  0.610680  0.801320  1.0  -0.6674
  O  O215  1  0.462100  0.262600  0.212400  1.0  -0.7366
  O  O216  1  0.693200  0.426000  0.935150  1.0  -0.6516
