# generated using pymatgen
data_Sm2Cu2H5(C5O4)5
_symmetry_space_group_name_H-M   'P 1'
_cell_length_a   10.89900000
_cell_length_b   19.78500000
_cell_length_c   20.33400000
_cell_angle_alpha   90.00000000
_cell_angle_beta   90.00000000
_cell_angle_gamma   99.48000000
_symmetry_Int_Tables_number   1
_chemical_formula_structural   Sm2Cu2H5(C5O4)5
_chemical_formula_sum   'Sm8 Cu8 H20 C100 O80'
_cell_volume   4324.87501192
_cell_formula_units_Z   4
loop_
 _symmetry_equiv_pos_site_id
 _symmetry_equiv_pos_as_xyz
  1  'x, y, z'
loop_
 _atom_site_type_symbol
 _atom_site_label
 _atom_site_symmetry_multiplicity
 _atom_site_fract_x
 _atom_site_fract_y
 _atom_site_fract_z
 _atom_site_occupancy
 _atom_site_charge
  Sm  Sm1  1  0.540450  0.346130  0.129260  1.0  2.0559
  Sm  Sm2  1  0.040450  0.846130  0.370740  1.0  2.0539
  Sm  Sm3  1  0.842900  0.081900  0.127590  1.0  1.7625
  Sm  Sm4  1  0.657100  0.418100  0.627590  1.0  1.7655
  Sm  Sm5  1  0.459550  0.653870  0.870740  1.0  2.0535
  Sm  Sm6  1  0.157100  0.918100  0.872410  1.0  1.7655
  Sm  Sm7  1  0.959550  0.153870  0.629260  1.0  2.0557
  Sm  Sm8  1  0.342900  0.581900  0.372410  1.0  1.7597
  Cu  Cu9  1  0.700940  0.409760  0.826740  1.0  1.1874
  Cu  Cu10  1  0.917800  0.168430  0.826690  1.0  0.8968
  Cu  Cu11  1  0.799060  0.090240  0.326740  1.0  1.1885
  Cu  Cu12  1  0.417800  0.668430  0.673310  1.0  0.9013
  Cu  Cu13  1  0.299060  0.590240  0.173260  1.0  1.187
  Cu  Cu14  1  0.200940  0.909760  0.673260  1.0  1.1853
  Cu  Cu15  1  0.582200  0.331570  0.326690  1.0  0.8975
  Cu  Cu16  1  0.082200  0.831570  0.173310  1.0  0.8995
  H  H17  1  0.389400  0.252500  0.687500  1.0  0.1077
  H  H18  1  0.082500  0.436800  0.078600  1.0  0.0981
  H  H19  1  0.229700  0.325000  0.681000  1.0  0.1032
  H  H20  1  0.371700  0.996500  0.305200  1.0  0.1029
  H  H21  1  0.014400  0.427200  0.312600  1.0  0.1229
  H  H22  1  0.889400  0.752500  0.812500  1.0  0.1066
  H  H23  1  0.128300  0.503500  0.805200  1.0  0.1031
  H  H24  1  0.110600  0.247500  0.187500  1.0  0.1069
  H  H25  1  0.514400  0.927200  0.187400  1.0  0.1208
  H  H26  1  0.770300  0.675000  0.319000  1.0  0.1036
  H  H27  1  0.871700  0.496500  0.194800  1.0  0.1028
  H  H28  1  0.582500  0.936800  0.421400  1.0  0.0984
  H  H29  1  0.985600  0.572800  0.687400  1.0  0.1216
  H  H30  1  0.485600  0.072800  0.812600  1.0  0.123
  H  H31  1  0.628300  0.003500  0.694800  1.0  0.1035
  H  H32  1  0.917500  0.563200  0.921400  1.0  0.0991
  H  H33  1  0.610600  0.747500  0.312500  1.0  0.1068
  H  H34  1  0.729700  0.825000  0.819000  1.0  0.1039
  H  H35  1  0.417500  0.063200  0.578600  1.0  0.0981
  H  H36  1  0.270300  0.175000  0.181000  1.0  0.1034
  C  C37  1  0.156300  0.677600  0.666200  1.0  0.6447
  C  C38  1  0.793600  0.525700  0.759800  1.0  0.6998
  C  C39  1  0.627300  0.012000  0.486800  1.0  -0.0841
  C  C40  1  0.049300  0.462400  0.046800  1.0  -0.0279
  C  C41  1  0.009700  0.727600  0.744400  1.0  -0.1006
  C  C42  1  0.736700  0.476200  0.969200  1.0  0.6945
  C  C43  1  0.407600  0.216700  0.713400  1.0  -0.0135
  C  C44  1  0.862800  0.598400  0.753400  1.0  -0.0815
  C  C45  1  0.843700  0.322400  0.333800  1.0  0.6383
  C  C46  1  0.215000  0.076100  0.203700  1.0  -0.0888
  C  C47  1  0.534200  0.891100  0.212300  1.0  -0.0373
  C  C48  1  0.341200  0.896500  0.424000  1.0  0.6836
  C  C49  1  0.960600  0.327000  0.291800  1.0  -0.0522
  C  C50  1  0.149300  0.467500  0.780700  1.0  -0.0518
  C  C51  1  0.890600  0.651200  0.251000  1.0  -0.1208
  C  C52  1  0.465800  0.108900  0.787700  1.0  -0.0355
  C  C53  1  0.109400  0.348800  0.749000  1.0  -0.1207
  C  C54  1  0.850700  0.532500  0.219300  1.0  -0.0498
  C  C55  1  0.408500  0.429400  0.669100  1.0  0.6725
  C  C56  1  0.710700  0.645500  0.827200  1.0  0.6514
  C  C57  1  0.372700  0.988000  0.513200  1.0  -0.083
  C  C58  1  0.658800  0.103500  0.576000  1.0  0.6861
  C  C59  1  0.990300  0.272400  0.255600  1.0  -0.1001
  C  C60  1  0.422600  0.096600  0.285100  1.0  -0.0711
  C  C61  1  0.656300  0.177600  0.833800  1.0  0.6372
  C  C62  1  0.753200  0.978800  0.760400  1.0  -0.0649
  C  C63  1  0.785000  0.923900  0.796300  1.0  -0.0885
  C  C64  1  0.210700  0.145500  0.672800  1.0  0.651
  C  C65  1  0.711100  0.860500  0.792800  1.0  -0.0312
  C  C66  1  0.343700  0.822400  0.166200  1.0  0.6478
  C  C67  1  0.746800  0.521200  0.260400  1.0  -0.0637
  C  C68  1  0.263300  0.523800  0.030800  1.0  0.6937
  C  C69  1  0.637200  0.901600  0.253400  1.0  -0.0872
  C  C70  1  0.332500  0.152700  0.709700  1.0  -0.0748
  C  C71  1  0.667500  0.847300  0.290300  1.0  -0.0825
  C  C72  1  0.962700  0.393400  0.828500  1.0  0.5198
  C  C73  1  0.591500  0.570600  0.330900  1.0  0.6721
  C  C74  1  0.206400  0.474300  0.240200  1.0  0.6945
  C  C75  1  0.832500  0.652700  0.790300  1.0  -0.0813
  C  C76  1  0.907600  0.716700  0.786600  1.0  -0.0136
  C  C77  1  0.920400  0.200500  0.264700  1.0  0.7221
  C  C78  1  0.450700  0.037600  0.546800  1.0  -0.0279
  C  C79  1  0.706400  0.974300  0.259800  1.0  0.6971
  C  C80  1  0.420400  0.700500  0.235300  1.0  0.7244
  C  C81  1  0.293600  0.025700  0.740200  1.0  0.6967
  C  C82  1  0.091500  0.070600  0.169100  1.0  0.6719
  C  C83  1  0.577100  0.050700  0.535000  1.0  -0.1563
  C  C84  1  0.077100  0.550700  0.965000  1.0  -0.1556
  C  C85  1  0.789300  0.854500  0.327200  1.0  0.6516
  C  C86  1  0.350700  0.032500  0.280700  1.0  -0.0526
  C  C87  1  0.176800  0.950000  0.233200  1.0  0.7208
  C  C88  1  0.289300  0.354500  0.172800  1.0  0.6506
  C  C89  1  0.950700  0.537600  0.953200  1.0  -0.0276
  C  C90  1  0.957900  0.722900  0.242100  1.0  0.7225
  C  C91  1  0.841200  0.396500  0.076000  1.0  0.6856
  C  C92  1  0.460600  0.827000  0.208200  1.0  -0.055
  C  C93  1  0.872700  0.488000  0.986800  1.0  -0.0828
  C  C94  1  0.592400  0.783300  0.286600  1.0  -0.0122
  C  C95  1  0.537300  0.106600  0.328500  1.0  0.5194
  C  C96  1  0.542100  0.777100  0.742100  1.0  0.7223
  C  C97  1  0.127300  0.512000  0.013200  1.0  -0.0841
  C  C98  1  0.788900  0.639500  0.292800  1.0  -0.0311
  C  C99  1  0.236700  0.976200  0.530800  1.0  0.6949
  C  C100  1  0.077400  0.403400  0.785100  1.0  -0.0718
  C  C101  1  0.137200  0.401600  0.246600  1.0  -0.0861
  C  C102  1  0.823200  0.050000  0.766800  1.0  0.7213
  C  C103  1  0.167500  0.347300  0.209700  1.0  -0.0753
  C  C104  1  0.549300  0.962400  0.453200  1.0  -0.0278
  C  C105  1  0.462700  0.893400  0.671500  1.0  0.5203
  C  C106  1  0.763300  0.023800  0.469200  1.0  0.6935
  C  C107  1  0.609400  0.848800  0.751000  1.0  -0.1198
  C  C108  1  0.034200  0.391100  0.287700  1.0  -0.037
  C  C109  1  0.715000  0.576100  0.296300  1.0  -0.087
  C  C110  1  0.211100  0.360500  0.707200  1.0  -0.0315
  C  C111  1  0.422900  0.949300  0.465000  1.0  -0.1533
  C  C112  1  0.908500  0.929400  0.830900  1.0  0.6748
  C  C113  1  0.362800  0.098400  0.746600  1.0  -0.08
  C  C114  1  0.158800  0.603500  0.924000  1.0  0.6866
  C  C115  1  0.092400  0.283300  0.213400  1.0  -0.0111
  C  C116  1  0.285000  0.423900  0.703700  1.0  -0.0883
  C  C117  1  0.922900  0.449300  0.035000  1.0  -0.1557
  C  C118  1  0.676800  0.450000  0.266800  1.0  0.7208
  C  C119  1  0.246800  0.021200  0.239600  1.0  -0.0642
  C  C120  1  0.539400  0.173000  0.791800  1.0  -0.0533
  C  C121  1  0.288900  0.139500  0.207200  1.0  -0.0315
  C  C122  1  0.965800  0.608900  0.712300  1.0  -0.0364
  C  C123  1  0.490300  0.772400  0.244400  1.0  -0.1001
  C  C124  1  0.577400  0.903400  0.714900  1.0  -0.072
  C  C125  1  0.323200  0.550000  0.733200  1.0  0.7193
  C  C126  1  0.390600  0.151200  0.249000  1.0  -0.1205
  C  C127  1  0.042100  0.277100  0.757900  1.0  0.7216
  C  C128  1  0.253200  0.478800  0.739600  1.0  -0.0712
  C  C129  1  0.079600  0.799500  0.735300  1.0  0.7204
  C  C130  1  0.457900  0.222900  0.257900  1.0  0.7192
  C  C131  1  0.649300  0.967500  0.719300  1.0  -0.0527
  C  C132  1  0.039400  0.673000  0.708200  1.0  -0.055
  C  C133  1  0.509700  0.227600  0.755600  1.0  -0.1039
  C  C134  1  0.579600  0.299500  0.764700  1.0  0.7231
  C  C135  1  0.922600  0.596600  0.214900  1.0  -0.0711
  C  C136  1  0.037300  0.606600  0.171500  1.0  0.5205
  O  O137  1  0.621100  0.314600  0.821800  1.0  -0.5654
  O  O138  1  0.257600  0.695800  0.697200  1.0  -0.5474
  O  O139  1  0.000900  0.737400  0.185300  1.0  -0.5862
  O  O140  1  0.107300  0.644700  0.891400  1.0  -0.4943
  O  O141  1  0.965200  0.763800  0.288400  1.0  -0.7159
  O  O142  1  0.192200  0.923800  0.564000  1.0  -0.6543
  O  O143  1  0.882500  0.889600  0.300400  1.0  -0.6512
  O  O144  1  0.001400  0.967300  0.805500  1.0  -0.653
  O  O145  1  0.617500  0.610400  0.800400  1.0  -0.6492
  O  O146  1  0.999100  0.262600  0.814700  1.0  -0.5865
  O  O147  1  0.139300  0.614700  0.204000  1.0  -0.6218
  O  O148  1  0.860700  0.385300  0.796000  1.0  -0.6227
  O  O149  1  0.607300  0.144700  0.608600  1.0  -0.4982
  O  O150  1  0.774300  0.505400  0.817300  1.0  -0.5907
  O  O151  1  0.200700  0.176200  0.619800  1.0  -0.618
  O  O152  1  0.807800  0.076200  0.436000  1.0  -0.6571
  O  O153  1  0.912100  0.160100  0.217600  1.0  -0.7258
  O  O154  1  0.225700  0.494600  0.182700  1.0  -0.5911
  O  O155  1  0.501400  0.467300  0.694500  1.0  -0.6524
  O  O156  1  0.972900  0.396800  0.888400  1.0  -0.3944
  O  O157  1  0.378900  0.685400  0.178200  1.0  -0.5636
  O  O158  1  0.725700  0.994600  0.317300  1.0  -0.5918
  O  O159  1  0.878900  0.185400  0.321800  1.0  -0.565
  O  O160  1  0.700700  0.676200  0.880200  1.0  -0.6197
  O  O161  1  0.465200  0.263800  0.211600  1.0  -0.7151
  O  O162  1  0.643300  0.415800  0.216500  1.0  -0.7218
  O  O163  1  0.823300  0.978500  0.488400  1.0  -0.4694
  O  O164  1  0.176700  0.021500  0.511600  1.0  -0.4695
  O  O165  1  0.527100  0.103200  0.388400  1.0  -0.4077
  O  O166  1  0.226400  0.896400  0.424400  1.0  -0.7499
  O  O167  1  0.587900  0.339900  0.717600  1.0  -0.7255
  O  O168  1  0.143300  0.915800  0.283500  1.0  -0.721
  O  O169  1  0.087900  0.839900  0.782400  1.0  -0.7263
  O  O170  1  0.079100  0.106500  0.119300  1.0  -0.6387
  O  O171  1  0.500900  0.237400  0.314700  1.0  -0.5885
  O  O172  1  0.920900  0.893500  0.880700  1.0  -0.6389
  O  O173  1  0.766800  0.491300  0.708500  1.0  -0.7259
  O  O174  1  0.299300  0.323800  0.119800  1.0  -0.6168
  O  O175  1  0.647600  0.158700  0.891500  1.0  -0.4242
  O  O176  1  0.856700  0.084200  0.716500  1.0  -0.7201
  O  O177  1  0.147600  0.658700  0.608500  1.0  -0.4214
  O  O178  1  0.360700  0.885300  0.704000  1.0  -0.6226
  O  O179  1  0.273600  0.603600  0.924400  1.0  -0.748
  O  O180  1  0.742400  0.304200  0.302800  1.0  -0.542
  O  O181  1  0.233200  0.508700  0.291500  1.0  -0.7259
  O  O182  1  0.579100  0.606500  0.380700  1.0  -0.6393
  O  O183  1  0.392700  0.855300  0.391400  1.0  -0.4919
  O  O184  1  0.660900  0.427600  0.325200  1.0  -0.5739
  O  O185  1  0.757600  0.195800  0.802800  1.0  -0.5446
  O  O186  1  0.498600  0.532700  0.305500  1.0  -0.6522
  O  O187  1  0.534800  0.736200  0.788400  1.0  -0.7168
  O  O188  1  0.692200  0.423800  0.936000  1.0  -0.655
  O  O189  1  0.160900  0.927600  0.174800  1.0  -0.5722
  O  O190  1  0.726400  0.396400  0.075600  1.0  -0.7501
  O  O191  1  0.027100  0.603200  0.111600  1.0  -0.3716
  O  O192  1  0.352400  0.841300  0.108500  1.0  -0.4222
  O  O193  1  0.242400  0.804200  0.197200  1.0  -0.5449
  O  O194  1  0.339100  0.572400  0.674800  1.0  -0.5697
  O  O195  1  0.274300  0.005400  0.682700  1.0  -0.5903
  O  O196  1  0.420900  0.393500  0.619300  1.0  -0.6366
  O  O197  1  0.839100  0.072400  0.825200  1.0  -0.5693
  O  O198  1  0.034800  0.236200  0.711600  1.0  -0.7163
  O  O199  1  0.799300  0.823800  0.380200  1.0  -0.616
  O  O200  1  0.676700  0.521500  0.988400  1.0  -0.4674
  O  O201  1  0.307800  0.576200  0.064000  1.0  -0.657
  O  O202  1  0.117500  0.110400  0.699600  1.0  -0.6486
  O  O203  1  0.356700  0.584200  0.783500  1.0  -0.7217
  O  O204  1  0.733200  0.008700  0.208500  1.0  -0.7266
  O  O205  1  0.639300  0.114700  0.296000  1.0  -0.6217
  O  O206  1  0.121100  0.814600  0.678200  1.0  -0.5638
  O  O207  1  0.773600  0.103600  0.575600  1.0  -0.7479
  O  O208  1  0.472900  0.896800  0.611600  1.0  -0.3647
  O  O209  1  0.998600  0.032700  0.194500  1.0  -0.6512
  O  O210  1  0.382500  0.389600  0.199600  1.0  -0.6503
  O  O211  1  0.499100  0.762600  0.685300  1.0  -0.5846
  O  O212  1  0.323300  0.478500  0.011600  1.0  -0.4674
  O  O213  1  0.266800  0.991300  0.791500  1.0  -0.7278
  O  O214  1  0.892700  0.355300  0.108600  1.0  -0.4926
  O  O215  1  0.412100  0.660100  0.282400  1.0  -0.7255
  O  O216  1  0.852400  0.341300  0.391500  1.0  -0.4257
