# generated using pymatgen
data_Nd2Cu2H5(C5O4)5
_symmetry_space_group_name_H-M   'P 1'
_cell_length_a   10.92700000
_cell_length_b   19.80700000
_cell_length_c   20.39100000
_cell_angle_alpha   90.00000000
_cell_angle_beta   90.00000000
_cell_angle_gamma   99.61000000
_symmetry_Int_Tables_number   1
_chemical_formula_structural   Nd2Cu2H5(C5O4)5
_chemical_formula_sum   'Nd8 Cu8 H20 C100 O80'
_cell_volume   4351.31487668
_cell_formula_units_Z   4
loop_
 _symmetry_equiv_pos_site_id
 _symmetry_equiv_pos_as_xyz
  1  'x, y, z'
loop_
 _atom_site_type_symbol
 _atom_site_label
 _atom_site_symmetry_multiplicity
 _atom_site_fract_x
 _atom_site_fract_y
 _atom_site_fract_z
 _atom_site_occupancy
 _atom_site_charge
  Nd  Nd1  1  0.341110  0.581970  0.373020  1.0  1.6762
  Nd  Nd2  1  0.037430  0.845520  0.372120  1.0  2.0011
  Nd  Nd3  1  0.658890  0.418030  0.626980  1.0  1.682
  Nd  Nd4  1  0.537430  0.345520  0.127880  1.0  2.0035
  Nd  Nd5  1  0.462570  0.654480  0.872120  1.0  2.001
  Nd  Nd6  1  0.841110  0.081970  0.126980  1.0  1.6853
  Nd  Nd7  1  0.158890  0.918030  0.873020  1.0  1.6821
  Nd  Nd8  1  0.962570  0.154480  0.627880  1.0  2.0034
  Cu  Cu9  1  0.419860  0.668490  0.673910  1.0  0.8689
  Cu  Cu10  1  0.580140  0.331510  0.326090  1.0  0.8682
  Cu  Cu11  1  0.080140  0.831510  0.173910  1.0  0.8714
  Cu  Cu12  1  0.295290  0.589790  0.173370  1.0  1.1585
  Cu  Cu13  1  0.704710  0.410210  0.826630  1.0  1.1603
  Cu  Cu14  1  0.204710  0.910210  0.673370  1.0  1.1587
  Cu  Cu15  1  0.795290  0.089790  0.326630  1.0  1.1596
  Cu  Cu16  1  0.919860  0.168490  0.826090  1.0  0.8721
  H  H17  1  0.486900  0.073000  0.813000  1.0  0.1245
  H  H18  1  0.768300  0.676200  0.317500  1.0  0.1062
  H  H19  1  0.105600  0.247600  0.187600  1.0  0.1087
  H  H20  1  0.013100  0.427000  0.313000  1.0  0.1246
  H  H21  1  0.513100  0.927000  0.187000  1.0  0.1231
  H  H22  1  0.869600  0.495700  0.196800  1.0  0.1034
  H  H23  1  0.369600  0.995700  0.303200  1.0  0.1035
  H  H24  1  0.917200  0.562900  0.921600  1.0  0.1112
  H  H25  1  0.417200  0.062900  0.578400  1.0  0.1097
  H  H26  1  0.268300  0.176200  0.182500  1.0  0.1057
  H  H27  1  0.894400  0.752400  0.812400  1.0  0.1096
  H  H28  1  0.231700  0.323800  0.682500  1.0  0.1057
  H  H29  1  0.582800  0.937100  0.421600  1.0  0.1082
  H  H30  1  0.394400  0.252400  0.687600  1.0  0.1089
  H  H31  1  0.630400  0.004300  0.696800  1.0  0.1038
  H  H32  1  0.986900  0.573000  0.687000  1.0  0.1236
  H  H33  1  0.731700  0.823800  0.817500  1.0  0.1062
  H  H34  1  0.605600  0.747600  0.312400  1.0  0.1089
  H  H35  1  0.130400  0.504300  0.803200  1.0  0.1035
  H  H36  1  0.082800  0.437100  0.078400  1.0  0.1106
  C  C37  1  0.917800  0.200600  0.265100  1.0  0.7292
  C  C38  1  0.909300  0.929500  0.831300  1.0  0.7038
  C  C39  1  0.711400  0.576100  0.296400  1.0  -0.0923
  C  C40  1  0.365700  0.099200  0.747100  1.0  -0.0892
  C  C41  1  0.468700  0.109500  0.788200  1.0  -0.069
  C  C42  1  0.245100  0.022400  0.240700  1.0  -0.0786
  C  C43  1  0.297700  0.027300  0.740600  1.0  0.7392
  C  C44  1  0.261700  0.524500  0.031900  1.0  0.6981
  C  C45  1  0.164600  0.346900  0.210900  1.0  -0.0818
  C  C46  1  0.211400  0.076100  0.203600  1.0  -0.0986
  C  C47  1  0.660000  0.104200  0.574900  1.0  0.6571
  C  C48  1  0.031300  0.390500  0.288200  1.0  -0.0687
  C  C49  1  0.788600  0.923900  0.796400  1.0  -0.09
  C  C50  1  0.965300  0.394500  0.827900  1.0  0.5562
  C  C51  1  0.215100  0.146300  0.672100  1.0  0.6689
  C  C52  1  0.078600  0.403300  0.786100  1.0  -0.0271
  C  C53  1  0.582200  0.299400  0.765100  1.0  0.7265
  C  C54  1  0.160200  0.677300  0.667700  1.0  0.6886
  C  C55  1  0.012800  0.728900  0.743900  1.0  -0.0989
  C  C56  1  0.512800  0.228900  0.756100  1.0  -0.0974
  C  C57  1  0.873400  0.486900  0.986400  1.0  -0.0748
  C  C58  1  0.465300  0.894500  0.672100  1.0  0.5573
  C  C59  1  0.865700  0.599200  0.752900  1.0  -0.0913
  C  C60  1  0.702300  0.972700  0.259400  1.0  0.7258
  C  C61  1  0.956700  0.721500  0.241500  1.0  0.7127
  C  C62  1  0.325900  0.550500  0.732800  1.0  0.721
  C  C63  1  0.549500  0.962800  0.453000  1.0  -0.0544
  C  C64  1  0.651800  0.967500  0.719900  1.0  -0.0555
  C  C65  1  0.626600  0.013100  0.486400  1.0  -0.0754
  C  C66  1  0.044800  0.672600  0.706800  1.0  -0.0671
  C  C67  1  0.487200  0.771100  0.243900  1.0  -0.0928
  C  C68  1  0.088200  0.283000  0.214200  1.0  -0.0101
  C  C69  1  0.111100  0.349300  0.749600  1.0  -0.1222
  C  C70  1  0.411800  0.217000  0.714200  1.0  -0.0115
  C  C71  1  0.634300  0.900800  0.252900  1.0  -0.0913
  C  C72  1  0.754900  0.977600  0.759300  1.0  -0.0786
  C  C73  1  0.082200  0.799400  0.734900  1.0  0.7265
  C  C74  1  0.335400  0.153100  0.710900  1.0  -0.0814
  C  C75  1  0.987200  0.271100  0.256100  1.0  -0.0931
  C  C76  1  0.043300  0.278500  0.758500  1.0  0.7135
  C  C77  1  0.286700  0.140200  0.207900  1.0  -0.0398
  C  C78  1  0.531300  0.890500  0.211800  1.0  -0.0692
  C  C79  1  0.049500  0.462800  0.047000  1.0  -0.054
  C  C80  1  0.955200  0.327400  0.293200  1.0  -0.0634
  C  C81  1  0.921400  0.596700  0.213900  1.0  -0.0271
  C  C82  1  0.534700  0.105500  0.327900  1.0  0.556
  C  C83  1  0.202300  0.472700  0.240600  1.0  0.7235
  C  C84  1  0.450500  0.037200  0.547000  1.0  -0.0548
  C  C85  1  0.611100  0.849300  0.750400  1.0  -0.1221
  C  C86  1  0.339800  0.822700  0.167700  1.0  0.6909
  C  C87  1  0.715100  0.646300  0.827900  1.0  0.6691
  C  C88  1  0.797700  0.527300  0.759400  1.0  0.7372
  C  C89  1  0.254900  0.477600  0.740700  1.0  -0.0791
  C  C90  1  0.421500  0.949500  0.465400  1.0  -0.1502
  C  C91  1  0.126600  0.513100  0.013600  1.0  -0.0757
  C  C92  1  0.784900  0.853700  0.327900  1.0  0.6691
  C  C93  1  0.151800  0.467500  0.780100  1.0  -0.0559
  C  C94  1  0.213300  0.359800  0.707900  1.0  -0.0391
  C  C95  1  0.340000  0.895800  0.425100  1.0  0.658
  C  C96  1  0.543300  0.778500  0.741500  1.0  0.7133
  C  C97  1  0.674100  0.449500  0.267200  1.0  0.7201
  C  C98  1  0.660200  0.177300  0.832300  1.0  0.6805
  C  C99  1  0.888900  0.650700  0.250400  1.0  -0.1224
  C  C100  1  0.421400  0.096700  0.286100  1.0  -0.0268
  C  C101  1  0.786700  0.640200  0.292100  1.0  -0.0391
  C  C102  1  0.911800  0.717000  0.785800  1.0  -0.01
  C  C103  1  0.134300  0.400800  0.247100  1.0  -0.0901
  C  C104  1  0.950500  0.537200  0.953000  1.0  -0.0551
  C  C105  1  0.034700  0.605500  0.172100  1.0  0.5575
  C  C106  1  0.664600  0.846900  0.289100  1.0  -0.0816
  C  C107  1  0.288600  0.423900  0.703600  1.0  -0.0924
  C  C108  1  0.174100  0.949500  0.232800  1.0  0.7218
  C  C109  1  0.456700  0.221500  0.258500  1.0  0.7129
  C  C110  1  0.738300  0.475500  0.968100  1.0  0.6996
  C  C111  1  0.578600  0.903300  0.713900  1.0  -0.0277
  C  C112  1  0.373400  0.986900  0.513600  1.0  -0.0754
  C  C113  1  0.745100  0.522400  0.259300  1.0  -0.0782
  C  C114  1  0.825900  0.050500  0.767200  1.0  0.7165
  C  C115  1  0.388900  0.150700  0.249600  1.0  -0.1225
  C  C116  1  0.238300  0.975500  0.531900  1.0  0.7006
  C  C117  1  0.078500  0.550500  0.965400  1.0  -0.1497
  C  C118  1  0.348200  0.032500  0.280100  1.0  -0.0546
  C  C119  1  0.848200  0.532500  0.219900  1.0  -0.0525
  C  C120  1  0.968700  0.609500  0.711800  1.0  -0.0694
  C  C121  1  0.840000  0.395800  0.074900  1.0  0.6578
  C  C122  1  0.284900  0.353700  0.172100  1.0  0.6683
  C  C123  1  0.417800  0.700600  0.234900  1.0  0.7287
  C  C124  1  0.544800  0.172600  0.793200  1.0  -0.0636
  C  C125  1  0.921500  0.449500  0.034600  1.0  -0.1504
  C  C126  1  0.713300  0.859800  0.792100  1.0  -0.0392
  C  C127  1  0.835400  0.653100  0.789100  1.0  -0.081
  C  C128  1  0.160000  0.604200  0.925100  1.0  0.6578
  C  C129  1  0.588200  0.783000  0.285800  1.0  -0.0103
  C  C130  1  0.578500  0.050500  0.534600  1.0  -0.1492
  C  C131  1  0.090700  0.070500  0.168700  1.0  0.7042
  C  C132  1  0.455200  0.827400  0.206800  1.0  -0.0679
  C  C133  1  0.409300  0.429500  0.668700  1.0  0.7026
  C  C134  1  0.761700  0.024500  0.468100  1.0  0.6977
  C  C135  1  0.590700  0.570500  0.331300  1.0  0.7035
  C  C136  1  0.839800  0.322700  0.332300  1.0  0.6806
  O  O137  1  0.240700  0.803800  0.197900  1.0  -0.5449
  O  O138  1  0.307900  0.576500  0.064800  1.0  -0.6534
  O  O139  1  0.908700  0.159200  0.218600  1.0  -0.7379
  O  O140  1  0.274100  0.603100  0.924900  1.0  -0.7532
  O  O141  1  0.759300  0.196200  0.802100  1.0  -0.5448
  O  O142  1  0.721400  0.994100  0.317600  1.0  -0.5917
  O  O143  1  0.840600  0.073100  0.824500  1.0  -0.5639
  O  O144  1  0.963300  0.763300  0.288100  1.0  -0.7337
  O  O145  1  0.340600  0.573100  0.675500  1.0  -0.562
  O  O146  1  0.473200  0.897000  0.612500  1.0  -0.3556
  O  O147  1  0.740700  0.303800  0.302100  1.0  -0.543
  O  O148  1  0.122100  0.110400  0.699000  1.0  -0.6613
  O  O149  1  0.624500  0.314500  0.822100  1.0  -0.5678
  O  O150  1  0.026800  0.603000  0.112500  1.0  -0.3633
  O  O151  1  0.375500  0.685500  0.177900  1.0  -0.5668
  O  O152  1  0.860200  0.084000  0.716800  1.0  -0.7045
  O  O153  1  0.730500  0.007900  0.208800  1.0  -0.7313
  O  O154  1  0.497000  0.532500  0.305800  1.0  -0.6517
  O  O155  1  0.377900  0.389600  0.199000  1.0  -0.6618
  O  O156  1  0.692100  0.423500  0.935200  1.0  -0.6521
  O  O157  1  0.278600  0.005900  0.682400  1.0  -0.5902
  O  O158  1  0.137600  0.614300  0.204800  1.0  -0.6161
  O  O159  1  0.159400  0.926900  0.175500  1.0  -0.5645
  O  O160  1  0.501000  0.763000  0.684900  1.0  -0.5611
  O  O161  1  0.778600  0.505900  0.817600  1.0  -0.5904
  O  O162  1  0.650700  0.157600  0.890600  1.0  -0.4212
  O  O163  1  0.997000  0.032500  0.194200  1.0  -0.6507
  O  O164  1  0.107700  0.645100  0.891700  1.0  -0.4873
  O  O165  1  0.875500  0.185500  0.322100  1.0  -0.5667
  O  O166  1  0.793400  0.822300  0.379800  1.0  -0.5515
  O  O167  1  0.503000  0.467500  0.694200  1.0  -0.6515
  O  O168  1  0.230500  0.507900  0.291200  1.0  -0.7345
  O  O169  1  0.177500  0.020900  0.512100  1.0  -0.4535
  O  O170  1  0.659400  0.426900  0.324500  1.0  -0.568
  O  O171  1  0.639800  0.416000  0.216800  1.0  -0.7067
  O  O172  1  0.973200  0.397000  0.887500  1.0  -0.3932
  O  O173  1  0.269500  0.992100  0.791200  1.0  -0.7341
  O  O174  1  0.293400  0.322300  0.120200  1.0  -0.5517
  O  O175  1  0.124500  0.814500  0.677900  1.0  -0.5677
  O  O176  1  0.822500  0.979100  0.487900  1.0  -0.4571
  O  O177  1  0.036700  0.236700  0.711900  1.0  -0.7334
  O  O178  1  0.499000  0.237000  0.315100  1.0  -0.5676
  O  O179  1  0.322500  0.479100  0.012100  1.0  -0.454
  O  O180  1  0.259300  0.696200  0.697900  1.0  -0.5459
  O  O181  1  0.420100  0.393800  0.619500  1.0  -0.6466
  O  O182  1  0.001000  0.263000  0.815100  1.0  -0.5662
  O  O183  1  0.091300  0.840800  0.781400  1.0  -0.7378
  O  O184  1  0.849300  0.342400  0.390600  1.0  -0.4205
  O  O185  1  0.139800  0.916000  0.283200  1.0  -0.7056
  O  O186  1  0.706600  0.677700  0.879800  1.0  -0.5536
  O  O187  1  0.622100  0.610400  0.801000  1.0  -0.6619
  O  O188  1  0.637600  0.114300  0.295200  1.0  -0.6166
  O  O189  1  0.591300  0.340800  0.718600  1.0  -0.7375
  O  O190  1  0.526800  0.103000  0.387500  1.0  -0.4017
  O  O191  1  0.408700  0.659200  0.281400  1.0  -0.7373
  O  O192  1  0.360200  0.584000  0.783200  1.0  -0.7073
  O  O193  1  0.774100  0.103100  0.575100  1.0  -0.7513
  O  O194  1  0.392300  0.854900  0.391700  1.0  -0.4864
  O  O195  1  0.206600  0.177700  0.620200  1.0  -0.5514
  O  O196  1  0.725900  0.396900  0.075100  1.0  -0.754
  O  O197  1  0.807900  0.076500  0.435200  1.0  -0.654
  O  O198  1  0.677500  0.520900  0.987900  1.0  -0.4532
  O  O199  1  0.221400  0.494100  0.182400  1.0  -0.5911
  O  O200  1  0.536700  0.736700  0.788100  1.0  -0.7346
  O  O201  1  0.003000  0.967500  0.805800  1.0  -0.6521
  O  O202  1  0.362400  0.885700  0.704800  1.0  -0.6174
  O  O203  1  0.607700  0.145100  0.608300  1.0  -0.4921
  O  O204  1  0.150700  0.657600  0.609400  1.0  -0.419
  O  O205  1  0.769500  0.492100  0.708800  1.0  -0.732
  O  O206  1  0.579900  0.606200  0.380500  1.0  -0.6526
  O  O207  1  0.920100  0.893800  0.880500  1.0  -0.6509
  O  O208  1  0.349300  0.842400  0.109400  1.0  -0.4186
  O  O209  1  0.999000  0.737000  0.184900  1.0  -0.5618
  O  O210  1  0.463300  0.263300  0.211900  1.0  -0.7325
  O  O211  1  0.079900  0.106200  0.119500  1.0  -0.6498
  O  O212  1  0.892300  0.354900  0.108300  1.0  -0.4876
  O  O213  1  0.192100  0.923500  0.564800  1.0  -0.6518
  O  O214  1  0.225900  0.896900  0.424900  1.0  -0.7536
  O  O215  1  0.877900  0.889600  0.301000  1.0  -0.6625
  O  O216  1  0.862400  0.385700  0.795200  1.0  -0.6177
