# generated using pymatgen
data_Zn2H3C9IO7
_symmetry_space_group_name_H-M   'P 1'
_cell_length_a   10.25110000
_cell_length_b   13.84780000
_cell_length_c   16.00220000
_cell_angle_alpha   90.00000000
_cell_angle_beta   95.64300000
_cell_angle_gamma   90.00000000
_symmetry_Int_Tables_number   1
_chemical_formula_structural   Zn2H3C9IO7
_chemical_formula_sum   'Zn8 H12 C36 I4 O28'
_cell_volume   2260.58681002
_cell_formula_units_Z   4
loop_
 _symmetry_equiv_pos_site_id
 _symmetry_equiv_pos_as_xyz
  1  'x, y, z'
loop_
 _atom_site_type_symbol
 _atom_site_label
 _atom_site_symmetry_multiplicity
 _atom_site_fract_x
 _atom_site_fract_y
 _atom_site_fract_z
 _atom_site_occupancy
 _atom_site_charge
  Zn  Zn1  1  0.876160  0.032140  0.045270  1.0  1.0006
  Zn  Zn2  1  0.019210  0.197620  0.931180  1.0  0.9836
  Zn  Zn3  1  0.623840  0.532140  0.454730  1.0  1.0006
  Zn  Zn4  1  0.480790  0.697620  0.568820  1.0  0.9823
  Zn  Zn5  1  0.123840  0.967860  0.954730  1.0  1.0004
  Zn  Zn6  1  0.980790  0.802380  0.068820  1.0  0.9798
  Zn  Zn7  1  0.376160  0.467860  0.545270  1.0  1.0005
  Zn  Zn8  1  0.519210  0.302380  0.431180  1.0  0.9811
  H  H9  1  0.695000  0.273200  0.776900  1.0  0.1374
  H  H10  1  0.297800  0.266400  0.750800  1.0  0.1391
  H  H11  1  0.501100  0.090000  0.918700  1.0  0.1351
  H  H12  1  0.805000  0.773200  0.723100  1.0  0.1373
  H  H13  1  0.202200  0.766400  0.749200  1.0  0.1388
  H  H14  1  0.998900  0.590000  0.581300  1.0  0.1346
  H  H15  1  0.305000  0.726800  0.223100  1.0  0.1376
  H  H16  1  0.702200  0.733600  0.249200  1.0  0.1391
  H  H17  1  0.498900  0.910000  0.081300  1.0  0.1345
  H  H18  1  0.195000  0.226800  0.276900  1.0  0.137
  H  H19  1  0.797800  0.233600  0.250800  1.0  0.1391
  H  H20  1  0.001100  0.410000  0.418700  1.0  0.1347
  C  C21  1  0.616830  0.176290  0.853860  1.0  -0.131
  C  C22  1  0.614980  0.247510  0.792540  1.0  0.0302
  C  C23  1  0.496080  0.281100  0.754140  1.0  -0.1257
  C  C24  1  0.379040  0.243460  0.777050  1.0  0.0327
  C  C25  1  0.380890  0.172240  0.838370  1.0  -0.1339
  C  C26  1  0.499790  0.138650  0.876770  1.0  0.0539
  C  C27  1  0.744940  0.144240  0.899270  1.0  0.7326
  C  C28  1  0.498630  0.356190  0.685080  1.0  0.7298
  C  C29  1  0.255720  0.134010  0.866890  1.0  0.7496
  C  C30  1  0.883170  0.676290  0.646140  1.0  -0.1307
  C  C31  1  0.885020  0.747510  0.707460  1.0  0.0297
  C  C32  1  0.003920  0.781100  0.745860  1.0  -0.126
  C  C33  1  0.120960  0.743460  0.722950  1.0  0.0334
  C  C34  1  0.119110  0.672240  0.661630  1.0  -0.134
  C  C35  1  0.000210  0.638650  0.623230  1.0  0.0535
  C  C36  1  0.755060  0.644240  0.600730  1.0  0.7336
  C  C37  1  0.001370  0.856190  0.814920  1.0  0.7308
  C  C38  1  0.244280  0.634010  0.633110  1.0  0.7493
  C  C39  1  0.383170  0.823710  0.146140  1.0  -0.1305
  C  C40  1  0.385020  0.752490  0.207460  1.0  0.0302
  C  C41  1  0.503920  0.718900  0.245860  1.0  -0.1266
  C  C42  1  0.620960  0.756540  0.222950  1.0  0.0331
  C  C43  1  0.619110  0.827760  0.161630  1.0  -0.1339
  C  C44  1  0.500210  0.861350  0.123230  1.0  0.0532
  C  C45  1  0.255060  0.855760  0.100730  1.0  0.7339
  C  C46  1  0.501370  0.643810  0.314920  1.0  0.7316
  C  C47  1  0.744280  0.865990  0.133110  1.0  0.7497
  C  C48  1  0.116830  0.323710  0.353860  1.0  -0.1311
  C  C49  1  0.114980  0.252490  0.292540  1.0  0.0308
  C  C50  1  0.996080  0.218900  0.254140  1.0  -0.1267
  C  C51  1  0.879040  0.256540  0.277050  1.0  0.0328
  C  C52  1  0.880890  0.327760  0.338370  1.0  -0.1337
  C  C53  1  0.999790  0.361350  0.376770  1.0  0.0531
  C  C54  1  0.244940  0.355760  0.399270  1.0  0.7334
  C  C55  1  0.998630  0.143810  0.185080  1.0  0.7302
  C  C56  1  0.755720  0.365990  0.366890  1.0  0.7499
  I  I57  1  0.017930  0.353760  0.010780  1.0  -0.2573
  I  I58  1  0.482070  0.853760  0.489220  1.0  -0.2572
  I  I59  1  0.982070  0.646240  0.989220  1.0  -0.2561
  I  I60  1  0.517930  0.146240  0.510780  1.0  -0.2562
  O  O61  1  0.847860  0.172110  0.869480  1.0  -0.5771
  O  O62  1  0.739410  0.092590  0.963970  1.0  -0.5817
  O  O63  1  0.607160  0.384520  0.667200  1.0  -0.46
  O  O64  1  0.388070  0.385050  0.650000  1.0  -0.5599
  O  O65  1  0.261840  0.053670  0.903900  1.0  -0.5879
  O  O66  1  0.154560  0.185390  0.852470  1.0  -0.5601
  O  O67  1  0.049760  0.087070  0.005510  1.0  -0.7485
  O  O68  1  0.652140  0.672110  0.630520  1.0  -0.5776
  O  O69  1  0.760590  0.592590  0.536030  1.0  -0.5815
  O  O70  1  0.892840  0.884520  0.832800  1.0  -0.46
  O  O71  1  0.111930  0.885050  0.850000  1.0  -0.5591
  O  O72  1  0.238160  0.553670  0.596100  1.0  -0.589
  O  O73  1  0.345440  0.685390  0.647530  1.0  -0.5608
  O  O74  1  0.450240  0.587070  0.494490  1.0  -0.7475
  O  O75  1  0.152140  0.827890  0.130520  1.0  -0.5772
  O  O76  1  0.260590  0.907410  0.036030  1.0  -0.5823
  O  O77  1  0.392840  0.615480  0.332800  1.0  -0.4609
  O  O78  1  0.611930  0.614950  0.350000  1.0  -0.559
  O  O79  1  0.738160  0.946330  0.096100  1.0  -0.5905
  O  O80  1  0.845440  0.814610  0.147530  1.0  -0.5595
  O  O81  1  0.950240  0.912930  0.994490  1.0  -0.7475
  O  O82  1  0.347860  0.327890  0.369480  1.0  -0.5765
  O  O83  1  0.239410  0.407410  0.463970  1.0  -0.5817
  O  O84  1  0.107160  0.115480  0.167200  1.0  -0.4604
  O  O85  1  0.888070  0.114950  0.150000  1.0  -0.5599
  O  O86  1  0.761840  0.446330  0.403900  1.0  -0.5897
  O  O87  1  0.654560  0.314610  0.352470  1.0  -0.5591
  O  O88  1  0.549760  0.412930  0.505510  1.0  -0.7484
