# generated using pymatgen
data_Cu3H8C16N4(ClO2)2
_symmetry_space_group_name_H-M   'P 1'
_cell_length_a   11.65250000
_cell_length_b   18.35540000
_cell_length_c   18.35540000
_cell_angle_alpha   84.21760000
_cell_angle_beta   71.49340000
_cell_angle_gamma   71.49350000
_symmetry_Int_Tables_number   1
_chemical_formula_structural   Cu3H8C16N4(ClO2)2
_chemical_formula_sum   'Cu12 H32 C64 N16 Cl8 O16'
_cell_volume   3530.42309139
_cell_formula_units_Z   4
loop_
 _symmetry_equiv_pos_site_id
 _symmetry_equiv_pos_as_xyz
  1  'x, y, z'
loop_
 _atom_site_type_symbol
 _atom_site_label
 _atom_site_symmetry_multiplicity
 _atom_site_fract_x
 _atom_site_fract_y
 _atom_site_fract_z
 _atom_site_occupancy
 _atom_site_charge
  Cu  Cu1  1  0.414960  0.595230  0.257430  1.0  0.7146
  Cu  Cu2  1  0.767620  0.904770  0.242570  1.0  0.7176
  Cu  Cu3  1  0.672390  0.742570  0.095230  1.0  0.718
  Cu  Cu4  1  0.010190  0.757430  0.404770  1.0  0.7178
  Cu  Cu5  1  0.585040  0.404770  0.742570  1.0  0.7165
  Cu  Cu6  1  0.232380  0.095230  0.757430  1.0  0.7158
  Cu  Cu7  1  0.327610  0.257430  0.904770  1.0  0.7176
  Cu  Cu8  1  0.989810  0.242570  0.595230  1.0  0.7185
  Cu  Cu9  1  0.500000  0.500000  0.500000  1.0  0.8113
  Cu  Cu10  1  0.000000  0.000000  0.000000  1.0  0.8113
  Cu  Cu11  1  0.000000  0.500000  0.000000  1.0  0.8113
  Cu  Cu12  1  0.000000  0.000000  0.500000  1.0  0.8113
  H  H13  1  0.972600  0.756000  0.569800  1.0  0.1215
  H  H14  1  0.966200  0.727300  0.696100  1.0  0.1013
  H  H15  1  0.129800  0.631000  0.727800  1.0  0.0987
  H  H16  1  0.311000  0.567500  0.630500  1.0  0.1149
  H  H17  1  0.798400  0.744000  0.930200  1.0  0.1209
  H  H18  1  0.889600  0.772700  0.803900  1.0  0.1023
  H  H19  1  0.988600  0.869000  0.772200  1.0  0.0983
  H  H20  1  0.009000  0.932500  0.869500  1.0  0.115
  H  H21  1  0.542400  0.430200  0.256000  1.0  0.1203
  H  H22  1  0.662300  0.303900  0.227300  1.0  0.102
  H  H23  1  0.857600  0.272200  0.131000  1.0  0.0983
  H  H24  1  0.941500  0.369500  0.067500  1.0  0.1145
  H  H25  1  0.728600  0.069800  0.244000  1.0  0.122
  H  H26  1  0.693500  0.196100  0.272700  1.0  0.1008
  H  H27  1  0.760800  0.227800  0.369000  1.0  0.0984
  H  H28  1  0.878500  0.130500  0.432500  1.0  0.1156
  H  H29  1  0.027400  0.244000  0.430200  1.0  0.122
  H  H30  1  0.033800  0.272700  0.303900  1.0  0.1021
  H  H31  1  0.870200  0.369000  0.272200  1.0  0.0977
  H  H32  1  0.689000  0.432500  0.369500  1.0  0.115
  H  H33  1  0.201600  0.256000  0.069800  1.0  0.1216
  H  H34  1  0.110400  0.227300  0.196100  1.0  0.1025
  H  H35  1  0.011400  0.131000  0.227800  1.0  0.0986
  H  H36  1  0.991000  0.067500  0.130500  1.0  0.1146
  H  H37  1  0.457600  0.569800  0.744000  1.0  0.1211
  H  H38  1  0.337700  0.696100  0.772700  1.0  0.1022
  H  H39  1  0.142400  0.727800  0.869000  1.0  0.0983
  H  H40  1  0.058500  0.630500  0.932500  1.0  0.1143
  H  H41  1  0.271400  0.930200  0.756000  1.0  0.1211
  H  H42  1  0.306500  0.803900  0.727300  1.0  0.1017
  H  H43  1  0.239200  0.772200  0.631000  1.0  0.0985
  H  H44  1  0.121500  0.869500  0.567500  1.0  0.1157
  C  C45  1  0.360440  0.601450  0.410870  1.0  0.3978
  C  C46  1  0.250470  0.657640  0.391820  1.0  0.4243
  C  C47  1  0.145630  0.677120  0.522220  1.0  0.1824
  C  C48  1  0.040810  0.717140  0.581440  1.0  -0.1707
  C  C49  1  0.037480  0.699920  0.656120  1.0  -0.0694
  C  C50  1  0.135890  0.643160  0.675460  1.0  -0.0756
  C  C51  1  0.242270  0.604890  0.617970  1.0  -0.1546
  C  C52  1  0.248030  0.621700  0.540640  1.0  0.1529
  C  C53  1  0.872760  0.898550  0.089130  1.0  0.3972
  C  C54  1  0.799930  0.842360  0.108180  1.0  0.4256
  C  C55  1  0.844970  0.822880  0.977780  1.0  0.1809
  C  C56  1  0.839390  0.782860  0.918560  1.0  -0.1714
  C  C57  1  0.893520  0.800080  0.843880  1.0  -0.0714
  C  C58  1  0.954510  0.856840  0.824540  1.0  -0.0755
  C  C59  1  0.965130  0.895110  0.882030  1.0  -0.1521
  C  C60  1  0.910370  0.878300  0.959360  1.0  0.1522
  C  C61  1  0.771310  0.589130  0.101450  1.0  0.3966
  C  C62  1  0.642290  0.608180  0.157640  1.0  0.4252
  C  C63  1  0.667850  0.477780  0.177120  1.0  0.1816
  C  C64  1  0.622250  0.418560  0.217140  1.0  -0.1708
  C  C65  1  0.693600  0.343880  0.199920  1.0  -0.0715
  C  C66  1  0.811350  0.324540  0.143160  1.0  -0.0753
  C  C67  1  0.860240  0.382030  0.104890  1.0  -0.1484
  C  C68  1  0.788670  0.459360  0.121700  1.0  0.1537
  C  C69  1  0.961890  0.910870  0.398550  1.0  0.3967
  C  C70  1  0.908110  0.891820  0.342360  1.0  0.4208
  C  C71  1  0.822750  0.022220  0.322880  1.0  0.1801
  C  C72  1  0.757950  0.081440  0.282860  1.0  -0.1733
  C  C73  1  0.737400  0.156120  0.300080  1.0  -0.0726
  C  C74  1  0.779050  0.175460  0.356840  1.0  -0.0741
  C  C75  1  0.847160  0.117970  0.395110  1.0  -0.1513
  C  C76  1  0.869730  0.040640  0.378300  1.0  0.153
  C  C77  1  0.639560  0.398550  0.589130  1.0  0.398
  C  C78  1  0.749530  0.342360  0.608180  1.0  0.4253
  C  C79  1  0.854370  0.322880  0.477780  1.0  0.1826
  C  C80  1  0.959190  0.282860  0.418560  1.0  -0.1696
  C  C81  1  0.962520  0.300080  0.343880  1.0  -0.0685
  C  C82  1  0.864110  0.356840  0.324540  1.0  -0.0749
  C  C83  1  0.757730  0.395110  0.382030  1.0  -0.1538
  C  C84  1  0.751970  0.378300  0.459360  1.0  0.1524
  C  C85  1  0.127240  0.101450  0.910870  1.0  0.3979
  C  C86  1  0.200070  0.157640  0.891820  1.0  0.4241
  C  C87  1  0.155030  0.177120  0.022220  1.0  0.18
  C  C88  1  0.160610  0.217140  0.081440  1.0  -0.1711
  C  C89  1  0.106480  0.199920  0.156120  1.0  -0.0691
  C  C90  1  0.045490  0.143160  0.175460  1.0  -0.0752
  C  C91  1  0.034870  0.104890  0.117970  1.0  -0.1537
  C  C92  1  0.089630  0.121700  0.040640  1.0  0.1525
  C  C93  1  0.228690  0.410870  0.898550  1.0  0.3965
  C  C94  1  0.357710  0.391820  0.842360  1.0  0.4243
  C  C95  1  0.332150  0.522220  0.822880  1.0  0.1805
  C  C96  1  0.377750  0.581440  0.782860  1.0  -0.1688
  C  C97  1  0.306400  0.656120  0.800080  1.0  -0.0713
  C  C98  1  0.188650  0.675460  0.856840  1.0  -0.0754
  C  C99  1  0.139760  0.617970  0.895110  1.0  -0.151
  C  C100  1  0.211330  0.540640  0.878300  1.0  0.1531
  C  C101  1  0.038110  0.089130  0.601450  1.0  0.3978
  C  C102  1  0.091890  0.108180  0.657640  1.0  0.4218
  C  C103  1  0.177250  0.977780  0.677120  1.0  0.1794
  C  C104  1  0.242050  0.918560  0.717140  1.0  -0.173
  C  C105  1  0.262600  0.843880  0.699920  1.0  -0.0692
  C  C106  1  0.220950  0.824540  0.643160  1.0  -0.0728
  C  C107  1  0.152840  0.882030  0.604890  1.0  -0.1493
  C  C108  1  0.130270  0.959360  0.621700  1.0  0.1533
  N  N109  1  0.355490  0.583730  0.482830  1.0  -0.3617
  N  N110  1  0.147300  0.692410  0.446570  1.0  -0.4229
  N  N111  1  0.922050  0.916270  0.017170  1.0  -0.3634
  N  N112  1  0.786280  0.807590  0.053430  1.0  -0.4241
  N  N113  1  0.838320  0.517170  0.083730  1.0  -0.3612
  N  N114  1  0.593870  0.553430  0.192410  1.0  -0.4255
  N  N115  1  0.939220  0.982830  0.416270  1.0  -0.361
  N  N116  1  0.839710  0.946570  0.307590  1.0  -0.4248
  N  N117  1  0.644510  0.416270  0.517170  1.0  -0.3623
  N  N118  1  0.852700  0.307590  0.553430  1.0  -0.4236
  N  N119  1  0.077950  0.083730  0.982830  1.0  -0.3625
  N  N120  1  0.213720  0.192410  0.946570  1.0  -0.4254
  N  N121  1  0.161680  0.482830  0.916270  1.0  -0.3605
  N  N122  1  0.406130  0.446570  0.807590  1.0  -0.4259
  N  N123  1  0.060780  0.017170  0.583730  1.0  -0.3614
  N  N124  1  0.160290  0.053430  0.692410  1.0  -0.4218
  Cl  Cl125  1  0.596440  0.588000  0.507520  1.0  -0.4273
  Cl  Cl126  1  0.191960  0.912000  0.992480  1.0  -0.4278
  Cl  Cl127  1  0.103960  0.492480  0.088000  1.0  -0.4271
  Cl  Cl128  1  0.184440  0.007520  0.412000  1.0  -0.4263
  Cl  Cl129  1  0.403560  0.412000  0.492480  1.0  -0.4288
  Cl  Cl130  1  0.808040  0.088000  0.007520  1.0  -0.4284
  Cl  Cl131  1  0.896040  0.507520  0.912000  1.0  -0.4288
  Cl  Cl132  1  0.815560  0.992480  0.588000  1.0  -0.4275
  O  O133  1  0.457370  0.570130  0.354230  1.0  -0.502
  O  O134  1  0.259870  0.669300  0.320640  1.0  -0.5319
  O  O135  1  0.881730  0.929870  0.145770  1.0  -0.5019
  O  O136  1  0.749810  0.830700  0.179360  1.0  -0.5307
  O  O137  1  0.811600  0.645770  0.070130  1.0  -0.502
  O  O138  1  0.580510  0.679360  0.169300  1.0  -0.5319
  O  O139  1  0.027500  0.854230  0.429870  1.0  -0.5014
  O  O140  1  0.929170  0.820640  0.330700  1.0  -0.531
  O  O141  1  0.542630  0.429870  0.645770  1.0  -0.5024
  O  O142  1  0.740130  0.330700  0.679360  1.0  -0.5291
  O  O143  1  0.118270  0.070130  0.854230  1.0  -0.5007
  O  O144  1  0.250190  0.169300  0.820640  1.0  -0.5311
  O  O145  1  0.188400  0.354230  0.929870  1.0  -0.5007
  O  O146  1  0.419490  0.320640  0.830700  1.0  -0.531
  O  O147  1  0.972500  0.145770  0.570130  1.0  -0.5015
  O  O148  1  0.070830  0.179360  0.669300  1.0  -0.53
