# generated using pymatgen
data_Zr(CO2)2
_symmetry_space_group_name_H-M   'P 1'
_cell_length_a   7.52310000
_cell_length_b   9.80030000
_cell_length_c   9.80030000
_cell_angle_alpha   81.52850000
_cell_angle_beta   67.42960000
_cell_angle_gamma   67.42960000
_symmetry_Int_Tables_number   1
_chemical_formula_structural   Zr(CO2)2
_chemical_formula_sum   'Zr4 C8 O16'
_cell_volume   616.11733889
_cell_formula_units_Z   4
loop_
 _symmetry_equiv_pos_site_id
 _symmetry_equiv_pos_as_xyz
  1  'x, y, z'
loop_
 _atom_site_type_symbol
 _atom_site_label
 _atom_site_symmetry_multiplicity
 _atom_site_fract_x
 _atom_site_fract_y
 _atom_site_fract_z
 _atom_site_occupancy
 _atom_site_charge
  Zr  Zr1  1  0.195690  0.104890  0.503730  1.0  1.832
  Zr  Zr2  1  0.699420  0.496270  0.104890  1.0  1.8371
  Zr  Zr3  1  0.804310  0.895110  0.496270  1.0  1.8313
  Zr  Zr4  1  0.300580  0.503730  0.895110  1.0  1.8351
  C  C5  1  0.658100  0.205400  0.685600  1.0  0.5603
  C  C6  1  0.549100  0.794600  0.314400  1.0  0.542
  C  C7  1  0.863500  0.685600  0.794600  1.0  0.5606
  C  C8  1  0.343700  0.314400  0.205400  1.0  0.5601
  C  C9  1  0.656300  0.685600  0.794600  1.0  0.5614
  C  C10  1  0.341900  0.794600  0.314400  1.0  0.5595
  C  C11  1  0.450900  0.205400  0.685600  1.0  0.544
  C  C12  1  0.136500  0.314400  0.205400  1.0  0.5627
  O  O13  1  0.290800  0.300100  0.764300  1.0  -0.701
  O  O14  1  0.931400  0.606700  0.887500  1.0  -0.7515
  O  O15  1  0.590900  0.764300  0.699900  1.0  -0.7357
  O  O16  1  0.538100  0.887500  0.393300  1.0  -0.7484
  O  O17  1  0.425600  0.393300  0.112500  1.0  -0.7445
  O  O18  1  0.461900  0.112500  0.606700  1.0  -0.7504
  O  O19  1  0.068600  0.393300  0.112500  1.0  -0.7535
  O  O20  1  0.944900  0.764300  0.699900  1.0  -0.7295
  O  O21  1  0.055100  0.235700  0.300100  1.0  -0.7314
  O  O22  1  0.409100  0.235700  0.300100  1.0  -0.7335
  O  O23  1  0.709200  0.699900  0.235700  1.0  -0.6995
  O  O24  1  0.818900  0.112500  0.606700  1.0  -0.7529
  O  O25  1  0.181100  0.887500  0.393300  1.0  -0.7534
  O  O26  1  0.355200  0.699900  0.235700  1.0  -0.7287
  O  O27  1  0.574400  0.606700  0.887500  1.0  -0.7457
  O  O28  1  0.644800  0.300100  0.764300  1.0  -0.7266
