# generated using pymatgen
data_Zr(CO2)2
_symmetry_space_group_name_H-M   'P 1'
_cell_length_a   7.54000000
_cell_length_b   9.77940000
_cell_length_c   9.77940000
_cell_angle_alpha   81.45340000
_cell_angle_beta   67.32490000
_cell_angle_gamma   67.32490000
_symmetry_Int_Tables_number   1
_chemical_formula_structural   Zr(CO2)2
_chemical_formula_sum   'Zr4 C8 O16'
_cell_volume   613.93470531
_cell_formula_units_Z   4
loop_
 _symmetry_equiv_pos_site_id
 _symmetry_equiv_pos_as_xyz
  1  'x, y, z'
loop_
 _atom_site_type_symbol
 _atom_site_label
 _atom_site_symmetry_multiplicity
 _atom_site_fract_x
 _atom_site_fract_y
 _atom_site_fract_z
 _atom_site_occupancy
 _atom_site_charge
  Zr  Zr1  1  0.195220  0.505020  0.104540  1.0  1.8348
  Zr  Zr2  1  0.804780  0.494980  0.895460  1.0  1.8353
  Zr  Zr3  1  0.700240  0.104540  0.494980  1.0  1.8562
  Zr  Zr4  1  0.299760  0.895460  0.505020  1.0  1.8567
  C  C5  1  0.452100  0.688000  0.202800  1.0  0.5602
  C  C6  1  0.654900  0.797200  0.688000  1.0  0.5501
  C  C7  1  0.140100  0.202800  0.312000  1.0  0.5487
  C  C8  1  0.547900  0.312000  0.797200  1.0  0.5587
  C  C9  1  0.342900  0.312000  0.797200  1.0  0.5574
  C  C10  1  0.657100  0.688000  0.202800  1.0  0.5572
  C  C11  1  0.345100  0.202800  0.312000  1.0  0.5504
  C  C12  1  0.859900  0.797200  0.688000  1.0  0.5484
  O  O13  1  0.709600  0.231000  0.703800  1.0  -0.7163
  O  O14  1  0.586600  0.703800  0.769000  1.0  -0.7198
  O  O15  1  0.461600  0.606400  0.113200  1.0  -0.749
  O  O16  1  0.355600  0.231000  0.703800  1.0  -0.7329
  O  O17  1  0.413400  0.296200  0.231000  1.0  -0.7203
  O  O18  1  0.932000  0.886800  0.606400  1.0  -0.7629
  O  O19  1  0.068000  0.113200  0.393600  1.0  -0.7635
  O  O20  1  0.940600  0.703800  0.769000  1.0  -0.7203
  O  O21  1  0.059400  0.296200  0.231000  1.0  -0.7216
  O  O22  1  0.538400  0.393600  0.886800  1.0  -0.7466
  O  O23  1  0.290400  0.769000  0.296200  1.0  -0.7162
  O  O24  1  0.574800  0.886800  0.606400  1.0  -0.7528
  O  O25  1  0.181200  0.393600  0.886800  1.0  -0.7556
  O  O26  1  0.425200  0.113200  0.393600  1.0  -0.7493
  O  O27  1  0.818800  0.606400  0.113200  1.0  -0.7559
  O  O28  1  0.644400  0.769000  0.296200  1.0  -0.7313
