# generated using pymatgen
data_Zr(CO2)2
_symmetry_space_group_name_H-M   'P 1'
_cell_length_a   7.52700000
_cell_length_b   9.80160000
_cell_length_c   9.80160000
_cell_angle_alpha   81.52190000
_cell_angle_beta   67.42030000
_cell_angle_gamma   67.42030000
_symmetry_Int_Tables_number   1
_chemical_formula_structural   Zr(CO2)2
_chemical_formula_sum   'Zr4 C8 O16'
_cell_volume   616.51707253
_cell_formula_units_Z   4
loop_
 _symmetry_equiv_pos_site_id
 _symmetry_equiv_pos_as_xyz
  1  'x, y, z'
loop_
 _atom_site_type_symbol
 _atom_site_label
 _atom_site_symmetry_multiplicity
 _atom_site_fract_x
 _atom_site_fract_y
 _atom_site_fract_z
 _atom_site_occupancy
 _atom_site_charge
  Zr  Zr1  1  0.304410  0.894980  0.496200  1.0  1.8465
  Zr  Zr2  1  0.695590  0.105020  0.503800  1.0  1.8473
  Zr  Zr3  1  0.800610  0.503800  0.894980  1.0  1.8502
  Zr  Zr4  1  0.199380  0.496210  0.105020  1.0  1.8494
  C  C5  1  0.951120  0.205080  0.686200  1.0  0.5571
  C  C6  1  0.157600  0.205080  0.686200  1.0  0.5539
  C  C7  1  0.362680  0.686200  0.794920  1.0  0.5422
  C  C8  1  0.156200  0.686200  0.794920  1.0  0.5488
  C  C9  1  0.637320  0.313800  0.205080  1.0  0.5399
  C  C10  1  0.843800  0.313800  0.205080  1.0  0.5485
  C  C11  1  0.842400  0.794920  0.313800  1.0  0.5554
  C  C12  1  0.048880  0.794920  0.313800  1.0  0.5547
  O  O13  1  0.910000  0.235480  0.300320  1.0  -0.7287
  O  O14  1  0.210320  0.699680  0.235480  1.0  -0.7277
  O  O15  1  0.073590  0.606400  0.887840  1.0  -0.7579
  O  O16  1  0.854520  0.699680  0.235480  1.0  -0.7287
  O  O17  1  0.090000  0.764520  0.699680  1.0  -0.7299
  O  O18  1  0.145480  0.300320  0.764520  1.0  -0.7267
  O  O19  1  0.038570  0.887840  0.393600  1.0  -0.7541
  O  O20  1  0.789680  0.300320  0.764520  1.0  -0.7279
  O  O21  1  0.320010  0.112160  0.606400  1.0  -0.7526
  O  O22  1  0.445800  0.764520  0.699680  1.0  -0.6957
  O  O23  1  0.554200  0.235480  0.300320  1.0  -0.6979
  O  O24  1  0.432170  0.606400  0.887840  1.0  -0.7506
  O  O25  1  0.926410  0.393600  0.112160  1.0  -0.757
  O  O26  1  0.961430  0.112160  0.606400  1.0  -0.7549
  O  O27  1  0.567830  0.393600  0.112160  1.0  -0.7517
  O  O28  1  0.679990  0.887840  0.393600  1.0  -0.7518
