# generated using pymatgen
data_CuH4C9NO5
_symmetry_space_group_name_H-M   'P 1'
_cell_length_a   18.66270000
_cell_length_b   27.91610000
_cell_length_c   32.36430000
_cell_angle_alpha   112.65500000
_cell_angle_beta   90.00000000
_cell_angle_gamma   90.00000000
_symmetry_Int_Tables_number   1
_chemical_formula_structural   CuH4C9NO5
_chemical_formula_sum   'Cu24 H96 C216 N24 O120'
_cell_volume   15560.45421634
_cell_formula_units_Z   24
loop_
 _symmetry_equiv_pos_site_id
 _symmetry_equiv_pos_as_xyz
  1  'x, y, z'
loop_
 _atom_site_type_symbol
 _atom_site_label
 _atom_site_symmetry_multiplicity
 _atom_site_fract_x
 _atom_site_fract_y
 _atom_site_fract_z
 _atom_site_occupancy
 _atom_site_charge
  Cu  Cu1  1  0.992850  0.712840  0.695240  1.0  0.9136
  Cu  Cu2  1  0.814110  0.790260  0.995140  1.0  0.9176
  Cu  Cu3  1  0.755410  0.705270  0.490400  1.0  0.9096
  Cu  Cu4  1  0.492850  0.287160  0.804760  1.0  0.9149
  Cu  Cu5  1  0.809130  0.296990  0.531830  1.0  0.9434
  Cu  Cu6  1  0.501970  0.798240  0.269590  1.0  0.894
  Cu  Cu7  1  0.190870  0.703010  0.468170  1.0  0.9468
  Cu  Cu8  1  0.244590  0.294730  0.509600  1.0  0.9107
  Cu  Cu9  1  0.744590  0.705270  0.990400  1.0  0.9104
  Cu  Cu10  1  0.761680  0.210370  0.025260  1.0  0.9656
  Cu  Cu11  1  0.738320  0.210370  0.525260  1.0  0.9659
  Cu  Cu12  1  0.309130  0.703010  0.968170  1.0  0.9461
  Cu  Cu13  1  0.185890  0.209740  0.004860  1.0  0.9172
  Cu  Cu14  1  0.507150  0.712840  0.195240  1.0  0.9134
  Cu  Cu15  1  0.001970  0.201760  0.230410  1.0  0.9013
  Cu  Cu16  1  0.998030  0.798240  0.769590  1.0  0.9018
  Cu  Cu17  1  0.238320  0.789630  0.974740  1.0  0.9646
  Cu  Cu18  1  0.255410  0.294730  0.009600  1.0  0.9108
  Cu  Cu19  1  0.314110  0.209740  0.504860  1.0  0.9101
  Cu  Cu20  1  0.261680  0.789630  0.474740  1.0  0.9642
  Cu  Cu21  1  0.498030  0.201760  0.730410  1.0  0.893
  Cu  Cu22  1  0.690870  0.296990  0.031830  1.0  0.9442
  Cu  Cu23  1  0.007150  0.287160  0.304760  1.0  0.9145
  Cu  Cu24  1  0.685890  0.790260  0.495140  1.0  0.9127
  H  H25  1  0.640100  0.388800  0.512000  1.0  0.1186
  H  H26  1  0.971900  0.748000  0.467300  1.0  0.1158
  H  H27  1  0.139500  0.380000  0.260000  1.0  0.1145
  H  H28  1  0.793300  0.547400  0.737300  1.0  0.2345
  H  H29  1  0.527400  0.261000  0.506100  1.0  0.114
  H  H30  1  0.253800  0.558100  0.213100  1.0  0.2194
  H  H31  1  0.171500  0.244000  0.374600  1.0  0.1162
  H  H32  1  0.735300  0.051400  0.320100  1.0  0.2275
  H  H33  1  0.193500  0.054400  0.796200  1.0  0.2614
  H  H34  1  0.246400  0.879400  0.612000  1.0  0.1154
  H  H35  1  0.922600  0.616100  0.003900  1.0  0.1147
  H  H36  1  0.972600  0.261000  0.006100  1.0  0.114
  H  H37  1  0.206700  0.452600  0.262700  1.0  0.2338
  H  H38  1  0.923600  0.124300  0.533200  1.0  0.1231
  H  H39  1  0.859300  0.876900  0.480600  1.0  0.1195
  H  H40  1  0.297300  0.121600  0.364200  1.0  0.1157
  H  H41  1  0.673400  0.884200  0.240800  1.0  0.1137
  H  H42  1  0.216100  0.624400  0.326200  1.0  0.1249
  H  H43  1  0.702700  0.878400  0.635800  1.0  0.1163
  H  H44  1  0.634900  0.747100  0.355500  1.0  0.1095
  H  H45  1  0.235300  0.948600  0.179900  1.0  0.228
  H  H46  1  0.328500  0.244000  0.874600  1.0  0.1162
  H  H47  1  0.753800  0.441900  0.286900  1.0  0.2192
  H  H48  1  0.873200  0.242600  0.391800  1.0  0.1184
  H  H49  1  0.753600  0.120600  0.388000  1.0  0.1162
  H  H50  1  0.471900  0.252000  0.032700  1.0  0.1162
  H  H51  1  0.926900  0.946300  0.465100  1.0  0.1893
  H  H52  1  0.246200  0.558100  0.713100  1.0  0.2191
  H  H53  1  0.576400  0.124300  0.033200  1.0  0.1214
  H  H54  1  0.073100  0.053700  0.534900  1.0  0.1886
  H  H55  1  0.134900  0.252900  0.144500  1.0  0.1096
  H  H56  1  0.806500  0.945600  0.203800  1.0  0.261
  H  H57  1  0.640700  0.876900  0.980600  1.0  0.1192
  H  H58  1  0.831900  0.371400  0.278500  1.0  0.1075
  H  H59  1  0.645000  0.115700  0.775500  1.0  0.1211
  H  H60  1  0.266100  0.383600  0.648400  1.0  0.1163
  H  H61  1  0.359300  0.123100  0.019400  1.0  0.1194
  H  H62  1  0.419000  0.542000  0.492200  1.0  0.236
  H  H63  1  0.028100  0.252000  0.532700  1.0  0.1162
  H  H64  1  0.081000  0.542000  0.992200  1.0  0.2367
  H  H65  1  0.472600  0.739000  0.493900  1.0  0.1142
  H  H66  1  0.746400  0.120600  0.888000  1.0  0.1157
  H  H67  1  0.253600  0.879400  0.112000  1.0  0.1158
  H  H68  1  0.341500  0.750200  0.342000  1.0  0.1006
  H  H69  1  0.716100  0.375600  0.173800  1.0  0.1252
  H  H70  1  0.746200  0.441900  0.786900  1.0  0.2193
  H  H71  1  0.639500  0.620000  0.240000  1.0  0.1144
  H  H72  1  0.668100  0.371400  0.778500  1.0  0.1074
  H  H73  1  0.528100  0.748000  0.967300  1.0  0.1158
  H  H74  1  0.693500  0.945600  0.703800  1.0  0.2621
  H  H75  1  0.841500  0.249800  0.158000  1.0  0.1007
  H  H76  1  0.423600  0.875700  0.966800  1.0  0.1228
  H  H77  1  0.733900  0.616400  0.351600  1.0  0.1178
  H  H78  1  0.626800  0.242600  0.891800  1.0  0.1178
  H  H79  1  0.828500  0.756000  0.625400  1.0  0.1163
  H  H80  1  0.145000  0.884300  0.724500  1.0  0.1213
  H  H81  1  0.373200  0.757400  0.108200  1.0  0.1182
  H  H82  1  0.202700  0.121600  0.864200  1.0  0.1159
  H  H83  1  0.233900  0.383600  0.148400  1.0  0.1161
  H  H84  1  0.865100  0.747100  0.855500  1.0  0.1095
  H  H85  1  0.027400  0.739000  0.993900  1.0  0.1142
  H  H86  1  0.365100  0.252900  0.644500  1.0  0.1098
  H  H87  1  0.573100  0.946300  0.965100  1.0  0.1887
  H  H88  1  0.671500  0.756000  0.125400  1.0  0.1162
  H  H89  1  0.140100  0.611200  0.988000  1.0  0.1185
  H  H90  1  0.264700  0.948600  0.679900  1.0  0.2271
  H  H91  1  0.359900  0.611200  0.488000  1.0  0.1187
  H  H92  1  0.422600  0.383900  0.496100  1.0  0.115
  H  H93  1  0.826600  0.884200  0.740800  1.0  0.1137
  H  H94  1  0.581000  0.458000  0.507800  1.0  0.2371
  H  H95  1  0.283900  0.624400  0.826200  1.0  0.1248
  H  H96  1  0.077400  0.383900  0.996100  1.0  0.1153
  H  H97  1  0.859900  0.388800  0.012000  1.0  0.1188
  H  H98  1  0.797300  0.878400  0.135800  1.0  0.1157
  H  H99  1  0.766100  0.616400  0.851600  1.0  0.1164
  H  H100  1  0.860500  0.620000  0.740000  1.0  0.1147
  H  H101  1  0.293300  0.452600  0.762700  1.0  0.2346
  H  H102  1  0.577400  0.616100  0.503900  1.0  0.1138
  H  H103  1  0.140700  0.123100  0.519400  1.0  0.1186
  H  H104  1  0.158500  0.750200  0.842000  1.0  0.1006
  H  H105  1  0.855000  0.115700  0.275500  1.0  0.1209
  H  H106  1  0.355000  0.884300  0.224500  1.0  0.1207
  H  H107  1  0.706700  0.547400  0.237300  1.0  0.2343
  H  H108  1  0.331900  0.628600  0.221500  1.0  0.1068
  H  H109  1  0.783900  0.375600  0.673800  1.0  0.125
  H  H110  1  0.658500  0.249800  0.658000  1.0  0.1006
  H  H111  1  0.764700  0.051400  0.820100  1.0  0.2276
  H  H112  1  0.076400  0.875700  0.466800  1.0  0.1229
  H  H113  1  0.306500  0.054400  0.296200  1.0  0.2603
  H  H114  1  0.326600  0.115800  0.759200  1.0  0.112
  H  H115  1  0.426900  0.053700  0.034900  1.0  0.1898
  H  H116  1  0.360500  0.380000  0.760000  1.0  0.1149
  H  H117  1  0.173400  0.115800  0.259200  1.0  0.1131
  H  H118  1  0.168100  0.628600  0.721500  1.0  0.107
  H  H119  1  0.126800  0.757400  0.608200  1.0  0.1179
  H  H120  1  0.919000  0.458000  0.007800  1.0  0.2352
  C  C121  1  0.256300  0.213500  0.425250  1.0  0.6751
  C  C122  1  0.650500  0.636800  0.271000  1.0  -0.0927
  C  C123  1  0.244700  0.714100  0.889200  1.0  0.6864
  C  C124  1  0.033200  0.319000  0.000000  1.0  -0.123
  C  C125  1  0.603900  0.708100  0.501240  1.0  0.6753
  C  C126  1  0.012900  0.974200  0.500600  1.0  0.4768
  C  C127  1  0.222300  0.692400  0.841700  1.0  -0.1314
  C  C128  1  0.156600  0.866700  0.693730  1.0  -0.0609
  C  C129  1  0.349500  0.363200  0.729000  1.0  -0.0943
  C  C130  1  0.186100  0.389800  0.207700  1.0  0.1877
  C  C131  1  0.970800  0.294700  0.005400  1.0  0.0172
  C  C132  1  0.971300  0.782900  0.469300  1.0  0.0215
  C  C133  1  0.313900  0.389800  0.707700  1.0  0.1887
  C  C134  1  0.394900  0.782100  0.963390  1.0  0.6791
  C  C135  1  0.250200  0.641600  0.814700  1.0  -0.051
  C  C136  1  0.896100  0.708100  0.001240  1.0  0.6734
  C  C137  1  0.664500  0.817200  0.186530  1.0  -0.1446
  C  C138  1  0.298500  0.889900  0.171800  1.0  0.2323
  C  C139  1  0.198000  0.290000  0.089960  1.0  0.686
  C  C140  1  0.205800  0.365800  0.162500  1.0  -0.0661
  C  C141  1  0.162100  0.703000  0.982300  1.0  0.6657
  C  C142  1  0.966700  0.884000  0.473100  1.0  0.2209
  C  C143  1  0.348400  0.693200  0.279440  1.0  -0.1987
  C  C144  1  0.656600  0.133300  0.806270  1.0  -0.0605
  C  C145  1  0.404100  0.629200  0.491300  1.0  -0.1355
  C  C146  1  0.263000  0.531800  0.755600  1.0  0.5695
  C  C147  1  0.512900  0.025800  0.999400  1.0  0.4751
  C  C148  1  0.467100  0.606700  0.497400  1.0  0.1023
  C  C149  1  0.309700  0.134100  0.788800  1.0  -0.0395
  C  C150  1  0.651600  0.306800  0.720560  1.0  -0.1997
  C  C151  1  0.335500  0.182800  0.813470  1.0  -0.1443
  C  C152  1  0.824500  0.283500  0.176170  1.0  0.0089
  C  C153  1  0.087200  0.285800  0.230070  1.0  0.7041
  C  C154  1  0.735700  0.813600  0.123840  1.0  -0.1365
  C  C155  1  0.894900  0.217900  0.536610  1.0  0.6791
  C  C156  1  0.343400  0.866700  0.193730  1.0  -0.0601
  C  C157  1  0.317500  0.314800  0.638800  1.0  -0.1421
  C  C158  1  0.717200  0.136600  0.872900  1.0  -0.1295
  C  C159  1  0.470800  0.705300  0.494600  1.0  0.0162
  C  C160  1  0.752000  0.975000  0.754800  1.0  0.4626
  C  C161  1  0.466800  0.319000  0.500000  1.0  -0.1245
  C  C162  1  0.849500  0.636800  0.771000  1.0  -0.0931
  C  C163  1  0.607100  0.793500  0.204470  1.0  0.6824
  C  C164  1  0.338600  0.215400  0.019600  1.0  0.6699
  C  C165  1  0.813900  0.610200  0.792300  1.0  0.1889
  C  C166  1  0.220200  0.477900  0.218000  1.0  0.5568
  C  C167  1  0.533200  0.681000  0.500000  1.0  -0.1242
  C  C168  1  0.396100  0.291900  0.498760  1.0  0.6735
  C  C169  1  0.252000  0.025000  0.745200  1.0  0.4617
  C  C170  1  0.466200  0.367800  0.499100  1.0  -0.0735
  C  C171  1  0.028700  0.217100  0.530700  1.0  0.0209
  C  C172  1  0.743700  0.786500  0.574750  1.0  0.6748
  C  C173  1  0.688300  0.790200  0.142280  1.0  0.0206
  C  C174  1  0.720200  0.522100  0.282000  1.0  0.5553
  C  C175  1  0.275700  0.618500  0.269800  1.0  0.1902
  C  C176  1  0.904100  0.370800  0.008700  1.0  -0.1348
  C  C177  1  0.529200  0.294700  0.505400  1.0  0.0172
  C  C178  1  0.130300  0.312300  0.206100  1.0  -0.1697
  C  C179  1  0.808900  0.186100  0.395970  1.0  -0.1481
  C  C180  1  0.775700  0.381500  0.230200  1.0  0.189
  C  C181  1  0.033200  0.858600  0.468600  1.0  -0.0426
  C  C182  1  0.487100  0.974200  0.000600  1.0  0.4757
  C  C183  1  0.319700  0.643800  0.252330  1.0  -0.1082
  C  C184  1  0.033800  0.367800  0.999100  1.0  -0.0732
  C  C185  1  0.241300  0.111500  0.307200  1.0  0.2571
  C  C186  1  0.107100  0.206500  0.295530  1.0  0.6822
  C  C187  1  0.755300  0.285900  0.110800  1.0  0.6865
  C  C188  1  0.596000  0.859500  0.976800  1.0  -0.1303
  C  C189  1  0.848400  0.306800  0.220560  1.0  -0.199
  C  C190  1  0.533300  0.884000  0.973100  1.0  0.22
  C  C191  1  0.533200  0.141400  0.031400  1.0  -0.0442
  C  C192  1  0.255300  0.714100  0.389200  1.0  0.6869
  C  C193  1  0.352400  0.288200  0.660530  1.0  0.021
  C  C194  1  0.758700  0.888500  0.692800  1.0  0.2571
  C  C195  1  0.819700  0.356200  0.247670  1.0  -0.1075
  C  C196  1  0.175500  0.716500  0.823830  1.0  0.008
  C  C197  1  0.188300  0.209800  0.357720  1.0  0.02
  C  C198  1  0.528700  0.782900  0.969300  1.0  0.0215
  C  C199  1  0.794200  0.634200  0.837500  1.0  -0.0659
  C  C200  1  0.032900  0.606700  0.997400  1.0  0.1017
  C  C201  1  0.966800  0.681000  0.000000  1.0  -0.1241
  C  C202  1  0.802000  0.710000  0.910040  1.0  0.6859
  C  C203  1  0.777700  0.307600  0.158300  1.0  -0.1307
  C  C204  1  0.369700  0.312300  0.706100  1.0  -0.1693
  C  C205  1  0.870300  0.182500  0.330590  1.0  -0.1322
  C  C206  1  0.988100  0.526500  0.001500  1.0  0.4003
  C  C207  1  0.647600  0.711800  0.339470  1.0  0.0184
  C  C208  1  0.353800  0.790900  0.124470  1.0  -0.0016
  C  C209  1  0.079300  0.793100  0.692420  1.0  0.7033
  C  C210  1  0.763500  0.862800  0.148800  1.0  -0.1006
  C  C211  1  0.103900  0.291900  0.998760  1.0  0.6733
  C  C212  1  0.277700  0.692400  0.341700  1.0  -0.1308
  C  C213  1  0.466800  0.858600  0.968600  1.0  -0.0436
  C  C214  1  0.906200  0.320200  0.009800  1.0  -0.1418
  C  C215  1  0.835500  0.817200  0.686530  1.0  -0.1441
  C  C216  1  0.646200  0.209100  0.875530  1.0  -0.0024
  C  C217  1  0.756300  0.786500  0.074750  1.0  0.6748
  C  C218  1  0.792400  0.212800  0.445280  1.0  0.6823
  C  C219  1  0.798500  0.110100  0.328200  1.0  0.2324
  C  C220  1  0.852400  0.711800  0.839470  1.0  0.0199
  C  C221  1  0.407500  0.190300  0.025100  1.0  -0.1327
  C  C222  1  0.294200  0.365800  0.662500  1.0  -0.0653
  C  C223  1  0.817500  0.685200  0.861200  1.0  -0.1412
  C  C224  1  0.093800  0.679800  0.990200  1.0  -0.1412
  C  C225  1  0.412800  0.285800  0.730070  1.0  0.7045
  C  C226  1  0.292400  0.787200  0.054720  1.0  0.6823
  C  C227  1  0.902800  0.281540  0.238400  1.0  0.6932
  C  C228  1  0.235700  0.186400  0.376160  1.0  -0.1368
  C  C229  1  0.912800  0.714200  0.769930  1.0  0.7043
  C  C230  1  0.809700  0.865900  0.711200  1.0  -0.0405
  C  C231  1  0.675500  0.283500  0.676170  1.0  0.0085
  C  C232  1  0.595900  0.370800  0.508700  1.0  -0.134
  C  C233  1  0.782800  0.136600  0.372900  1.0  -0.1271
  C  C234  1  0.698000  0.710000  0.410040  1.0  0.686
  C  C235  1  0.737000  0.468200  0.244400  1.0  0.5718
  C  C236  1  0.279800  0.477900  0.718000  1.0  0.5569
  C  C237  1  0.151600  0.693200  0.779440  1.0  -0.1994
  C  C238  1  0.324500  0.716500  0.323830  1.0  0.0083
  C  C239  1  0.191100  0.813900  0.604030  1.0  -0.1484
  C  C240  1  0.201500  0.889900  0.671800  1.0  0.2327
  C  C241  1  0.263500  0.137200  0.351200  1.0  -0.0998
  C  C242  1  0.736500  0.862800  0.648800  1.0  -0.1004
  C  C243  1  0.750200  0.358400  0.685300  1.0  -0.0886
  C  C244  1  0.471300  0.217100  0.030700  1.0  0.0209
  C  C245  1  0.236500  0.137200  0.851200  1.0  -0.1003
  C  C246  1  0.370300  0.817500  0.169410  1.0  -0.132
  C  C247  1  0.243700  0.213500  0.925250  1.0  0.6748
  C  C248  1  0.741300  0.888500  0.192800  1.0  0.2576
  C  C249  1  0.420700  0.793100  0.192420  1.0  0.7027
  C  C250  1  0.701500  0.110100  0.828200  1.0  0.233
  C  C251  1  0.488100  0.473500  0.498500  1.0  0.401
  C  C252  1  0.838600  0.784600  0.480400  1.0  0.6699
  C  C253  1  0.843400  0.133300  0.306270  1.0  -0.0602
  C  C254  1  0.763000  0.468200  0.744400  1.0  0.5731
  C  C255  1  0.392900  0.206500  0.795530  1.0  0.6824
  C  C256  1  0.146200  0.790900  0.624470  1.0  -0.0031
  C  C257  1  0.402800  0.718460  0.261600  1.0  0.6934
  C  C258  1  0.532900  0.393300  0.502600  1.0  0.1018
  C  C259  1  0.097200  0.718460  0.761600  1.0  0.6935
  C  C260  1  0.511900  0.526500  0.501500  1.0  0.4029
  C  C261  1  0.967100  0.393300  0.002600  1.0  0.1023
  C  C262  1  0.308900  0.813900  0.104030  1.0  -0.1491
  C  C263  1  0.722300  0.307600  0.658300  1.0  -0.1307
  C  C264  1  0.920700  0.206900  0.307580  1.0  0.7026
  C  C265  1  0.092500  0.190300  0.525100  1.0  -0.1334
  C  C266  1  0.208300  0.975900  0.731400  1.0  0.5221
  C  C267  1  0.662100  0.297000  0.517700  1.0  0.6645
  C  C268  1  0.690300  0.865900  0.211200  1.0  -0.0432
  C  C269  1  0.691100  0.186100  0.895970  1.0  -0.1485
  C  C270  1  0.907500  0.809700  0.474900  1.0  -0.1325
  C  C271  1  0.579300  0.206900  0.807580  1.0  0.7033
  C  C272  1  0.791700  0.024100  0.268600  1.0  0.5231
  C  C273  1  0.248000  0.025000  0.245200  1.0  0.459
  C  C274  1  0.587200  0.714200  0.269930  1.0  0.7036
  C  C275  1  0.592500  0.809700  0.974900  1.0  -0.133
  C  C276  1  0.748000  0.975000  0.254800  1.0  0.4604
  C  C277  1  0.302000  0.290000  0.589960  1.0  0.6859
  C  C278  1  0.597200  0.281540  0.738400  1.0  0.6934
  C  C279  1  0.708300  0.024100  0.768600  1.0  0.5226
  C  C280  1  0.661400  0.784600  0.980400  1.0  0.67
  C  C281  1  0.465800  0.807700  0.966800  1.0  -0.1386
  C  C282  1  0.258700  0.111500  0.807200  1.0  0.257
  C  C283  1  0.686100  0.610200  0.292300  1.0  0.188
  C  C284  1  0.095900  0.629200  0.991300  1.0  -0.1366
  C  C285  1  0.764300  0.813600  0.623840  1.0  -0.1372
  C  C286  1  0.406200  0.679800  0.490200  1.0  -0.142
  C  C287  1  0.987100  0.025800  0.499400  1.0  0.4757
  C  C288  1  0.705800  0.634200  0.337500  1.0  -0.0666
  C  C289  1  0.029200  0.705300  0.994600  1.0  0.0162
  C  C290  1  0.129700  0.817500  0.669410  1.0  -0.132
  C  C291  1  0.264300  0.186400  0.876160  1.0  -0.1363
  C  C292  1  0.853800  0.209100  0.375530  1.0  -0.0024
  C  C293  1  0.533800  0.632200  0.500900  1.0  -0.073
  C  C294  1  0.404000  0.140500  0.023200  1.0  -0.1307
  C  C295  1  0.837900  0.297000  0.017700  1.0  0.6644
  C  C296  1  0.282800  0.863400  0.127100  1.0  -0.128
  C  C297  1  0.534200  0.192300  0.033200  1.0  -0.1379
  C  C298  1  0.869700  0.687700  0.793900  1.0  -0.1692
  C  C299  1  0.096000  0.140500  0.523200  1.0  -0.1285
  C  C300  1  0.105100  0.782100  0.463390  1.0  0.6798
  C  C301  1  0.682500  0.685200  0.361200  1.0  -0.1423
  C  C302  1  0.033300  0.116000  0.526900  1.0  0.2214
  C  C303  1  0.629700  0.182500  0.830590  1.0  -0.1321
  C  C304  1  0.291700  0.975900  0.231400  1.0  0.5236
  C  C305  1  0.630300  0.687700  0.293900  1.0  -0.1697
  C  C306  1  0.311700  0.209800  0.857720  1.0  0.0209
  C  C307  1  0.892900  0.793500  0.704470  1.0  0.6827
  C  C308  1  0.966200  0.632200  0.000900  1.0  -0.0731
  C  C309  1  0.147600  0.288200  0.160530  1.0  0.0195
  C  C310  1  0.965800  0.192300  0.533200  1.0  -0.1404
  C  C311  1  0.593800  0.320200  0.509800  1.0  -0.141
  C  C312  1  0.680300  0.356200  0.747670  1.0  -0.1072
  C  C313  1  0.749800  0.358400  0.185300  1.0  -0.0514
  C  C314  1  0.724300  0.381500  0.730200  1.0  0.1897
  C  C315  1  0.190300  0.134100  0.288800  1.0  -0.0413
  C  C316  1  0.249800  0.641600  0.314700  1.0  -0.09
  C  C317  1  0.180300  0.643800  0.752330  1.0  -0.1068
  C  C318  1  0.904000  0.859500  0.476800  1.0  -0.1324
  C  C319  1  0.217200  0.863400  0.627100  1.0  -0.1274
  C  C320  1  0.337900  0.703000  0.482300  1.0  0.6648
  C  C321  1  0.161400  0.215400  0.519600  1.0  0.6705
  C  C322  1  0.150500  0.363200  0.229000  1.0  -0.0949
  C  C323  1  0.034200  0.807700  0.466800  1.0  -0.1401
  C  C324  1  0.605100  0.217900  0.036610  1.0  0.6804
  C  C325  1  0.011900  0.473500  0.998500  1.0  0.4036
  C  C326  1  0.164500  0.182800  0.313470  1.0  -0.1447
  C  C327  1  0.744700  0.285900  0.610800  1.0  0.6861
  C  C328  1  0.466700  0.116000  0.026900  1.0  0.2221
  C  C329  1  0.207600  0.787200  0.554720  1.0  0.6833
  C  C330  1  0.779800  0.522100  0.782000  1.0  0.5553
  C  C331  1  0.237000  0.531800  0.255600  1.0  0.5692
  C  C332  1  0.224300  0.618500  0.769800  1.0  0.1909
  C  C333  1  0.966800  0.141400  0.531400  1.0  -0.0429
  C  C334  1  0.707600  0.212800  0.945280  1.0  0.6821
  C  C335  1  0.811700  0.790200  0.642280  1.0  0.0214
  C  C336  1  0.182500  0.314800  0.138800  1.0  -0.1427
  N  N337  1  0.731100  0.937600  0.716300  1.0  -0.3353
  N  N338  1  0.254400  0.566300  0.242180  1.0  -0.3681
  N  N339  1  0.705200  0.557000  0.266600  1.0  -0.4038
  N  N340  1  0.536800  0.936900  0.977700  1.0  -0.4206
  N  N341  1  0.036800  0.063100  0.522300  1.0  -0.4198
  N  N342  1  0.962300  0.444400  0.003400  1.0  -0.3465
  N  N343  1  0.268900  0.062400  0.283700  1.0  -0.3339
  N  N344  1  0.462300  0.555600  0.496600  1.0  -0.3448
  N  N345  1  0.245600  0.566300  0.742180  1.0  -0.3713
  N  N346  1  0.271000  0.940100  0.193500  1.0  -0.2971
  N  N347  1  0.771000  0.059900  0.306500  1.0  -0.2959
  N  N348  1  0.729000  0.059900  0.806500  1.0  -0.2974
  N  N349  1  0.294800  0.443000  0.733400  1.0  -0.4046
  N  N350  1  0.229000  0.940100  0.693500  1.0  -0.297
  N  N351  1  0.745600  0.433700  0.757820  1.0  -0.3713
  N  N352  1  0.794800  0.557000  0.766600  1.0  -0.4031
  N  N353  1  0.205200  0.443000  0.233400  1.0  -0.4059
  N  N354  1  0.037700  0.555600  0.996600  1.0  -0.342
  N  N355  1  0.768900  0.937600  0.216300  1.0  -0.3352
  N  N356  1  0.754400  0.433700  0.257820  1.0  -0.3691
  N  N357  1  0.463200  0.063100  0.022300  1.0  -0.4202
  N  N358  1  0.231100  0.062400  0.783700  1.0  -0.3382
  N  N359  1  0.537700  0.444400  0.503400  1.0  -0.343
  N  N360  1  0.963200  0.936900  0.477700  1.0  -0.4206
  O  O361  1  0.160100  0.317260  0.999270  1.0  -0.5711
  O  O362  1  0.179800  0.743940  0.533590  1.0  -0.5773
  O  O363  1  0.841700  0.739020  0.478920  1.0  -0.564
  O  O364  1  0.160500  0.808750  0.467100  1.0  -0.6073
  O  O365  1  0.730900  0.682840  0.427200  1.0  -0.5803
  O  O366  1  0.839500  0.191250  0.532900  1.0  -0.6069
  O  O367  1  0.417500  0.179690  0.757510  1.0  -0.5721
  O  O368  1  0.204800  0.186900  0.941680  1.0  -0.5816
  O  O369  1  0.822000  0.755650  0.929640  1.0  -0.5711
  O  O370  1  0.943700  0.250750  0.329980  1.0  -0.5657
  O  O371  1  0.779100  0.312810  0.595780  1.0  -0.5992
  O  O372  1  0.717900  0.322300  0.520720  1.0  -0.564
  O  O373  1  0.254700  0.812930  0.037580  1.0  -0.5844
  O  O374  1  0.659800  0.026800  0.746400  1.0  -0.4392
  O  O375  1  0.069200  0.967800  0.513800  1.0  -0.4398
  O  O376  1  0.082500  0.179690  0.257510  1.0  -0.5729
  O  O377  1  0.678000  0.755650  0.429640  1.0  -0.571
  O  O378  1  0.731100  0.742990  0.054210  1.0  -0.5556
  O  O379  1  0.778700  0.526200  0.819600  1.0  -0.4302
  O  O380  1  0.073200  0.462500  0.993500  1.0  -0.4087
  O  O381  1  0.923200  0.237020  0.213680  1.0  -0.5715
  O  O382  1  0.271800  0.536900  0.794400  1.0  -0.4903
  O  O383  1  0.820200  0.256060  0.466410  1.0  -0.5774
  O  O384  1  0.658300  0.739020  0.978920  1.0  -0.5632
  O  O385  1  0.064600  0.819620  0.733030  1.0  -0.5884
  O  O386  1  0.341700  0.260980  0.021080  1.0  -0.5632
  O  O387  1  0.569700  0.760790  0.293040  1.0  -0.5814
  O  O388  1  0.768900  0.742990  0.554210  1.0  -0.556
  O  O389  1  0.574600  0.307310  0.777270  1.0  -0.5793
  O  O390  1  0.425400  0.692690  0.222730  1.0  -0.5794
  O  O391  1  0.269100  0.317160  0.572800  1.0  -0.5795
  O  O392  1  0.217700  0.187580  0.513090  1.0  -0.5822
  O  O393  1  0.925400  0.307310  0.277270  1.0  -0.5798
  O  O394  1  0.074600  0.692690  0.722730  1.0  -0.5791
  O  O395  1  0.917500  0.820310  0.742490  1.0  -0.5728
  O  O396  1  0.340200  0.973200  0.253600  1.0  -0.4385
  O  O397  1  0.935400  0.180380  0.266970  1.0  -0.5893
  O  O398  1  0.771800  0.463100  0.705600  1.0  -0.4856
  O  O399  1  0.705200  0.969400  0.278600  1.0  -0.4069
  O  O400  1  0.721300  0.526200  0.319600  1.0  -0.4305
  O  O401  1  0.268900  0.257010  0.945790  1.0  -0.5562
  O  O402  1  0.224500  0.761040  0.910750  1.0  -0.5875
  O  O403  1  0.930300  0.688400  0.731010  1.0  -0.5679
  O  O404  1  0.679800  0.256060  0.966410  1.0  -0.5773
  O  O405  1  0.899200  0.753030  0.000980  1.0  -0.5779
  O  O406  1  0.088300  0.252490  0.318910  1.0  -0.5827
  O  O407  1  0.103900  0.734930  0.459910  1.0  -0.5881
  O  O408  1  0.343000  0.747400  0.480980  1.0  -0.5811
  O  O409  1  0.322000  0.244350  0.570360  1.0  -0.5713
  O  O410  1  0.245300  0.812930  0.537580  1.0  -0.5848
  O  O411  1  0.339900  0.317260  0.499270  1.0  -0.5709
  O  O412  1  0.896100  0.265070  0.540090  1.0  -0.5874
  O  O413  1  0.399200  0.246970  0.499020  1.0  -0.5785
  O  O414  1  0.843000  0.252600  0.019020  1.0  -0.5824
  O  O415  1  0.100800  0.246970  0.999020  1.0  -0.5781
  O  O416  1  0.782100  0.322300  0.020720  1.0  -0.5637
  O  O417  1  0.069700  0.239210  0.206960  1.0  -0.5812
  O  O418  1  0.205200  0.030600  0.221400  1.0  -0.4085
  O  O419  1  0.339500  0.808750  0.967100  1.0  -0.6066
  O  O420  1  0.430800  0.967800  0.013800  1.0  -0.4403
  O  O421  1  0.159800  0.973200  0.753600  1.0  -0.4405
  O  O422  1  0.603900  0.265070  0.040090  1.0  -0.5879
  O  O423  1  0.657000  0.252600  0.519020  1.0  -0.5818
  O  O424  1  0.775500  0.238960  0.089250  1.0  -0.5879
  O  O425  1  0.275500  0.761040  0.410750  1.0  -0.5877
  O  O426  1  0.769100  0.682840  0.927200  1.0  -0.5794
  O  O427  1  0.930300  0.760790  0.793040  1.0  -0.5815
  O  O428  1  0.660100  0.682740  0.500730  1.0  -0.5712
  O  O429  1  0.911700  0.747510  0.681090  1.0  -0.5827
  O  O430  1  0.056300  0.749250  0.670020  1.0  -0.5658
  O  O431  1  0.221300  0.473800  0.180400  1.0  -0.4269
  O  O432  1  0.576800  0.237020  0.713680  1.0  -0.5719
  O  O433  1  0.443700  0.749250  0.170020  1.0  -0.5653
  O  O434  1  0.704800  0.813100  0.558320  1.0  -0.582
  O  O435  1  0.158300  0.260980  0.521080  1.0  -0.5637
  O  O436  1  0.278700  0.473800  0.680400  1.0  -0.4269
  O  O437  1  0.745300  0.187070  0.962420  1.0  -0.5858
  O  O438  1  0.573200  0.537500  0.506500  1.0  -0.4094
  O  O439  1  0.794800  0.969400  0.778600  1.0  -0.4072
  O  O440  1  0.231100  0.257010  0.445790  1.0  -0.5559
  O  O441  1  0.782300  0.812420  0.486910  1.0  -0.5813
  O  O442  1  0.282100  0.677700  0.479280  1.0  -0.5638
  O  O443  1  0.220900  0.687190  0.404220  1.0  -0.5987
  O  O444  1  0.411700  0.252490  0.818910  1.0  -0.5827
  O  O445  1  0.069700  0.311600  0.268990  1.0  -0.5684
  O  O446  1  0.840200  0.026800  0.246400  1.0  -0.4422
  O  O447  1  0.582500  0.820310  0.242490  1.0  -0.5733
  O  O448  1  0.423200  0.762980  0.286320  1.0  -0.5726
  O  O449  1  0.795200  0.813100  0.058320  1.0  -0.5822
  O  O450  1  0.556300  0.250750  0.829980  1.0  -0.566
  O  O451  1  0.230900  0.317160  0.072800  1.0  -0.5803
  O  O452  1  0.178000  0.244350  0.070360  1.0  -0.5708
  O  O453  1  0.426800  0.462500  0.493500  1.0  -0.4088
  O  O454  1  0.754700  0.187070  0.462420  1.0  -0.5851
  O  O455  1  0.724500  0.238960  0.589250  1.0  -0.588
  O  O456  1  0.076800  0.762980  0.786320  1.0  -0.5718
  O  O457  1  0.320200  0.743940  0.033590  1.0  -0.5775
  O  O458  1  0.217900  0.677700  0.979280  1.0  -0.5644
  O  O459  1  0.569200  0.032200  0.986200  1.0  -0.4396
  O  O460  1  0.294800  0.030600  0.721400  1.0  -0.4092
  O  O461  1  0.720900  0.312810  0.095780  1.0  -0.5981
  O  O462  1  0.282300  0.187580  0.013090  1.0  -0.5815
  O  O463  1  0.564600  0.180380  0.766970  1.0  -0.5891
  O  O464  1  0.728200  0.463100  0.205600  1.0  -0.4845
  O  O465  1  0.157000  0.747400  0.980980  1.0  -0.5813
  O  O466  1  0.295200  0.186900  0.441680  1.0  -0.5816
  O  O467  1  0.839900  0.682740  0.000730  1.0  -0.571
  O  O468  1  0.600800  0.753030  0.500980  1.0  -0.5783
  O  O469  1  0.430300  0.239210  0.706960  1.0  -0.5808
  O  O470  1  0.717700  0.812420  0.986910  1.0  -0.5821
  O  O471  1  0.396100  0.734930  0.959910  1.0  -0.5889
  O  O472  1  0.228200  0.536900  0.294400  1.0  -0.4899
  O  O473  1  0.435400  0.819620  0.233030  1.0  -0.5888
  O  O474  1  0.279100  0.687190  0.904220  1.0  -0.5999
  O  O475  1  0.930800  0.032200  0.486200  1.0  -0.4392
  O  O476  1  0.430300  0.311600  0.768990  1.0  -0.5679
  O  O477  1  0.926800  0.537500  0.006500  1.0  -0.4089
  O  O478  1  0.588300  0.747510  0.181090  1.0  -0.5831
  O  O479  1  0.660500  0.191250  0.032900  1.0  -0.6072
  O  O480  1  0.569700  0.688400  0.231010  1.0  -0.5686
