# generated using pymatgen
data_ZnH16C16(NO2)2
_symmetry_space_group_name_H-M   'P 1'
_cell_length_a   10.89500000
_cell_length_b   13.05200000
_cell_length_c   13.53600000
_cell_angle_alpha   90.00000000
_cell_angle_beta   95.74000000
_cell_angle_gamma   90.00000000
_symmetry_Int_Tables_number   1
_chemical_formula_structural   ZnH16C16(NO2)2
_chemical_formula_sum   'Zn4 H64 C64 N8 O16'
_cell_volume   1915.18887669
_cell_formula_units_Z   4
loop_
 _symmetry_equiv_pos_site_id
 _symmetry_equiv_pos_as_xyz
  1  'x, y, z'
loop_
 _atom_site_type_symbol
 _atom_site_label
 _atom_site_symmetry_multiplicity
 _atom_site_fract_x
 _atom_site_fract_y
 _atom_site_fract_z
 _atom_site_occupancy
 _atom_site_charge
  Zn  Zn1  1  0.701010  0.119750  0.172660  1.0  0.8782
  Zn  Zn2  1  0.201010  0.380250  0.672660  1.0  0.8778
  Zn  Zn3  1  0.298990  0.880250  0.827340  1.0  0.8767
  Zn  Zn4  1  0.798990  0.619750  0.327340  1.0  0.8783
  H  H5  1  0.922000  0.797100  0.116300  1.0  0.1202
  H  H6  1  0.923400  0.180600  0.511800  1.0  0.1113
  H  H7  1  0.735500  0.014400  0.374700  1.0  0.0819
  H  H8  1  0.030600  0.268500  0.346700  1.0  0.1267
  H  H9  1  0.422000  0.702900  0.616300  1.0  0.1198
  H  H10  1  0.530600  0.231500  0.846700  1.0  0.1271
  H  H11  1  0.451400  0.026700  0.172500  1.0  0.0796
  H  H12  1  0.922600  0.657900  0.008900  1.0  0.1002
  H  H13  1  0.818200  0.672000  0.917800  1.0  0.0978
  H  H14  1  0.340600  0.917500  0.263100  1.0  0.1242
  H  H15  1  0.748600  0.080500  0.957200  1.0  0.0864
  H  H16  1  0.031800  0.124600  0.460400  1.0  0.122
  H  H17  1  0.840600  0.582500  0.763100  1.0  0.1239
  H  H18  1  0.339800  0.541700  0.366300  1.0  0.1139
  H  H19  1  0.423400  0.319400  0.011800  1.0  0.1111
  H  H20  1  0.839800  0.958300  0.866300  1.0  0.1138
  H  H21  1  0.235500  0.485600  0.874700  1.0  0.0819
  H  H22  1  0.951400  0.473300  0.672500  1.0  0.0793
  H  H23  1  0.410100  0.190200  0.892400  1.0  0.1144
  H  H24  1  0.542500  0.713600  0.441400  1.0  0.1102
  H  H25  1  0.328600  0.577900  0.701400  1.0  0.0806
  H  H26  1  0.042500  0.786400  0.941400  1.0  0.1102
  H  H27  1  0.910100  0.309800  0.392400  1.0  0.1136
  H  H28  1  0.129000  0.592000  0.971600  1.0  0.1231
  H  H29  1  0.938000  0.800600  0.850900  1.0  0.1207
  H  H30  1  0.318200  0.828000  0.417800  1.0  0.098
  H  H31  1  0.531800  0.375400  0.960400  1.0  0.1227
  H  H32  1  0.629000  0.908000  0.471600  1.0  0.1231
  H  H33  1  0.438000  0.699400  0.350900  1.0  0.1193
  H  H34  1  0.828600  0.922100  0.201400  1.0  0.0806
  H  H35  1  0.248600  0.419500  0.457200  1.0  0.0863
  H  H36  1  0.422600  0.842100  0.508900  1.0  0.1005
  H  H37  1  0.078000  0.202900  0.883700  1.0  0.1206
  H  H38  1  0.077400  0.342100  0.991100  1.0  0.0997
  H  H39  1  0.764500  0.514400  0.125300  1.0  0.0819
  H  H40  1  0.969400  0.731500  0.653300  1.0  0.1275
  H  H41  1  0.171400  0.077900  0.798600  1.0  0.0812
  H  H42  1  0.048600  0.526700  0.327500  1.0  0.0789
  H  H43  1  0.160200  0.041700  0.133700  1.0  0.1138
  H  H44  1  0.577400  0.157900  0.491100  1.0  0.0977
  H  H45  1  0.468200  0.624600  0.039600  1.0  0.122
  H  H46  1  0.548600  0.973300  0.827500  1.0  0.079
  H  H47  1  0.957500  0.213600  0.058600  1.0  0.1155
  H  H48  1  0.659400  0.082500  0.736900  1.0  0.1252
  H  H49  1  0.159400  0.417500  0.236900  1.0  0.1253
  H  H50  1  0.062000  0.199400  0.149100  1.0  0.119
  H  H51  1  0.251400  0.919500  0.042800  1.0  0.0865
  H  H52  1  0.681800  0.172000  0.582200  1.0  0.0974
  H  H53  1  0.264500  0.985600  0.625300  1.0  0.0819
  H  H54  1  0.871000  0.408000  0.028400  1.0  0.1243
  H  H55  1  0.968200  0.875400  0.539600  1.0  0.1228
  H  H56  1  0.457500  0.286400  0.558600  1.0  0.1158
  H  H57  1  0.589900  0.809800  0.107600  1.0  0.1125
  H  H58  1  0.562000  0.300600  0.649100  1.0  0.1177
  H  H59  1  0.671400  0.422100  0.298600  1.0  0.0812
  H  H60  1  0.371000  0.092000  0.528400  1.0  0.1243
  H  H61  1  0.660200  0.458300  0.633700  1.0  0.1137
  H  H62  1  0.181800  0.328000  0.082200  1.0  0.0974
  H  H63  1  0.751400  0.580500  0.542800  1.0  0.0863
  H  H64  1  0.089900  0.690200  0.607600  1.0  0.1132
  H  H65  1  0.576600  0.680600  0.988200  1.0  0.111
  H  H66  1  0.578000  0.297100  0.383700  1.0  0.1203
  H  H67  1  0.076600  0.819400  0.488200  1.0  0.1109
  H  H68  1  0.469400  0.768500  0.153300  1.0  0.1274
  C  C69  1  0.330800  0.570130  0.631850  1.0  0.1639
  C  C70  1  0.908100  0.675860  0.937700  1.0  -0.1852
  C  C71  1  0.952500  0.783580  0.922350  1.0  -0.2836
  C  C72  1  0.784200  0.021830  0.990370  1.0  0.1642
  C  C73  1  0.386400  0.645110  0.581630  1.0  -0.2126
  C  C74  1  0.390800  0.636740  0.480530  1.0  0.1578
  C  C75  1  0.376600  0.317550  0.805200  1.0  0.7625
  C  C76  1  0.973500  0.600650  0.878070  1.0  0.1379
  C  C77  1  0.886400  0.854890  0.081630  1.0  -0.2128
  C  C78  1  0.489000  0.001060  0.233930  1.0  0.1749
  C  C79  1  0.589700  0.244130  0.035260  1.0  0.7703
  C  C80  1  0.089700  0.255870  0.535260  1.0  0.7704
  C  C81  1  0.408100  0.824140  0.437700  1.0  -0.1856
  C  C82  1  0.838500  0.949090  0.935770  1.0  -0.2053
  C  C83  1  0.890800  0.863260  0.980530  1.0  0.1578
  C  C84  1  0.590800  0.930600  0.409280  1.0  -0.1871
  C  C85  1  0.922100  0.563440  0.787770  1.0  -0.251
  C  C86  1  0.653800  0.994470  0.351390  1.0  0.1724
  C  C87  1  0.989000  0.498940  0.733930  1.0  0.1702
  C  C88  1  0.338500  0.550910  0.435770  1.0  -0.2055
  C  C89  1  0.495900  0.307870  0.974470  1.0  -0.3366
  C  C90  1  0.090800  0.569400  0.909280  1.0  -0.1871
  C  C91  1  0.452500  0.716420  0.422350  1.0  -0.2837
  C  C92  1  0.830800  0.929870  0.131850  1.0  0.1639
  C  C93  1  0.456100  0.252880  0.877730  1.0  -0.3956
  C  C94  1  0.284200  0.478170  0.490370  1.0  0.1633
  C  C95  1  0.422100  0.936560  0.287770  1.0  -0.2519
  C  C96  1  0.995900  0.192130  0.474470  1.0  -0.3321
  C  C97  1  0.473500  0.899350  0.378070  1.0  0.1379
  C  C98  1  0.956100  0.247120  0.377730  1.0  -0.3951
  C  C99  1  0.876600  0.182450  0.305200  1.0  0.7618
  C  C100  1  0.153800  0.505530  0.851390  1.0  0.1722
  C  C101  1  0.047500  0.216420  0.077650  1.0  -0.2845
  C  C102  1  0.113600  0.145110  0.918370  1.0  -0.2119
  C  C103  1  0.623400  0.682450  0.194800  1.0  0.7631
  C  C104  1  0.123400  0.817550  0.694800  1.0  0.7611
  C  C105  1  0.547500  0.283580  0.577650  1.0  -0.2846
  C  C106  1  0.004100  0.807870  0.525530  1.0  -0.3331
  C  C107  1  0.091900  0.324140  0.062300  1.0  -0.1853
  C  C108  1  0.077900  0.436560  0.212230  1.0  -0.2549
  C  C109  1  0.526500  0.100650  0.621930  1.0  0.1378
  C  C110  1  0.215800  0.978170  0.009630  1.0  0.1642
  C  C111  1  0.669200  0.429870  0.368150  1.0  0.1659
  C  C112  1  0.346200  0.005530  0.648610  1.0  0.1738
  C  C113  1  0.504100  0.692130  0.025530  1.0  -0.331
  C  C114  1  0.543900  0.747120  0.122270  1.0  -0.3965
  C  C115  1  0.011000  0.501060  0.266070  1.0  0.1695
  C  C116  1  0.909200  0.430600  0.090720  1.0  -0.1866
  C  C117  1  0.109200  0.136740  0.019470  1.0  0.1581
  C  C118  1  0.169200  0.070130  0.868150  1.0  0.1661
  C  C119  1  0.026500  0.399350  0.121930  1.0  0.1379
  C  C120  1  0.846200  0.494470  0.148610  1.0  0.1741
  C  C121  1  0.409200  0.069400  0.590720  1.0  -0.1867
  C  C122  1  0.043900  0.752880  0.622270  1.0  -0.3979
  C  C123  1  0.715800  0.521830  0.509630  1.0  0.1641
  C  C124  1  0.609200  0.363260  0.519470  1.0  0.1583
  C  C125  1  0.613600  0.354890  0.418370  1.0  -0.2121
  C  C126  1  0.511000  0.998940  0.766070  1.0  0.17
  C  C127  1  0.661500  0.449090  0.564230  1.0  -0.2004
  C  C128  1  0.410300  0.755870  0.964740  1.0  0.7703
  C  C129  1  0.591900  0.175860  0.562300  1.0  -0.1853
  C  C130  1  0.910300  0.744130  0.464740  1.0  0.7707
  C  C131  1  0.577900  0.063440  0.712230  1.0  -0.2546
  C  C132  1  0.161500  0.050910  0.064230  1.0  -0.2061
  N  N133  1  0.604390  0.029580  0.263530  1.0  -0.3272
  N  N134  1  0.279460  0.486660  0.588580  1.0  -0.3311
  N  N135  1  0.779460  0.013340  0.088580  1.0  -0.3358
  N  N136  1  0.104390  0.470420  0.763530  1.0  -0.3271
  N  N137  1  0.720540  0.513340  0.411420  1.0  -0.3308
  N  N138  1  0.895610  0.529580  0.236470  1.0  -0.3277
  N  N139  1  0.220540  0.986660  0.911420  1.0  -0.331
  N  N140  1  0.395610  0.970420  0.736470  1.0  -0.3273
  O  O141  1  0.287330  0.273990  0.754840  1.0  -0.5954
  O  O142  1  0.899650  0.089860  0.296000  1.0  -0.6091
  O  O143  1  0.698020  0.243140  0.016140  1.0  -0.5812
  O  O144  1  0.399650  0.410140  0.796000  1.0  -0.6067
  O  O145  1  0.553480  0.189210  0.104850  1.0  -0.5947
  O  O146  1  0.787330  0.226010  0.254840  1.0  -0.5947
  O  O147  1  0.198020  0.256860  0.516140  1.0  -0.5821
  O  O148  1  0.053480  0.310790  0.604850  1.0  -0.5944
  O  O149  1  0.801980  0.743140  0.483860  1.0  -0.58
  O  O150  1  0.100350  0.910140  0.704000  1.0  -0.608
  O  O151  1  0.212670  0.773990  0.745160  1.0  -0.5952
  O  O152  1  0.446520  0.810790  0.895150  1.0  -0.5934
  O  O153  1  0.712670  0.726010  0.245160  1.0  -0.595
  O  O154  1  0.946520  0.689210  0.395150  1.0  -0.5941
  O  O155  1  0.600350  0.589860  0.204000  1.0  -0.6085
  O  O156  1  0.301980  0.756860  0.983860  1.0  -0.5807
