# generated using pymatgen
data_ZnH20C18(NO2)2
_symmetry_space_group_name_H-M   'P 1'
_cell_length_a   10.50810000
_cell_length_b   12.29600000
_cell_length_c   16.67140000
_cell_angle_alpha   90.00000000
_cell_angle_beta   90.00000000
_cell_angle_gamma   90.00000000
_symmetry_Int_Tables_number   1
_chemical_formula_structural   ZnH20C18(NO2)2
_chemical_formula_sum   'Zn4 H80 C72 N8 O16'
_cell_volume   2154.07154263
_cell_formula_units_Z   4
loop_
 _symmetry_equiv_pos_site_id
 _symmetry_equiv_pos_as_xyz
  1  'x, y, z'
loop_
 _atom_site_type_symbol
 _atom_site_label
 _atom_site_symmetry_multiplicity
 _atom_site_fract_x
 _atom_site_fract_y
 _atom_site_fract_z
 _atom_site_occupancy
 _atom_site_charge
  Zn  Zn1  1  0.400950  0.250000  0.750000  1.0  0.8512
  Zn  Zn2  1  0.599050  0.750000  0.250000  1.0  0.8515
  Zn  Zn3  1  0.900950  0.750000  0.750000  1.0  0.8512
  Zn  Zn4  1  0.099050  0.250000  0.250000  1.0  0.8515
  H  H5  1  0.567800  0.972900  0.632500  1.0  0.1003
  H  H6  1  0.432200  0.472900  0.132500  1.0  0.1004
  H  H7  1  0.095900  0.554300  0.455000  1.0  0.091
  H  H8  1  0.126400  0.941100  0.837000  1.0  0.1101
  H  H9  1  0.390100  0.943600  0.519400  1.0  0.0741
  H  H10  1  0.077100  0.210800  0.966400  1.0  0.1119
  H  H11  1  0.040000  0.440300  0.431400  1.0  0.0811
  H  H12  1  0.316600  0.543100  0.104900  1.0  0.1069
  H  H13  1  0.761000  0.710100  0.104500  1.0  0.0656
  H  H14  1  0.567800  0.527100  0.867500  1.0  0.1006
  H  H15  1  0.609900  0.056400  0.480600  1.0  0.0765
  H  H16  1  0.095900  0.945700  0.045000  1.0  0.0903
  H  H17  1  0.239000  0.289900  0.895500  1.0  0.0655
  H  H18  1  0.904100  0.054300  0.955000  1.0  0.0916
  H  H19  1  0.280800  0.469700  0.734900  1.0  0.076
  H  H20  1  0.761000  0.789900  0.395500  1.0  0.0656
  H  H21  1  0.683400  0.456900  0.895100  1.0  0.1065
  H  H22  1  0.719200  0.969700  0.234900  1.0  0.0761
  H  H23  1  0.683400  0.043100  0.604900  1.0  0.1063
  H  H24  1  0.432200  0.027100  0.367500  1.0  0.1006
  H  H25  1  0.719200  0.530300  0.265100  1.0  0.0756
  H  H26  1  0.040000  0.059700  0.068600  1.0  0.0798
  H  H27  1  0.239000  0.210100  0.604500  1.0  0.0656
  H  H28  1  0.606500  0.933900  0.504800  1.0  0.0864
  H  H29  1  0.606500  0.566100  0.995200  1.0  0.0859
  H  H30  1  0.960000  0.559700  0.568600  1.0  0.08
  H  H31  1  0.390100  0.556400  0.980600  1.0  0.0761
  H  H32  1  0.873600  0.058900  0.163000  1.0  0.1103
  H  H33  1  0.280800  0.030300  0.765100  1.0  0.0756
  H  H34  1  0.609900  0.443600  0.019400  1.0  0.0746
  H  H35  1  0.904100  0.445700  0.545000  1.0  0.092
  H  H36  1  0.393500  0.433900  0.004800  1.0  0.0865
  H  H37  1  0.960000  0.940300  0.931400  1.0  0.0812
  H  H38  1  0.077100  0.289200  0.533600  1.0  0.1113
  H  H39  1  0.922900  0.789200  0.033600  1.0  0.1111
  H  H40  1  0.873600  0.441100  0.337000  1.0  0.11
  H  H41  1  0.316600  0.956900  0.395100  1.0  0.107
  H  H42  1  0.126400  0.558900  0.663000  1.0  0.1101
  H  H43  1  0.922900  0.710800  0.466400  1.0  0.1115
  H  H44  1  0.393500  0.066100  0.495200  1.0  0.0867
  H  H45  1  0.261000  0.289900  0.104500  1.0  0.0657
  H  H46  1  0.780800  0.530300  0.734900  1.0  0.0759
  H  H47  1  0.577100  0.710800  0.533600  1.0  0.1114
  H  H48  1  0.932200  0.972900  0.367500  1.0  0.1001
  H  H49  1  0.932200  0.527100  0.132500  1.0  0.0997
  H  H50  1  0.893500  0.933900  0.495200  1.0  0.0869
  H  H51  1  0.404100  0.945700  0.955000  1.0  0.0919
  H  H52  1  0.067800  0.472900  0.867500  1.0  0.1001
  H  H53  1  0.373600  0.941100  0.163000  1.0  0.1091
  H  H54  1  0.422900  0.289200  0.466400  1.0  0.1116
  H  H55  1  0.739000  0.710100  0.895500  1.0  0.0653
  H  H56  1  0.109900  0.556400  0.019400  1.0  0.075
  H  H57  1  0.067800  0.027100  0.632500  1.0  0.0996
  H  H58  1  0.893500  0.566100  0.004800  1.0  0.0864
  H  H59  1  0.109900  0.943600  0.480600  1.0  0.0749
  H  H60  1  0.460000  0.440300  0.568600  1.0  0.0815
  H  H61  1  0.261000  0.210100  0.395500  1.0  0.0652
  H  H62  1  0.780800  0.969700  0.765100  1.0  0.076
  H  H63  1  0.595900  0.445700  0.455000  1.0  0.0907
  H  H64  1  0.106500  0.066100  0.504800  1.0  0.0856
  H  H65  1  0.890100  0.443600  0.980600  1.0  0.0746
  H  H66  1  0.626400  0.441100  0.663000  1.0  0.1099
  H  H67  1  0.540000  0.940300  0.068600  1.0  0.0814
  H  H68  1  0.219200  0.030300  0.234900  1.0  0.0758
  H  H69  1  0.106500  0.433900  0.995200  1.0  0.0868
  H  H70  1  0.373600  0.558900  0.337000  1.0  0.1107
  H  H71  1  0.816600  0.043100  0.395100  1.0  0.1075
  H  H72  1  0.422900  0.210800  0.033600  1.0  0.1111
  H  H73  1  0.626400  0.058900  0.837000  1.0  0.1103
  H  H74  1  0.219200  0.469700  0.265100  1.0  0.0762
  H  H75  1  0.595900  0.054300  0.045000  1.0  0.0905
  H  H76  1  0.460000  0.059700  0.931400  1.0  0.0807
  H  H77  1  0.404100  0.554300  0.545000  1.0  0.0917
  H  H78  1  0.816600  0.456900  0.104900  1.0  0.1065
  H  H79  1  0.540000  0.559700  0.431400  1.0  0.0803
  H  H80  1  0.183400  0.956900  0.604900  1.0  0.1061
  H  H81  1  0.739000  0.789900  0.604500  1.0  0.0657
  H  H82  1  0.183400  0.543100  0.895100  1.0  0.107
  H  H83  1  0.890100  0.056400  0.519400  1.0  0.0739
  H  H84  1  0.577100  0.789200  0.966400  1.0  0.112
  C  C85  1  0.019900  0.509600  0.456200  1.0  -0.2345
  C  C86  1  0.785900  0.719500  0.382600  1.0  0.1574
  C  C87  1  0.214100  0.219500  0.882600  1.0  0.158
  C  C88  1  0.980100  0.490400  0.543800  1.0  -0.236
  C  C89  1  0.118300  0.328000  0.573900  1.0  -0.2137
  C  C90  1  0.592200  0.034100  0.599200  1.0  -0.276
  C  C91  1  0.760200  0.566900  0.306500  1.0  0.1576
  C  C92  1  0.881700  0.828000  0.073900  1.0  -0.2133
  C  C93  1  0.239800  0.433100  0.693500  1.0  0.155
  C  C94  1  0.980100  0.009600  0.956200  1.0  -0.2353
  C  C95  1  0.118300  0.172000  0.926100  1.0  -0.2141
  C  C96  1  0.760200  0.933100  0.193500  1.0  0.1556
  C  C97  1  0.470000  0.633100  0.132900  1.0  0.7742
  C  C98  1  0.146100  0.487100  0.650600  1.0  -0.1793
  C  C99  1  0.239800  0.066900  0.806500  1.0  0.1558
  C  C100  1  0.881700  0.672000  0.426100  1.0  -0.2141
  C  C101  1  0.566500  0.496200  0.985700  1.0  -0.1083
  C  C102  1  0.407800  0.534100  0.099200  1.0  -0.2723
  C  C103  1  0.530000  0.366900  0.867100  1.0  0.7721
  C  C104  1  0.214100  0.280500  0.617400  1.0  0.1588
  C  C105  1  0.083100  0.064300  0.909400  1.0  0.1264
  C  C106  1  0.853900  0.512900  0.349400  1.0  -0.1805
  C  C107  1  0.566500  0.003800  0.514300  1.0  -0.1082
  C  C108  1  0.407800  0.965900  0.400800  1.0  -0.2705
  C  C109  1  0.916900  0.935700  0.090600  1.0  0.1263
  C  C110  1  0.146100  0.012900  0.849400  1.0  -0.1887
  C  C111  1  0.853900  0.987100  0.150600  1.0  -0.182
  C  C112  1  0.916900  0.564300  0.409400  1.0  0.1267
  C  C113  1  0.592200  0.465900  0.900800  1.0  -0.2718
  C  C114  1  0.019900  0.990400  0.043800  1.0  -0.2353
  C  C115  1  0.785900  0.780500  0.117400  1.0  0.1579
  C  C116  1  0.083100  0.435700  0.590600  1.0  0.1258
  C  C117  1  0.433500  0.996200  0.485700  1.0  -0.1071
  C  C118  1  0.433500  0.503800  0.014300  1.0  -0.1076
  C  C119  1  0.470000  0.866900  0.367100  1.0  0.7727
  C  C120  1  0.530000  0.133100  0.632900  1.0  0.7738
  C  C121  1  0.739800  0.566900  0.693500  1.0  0.1561
  C  C122  1  0.066500  0.996200  0.514300  1.0  -0.1083
  C  C123  1  0.646100  0.512900  0.650600  1.0  -0.19
  C  C124  1  0.066500  0.503800  0.985700  1.0  -0.1087
  C  C125  1  0.381700  0.172000  0.073900  1.0  -0.2123
  C  C126  1  0.092200  0.534100  0.900800  1.0  -0.2746
  C  C127  1  0.285900  0.280500  0.382600  1.0  0.1574
  C  C128  1  0.416900  0.064300  0.090600  1.0  0.1257
  C  C129  1  0.907800  0.034100  0.400800  1.0  -0.2708
  C  C130  1  0.030000  0.633100  0.867100  1.0  0.7732
  C  C131  1  0.618300  0.828000  0.926100  1.0  -0.214
  C  C132  1  0.618300  0.672000  0.573900  1.0  -0.2128
  C  C133  1  0.381700  0.328000  0.426100  1.0  -0.2139
  C  C134  1  0.714100  0.780500  0.882600  1.0  0.158
  C  C135  1  0.646100  0.987100  0.849400  1.0  -0.1902
  C  C136  1  0.970000  0.366900  0.132900  1.0  0.7738
  C  C137  1  0.353900  0.012900  0.150600  1.0  -0.1892
  C  C138  1  0.480100  0.990400  0.956200  1.0  -0.2354
  C  C139  1  0.583100  0.564300  0.590600  1.0  0.1255
  C  C140  1  0.519900  0.490400  0.456200  1.0  -0.2347
  C  C141  1  0.092200  0.965900  0.599200  1.0  -0.2746
  C  C142  1  0.416900  0.435700  0.409400  1.0  0.1271
  C  C143  1  0.933500  0.496200  0.014300  1.0  -0.1076
  C  C144  1  0.519900  0.009600  0.043800  1.0  -0.2356
  C  C145  1  0.714100  0.719500  0.617400  1.0  0.1583
  C  C146  1  0.353900  0.487100  0.349400  1.0  -0.1895
  C  C147  1  0.480100  0.509600  0.543800  1.0  -0.2366
  C  C148  1  0.285900  0.219500  0.117400  1.0  0.1584
  C  C149  1  0.907800  0.465900  0.099200  1.0  -0.275
  C  C150  1  0.583100  0.935700  0.909400  1.0  0.1264
  C  C151  1  0.739800  0.933100  0.806500  1.0  0.1574
  C  C152  1  0.933500  0.003800  0.485700  1.0  -0.1083
  C  C153  1  0.030000  0.866900  0.632900  1.0  0.7735
  C  C154  1  0.970000  0.133100  0.367100  1.0  0.7743
  C  C155  1  0.260200  0.066900  0.193500  1.0  0.1557
  C  C156  1  0.260200  0.433100  0.306500  1.0  0.156
  N  N157  1  0.726800  0.831300  0.177790  1.0  -0.3383
  N  N158  1  0.273200  0.331300  0.677790  1.0  -0.3373
  N  N159  1  0.273200  0.168700  0.822210  1.0  -0.3396
  N  N160  1  0.726800  0.668700  0.322210  1.0  -0.3403
  N  N161  1  0.773200  0.831300  0.822210  1.0  -0.3392
  N  N162  1  0.226800  0.331300  0.322210  1.0  -0.3411
  N  N163  1  0.226800  0.168700  0.177790  1.0  -0.3386
  N  N164  1  0.773200  0.668700  0.677790  1.0  -0.3379
  O  O165  1  0.456100  0.778200  0.402800  1.0  -0.5879
  O  O166  1  0.523300  0.872900  0.300450  1.0  -0.5984
  O  O167  1  0.543900  0.278200  0.902800  1.0  -0.5897
  O  O168  1  0.476700  0.372900  0.800450  1.0  -0.5987
  O  O169  1  0.476700  0.127100  0.699550  1.0  -0.5987
  O  O170  1  0.456100  0.721800  0.097200  1.0  -0.5885
  O  O171  1  0.543900  0.221800  0.597200  1.0  -0.588
  O  O172  1  0.523300  0.627100  0.199550  1.0  -0.5985
  O  O173  1  0.976700  0.872900  0.699550  1.0  -0.5988
  O  O174  1  0.976700  0.627100  0.800450  1.0  -0.5988
  O  O175  1  0.023300  0.372900  0.199550  1.0  -0.5987
  O  O176  1  0.043900  0.778200  0.597200  1.0  -0.589
  O  O177  1  0.956100  0.278200  0.097200  1.0  -0.588
  O  O178  1  0.043900  0.721800  0.902800  1.0  -0.5891
  O  O179  1  0.956100  0.221800  0.402800  1.0  -0.589
  O  O180  1  0.023300  0.127100  0.300450  1.0  -0.5984
