# generated using pymatgen
data_Zn3H16C32(NO7)2
_symmetry_space_group_name_H-M   'P 1'
_cell_length_a   8.43580000
_cell_length_b   10.07400000
_cell_length_c   15.07900000
_cell_angle_alpha   71.07100000
_cell_angle_beta   87.93100000
_cell_angle_gamma   67.63100000
_symmetry_Int_Tables_number   1
_chemical_formula_structural   Zn3H16C32(NO7)2
_chemical_formula_sum   'Zn3 H16 C32 N2 O14'
_cell_volume   1115.33357903
_cell_formula_units_Z   1
loop_
 _symmetry_equiv_pos_site_id
 _symmetry_equiv_pos_as_xyz
  1  'x, y, z'
loop_
 _atom_site_type_symbol
 _atom_site_label
 _atom_site_symmetry_multiplicity
 _atom_site_fract_x
 _atom_site_fract_y
 _atom_site_fract_z
 _atom_site_occupancy
 _atom_site_charge
  Zn  Zn1  1  0.818530  0.210360  0.958240  1.0  1.0302
  Zn  Zn2  1  0.181470  0.789640  0.041760  1.0  1.0293
  Zn  Zn3  1  0.500000  0.500000  0.000000  1.0  1.1145
  H  H4  1  0.717100  0.008200  0.584300  1.0  0.3163
  H  H5  1  0.908400  0.913300  0.236900  1.0  0.1177
  H  H6  1  0.969900  0.777900  0.396000  1.0  0.1041
  H  H7  1  0.614100  0.124000  0.452800  1.0  0.1166
  H  H8  1  0.551200  0.261800  0.294800  1.0  0.1079
  H  H9  1  0.801700  0.639300  0.711200  1.0  0.1195
  H  H10  1  0.847400  0.672900  0.967500  1.0  0.1174
  H  H11  1  0.810700  0.022000  0.732800  1.0  0.1186
  H  H12  1  0.282900  0.991800  0.415700  1.0  0.3178
  H  H13  1  0.091600  0.086700  0.763100  1.0  0.1181
  H  H14  1  0.030100  0.222100  0.604000  1.0  0.104
  H  H15  1  0.385900  0.876000  0.547200  1.0  0.1167
  H  H16  1  0.448800  0.738200  0.705200  1.0  0.1089
  H  H17  1  0.198300  0.360700  0.288800  1.0  0.1196
  H  H18  1  0.152600  0.327100  0.032500  1.0  0.1163
  H  H19  1  0.189300  0.978000  0.267200  1.0  0.1181
  C  C20  1  0.723500  0.103700  0.249500  1.0  -0.128
  C  C21  1  0.849200  0.957100  0.280200  1.0  -0.0605
  C  C22  1  0.885900  0.876500  0.375800  1.0  -0.0347
  C  C23  1  0.802000  0.937600  0.441700  1.0  -0.1048
  C  C24  1  0.675400  0.081300  0.409600  1.0  -0.1113
  C  C25  1  0.636900  0.164000  0.314700  1.0  -0.024
  C  C26  1  0.804200  0.840500  0.706500  1.0  0.2501
  C  C27  1  0.806900  0.695900  0.748200  1.0  -0.1357
  C  C28  1  0.817400  0.634700  0.846200  1.0  -0.1359
  C  C29  1  0.835300  0.715300  0.902100  1.0  -0.0222
  C  C30  1  0.834600  0.860900  0.858400  1.0  -0.1479
  C  C31  1  0.815700  0.923400  0.761400  1.0  -0.1119
  C  C32  1  0.685500  0.195500  0.145900  1.0  0.7109
  C  C33  1  0.803900  0.484400  0.890600  1.0  0.6576
  C  C34  1  0.857200  0.946800  0.918300  1.0  0.7055
  C  C35  1  0.851000  0.841900  0.543400  1.0  0.5476
  C  C36  1  0.276500  0.896300  0.750500  1.0  -0.1287
  C  C37  1  0.150800  0.042900  0.719800  1.0  -0.0615
  C  C38  1  0.114100  0.123500  0.624200  1.0  -0.0319
  C  C39  1  0.198000  0.062400  0.558300  1.0  -0.104
  C  C40  1  0.324600  0.918700  0.590400  1.0  -0.1106
  C  C41  1  0.363100  0.836000  0.685300  1.0  -0.0244
  C  C42  1  0.195800  0.159500  0.293500  1.0  0.25
  C  C43  1  0.193100  0.304100  0.251800  1.0  -0.1332
  C  C44  1  0.182600  0.365300  0.153800  1.0  -0.1353
  C  C45  1  0.164700  0.284700  0.097900  1.0  -0.0232
  C  C46  1  0.165400  0.139100  0.141600  1.0  -0.1479
  C  C47  1  0.184300  0.076600  0.238600  1.0  -0.1135
  C  C48  1  0.314500  0.804500  0.854100  1.0  0.7096
  C  C49  1  0.196100  0.515600  0.109400  1.0  0.6585
  C  C50  1  0.142800  0.053200  0.081700  1.0  0.7052
  C  C51  1  0.149000  0.158100  0.456600  1.0  0.5489
  N  N52  1  0.780800  0.912500  0.606300  1.0  -0.409
  N  N53  1  0.219200  0.087500  0.393700  1.0  -0.4089
  O  O54  1  0.575300  0.329200  0.124200  1.0  -0.6043
  O  O55  1  0.768500  0.131300  0.090500  1.0  -0.6018
  O  O56  1  0.832200  0.394000  0.845800  1.0  -0.5673
  O  O57  1  0.765200  0.448600  0.974400  1.0  -0.6708
  O  O58  1  0.802700  0.091300  0.879900  1.0  -0.6028
  O  O59  1  0.923400  0.874900  0.001500  1.0  -0.606
  O  O60  1  0.949900  0.707400  0.567500  1.0  -0.5005
  O  O61  1  0.424700  0.670800  0.875800  1.0  -0.6047
  O  O62  1  0.231500  0.868700  0.909500  1.0  -0.6013
  O  O63  1  0.167800  0.606000  0.154200  1.0  -0.5708
  O  O64  1  0.234800  0.551400  0.025600  1.0  -0.671
  O  O65  1  0.197300  0.908700  0.120100  1.0  -0.6007
  O  O66  1  0.076600  0.125100  0.998500  1.0  -0.6069
  O  O67  1  0.050100  0.292600  0.432500  1.0  -0.4975
