# generated using pymatgen
data_Nd2H6C18(SO4)3
_symmetry_space_group_name_H-M   'P 1'
_cell_length_a   9.80350000
_cell_length_b   10.94230000
_cell_length_c   19.42890000
_cell_angle_alpha   85.59600000
_cell_angle_beta   75.68600000
_cell_angle_gamma   63.62200000
_symmetry_Int_Tables_number   1
_chemical_formula_structural   Nd2H6C18(SO4)3
_chemical_formula_sum   'Nd4 H12 C36 S6 O24'
_cell_volume   1807.91352581
_cell_formula_units_Z   2
loop_
 _symmetry_equiv_pos_site_id
 _symmetry_equiv_pos_as_xyz
  1  'x, y, z'
loop_
 _atom_site_type_symbol
 _atom_site_label
 _atom_site_symmetry_multiplicity
 _atom_site_fract_x
 _atom_site_fract_y
 _atom_site_fract_z
 _atom_site_occupancy
 _atom_site_charge
  Nd  Nd1  1  0.710040  0.027290  0.500410  1.0  2.3334
  Nd  Nd2  1  0.249490  0.480300  0.990820  1.0  2.296
  Nd  Nd3  1  0.289960  0.972710  0.499590  1.0  2.3338
  Nd  Nd4  1  0.750510  0.519700  0.009180  1.0  2.2959
  H  H5  1  0.967800  0.643900  0.402500  1.0  0.1063
  H  H6  1  0.091500  0.394100  0.404000  1.0  0.1233
  H  H7  1  0.088000  0.157100  0.688800  1.0  0.1138
  H  H8  1  0.955500  0.262200  0.808300  1.0  0.1091
  H  H9  1  0.101500  0.886100  0.902600  1.0  0.1259
  H  H10  1  0.960700  0.132400  0.928000  1.0  0.103
  H  H11  1  0.032200  0.356100  0.597500  1.0  0.107
  H  H12  1  0.908500  0.605900  0.596000  1.0  0.1242
  H  H13  1  0.912000  0.842900  0.311200  1.0  0.1132
  H  H14  1  0.044500  0.737800  0.191700  1.0  0.1086
  H  H15  1  0.898500  0.113900  0.097400  1.0  0.1265
  H  H16  1  0.039300  0.867600  0.072000  1.0  0.103
  C  C17  1  0.101900  0.793300  0.453300  1.0  0.7151
  C  C18  1  0.944300  0.719400  0.932500  1.0  0.761
  C  C19  1  0.057900  0.592800  0.418800  1.0  -0.0618
  C  C20  1  0.155500  0.268800  0.817200  1.0  -0.2199
  C  C21  1  0.897100  0.868500  0.936500  1.0  -0.2191
  C  C22  1  0.402100  0.112000  0.626000  1.0  0.7631
  C  C23  1  0.631000  0.258100  0.984100  1.0  0.7444
  C  C24  1  0.129000  0.448800  0.419600  1.0  -0.0811
  C  C25  1  0.260300  0.399300  0.446300  1.0  -0.2182
  C  C26  1  0.136300  0.649100  0.444600  1.0  -0.2064
  C  C27  1  0.360800  0.254600  0.459400  1.0  0.7936
  C  C28  1  0.286900  0.167200  0.696300  1.0  -0.2118
  C  C29  1  0.135300  0.183000  0.717100  1.0  -0.0584
  C  C30  1  0.754500  0.117300  0.961700  1.0  -0.2049
  C  C31  1  0.058900  0.242800  0.786300  1.0  -0.0653
  C  C32  1  0.121800  0.332400  0.888200  1.0  0.7525
  C  C33  1  0.993700  0.932000  0.920900  1.0  -0.0865
  C  C34  1  0.912600  0.074400  0.935400  1.0  -0.0639
  C  C35  1  0.898100  0.206700  0.546700  1.0  0.7168
  C  C36  1  0.055700  0.280600  0.067500  1.0  0.7621
  C  C37  1  0.942100  0.407200  0.581200  1.0  -0.0609
  C  C38  1  0.844500  0.731200  0.182800  1.0  -0.2193
  C  C39  1  0.102900  0.131500  0.063500  1.0  -0.2173
  C  C40  1  0.597900  0.888000  0.374000  1.0  0.7623
  C  C41  1  0.369000  0.741900  0.015900  1.0  0.7454
  C  C42  1  0.871000  0.551200  0.580400  1.0  -0.0815
  C  C43  1  0.739700  0.600700  0.553700  1.0  -0.2182
  C  C44  1  0.863700  0.350900  0.555400  1.0  -0.2045
  C  C45  1  0.639200  0.745400  0.540600  1.0  0.7917
  C  C46  1  0.713100  0.832800  0.303700  1.0  -0.21
  C  C47  1  0.864700  0.817000  0.282900  1.0  -0.0581
  C  C48  1  0.245500  0.882700  0.038300  1.0  -0.2046
  C  C49  1  0.941100  0.757200  0.213700  1.0  -0.0664
  C  C50  1  0.878200  0.667600  0.111800  1.0  0.7525
  C  C51  1  0.006300  0.068000  0.079100  1.0  -0.0876
  C  C52  1  0.087400  0.925600  0.064600  1.0  -0.0656
  S  S53  1  0.299000  0.526300  0.469730  1.0  0.1551
  S  S54  1  0.337700  0.222800  0.761530  1.0  0.1614
  S  S55  1  0.704400  0.983600  0.967940  1.0  0.1603
  S  S56  1  0.701000  0.473700  0.530270  1.0  0.1583
  S  S57  1  0.662300  0.777200  0.238470  1.0  0.165
  S  S58  1  0.295600  0.016400  0.032060  1.0  0.1572
  O  O59  1  0.533000  0.113200  0.619200  1.0  -0.655
  O  O60  1  0.492300  0.279200  0.988500  1.0  -0.7189
  O  O61  1  0.234200  0.341200  0.903900  1.0  -0.7016
  O  O62  1  0.314500  0.169500  0.448300  1.0  -0.7119
  O  O63  1  0.980800  0.884000  0.436400  1.0  -0.6864
  O  O64  1  0.198800  0.815100  0.475900  1.0  -0.7283
  O  O65  1  0.088800  0.642000  0.919300  1.0  -0.7044
  O  O66  1  0.482100  0.230600  0.480000  1.0  -0.7219
  O  O67  1  0.986500  0.371000  0.926900  1.0  -0.7316
  O  O68  1  0.836800  0.681600  0.942200  1.0  -0.7256
  O  O69  1  0.672200  0.345800  0.996700  1.0  -0.7765
  O  O70  1  0.362500  0.066200  0.582400  1.0  -0.7649
  O  O71  1  0.467000  0.886800  0.380800  1.0  -0.6528
  O  O72  1  0.507700  0.720800  0.011500  1.0  -0.7183
  O  O73  1  0.765800  0.658800  0.096100  1.0  -0.7004
  O  O74  1  0.685500  0.830500  0.551700  1.0  -0.7113
  O  O75  1  0.019200  0.116000  0.563600  1.0  -0.6858
  O  O76  1  0.801200  0.184900  0.524100  1.0  -0.7292
  O  O77  1  0.911200  0.358000  0.080700  1.0  -0.7053
  O  O78  1  0.517900  0.769400  0.520000  1.0  -0.7192
  O  O79  1  0.013500  0.629000  0.073100  1.0  -0.7318
  O  O80  1  0.163200  0.318400  0.057800  1.0  -0.7255
  O  O81  1  0.327800  0.654200  0.003300  1.0  -0.7772
  O  O82  1  0.637500  0.933800  0.417600  1.0  -0.7657
