# generated using pymatgen
data_Zn3P2H14(C2O)14
_symmetry_space_group_name_H-M   'P 1'
_cell_length_a   20.45800000
_cell_length_b   12.11570000
_cell_length_c   16.97100000
_cell_angle_alpha   90.00000000
_cell_angle_beta   90.00000000
_cell_angle_gamma   90.00000000
_symmetry_Int_Tables_number   1
_chemical_formula_structural   Zn3P2H14(C2O)14
_chemical_formula_sum   'Zn12 P8 H56 C112 O56'
_cell_volume   4206.48281347
_cell_formula_units_Z   4
loop_
 _symmetry_equiv_pos_site_id
 _symmetry_equiv_pos_as_xyz
  1  'x, y, z'
loop_
 _atom_site_type_symbol
 _atom_site_label
 _atom_site_symmetry_multiplicity
 _atom_site_fract_x
 _atom_site_fract_y
 _atom_site_fract_z
 _atom_site_occupancy
 _atom_site_charge
  Zn  Zn1  1  0.912500  0.543540  0.442910  1.0  1.111
  Zn  Zn2  1  0.587500  0.956460  0.942910  1.0  1.1115
  Zn  Zn3  1  0.087500  0.543540  0.057090  1.0  1.1111
  Zn  Zn4  1  0.412500  0.956460  0.557090  1.0  1.1102
  Zn  Zn5  1  0.087500  0.456460  0.557090  1.0  1.1108
  Zn  Zn6  1  0.412500  0.043540  0.057090  1.0  1.1103
  Zn  Zn7  1  0.912500  0.456460  0.942910  1.0  1.1111
  Zn  Zn8  1  0.587500  0.043540  0.442910  1.0  1.1114
  Zn  Zn9  1  0.000000  0.618990  0.250000  1.0  1.0845
  Zn  Zn10  1  0.500000  0.881010  0.750000  1.0  1.0865
  Zn  Zn11  1  0.000000  0.381010  0.750000  1.0  1.0865
  Zn  Zn12  1  0.500000  0.118990  0.250000  1.0  1.0845
  P  P13  1  0.046260  0.451370  0.377680  1.0  1.5494
  P  P14  1  0.453740  0.048630  0.877680  1.0  1.5491
  P  P15  1  0.953740  0.451370  0.122320  1.0  1.5487
  P  P16  1  0.546260  0.048630  0.622320  1.0  1.5485
  P  P17  1  0.953740  0.548630  0.622320  1.0  1.5484
  P  P18  1  0.546260  0.951370  0.122320  1.0  1.5489
  P  P19  1  0.046260  0.548630  0.877680  1.0  1.5495
  P  P20  1  0.453740  0.951370  0.377680  1.0  1.5487
  H  H21  1  0.116000  0.409300  0.235600  1.0  0.1065
  H  H22  1  0.151200  0.256300  0.168400  1.0  0.1129
  H  H23  1  0.226500  0.105900  0.168600  1.0  0.1144
  H  H24  1  0.196900  0.804900  0.079000  1.0  0.1245
  H  H25  1  0.060100  0.946000  0.214700  1.0  0.1153
  H  H26  1  0.067200  0.063100  0.329000  1.0  0.1238
  H  H27  1  0.030400  0.215800  0.395200  1.0  0.118
  H  H28  1  0.384000  0.090700  0.735600  1.0  0.1061
  H  H29  1  0.348800  0.243700  0.668400  1.0  0.1126
  H  H30  1  0.273500  0.394100  0.668600  1.0  0.1147
  H  H31  1  0.303100  0.695100  0.579000  1.0  0.1245
  H  H32  1  0.439900  0.554000  0.714700  1.0  0.1149
  H  H33  1  0.432800  0.436900  0.829000  1.0  0.1234
  H  H34  1  0.469600  0.284200  0.895200  1.0  0.1176
  H  H35  1  0.884000  0.409300  0.264400  1.0  0.1061
  H  H36  1  0.848800  0.256300  0.331600  1.0  0.1129
  H  H37  1  0.773500  0.105900  0.331400  1.0  0.1151
  H  H38  1  0.803100  0.804900  0.421000  1.0  0.1245
  H  H39  1  0.939900  0.946000  0.285300  1.0  0.1152
  H  H40  1  0.932800  0.063100  0.171000  1.0  0.1235
  H  H41  1  0.969600  0.215800  0.104800  1.0  0.1178
  H  H42  1  0.616000  0.090700  0.764400  1.0  0.1058
  H  H43  1  0.651200  0.243700  0.831600  1.0  0.1133
  H  H44  1  0.726500  0.394100  0.831400  1.0  0.1148
  H  H45  1  0.696900  0.695100  0.921000  1.0  0.1242
  H  H46  1  0.560100  0.554000  0.785300  1.0  0.1155
  H  H47  1  0.567200  0.436900  0.671000  1.0  0.1236
  H  H48  1  0.530400  0.284200  0.604800  1.0  0.1182
  H  H49  1  0.884000  0.590700  0.764400  1.0  0.1056
  H  H50  1  0.848800  0.743700  0.831600  1.0  0.1131
  H  H51  1  0.773500  0.894100  0.831400  1.0  0.1149
  H  H52  1  0.803100  0.195100  0.921000  1.0  0.1242
  H  H53  1  0.939900  0.054000  0.785300  1.0  0.1154
  H  H54  1  0.932800  0.936900  0.671000  1.0  0.1235
  H  H55  1  0.969600  0.784200  0.604800  1.0  0.1177
  H  H56  1  0.616000  0.909300  0.264400  1.0  0.1061
  H  H57  1  0.651200  0.756300  0.331600  1.0  0.113
  H  H58  1  0.726500  0.605900  0.331400  1.0  0.115
  H  H59  1  0.696900  0.304900  0.421000  1.0  0.1245
  H  H60  1  0.560100  0.446000  0.285300  1.0  0.1152
  H  H61  1  0.567200  0.563100  0.171000  1.0  0.1239
  H  H62  1  0.530400  0.715800  0.104800  1.0  0.118
  H  H63  1  0.116000  0.590700  0.735600  1.0  0.1062
  H  H64  1  0.151200  0.743700  0.668400  1.0  0.1131
  H  H65  1  0.226500  0.894100  0.668600  1.0  0.1145
  H  H66  1  0.196900  0.195100  0.579000  1.0  0.1245
  H  H67  1  0.060100  0.054000  0.714700  1.0  0.115
  H  H68  1  0.067200  0.936900  0.829000  1.0  0.1234
  H  H69  1  0.030400  0.784200  0.895200  1.0  0.1177
  H  H70  1  0.384000  0.909300  0.235600  1.0  0.1065
  H  H71  1  0.348800  0.756300  0.168400  1.0  0.1125
  H  H72  1  0.273500  0.605900  0.168600  1.0  0.1147
  H  H73  1  0.303100  0.304900  0.079000  1.0  0.1245
  H  H74  1  0.439900  0.446000  0.214700  1.0  0.1151
  H  H75  1  0.432800  0.563100  0.329000  1.0  0.1235
  H  H76  1  0.469600  0.715800  0.395200  1.0  0.1182
  C  C77  1  0.068700  0.329800  0.322800  1.0  -0.2926
  C  C78  1  0.105600  0.339400  0.254600  1.0  -0.0212
  C  C79  1  0.127100  0.247400  0.214400  1.0  -0.1121
  C  C80  1  0.113700  0.142500  0.241200  1.0  0.0785
  C  C81  1  0.138400  0.044400  0.197700  1.0  0.0352
  C  C82  1  0.199900  0.044100  0.163100  1.0  -0.0424
  C  C83  1  0.223000  0.954500  0.120600  1.0  -0.1352
  C  C84  1  0.183000  0.863600  0.110200  1.0  0.0095
  C  C85  1  0.122200  0.860200  0.146200  1.0  -0.1213
  C  C86  1  0.100600  0.949500  0.190000  1.0  -0.0673
  C  C87  1  0.077000  0.132900  0.309600  1.0  -0.1164
  C  C88  1  0.054900  0.224800  0.349600  1.0  -0.0342
  C  C89  1  0.290500  0.955200  0.085900  1.0  0.7267
  C  C90  1  0.082500  0.756400  0.143700  1.0  0.746
  C  C91  1  0.431300  0.170200  0.822800  1.0  -0.2919
  C  C92  1  0.394400  0.160600  0.754600  1.0  -0.0205
  C  C93  1  0.372900  0.252600  0.714400  1.0  -0.1122
  C  C94  1  0.386300  0.357500  0.741200  1.0  0.0773
  C  C95  1  0.361600  0.455600  0.697700  1.0  0.0348
  C  C96  1  0.300100  0.455900  0.663100  1.0  -0.0418
  C  C97  1  0.277000  0.545500  0.620600  1.0  -0.1349
  C  C98  1  0.317000  0.636400  0.610200  1.0  0.0081
  C  C99  1  0.377800  0.639800  0.646200  1.0  -0.1208
  C  C100  1  0.399400  0.550500  0.690000  1.0  -0.0676
  C  C101  1  0.423000  0.367100  0.809600  1.0  -0.1165
  C  C102  1  0.445100  0.275200  0.849600  1.0  -0.0349
  C  C103  1  0.209500  0.544800  0.585900  1.0  0.7283
  C  C104  1  0.417500  0.743600  0.643700  1.0  0.747
  C  C105  1  0.931300  0.329800  0.177200  1.0  -0.294
  C  C106  1  0.894400  0.339400  0.245400  1.0  -0.0211
  C  C107  1  0.872900  0.247400  0.285600  1.0  -0.1126
  C  C108  1  0.886300  0.142500  0.258800  1.0  0.0772
  C  C109  1  0.861600  0.044400  0.302300  1.0  0.0358
  C  C110  1  0.800100  0.044100  0.336900  1.0  -0.042
  C  C111  1  0.777000  0.954500  0.379400  1.0  -0.1345
  C  C112  1  0.817000  0.863600  0.389800  1.0  0.008
  C  C113  1  0.877800  0.860200  0.353800  1.0  -0.1209
  C  C114  1  0.899400  0.949500  0.310000  1.0  -0.0672
  C  C115  1  0.923000  0.132900  0.190400  1.0  -0.1138
  C  C116  1  0.945100  0.224800  0.150400  1.0  -0.0352
  C  C117  1  0.709500  0.955200  0.414100  1.0  0.7255
  C  C118  1  0.917500  0.756400  0.356300  1.0  0.7461
  C  C119  1  0.568700  0.170200  0.677200  1.0  -0.2934
  C  C120  1  0.605600  0.160600  0.745400  1.0  -0.0204
  C  C121  1  0.627100  0.252600  0.785600  1.0  -0.1126
  C  C122  1  0.613700  0.357500  0.758800  1.0  0.0774
  C  C123  1  0.638400  0.455600  0.802300  1.0  0.0352
  C  C124  1  0.699900  0.455900  0.836900  1.0  -0.0417
  C  C125  1  0.723000  0.545500  0.879400  1.0  -0.1348
  C  C126  1  0.683000  0.636400  0.889800  1.0  0.0089
  C  C127  1  0.622200  0.639800  0.853800  1.0  -0.1205
  C  C128  1  0.600600  0.550500  0.810000  1.0  -0.0669
  C  C129  1  0.577000  0.367100  0.690400  1.0  -0.1154
  C  C130  1  0.554900  0.275200  0.650400  1.0  -0.0336
  C  C131  1  0.790500  0.544800  0.914100  1.0  0.7259
  C  C132  1  0.582500  0.743600  0.856300  1.0  0.7462
  C  C133  1  0.931300  0.670200  0.677200  1.0  -0.2933
  C  C134  1  0.894400  0.660600  0.745400  1.0  -0.0202
  C  C135  1  0.872900  0.752600  0.785600  1.0  -0.1127
  C  C136  1  0.886300  0.857500  0.758800  1.0  0.0766
  C  C137  1  0.861600  0.955600  0.802300  1.0  0.0352
  C  C138  1  0.800100  0.955900  0.836900  1.0  -0.0418
  C  C139  1  0.777000  0.045500  0.879400  1.0  -0.1344
  C  C140  1  0.817000  0.136400  0.889800  1.0  0.0082
  C  C141  1  0.877800  0.139800  0.853800  1.0  -0.1208
  C  C142  1  0.899400  0.050500  0.810000  1.0  -0.0671
  C  C143  1  0.923000  0.867100  0.690400  1.0  -0.1145
  C  C144  1  0.945100  0.775200  0.650400  1.0  -0.035
  C  C145  1  0.709500  0.044800  0.914100  1.0  0.7258
  C  C146  1  0.917500  0.243600  0.856300  1.0  0.7469
  C  C147  1  0.568700  0.829800  0.177200  1.0  -0.2938
  C  C148  1  0.605600  0.839400  0.245400  1.0  -0.021
  C  C149  1  0.627100  0.747400  0.285600  1.0  -0.1127
  C  C150  1  0.613700  0.642500  0.258800  1.0  0.0781
  C  C151  1  0.638400  0.544400  0.302300  1.0  0.0358
  C  C152  1  0.699900  0.544100  0.336900  1.0  -0.0422
  C  C153  1  0.723000  0.454500  0.379400  1.0  -0.1348
  C  C154  1  0.683000  0.363600  0.389800  1.0  0.0088
  C  C155  1  0.622200  0.360200  0.353800  1.0  -0.1209
  C  C156  1  0.600600  0.449500  0.310000  1.0  -0.067
  C  C157  1  0.577000  0.632900  0.190400  1.0  -0.115
  C  C158  1  0.554900  0.724800  0.150400  1.0  -0.0339
  C  C159  1  0.790500  0.455200  0.414100  1.0  0.7257
  C  C160  1  0.582500  0.256400  0.356300  1.0  0.7457
  C  C161  1  0.068700  0.670200  0.822800  1.0  -0.2915
  C  C162  1  0.105600  0.660600  0.754600  1.0  -0.0208
  C  C163  1  0.127100  0.752600  0.714400  1.0  -0.1121
  C  C164  1  0.113700  0.857500  0.741200  1.0  0.0777
  C  C165  1  0.138400  0.955600  0.697700  1.0  0.0348
  C  C166  1  0.199900  0.955900  0.663100  1.0  -0.0417
  C  C167  1  0.223000  0.045500  0.620600  1.0  -0.1353
  C  C168  1  0.183000  0.136400  0.610200  1.0  0.0086
  C  C169  1  0.122200  0.139800  0.646200  1.0  -0.1206
  C  C170  1  0.100600  0.050500  0.690000  1.0  -0.0674
  C  C171  1  0.077000  0.867100  0.809600  1.0  -0.116
  C  C172  1  0.054900  0.775200  0.849600  1.0  -0.0341
  C  C173  1  0.290500  0.044800  0.585900  1.0  0.7266
  C  C174  1  0.082500  0.243600  0.643700  1.0  0.7463
  C  C175  1  0.431300  0.829800  0.322800  1.0  -0.2933
  C  C176  1  0.394400  0.839400  0.254600  1.0  -0.0211
  C  C177  1  0.372900  0.747400  0.214400  1.0  -0.1119
  C  C178  1  0.386300  0.642500  0.241200  1.0  0.0781
  C  C179  1  0.361600  0.544400  0.197700  1.0  0.0351
  C  C180  1  0.300100  0.544100  0.163100  1.0  -0.0422
  C  C181  1  0.277000  0.454500  0.120600  1.0  -0.1349
  C  C182  1  0.317000  0.363600  0.110200  1.0  0.0088
  C  C183  1  0.377800  0.360200  0.146200  1.0  -0.1212
  C  C184  1  0.399400  0.449500  0.190000  1.0  -0.0676
  C  C185  1  0.423000  0.632900  0.309600  1.0  -0.1163
  C  C186  1  0.445100  0.724800  0.349600  1.0  -0.0351
  C  C187  1  0.209500  0.455200  0.085900  1.0  0.7284
  C  C188  1  0.417500  0.256400  0.143700  1.0  0.7463
  O  O189  1  0.976230  0.440800  0.402900  1.0  -0.787
  O  O190  1  0.057030  0.549600  0.323040  1.0  -0.7591
  O  O191  1  0.094170  0.462300  0.445140  1.0  -0.7808
  O  O192  1  0.059100  0.728000  0.208100  1.0  -0.6173
  O  O193  1  0.076650  0.704800  0.080300  1.0  -0.6121
  O  O194  1  0.326940  0.035600  0.106200  1.0  -0.5969
  O  O195  1  0.307190  0.878300  0.042800  1.0  -0.5212
  O  O196  1  0.523770  0.059200  0.902900  1.0  -0.7865
  O  O197  1  0.442970  0.950400  0.823040  1.0  -0.7602
  O  O198  1  0.405830  0.037700  0.945140  1.0  -0.7795
  O  O199  1  0.440900  0.772000  0.708100  1.0  -0.617
  O  O200  1  0.423350  0.795200  0.580300  1.0  -0.6105
  O  O201  1  0.173060  0.464400  0.606200  1.0  -0.5966
  O  O202  1  0.192810  0.621700  0.542800  1.0  -0.5206
  O  O203  1  0.023770  0.440800  0.097100  1.0  -0.7866
  O  O204  1  0.942970  0.549600  0.176960  1.0  -0.7596
  O  O205  1  0.905830  0.462300  0.054860  1.0  -0.7786
  O  O206  1  0.940900  0.728000  0.291900  1.0  -0.615
  O  O207  1  0.923350  0.704800  0.419700  1.0  -0.6096
  O  O208  1  0.673060  0.035600  0.393800  1.0  -0.5959
  O  O209  1  0.692810  0.878300  0.457200  1.0  -0.5222
  O  O210  1  0.476230  0.059200  0.597100  1.0  -0.7861
  O  O211  1  0.557030  0.950400  0.676960  1.0  -0.7605
  O  O212  1  0.594170  0.037700  0.554860  1.0  -0.7799
  O  O213  1  0.559100  0.772000  0.791900  1.0  -0.616
  O  O214  1  0.576650  0.795200  0.919700  1.0  -0.6109
  O  O215  1  0.826940  0.464400  0.893800  1.0  -0.5951
  O  O216  1  0.807190  0.621700  0.957200  1.0  -0.521
  O  O217  1  0.023770  0.559200  0.597100  1.0  -0.7861
  O  O218  1  0.942970  0.450400  0.676960  1.0  -0.7601
  O  O219  1  0.905830  0.537700  0.554860  1.0  -0.7789
  O  O220  1  0.940900  0.272000  0.791900  1.0  -0.615
  O  O221  1  0.923350  0.295200  0.919700  1.0  -0.6093
  O  O222  1  0.673060  0.964400  0.893800  1.0  -0.5956
  O  O223  1  0.692810  0.121700  0.957200  1.0  -0.5212
  O  O224  1  0.476230  0.940800  0.097100  1.0  -0.7867
  O  O225  1  0.557030  0.049600  0.176960  1.0  -0.7599
  O  O226  1  0.594170  0.962300  0.054860  1.0  -0.78
  O  O227  1  0.559100  0.228000  0.291900  1.0  -0.616
  O  O228  1  0.576650  0.204800  0.419700  1.0  -0.6117
  O  O229  1  0.826940  0.535600  0.393800  1.0  -0.5956
  O  O230  1  0.807190  0.378300  0.457200  1.0  -0.522
  O  O231  1  0.976230  0.559200  0.902900  1.0  -0.7866
  O  O232  1  0.057030  0.450400  0.823040  1.0  -0.7599
  O  O233  1  0.094170  0.537700  0.945140  1.0  -0.7811
  O  O234  1  0.059100  0.272000  0.708100  1.0  -0.6175
  O  O235  1  0.076650  0.295200  0.580300  1.0  -0.6125
  O  O236  1  0.326940  0.964400  0.606200  1.0  -0.5961
  O  O237  1  0.307190  0.121700  0.542800  1.0  -0.5206
  O  O238  1  0.523770  0.940800  0.402900  1.0  -0.7868
  O  O239  1  0.442970  0.049600  0.323040  1.0  -0.7591
  O  O240  1  0.405830  0.962300  0.445140  1.0  -0.7796
  O  O241  1  0.440900  0.228000  0.208100  1.0  -0.6169
  O  O242  1  0.423350  0.204800  0.080300  1.0  -0.6111
  O  O243  1  0.173060  0.535600  0.106200  1.0  -0.5969
  O  O244  1  0.192810  0.378300  0.042800  1.0  -0.5213
