# generated using pymatgen
data_ZnPH7(C2O)7
_symmetry_space_group_name_H-M   'P 1'
_cell_length_a   21.54000000
_cell_length_b   9.16800000
_cell_length_c   23.32100000
_cell_angle_alpha   90.00000000
_cell_angle_beta   101.73600000
_cell_angle_gamma   90.00000000
_symmetry_Int_Tables_number   1
_chemical_formula_structural   ZnPH7(C2O)7
_chemical_formula_sum   'Zn8 P8 H56 C112 O56'
_cell_volume   4509.12624821
_cell_formula_units_Z   8
loop_
 _symmetry_equiv_pos_site_id
 _symmetry_equiv_pos_as_xyz
  1  'x, y, z'
loop_
 _atom_site_type_symbol
 _atom_site_label
 _atom_site_symmetry_multiplicity
 _atom_site_fract_x
 _atom_site_fract_y
 _atom_site_fract_z
 _atom_site_occupancy
 _atom_site_charge
  Zn  Zn1  1  0.084780  0.623440  0.504140  1.0  1.118
  Zn  Zn2  1  0.584780  0.123440  0.504140  1.0  1.118
  Zn  Zn3  1  0.915220  0.623440  0.995860  1.0  1.1204
  Zn  Zn4  1  0.415220  0.123440  0.995860  1.0  1.1204
  Zn  Zn5  1  0.915220  0.376560  0.495860  1.0  1.1204
  Zn  Zn6  1  0.415220  0.876560  0.495860  1.0  1.1204
  Zn  Zn7  1  0.084780  0.376560  0.004140  1.0  1.1179
  Zn  Zn8  1  0.584780  0.876560  0.004140  1.0  1.1179
  P  P9  1  0.062810  0.695180  0.047980  1.0  1.55
  P  P10  1  0.562810  0.195180  0.047980  1.0  1.55
  P  P11  1  0.937190  0.695180  0.452020  1.0  1.5495
  P  P12  1  0.437190  0.195180  0.452020  1.0  1.5495
  P  P13  1  0.937190  0.304820  0.952020  1.0  1.55
  P  P14  1  0.437190  0.804820  0.952020  1.0  1.55
  P  P15  1  0.062810  0.304820  0.547980  1.0  1.5493
  P  P16  1  0.562810  0.804820  0.547980  1.0  1.5493
  H  H17  1  0.313700  0.671600  0.449200  1.0  0.1286
  H  H18  1  0.300600  0.758000  0.278900  1.0  0.1278
  H  H19  1  0.214600  0.895800  0.209100  1.0  0.1101
  H  H20  1  0.155000  0.893700  0.115200  1.0  0.1181
  H  H21  1  0.066200  0.534300  0.152400  1.0  0.1211
  H  H22  1  0.126200  0.535700  0.245400  1.0  0.124
  H  H23  1  0.144500  0.661900  0.339100  1.0  0.1308
  H  H24  1  0.813700  0.171600  0.449200  1.0  0.1286
  H  H25  1  0.800600  0.258000  0.278900  1.0  0.1278
  H  H26  1  0.714600  0.395800  0.209100  1.0  0.1101
  H  H27  1  0.655000  0.393700  0.115200  1.0  0.1181
  H  H28  1  0.566200  0.034300  0.152400  1.0  0.1211
  H  H29  1  0.626200  0.035700  0.245400  1.0  0.124
  H  H30  1  0.644500  0.161900  0.339100  1.0  0.1308
  H  H31  1  0.686300  0.671600  0.050800  1.0  0.1284
  H  H32  1  0.699400  0.758000  0.221100  1.0  0.1279
  H  H33  1  0.785400  0.895800  0.290900  1.0  0.1099
  H  H34  1  0.845000  0.893700  0.384800  1.0  0.1186
  H  H35  1  0.933800  0.534300  0.347600  1.0  0.1213
  H  H36  1  0.873800  0.535700  0.254600  1.0  0.1231
  H  H37  1  0.855500  0.661900  0.160900  1.0  0.1307
  H  H38  1  0.186300  0.171600  0.050800  1.0  0.1284
  H  H39  1  0.199400  0.258000  0.221100  1.0  0.1279
  H  H40  1  0.285400  0.395800  0.290900  1.0  0.1099
  H  H41  1  0.345000  0.393700  0.384800  1.0  0.1186
  H  H42  1  0.433800  0.034300  0.347600  1.0  0.1213
  H  H43  1  0.373800  0.035700  0.254600  1.0  0.1231
  H  H44  1  0.355500  0.161900  0.160900  1.0  0.1307
  H  H45  1  0.686300  0.328400  0.550800  1.0  0.1282
  H  H46  1  0.699400  0.242000  0.721100  1.0  0.128
  H  H47  1  0.785400  0.104200  0.790900  1.0  0.1101
  H  H48  1  0.845000  0.106300  0.884800  1.0  0.119
  H  H49  1  0.933800  0.465700  0.847600  1.0  0.1214
  H  H50  1  0.873800  0.464300  0.754600  1.0  0.1235
  H  H51  1  0.855500  0.338100  0.660900  1.0  0.1307
  H  H52  1  0.186300  0.828400  0.550800  1.0  0.1282
  H  H53  1  0.199400  0.742000  0.721100  1.0  0.128
  H  H54  1  0.285400  0.604200  0.790900  1.0  0.1101
  H  H55  1  0.345000  0.606300  0.884800  1.0  0.119
  H  H56  1  0.433800  0.965700  0.847600  1.0  0.1214
  H  H57  1  0.373800  0.964300  0.754600  1.0  0.1235
  H  H58  1  0.355500  0.838100  0.660900  1.0  0.1307
  H  H59  1  0.313700  0.328400  0.949200  1.0  0.1279
  H  H60  1  0.300600  0.242000  0.778900  1.0  0.1277
  H  H61  1  0.214600  0.104200  0.709100  1.0  0.1103
  H  H62  1  0.155000  0.106300  0.615200  1.0  0.1184
  H  H63  1  0.066200  0.465700  0.652400  1.0  0.1212
  H  H64  1  0.126200  0.464300  0.745400  1.0  0.1239
  H  H65  1  0.144500  0.338100  0.839100  1.0  0.131
  H  H66  1  0.813700  0.828400  0.949200  1.0  0.1279
  H  H67  1  0.800600  0.742000  0.778900  1.0  0.1277
  H  H68  1  0.714600  0.604200  0.709100  1.0  0.1103
  H  H69  1  0.655000  0.606300  0.615200  1.0  0.1184
  H  H70  1  0.566200  0.965700  0.652400  1.0  0.1212
  H  H71  1  0.626200  0.964300  0.745400  1.0  0.1239
  H  H72  1  0.644500  0.838100  0.839100  1.0  0.131
  C  C73  1  0.193560  0.626800  0.452480  1.0  0.7102
  C  C74  1  0.224120  0.662800  0.401800  1.0  -0.0905
  C  C75  1  0.289320  0.682800  0.411680  1.0  0.0063
  C  C76  1  0.318040  0.719400  0.365760  1.0  -0.1255
  C  C77  1  0.388500  0.737500  0.375440  1.0  0.7349
  C  C78  1  0.281100  0.733000  0.309660  1.0  -0.035
  C  C79  1  0.216360  0.710300  0.298350  1.0  0.0415
  C  C80  1  0.177330  0.715200  0.238160  1.0  0.0756
  C  C81  1  0.184960  0.822100  0.197920  1.0  -0.1202
  C  C82  1  0.149100  0.820800  0.141380  1.0  -0.0144
  C  C83  1  0.104440  0.712000  0.123180  1.0  -0.181
  C  C84  1  0.096390  0.607100  0.163330  1.0  -0.0308
  C  C85  1  0.132310  0.608500  0.219390  1.0  -0.1081
  C  C86  1  0.188170  0.676100  0.345500  1.0  -0.06
  C  C87  1  0.693560  0.126800  0.452480  1.0  0.7102
  C  C88  1  0.724120  0.162800  0.401800  1.0  -0.0905
  C  C89  1  0.789320  0.182800  0.411680  1.0  0.0063
  C  C90  1  0.818040  0.219400  0.365760  1.0  -0.1255
  C  C91  1  0.888500  0.237500  0.375440  1.0  0.7349
  C  C92  1  0.781100  0.233000  0.309660  1.0  -0.035
  C  C93  1  0.716360  0.210300  0.298350  1.0  0.0415
  C  C94  1  0.677330  0.215200  0.238160  1.0  0.0756
  C  C95  1  0.684960  0.322100  0.197920  1.0  -0.1202
  C  C96  1  0.649100  0.320800  0.141380  1.0  -0.0144
  C  C97  1  0.604440  0.212000  0.123180  1.0  -0.181
  C  C98  1  0.596390  0.107100  0.163330  1.0  -0.0308
  C  C99  1  0.632310  0.108500  0.219390  1.0  -0.1081
  C  C100  1  0.688170  0.176100  0.345500  1.0  -0.06
  C  C101  1  0.806440  0.626800  0.047520  1.0  0.7098
  C  C102  1  0.775880  0.662800  0.098200  1.0  -0.0913
  C  C103  1  0.710680  0.682800  0.088320  1.0  0.0048
  C  C104  1  0.681960  0.719400  0.134240  1.0  -0.126
  C  C105  1  0.611500  0.737500  0.124560  1.0  0.7351
  C  C106  1  0.718900  0.733000  0.190340  1.0  -0.0351
  C  C107  1  0.783640  0.710300  0.201650  1.0  0.0421
  C  C108  1  0.822670  0.715200  0.261840  1.0  0.0773
  C  C109  1  0.815040  0.822100  0.302080  1.0  -0.1201
  C  C110  1  0.850900  0.820800  0.358620  1.0  -0.0143
  C  C111  1  0.895560  0.712000  0.376820  1.0  -0.1795
  C  C112  1  0.903610  0.607100  0.336670  1.0  -0.0311
  C  C113  1  0.867690  0.608500  0.280610  1.0  -0.108
  C  C114  1  0.811830  0.676100  0.154500  1.0  -0.0583
  C  C115  1  0.306440  0.126800  0.047520  1.0  0.7098
  C  C116  1  0.275880  0.162800  0.098200  1.0  -0.0913
  C  C117  1  0.210680  0.182800  0.088320  1.0  0.0048
  C  C118  1  0.181960  0.219400  0.134240  1.0  -0.126
  C  C119  1  0.111500  0.237500  0.124560  1.0  0.7351
  C  C120  1  0.218900  0.233000  0.190340  1.0  -0.0351
  C  C121  1  0.283640  0.210300  0.201650  1.0  0.0421
  C  C122  1  0.322670  0.215200  0.261840  1.0  0.0773
  C  C123  1  0.315040  0.322100  0.302080  1.0  -0.1201
  C  C124  1  0.350900  0.320800  0.358620  1.0  -0.0143
  C  C125  1  0.395560  0.212000  0.376820  1.0  -0.1795
  C  C126  1  0.403610  0.107100  0.336670  1.0  -0.0311
  C  C127  1  0.367690  0.108500  0.280610  1.0  -0.108
  C  C128  1  0.311830  0.176100  0.154500  1.0  -0.0583
  C  C129  1  0.806440  0.373200  0.547520  1.0  0.7096
  C  C130  1  0.775880  0.337200  0.598200  1.0  -0.0914
  C  C131  1  0.710680  0.317200  0.588320  1.0  0.0048
  C  C132  1  0.681960  0.280600  0.634240  1.0  -0.1267
  C  C133  1  0.611500  0.262500  0.624560  1.0  0.735
  C  C134  1  0.718900  0.267000  0.690340  1.0  -0.0353
  C  C135  1  0.783640  0.289700  0.701650  1.0  0.0421
  C  C136  1  0.822670  0.284800  0.761840  1.0  0.0775
  C  C137  1  0.815040  0.177900  0.802080  1.0  -0.1199
  C  C138  1  0.850900  0.179200  0.858620  1.0  -0.0144
  C  C139  1  0.895560  0.288000  0.876820  1.0  -0.1789
  C  C140  1  0.903610  0.392900  0.836670  1.0  -0.0312
  C  C141  1  0.867690  0.391500  0.780610  1.0  -0.1083
  C  C142  1  0.811830  0.323900  0.654500  1.0  -0.059
  C  C143  1  0.306440  0.873200  0.547520  1.0  0.7096
  C  C144  1  0.275880  0.837200  0.598200  1.0  -0.0914
  C  C145  1  0.210680  0.817200  0.588320  1.0  0.0048
  C  C146  1  0.181960  0.780600  0.634240  1.0  -0.1267
  C  C147  1  0.111500  0.762500  0.624560  1.0  0.735
  C  C148  1  0.218900  0.767000  0.690340  1.0  -0.0353
  C  C149  1  0.283640  0.789700  0.701650  1.0  0.0421
  C  C150  1  0.322670  0.784800  0.761840  1.0  0.0775
  C  C151  1  0.315040  0.677900  0.802080  1.0  -0.1199
  C  C152  1  0.350900  0.679200  0.858620  1.0  -0.0144
  C  C153  1  0.395560  0.788000  0.876820  1.0  -0.1789
  C  C154  1  0.403610  0.892900  0.836670  1.0  -0.0312
  C  C155  1  0.367690  0.891500  0.780610  1.0  -0.1083
  C  C156  1  0.311830  0.823900  0.654500  1.0  -0.059
  C  C157  1  0.193560  0.373200  0.952480  1.0  0.7093
  C  C158  1  0.224120  0.337200  0.901800  1.0  -0.0905
  C  C159  1  0.289320  0.317200  0.911680  1.0  0.0063
  C  C160  1  0.318040  0.280600  0.865760  1.0  -0.1255
  C  C161  1  0.388500  0.262500  0.875440  1.0  0.7348
  C  C162  1  0.281100  0.267000  0.809660  1.0  -0.0349
  C  C163  1  0.216360  0.289700  0.798350  1.0  0.0413
  C  C164  1  0.177330  0.284800  0.738160  1.0  0.0758
  C  C165  1  0.184960  0.177900  0.697920  1.0  -0.1197
  C  C166  1  0.149100  0.179200  0.641380  1.0  -0.0142
  C  C167  1  0.104440  0.288000  0.623180  1.0  -0.1809
  C  C168  1  0.096390  0.392900  0.663330  1.0  -0.0313
  C  C169  1  0.132310  0.391500  0.719390  1.0  -0.1086
  C  C170  1  0.188170  0.323900  0.845500  1.0  -0.0603
  C  C171  1  0.693560  0.873200  0.952480  1.0  0.7093
  C  C172  1  0.724120  0.837200  0.901800  1.0  -0.0905
  C  C173  1  0.789320  0.817200  0.911680  1.0  0.0063
  C  C174  1  0.818040  0.780600  0.865760  1.0  -0.1255
  C  C175  1  0.888500  0.762500  0.875440  1.0  0.7348
  C  C176  1  0.781100  0.767000  0.809660  1.0  -0.0349
  C  C177  1  0.716360  0.789700  0.798350  1.0  0.0413
  C  C178  1  0.677330  0.784800  0.738160  1.0  0.0758
  C  C179  1  0.684960  0.677900  0.697920  1.0  -0.1197
  C  C180  1  0.649100  0.679200  0.641380  1.0  -0.0142
  C  C181  1  0.604440  0.788000  0.623180  1.0  -0.1809
  C  C182  1  0.596390  0.892900  0.663330  1.0  -0.0313
  C  C183  1  0.632310  0.891500  0.719390  1.0  -0.1086
  C  C184  1  0.688170  0.823900  0.845500  1.0  -0.0603
  O  O185  1  0.222560  0.555900  0.493310  1.0  -0.4927
  O  O186  1  0.137890  0.678900  0.448970  1.0  -0.5646
  O  O187  1  0.419600  0.761400  0.426950  1.0  -0.6567
  O  O188  1  0.413920  0.725600  0.333130  1.0  -0.4944
  O  O189  1  0.098250  0.580000  0.020910  1.0  -0.7663
  O  O190  1  0.066000  0.839900  0.018270  1.0  -0.5538
  O  O191  1  0.995700  0.648000  0.050610  1.0  -0.8058
  O  O192  1  0.722560  0.055900  0.493310  1.0  -0.4927
  O  O193  1  0.637890  0.178900  0.448970  1.0  -0.5646
  O  O194  1  0.919600  0.261400  0.426950  1.0  -0.6567
  O  O195  1  0.913920  0.225600  0.333130  1.0  -0.4944
  O  O196  1  0.598250  0.080000  0.020910  1.0  -0.7663
  O  O197  1  0.566000  0.339900  0.018270  1.0  -0.5538
  O  O198  1  0.495700  0.148000  0.050610  1.0  -0.8058
  O  O199  1  0.777440  0.555900  0.006690  1.0  -0.4913
  O  O200  1  0.862110  0.678900  0.051030  1.0  -0.5648
  O  O201  1  0.580400  0.761400  0.073050  1.0  -0.6577
  O  O202  1  0.586080  0.725600  0.166870  1.0  -0.4938
  O  O203  1  0.901750  0.580000  0.479090  1.0  -0.7654
  O  O204  1  0.934000  0.839900  0.481730  1.0  -0.5532
  O  O205  1  0.004300  0.648000  0.449390  1.0  -0.8049
  O  O206  1  0.277440  0.055900  0.006690  1.0  -0.4913
  O  O207  1  0.362110  0.178900  0.051030  1.0  -0.5648
  O  O208  1  0.080400  0.261400  0.073050  1.0  -0.6577
  O  O209  1  0.086080  0.225600  0.166870  1.0  -0.4938
  O  O210  1  0.401750  0.080000  0.479090  1.0  -0.7654
  O  O211  1  0.434000  0.339900  0.481730  1.0  -0.5532
  O  O212  1  0.504300  0.148000  0.449390  1.0  -0.8049
  O  O213  1  0.777440  0.444100  0.506690  1.0  -0.4931
  O  O214  1  0.862110  0.321100  0.551030  1.0  -0.5645
  O  O215  1  0.580400  0.238600  0.573050  1.0  -0.6584
  O  O216  1  0.586080  0.274400  0.666870  1.0  -0.4941
  O  O217  1  0.901750  0.420000  0.979090  1.0  -0.7649
  O  O218  1  0.934000  0.160100  0.981730  1.0  -0.5535
  O  O219  1  0.004300  0.352000  0.949390  1.0  -0.8057
  O  O220  1  0.277440  0.944100  0.506690  1.0  -0.4931
  O  O221  1  0.362110  0.821100  0.551030  1.0  -0.5645
  O  O222  1  0.080400  0.738600  0.573050  1.0  -0.6584
  O  O223  1  0.086080  0.774400  0.666870  1.0  -0.4941
  O  O224  1  0.401750  0.920000  0.979090  1.0  -0.7649
  O  O225  1  0.434000  0.660100  0.981730  1.0  -0.5535
  O  O226  1  0.504300  0.852000  0.949390  1.0  -0.8057
  O  O227  1  0.222560  0.444100  0.993310  1.0  -0.494
  O  O228  1  0.137890  0.321100  0.948970  1.0  -0.5641
  O  O229  1  0.419600  0.238600  0.926950  1.0  -0.6572
  O  O230  1  0.413920  0.274400  0.833130  1.0  -0.4942
  O  O231  1  0.098250  0.420000  0.520910  1.0  -0.7663
  O  O232  1  0.066000  0.160100  0.518270  1.0  -0.5517
  O  O233  1  0.995700  0.352000  0.550610  1.0  -0.8041
  O  O234  1  0.722560  0.944100  0.993310  1.0  -0.494
  O  O235  1  0.637890  0.821100  0.948970  1.0  -0.5641
  O  O236  1  0.919600  0.738600  0.926950  1.0  -0.6572
  O  O237  1  0.913920  0.774400  0.833130  1.0  -0.4942
  O  O238  1  0.598250  0.920000  0.520910  1.0  -0.7663
  O  O239  1  0.566000  0.660100  0.518270  1.0  -0.5517
  O  O240  1  0.495700  0.852000  0.550610  1.0  -0.8041
