# generated using pymatgen
data_Zn3P2H14(C2O)14
_symmetry_space_group_name_H-M   'P 1'
_cell_length_a   20.58350000
_cell_length_b   12.00820000
_cell_length_c   17.06400000
_cell_angle_alpha   90.00000000
_cell_angle_beta   90.00000000
_cell_angle_gamma   90.00000000
_symmetry_Int_Tables_number   1
_chemical_formula_structural   Zn3P2H14(C2O)14
_chemical_formula_sum   'Zn12 P8 H56 C112 O56'
_cell_volume   4217.72227012
_cell_formula_units_Z   4
loop_
 _symmetry_equiv_pos_site_id
 _symmetry_equiv_pos_as_xyz
  1  'x, y, z'
loop_
 _atom_site_type_symbol
 _atom_site_label
 _atom_site_symmetry_multiplicity
 _atom_site_fract_x
 _atom_site_fract_y
 _atom_site_fract_z
 _atom_site_occupancy
 _atom_site_charge
  Zn  Zn1  1  0.587550  0.040080  0.056100  1.0  1.1016
  Zn  Zn2  1  0.912450  0.459920  0.556100  1.0  1.101
  Zn  Zn3  1  0.412450  0.040080  0.443900  1.0  1.102
  Zn  Zn4  1  0.087550  0.459920  0.943900  1.0  1.1022
  Zn  Zn5  1  0.412450  0.959920  0.943900  1.0  1.102
  Zn  Zn6  1  0.087550  0.540080  0.443900  1.0  1.1023
  Zn  Zn7  1  0.587550  0.959920  0.556100  1.0  1.1015
  Zn  Zn8  1  0.912450  0.540080  0.056100  1.0  1.1009
  Zn  Zn9  1  0.000000  0.622510  0.250000  1.0  1.1032
  Zn  Zn10  1  0.500000  0.877490  0.750000  1.0  1.1052
  Zn  Zn11  1  0.000000  0.377490  0.750000  1.0  1.1052
  Zn  Zn12  1  0.500000  0.122510  0.250000  1.0  1.1032
  P  P13  1  0.953440  0.455300  0.377450  1.0  1.5465
  P  P14  1  0.546560  0.044700  0.877450  1.0  1.547
  P  P15  1  0.046560  0.455300  0.122550  1.0  1.5456
  P  P16  1  0.453440  0.044700  0.622550  1.0  1.5453
  P  P17  1  0.046560  0.544700  0.622550  1.0  1.5454
  P  P18  1  0.453440  0.955300  0.122550  1.0  1.5463
  P  P19  1  0.953440  0.544700  0.877450  1.0  1.5472
  P  P20  1  0.546560  0.955300  0.377450  1.0  1.5465
  H  H21  1  0.773400  0.109100  0.165900  1.0  0.1147
  H  H22  1  0.803900  0.804600  0.077900  1.0  0.1166
  H  H23  1  0.940200  0.949600  0.211600  1.0  0.1161
  H  H24  1  0.846300  0.262800  0.169400  1.0  0.1055
  H  H25  1  0.933700  0.064300  0.324800  1.0  0.1175
  H  H26  1  0.882000  0.414800  0.237400  1.0  0.1109
  H  H27  1  0.969400  0.216900  0.392600  1.0  0.1202
  H  H28  1  0.726600  0.390900  0.665900  1.0  0.1145
  H  H29  1  0.696100  0.695400  0.577900  1.0  0.1163
  H  H30  1  0.559800  0.550400  0.711600  1.0  0.1158
  H  H31  1  0.653700  0.237200  0.669400  1.0  0.1059
  H  H32  1  0.566300  0.435700  0.824800  1.0  0.1174
  H  H33  1  0.618000  0.085200  0.737400  1.0  0.1106
  H  H34  1  0.530600  0.283100  0.892600  1.0  0.12
  H  H35  1  0.226600  0.109100  0.334100  1.0  0.1146
  H  H36  1  0.196100  0.804600  0.422100  1.0  0.1167
  H  H37  1  0.059800  0.949600  0.288400  1.0  0.1159
  H  H38  1  0.153700  0.262800  0.330600  1.0  0.1065
  H  H39  1  0.066300  0.064300  0.175200  1.0  0.1175
  H  H40  1  0.118000  0.414800  0.262600  1.0  0.1096
  H  H41  1  0.030600  0.216900  0.107400  1.0  0.12
  H  H42  1  0.273400  0.390900  0.834100  1.0  0.1148
  H  H43  1  0.303900  0.695400  0.922100  1.0  0.1162
  H  H44  1  0.440200  0.550400  0.788400  1.0  0.1162
  H  H45  1  0.346300  0.237200  0.830600  1.0  0.1065
  H  H46  1  0.433700  0.435700  0.675200  1.0  0.1176
  H  H47  1  0.382000  0.085200  0.762600  1.0  0.1095
  H  H48  1  0.469400  0.283100  0.607400  1.0  0.1203
  H  H49  1  0.226600  0.890900  0.834100  1.0  0.1147
  H  H50  1  0.196100  0.195400  0.922100  1.0  0.1163
  H  H51  1  0.059800  0.050400  0.788400  1.0  0.1163
  H  H52  1  0.153700  0.737200  0.830600  1.0  0.1067
  H  H53  1  0.066300  0.935700  0.675200  1.0  0.1175
  H  H54  1  0.118000  0.585200  0.762600  1.0  0.1091
  H  H55  1  0.030600  0.783100  0.607400  1.0  0.1205
  H  H56  1  0.273400  0.609100  0.334100  1.0  0.1149
  H  H57  1  0.303900  0.304600  0.422100  1.0  0.1166
  H  H58  1  0.440200  0.449600  0.288400  1.0  0.116
  H  H59  1  0.346300  0.762800  0.330600  1.0  0.1062
  H  H60  1  0.433700  0.564300  0.175200  1.0  0.1176
  H  H61  1  0.382000  0.914800  0.262600  1.0  0.1093
  H  H62  1  0.469400  0.716900  0.107400  1.0  0.1202
  H  H63  1  0.773400  0.890900  0.665900  1.0  0.1147
  H  H64  1  0.803900  0.195400  0.577900  1.0  0.1161
  H  H65  1  0.940200  0.050400  0.711600  1.0  0.1158
  H  H66  1  0.846300  0.737200  0.669400  1.0  0.1056
  H  H67  1  0.933700  0.935700  0.824800  1.0  0.1175
  H  H68  1  0.882000  0.585200  0.737400  1.0  0.1097
  H  H69  1  0.969400  0.783100  0.892600  1.0  0.12
  H  H70  1  0.726600  0.609100  0.165900  1.0  0.1143
  H  H71  1  0.696100  0.304600  0.077900  1.0  0.1167
  H  H72  1  0.559800  0.449600  0.211600  1.0  0.116
  H  H73  1  0.653700  0.762800  0.169400  1.0  0.1058
  H  H74  1  0.566300  0.564300  0.324800  1.0  0.1175
  H  H75  1  0.618000  0.914800  0.237400  1.0  0.1099
  H  H76  1  0.530600  0.716900  0.392600  1.0  0.12
  C  C77  1  0.709890  0.954200  0.085400  1.0  0.7443
  C  C78  1  0.778040  0.956100  0.118100  1.0  -0.1327
  C  C79  1  0.800090  0.047100  0.160500  1.0  -0.0383
  C  C80  1  0.817800  0.864500  0.108200  1.0  0.0101
  C  C81  1  0.861530  0.047500  0.195200  1.0  0.0542
  C  C82  1  0.878390  0.862000  0.143200  1.0  -0.0936
  C  C83  1  0.885360  0.145600  0.239600  1.0  0.0715
  C  C84  1  0.899780  0.952600  0.187200  1.0  -0.0595
  C  C85  1  0.918000  0.757300  0.140400  1.0  0.7397
  C  C86  1  0.870900  0.252700  0.214600  1.0  -0.1241
  C  C87  1  0.922900  0.135100  0.307000  1.0  -0.1158
  C  C88  1  0.892400  0.344100  0.255500  1.0  -0.0259
  C  C89  1  0.944400  0.226800  0.347800  1.0  -0.0389
  C  C90  1  0.929220  0.333800  0.323100  1.0  -0.2512
  C  C91  1  0.790110  0.545800  0.585400  1.0  0.7425
  C  C92  1  0.721960  0.543900  0.618100  1.0  -0.1333
  C  C93  1  0.699910  0.452900  0.660500  1.0  -0.0385
  C  C94  1  0.682200  0.635500  0.608200  1.0  0.0099
  C  C95  1  0.638470  0.452500  0.695200  1.0  0.0536
  C  C96  1  0.621610  0.638000  0.643200  1.0  -0.0935
  C  C97  1  0.614640  0.354400  0.739600  1.0  0.0716
  C  C98  1  0.600220  0.547400  0.687200  1.0  -0.0591
  C  C99  1  0.582000  0.742700  0.640400  1.0  0.7401
  C  C100  1  0.629100  0.247300  0.714600  1.0  -0.1247
  C  C101  1  0.577100  0.364900  0.807000  1.0  -0.1159
  C  C102  1  0.607600  0.155900  0.755500  1.0  -0.0255
  C  C103  1  0.555600  0.273200  0.847800  1.0  -0.0378
  C  C104  1  0.570780  0.166200  0.823100  1.0  -0.2493
  C  C105  1  0.290110  0.954200  0.414600  1.0  0.7422
  C  C106  1  0.221960  0.956100  0.381900  1.0  -0.1331
  C  C107  1  0.199910  0.047100  0.339500  1.0  -0.039
  C  C108  1  0.182200  0.864500  0.391800  1.0  0.0097
  C  C109  1  0.138470  0.047500  0.304800  1.0  0.0544
  C  C110  1  0.121610  0.862000  0.356800  1.0  -0.0931
  C  C111  1  0.114640  0.145600  0.260400  1.0  0.0719
  C  C112  1  0.100220  0.952600  0.312800  1.0  -0.0583
  C  C113  1  0.082000  0.757300  0.359600  1.0  0.7395
  C  C114  1  0.129100  0.252700  0.285400  1.0  -0.1249
  C  C115  1  0.077100  0.135100  0.193000  1.0  -0.115
  C  C116  1  0.107600  0.344100  0.244500  1.0  -0.0258
  C  C117  1  0.055600  0.226800  0.152200  1.0  -0.0383
  C  C118  1  0.070780  0.333800  0.176900  1.0  -0.2508
  C  C119  1  0.209890  0.545800  0.914600  1.0  0.7426
  C  C120  1  0.278040  0.543900  0.881900  1.0  -0.1325
  C  C121  1  0.300090  0.452900  0.839500  1.0  -0.0382
  C  C122  1  0.317800  0.635500  0.891800  1.0  0.0087
  C  C123  1  0.361530  0.452500  0.804800  1.0  0.0544
  C  C124  1  0.378390  0.638000  0.856800  1.0  -0.0941
  C  C125  1  0.385360  0.354400  0.760400  1.0  0.071
  C  C126  1  0.399780  0.547400  0.812800  1.0  -0.0592
  C  C127  1  0.418000  0.742700  0.859600  1.0  0.74
  C  C128  1  0.370900  0.247300  0.785400  1.0  -0.1248
  C  C129  1  0.422900  0.364900  0.693000  1.0  -0.1139
  C  C130  1  0.392400  0.155900  0.744500  1.0  -0.024
  C  C131  1  0.444400  0.273200  0.652200  1.0  -0.0394
  C  C132  1  0.429220  0.166200  0.676900  1.0  -0.252
  C  C133  1  0.290110  0.045800  0.914600  1.0  0.7423
  C  C134  1  0.221960  0.043900  0.881900  1.0  -0.1331
  C  C135  1  0.199910  0.952900  0.839500  1.0  -0.0387
  C  C136  1  0.182200  0.135500  0.891800  1.0  0.0094
  C  C137  1  0.138470  0.952500  0.804800  1.0  0.0539
  C  C138  1  0.121610  0.138000  0.856800  1.0  -0.0933
  C  C139  1  0.114640  0.854400  0.760400  1.0  0.0716
  C  C140  1  0.100220  0.047400  0.812800  1.0  -0.0586
  C  C141  1  0.082000  0.242700  0.859600  1.0  0.7398
  C  C142  1  0.129100  0.747300  0.785400  1.0  -0.1249
  C  C143  1  0.077100  0.864900  0.693000  1.0  -0.1149
  C  C144  1  0.107600  0.655900  0.744500  1.0  -0.0249
  C  C145  1  0.055600  0.773200  0.652200  1.0  -0.0382
  C  C146  1  0.070780  0.666200  0.676900  1.0  -0.251
  C  C147  1  0.209890  0.454200  0.414600  1.0  0.7425
  C  C148  1  0.278040  0.456100  0.381900  1.0  -0.1325
  C  C149  1  0.300090  0.547100  0.339500  1.0  -0.0383
  C  C150  1  0.317800  0.364500  0.391800  1.0  0.0089
  C  C151  1  0.361530  0.547500  0.304800  1.0  0.0548
  C  C152  1  0.378390  0.362000  0.356800  1.0  -0.0936
  C  C153  1  0.385360  0.645600  0.260400  1.0  0.071
  C  C154  1  0.399780  0.452600  0.312800  1.0  -0.059
  C  C155  1  0.418000  0.257300  0.359600  1.0  0.7395
  C  C156  1  0.370900  0.752700  0.285400  1.0  -0.1245
  C  C157  1  0.422900  0.635100  0.193000  1.0  -0.114
  C  C158  1  0.392400  0.844100  0.244500  1.0  -0.0254
  C  C159  1  0.444400  0.726800  0.152200  1.0  -0.0399
  C  C160  1  0.429220  0.833800  0.176900  1.0  -0.2519
  C  C161  1  0.709890  0.045800  0.585400  1.0  0.7444
  C  C162  1  0.778040  0.043900  0.618100  1.0  -0.1328
  C  C163  1  0.800090  0.952900  0.660500  1.0  -0.038
  C  C164  1  0.817800  0.135500  0.608200  1.0  0.0095
  C  C165  1  0.861530  0.952500  0.695200  1.0  0.054
  C  C166  1  0.878390  0.138000  0.643200  1.0  -0.094
  C  C167  1  0.885360  0.854400  0.739600  1.0  0.0712
  C  C168  1  0.899780  0.047400  0.687200  1.0  -0.0598
  C  C169  1  0.918000  0.242700  0.640400  1.0  0.7402
  C  C170  1  0.870900  0.747300  0.714600  1.0  -0.1246
  C  C171  1  0.922900  0.864900  0.807000  1.0  -0.1159
  C  C172  1  0.892400  0.655900  0.755500  1.0  -0.0247
  C  C173  1  0.944400  0.773200  0.847800  1.0  -0.0386
  C  C174  1  0.929220  0.666200  0.823100  1.0  -0.2502
  C  C175  1  0.790110  0.454200  0.085400  1.0  0.7425
  C  C176  1  0.721960  0.456100  0.118100  1.0  -0.1332
  C  C177  1  0.699910  0.547100  0.160500  1.0  -0.039
  C  C178  1  0.682200  0.364500  0.108200  1.0  0.0108
  C  C179  1  0.638470  0.547500  0.195200  1.0  0.0539
  C  C180  1  0.621610  0.362000  0.143200  1.0  -0.0934
  C  C181  1  0.614640  0.645600  0.239600  1.0  0.0722
  C  C182  1  0.600220  0.452600  0.187200  1.0  -0.0588
  C  C183  1  0.582000  0.257300  0.140400  1.0  0.7398
  C  C184  1  0.629100  0.752700  0.214600  1.0  -0.1246
  C  C185  1  0.577100  0.635100  0.307000  1.0  -0.1159
  C  C186  1  0.607600  0.844100  0.255500  1.0  -0.026
  C  C187  1  0.555600  0.726800  0.347800  1.0  -0.0379
  C  C188  1  0.570780  0.833800  0.323100  1.0  -0.2498
  O  O189  1  0.674020  0.034700  0.103920  1.0  -0.5835
  O  O190  1  0.692460  0.874700  0.045200  1.0  -0.5297
  O  O191  1  0.920690  0.703200  0.078300  1.0  -0.6025
  O  O192  1  0.945600  0.734700  0.202000  1.0  -0.6411
  O  O193  1  0.976590  0.440900  0.097350  1.0  -0.7839
  O  O194  1  0.906480  0.532500  0.944830  1.0  -0.7848
  O  O195  1  0.943950  0.553600  0.322300  1.0  -0.8151
  O  O196  1  0.825980  0.465300  0.603920  1.0  -0.5815
  O  O197  1  0.807540  0.625300  0.545200  1.0  -0.5306
  O  O198  1  0.579310  0.796800  0.578300  1.0  -0.6037
  O  O199  1  0.554400  0.765300  0.702000  1.0  -0.6413
  O  O200  1  0.523410  0.059100  0.597350  1.0  -0.7828
  O  O201  1  0.593520  0.967500  0.444830  1.0  -0.785
  O  O202  1  0.556050  0.946400  0.822300  1.0  -0.8162
  O  O203  1  0.325980  0.034700  0.396080  1.0  -0.5825
  O  O204  1  0.307540  0.874700  0.454800  1.0  -0.5324
  O  O205  1  0.079310  0.703200  0.421700  1.0  -0.6029
  O  O206  1  0.054400  0.734700  0.298000  1.0  -0.6396
  O  O207  1  0.023410  0.440900  0.402650  1.0  -0.7823
  O  O208  1  0.093520  0.532500  0.555170  1.0  -0.7849
  O  O209  1  0.056050  0.553600  0.177700  1.0  -0.8159
  O  O210  1  0.174020  0.465300  0.896080  1.0  -0.5823
  O  O211  1  0.192460  0.625300  0.954800  1.0  -0.5313
  O  O212  1  0.420690  0.796800  0.921700  1.0  -0.6011
  O  O213  1  0.445600  0.765300  0.798000  1.0  -0.6398
  O  O214  1  0.476590  0.059100  0.902650  1.0  -0.7831
  O  O215  1  0.406480  0.967500  0.055170  1.0  -0.7849
  O  O216  1  0.443950  0.946400  0.677700  1.0  -0.8167
  O  O217  1  0.325980  0.965300  0.896080  1.0  -0.5811
  O  O218  1  0.307540  0.125300  0.954800  1.0  -0.5316
  O  O219  1  0.079310  0.296800  0.921700  1.0  -0.6029
  O  O220  1  0.054400  0.265300  0.798000  1.0  -0.6397
  O  O221  1  0.023410  0.559100  0.902650  1.0  -0.7822
  O  O222  1  0.093520  0.467500  0.055170  1.0  -0.7847
  O  O223  1  0.056050  0.446400  0.677700  1.0  -0.8173
  O  O224  1  0.174020  0.534700  0.396080  1.0  -0.5833
  O  O225  1  0.192460  0.374700  0.454800  1.0  -0.5321
  O  O226  1  0.420690  0.203200  0.421700  1.0  -0.6015
  O  O227  1  0.445600  0.234700  0.298000  1.0  -0.6397
  O  O228  1  0.476590  0.940900  0.402650  1.0  -0.7832
  O  O229  1  0.406480  0.032500  0.555170  1.0  -0.7847
  O  O230  1  0.443950  0.053600  0.177700  1.0  -0.816
  O  O231  1  0.674020  0.965300  0.603920  1.0  -0.5824
  O  O232  1  0.692460  0.125300  0.545200  1.0  -0.5301
  O  O233  1  0.920690  0.296800  0.578300  1.0  -0.6023
  O  O234  1  0.945600  0.265300  0.702000  1.0  -0.6411
  O  O235  1  0.976590  0.559100  0.597350  1.0  -0.7837
  O  O236  1  0.906480  0.467500  0.444830  1.0  -0.7849
  O  O237  1  0.943950  0.446400  0.822300  1.0  -0.8159
  O  O238  1  0.825980  0.534700  0.103920  1.0  -0.5828
  O  O239  1  0.807540  0.374700  0.045200  1.0  -0.5299
  O  O240  1  0.579310  0.203200  0.078300  1.0  -0.6038
  O  O241  1  0.554400  0.234700  0.202000  1.0  -0.6411
  O  O242  1  0.523410  0.940900  0.097350  1.0  -0.783
  O  O243  1  0.593520  0.032500  0.944830  1.0  -0.7851
  O  O244  1  0.556050  0.053600  0.322300  1.0  -0.8151
