# generated using pymatgen
data_Zn3P2H14(C2O)14
_symmetry_space_group_name_H-M   'P 1'
_cell_length_a   20.47820000
_cell_length_b   12.07240000
_cell_length_c   16.90990000
_cell_angle_alpha   90.00000000
_cell_angle_beta   90.00000000
_cell_angle_gamma   90.00000000
_symmetry_Int_Tables_number   1
_chemical_formula_structural   Zn3P2H14(C2O)14
_chemical_formula_sum   'Zn12 P8 H56 C112 O56'
_cell_volume   4180.48275451
_cell_formula_units_Z   4
loop_
 _symmetry_equiv_pos_site_id
 _symmetry_equiv_pos_as_xyz
  1  'x, y, z'
loop_
 _atom_site_type_symbol
 _atom_site_label
 _atom_site_symmetry_multiplicity
 _atom_site_fract_x
 _atom_site_fract_y
 _atom_site_fract_z
 _atom_site_occupancy
 _atom_site_charge
  Zn  Zn1  1  0.587470  0.043870  0.057030  1.0  1.1043
  Zn  Zn2  1  0.912530  0.456130  0.557030  1.0  1.1035
  Zn  Zn3  1  0.412530  0.043870  0.442970  1.0  1.1045
  Zn  Zn4  1  0.087470  0.456130  0.942970  1.0  1.1051
  Zn  Zn5  1  0.412530  0.956130  0.942970  1.0  1.1046
  Zn  Zn6  1  0.087470  0.543870  0.442970  1.0  1.105
  Zn  Zn7  1  0.587470  0.956130  0.557030  1.0  1.1043
  Zn  Zn8  1  0.912530  0.543870  0.057030  1.0  1.1035
  Zn  Zn9  1  0.000000  0.622870  0.250000  1.0  1.0788
  Zn  Zn10  1  0.500000  0.877130  0.750000  1.0  1.0812
  Zn  Zn11  1  0.000000  0.377130  0.750000  1.0  1.0812
  Zn  Zn12  1  0.500000  0.122870  0.250000  1.0  1.0788
  P  P13  1  0.953110  0.454990  0.376530  1.0  1.5472
  P  P14  1  0.546890  0.045010  0.876530  1.0  1.5484
  P  P15  1  0.046890  0.454990  0.123470  1.0  1.5471
  P  P16  1  0.453110  0.045010  0.623470  1.0  1.5475
  P  P17  1  0.046890  0.545010  0.623470  1.0  1.5409
  P  P18  1  0.453110  0.954990  0.123470  1.0  1.5473
  P  P19  1  0.953110  0.545010  0.876530  1.0  1.5425
  P  P20  1  0.546890  0.954990  0.376530  1.0  1.5474
  H  H21  1  0.969100  0.219600  0.394200  1.0  0.1157
  H  H22  1  0.933500  0.065900  0.327100  1.0  0.12
  H  H23  1  0.940000  0.948600  0.214100  1.0  0.1149
  H  H24  1  0.804200  0.806600  0.075900  1.0  0.1263
  H  H25  1  0.773800  0.109600  0.165500  1.0  0.1172
  H  H26  1  0.847100  0.260200  0.167300  1.0  0.1125
  H  H27  1  0.882700  0.414200  0.234200  1.0  0.1137
  H  H28  1  0.530900  0.280400  0.894200  1.0  0.1153
  H  H29  1  0.566500  0.434100  0.827100  1.0  0.1201
  H  H30  1  0.560000  0.551400  0.714100  1.0  0.1148
  H  H31  1  0.695800  0.693400  0.575900  1.0  0.126
  H  H32  1  0.726200  0.390400  0.665500  1.0  0.117
  H  H33  1  0.652900  0.239800  0.667300  1.0  0.1128
  H  H34  1  0.617300  0.085800  0.734200  1.0  0.113
  H  H35  1  0.030900  0.219600  0.105800  1.0  0.1151
  H  H36  1  0.066500  0.065900  0.172900  1.0  0.1203
  H  H37  1  0.060000  0.948600  0.285900  1.0  0.1149
  H  H38  1  0.195800  0.806600  0.424100  1.0  0.1261
  H  H39  1  0.226200  0.109600  0.334500  1.0  0.117
  H  H40  1  0.152900  0.260200  0.332700  1.0  0.113
  H  H41  1  0.117300  0.414200  0.265800  1.0  0.1128
  H  H42  1  0.469100  0.280400  0.605800  1.0  0.1147
  H  H43  1  0.433500  0.434100  0.672900  1.0  0.1204
  H  H44  1  0.440000  0.551400  0.785900  1.0  0.115
  H  H45  1  0.304200  0.693400  0.924100  1.0  0.1261
  H  H46  1  0.273800  0.390400  0.834500  1.0  0.1171
  H  H47  1  0.347100  0.239800  0.832700  1.0  0.1131
  H  H48  1  0.382700  0.085800  0.765800  1.0  0.1126
  H  H49  1  0.030900  0.780400  0.605800  1.0  0.1152
  H  H50  1  0.066500  0.934100  0.672900  1.0  0.1203
  H  H51  1  0.060000  0.051400  0.785900  1.0  0.1152
  H  H52  1  0.195800  0.193400  0.924100  1.0  0.126
  H  H53  1  0.226200  0.890400  0.834500  1.0  0.117
  H  H54  1  0.152900  0.739800  0.832700  1.0  0.1132
  H  H55  1  0.117300  0.585800  0.765800  1.0  0.1124
  H  H56  1  0.469100  0.719600  0.105800  1.0  0.1149
  H  H57  1  0.433500  0.565900  0.172900  1.0  0.1203
  H  H58  1  0.440000  0.448600  0.285900  1.0  0.1148
  H  H59  1  0.304200  0.306600  0.424100  1.0  0.1261
  H  H60  1  0.273800  0.609600  0.334500  1.0  0.1172
  H  H61  1  0.347100  0.760200  0.332700  1.0  0.1129
  H  H62  1  0.382700  0.914200  0.265800  1.0  0.1127
  H  H63  1  0.969100  0.780400  0.894200  1.0  0.1151
  H  H64  1  0.933500  0.934100  0.827100  1.0  0.1203
  H  H65  1  0.940000  0.051400  0.714100  1.0  0.1146
  H  H66  1  0.804200  0.193400  0.575900  1.0  0.1261
  H  H67  1  0.773800  0.890400  0.665500  1.0  0.1171
  H  H68  1  0.847100  0.739800  0.667300  1.0  0.1126
  H  H69  1  0.882700  0.585800  0.734200  1.0  0.1128
  H  H70  1  0.530900  0.719600  0.394200  1.0  0.1156
  H  H71  1  0.566500  0.565900  0.327100  1.0  0.1199
  H  H72  1  0.560000  0.448600  0.214100  1.0  0.1151
  H  H73  1  0.695800  0.306600  0.075900  1.0  0.1262
  H  H74  1  0.726200  0.609600  0.165500  1.0  0.1169
  H  H75  1  0.652900  0.760200  0.167300  1.0  0.1127
  H  H76  1  0.617300  0.914200  0.234200  1.0  0.1132
  C  C77  1  0.929700  0.333400  0.322140  1.0  -0.3127
  C  C78  1  0.944350  0.228400  0.348490  1.0  -0.025
  C  C79  1  0.922890  0.136000  0.308210  1.0  -0.1171
  C  C80  1  0.885630  0.145900  0.239800  1.0  0.0889
  C  C81  1  0.861890  0.047300  0.195730  1.0  0.0401
  C  C82  1  0.899820  0.952200  0.188600  1.0  -0.056
  C  C83  1  0.878550  0.862700  0.143840  1.0  -0.0826
  C  C84  1  0.818030  0.865500  0.107180  1.0  0.0121
  C  C85  1  0.778320  0.957400  0.117750  1.0  -0.1352
  C  C86  1  0.800450  0.047600  0.160350  1.0  -0.0406
  C  C87  1  0.871540  0.251400  0.213250  1.0  -0.1141
  C  C88  1  0.892940  0.344000  0.253330  1.0  -0.0236
  C  C89  1  0.917610  0.758100  0.141730  1.0  0.7375
  C  C90  1  0.710180  0.956400  0.083650  1.0  0.7035
  C  C91  1  0.570300  0.166600  0.822140  1.0  -0.3118
  C  C92  1  0.555650  0.271600  0.848490  1.0  -0.0238
  C  C93  1  0.577110  0.364000  0.808210  1.0  -0.1168
  C  C94  1  0.614370  0.354100  0.739800  1.0  0.0889
  C  C95  1  0.638110  0.452700  0.695730  1.0  0.0395
  C  C96  1  0.600180  0.547800  0.688600  1.0  -0.0561
  C  C97  1  0.621450  0.637300  0.643840  1.0  -0.0821
  C  C98  1  0.681970  0.634500  0.607180  1.0  0.0117
  C  C99  1  0.721680  0.542600  0.617750  1.0  -0.135
  C  C100  1  0.699550  0.452400  0.660350  1.0  -0.04
  C  C101  1  0.628460  0.248600  0.713250  1.0  -0.1148
  C  C102  1  0.607060  0.156000  0.753330  1.0  -0.0242
  C  C103  1  0.582390  0.741900  0.641730  1.0  0.7379
  C  C104  1  0.789820  0.543600  0.583650  1.0  0.7018
  C  C105  1  0.070300  0.333400  0.177860  1.0  -0.313
  C  C106  1  0.055650  0.228400  0.151510  1.0  -0.0237
  C  C107  1  0.077110  0.136000  0.191790  1.0  -0.1162
  C  C108  1  0.114370  0.145900  0.260200  1.0  0.0889
  C  C109  1  0.138110  0.047300  0.304270  1.0  0.0402
  C  C110  1  0.100180  0.952200  0.311400  1.0  -0.0555
  C  C111  1  0.121450  0.862700  0.356160  1.0  -0.0817
  C  C112  1  0.181970  0.865500  0.392820  1.0  0.0119
  C  C113  1  0.221680  0.957400  0.382250  1.0  -0.1351
  C  C114  1  0.199550  0.047600  0.339650  1.0  -0.0406
  C  C115  1  0.128460  0.251400  0.286750  1.0  -0.115
  C  C116  1  0.107060  0.344000  0.246670  1.0  -0.0237
  C  C117  1  0.082390  0.758100  0.358270  1.0  0.7374
  C  C118  1  0.289820  0.956400  0.416350  1.0  0.7023
  C  C119  1  0.429700  0.166600  0.677860  1.0  -0.3131
  C  C120  1  0.444350  0.271600  0.651510  1.0  -0.0247
  C  C121  1  0.422890  0.364000  0.691790  1.0  -0.1149
  C  C122  1  0.385630  0.354100  0.760200  1.0  0.0881
  C  C123  1  0.361890  0.452700  0.804270  1.0  0.04
  C  C124  1  0.399820  0.547800  0.811400  1.0  -0.0554
  C  C125  1  0.378550  0.637300  0.856160  1.0  -0.0826
  C  C126  1  0.318030  0.634500  0.892820  1.0  0.0104
  C  C127  1  0.278320  0.542600  0.882250  1.0  -0.1353
  C  C128  1  0.300450  0.452400  0.839650  1.0  -0.0404
  C  C129  1  0.371540  0.248600  0.786750  1.0  -0.1149
  C  C130  1  0.392940  0.156000  0.746670  1.0  -0.0229
  C  C131  1  0.417610  0.741900  0.858270  1.0  0.7378
  C  C132  1  0.210180  0.543600  0.916350  1.0  0.7022
  C  C133  1  0.070300  0.666667  0.677860  1.0  -0.3098
  C  C134  1  0.055650  0.771600  0.651510  1.0  -0.0232
  C  C135  1  0.077110  0.864000  0.691790  1.0  -0.1157
  C  C136  1  0.114370  0.854100  0.760200  1.0  0.0887
  C  C137  1  0.138110  0.952700  0.804270  1.0  0.0398
  C  C138  1  0.100180  0.047800  0.811400  1.0  -0.0555
  C  C139  1  0.121450  0.137300  0.856160  1.0  -0.0817
  C  C140  1  0.181970  0.134500  0.892820  1.0  0.0112
  C  C141  1  0.221680  0.042600  0.882250  1.0  -0.135
  C  C142  1  0.199550  0.952400  0.839650  1.0  -0.0401
  C  C143  1  0.128460  0.748600  0.786750  1.0  -0.1154
  C  C144  1  0.107060  0.656000  0.746670  1.0  -0.0235
  C  C145  1  0.082390  0.241900  0.858270  1.0  0.7376
  C  C146  1  0.289820  0.043600  0.916350  1.0  0.7023
  C  C147  1  0.429700  0.833400  0.177860  1.0  -0.3131
  C  C148  1  0.444350  0.728400  0.151510  1.0  -0.025
  C  C149  1  0.422890  0.636000  0.191790  1.0  -0.1149
  C  C150  1  0.385630  0.645900  0.260200  1.0  0.0883
  C  C151  1  0.361890  0.547300  0.304270  1.0  0.0405
  C  C152  1  0.399820  0.452200  0.311400  1.0  -0.0555
  C  C153  1  0.378550  0.362700  0.356160  1.0  -0.0824
  C  C154  1  0.318030  0.365500  0.392820  1.0  0.011
  C  C155  1  0.278320  0.457400  0.382250  1.0  -0.1353
  C  C156  1  0.300450  0.547600  0.339650  1.0  -0.0407
  C  C157  1  0.371540  0.751400  0.286750  1.0  -0.1145
  C  C158  1  0.392940  0.844000  0.246670  1.0  -0.0236
  C  C159  1  0.417610  0.258100  0.358270  1.0  0.7373
  C  C160  1  0.210180  0.456400  0.416350  1.0  0.7022
  C  C161  1  0.929700  0.666667  0.822140  1.0  -0.3086
  C  C162  1  0.944350  0.771600  0.848490  1.0  -0.0244
  C  C163  1  0.922890  0.864000  0.808210  1.0  -0.1168
  C  C164  1  0.885630  0.854100  0.739800  1.0  0.0883
  C  C165  1  0.861890  0.952700  0.695730  1.0  0.0397
  C  C166  1  0.899820  0.047800  0.688600  1.0  -0.0559
  C  C167  1  0.878550  0.137300  0.643840  1.0  -0.0827
  C  C168  1  0.818030  0.134500  0.607180  1.0  0.0111
  C  C169  1  0.778320  0.042600  0.617750  1.0  -0.1352
  C  C170  1  0.800450  0.952400  0.660350  1.0  -0.0403
  C  C171  1  0.871540  0.748600  0.713250  1.0  -0.1149
  C  C172  1  0.892940  0.656000  0.753330  1.0  -0.0234
  C  C173  1  0.917610  0.241900  0.641730  1.0  0.738
  C  C174  1  0.710180  0.043600  0.583650  1.0  0.7033
  C  C175  1  0.570300  0.833400  0.322140  1.0  -0.312
  C  C176  1  0.555650  0.728400  0.348490  1.0  -0.0239
  C  C177  1  0.577110  0.636000  0.308210  1.0  -0.1174
  C  C178  1  0.614370  0.645900  0.239800  1.0  0.0894
  C  C179  1  0.638110  0.547300  0.195730  1.0  0.0398
  C  C180  1  0.600180  0.452200  0.188600  1.0  -0.0561
  C  C181  1  0.621450  0.362700  0.143840  1.0  -0.0823
  C  C182  1  0.681970  0.365500  0.107180  1.0  0.0128
  C  C183  1  0.721680  0.457400  0.117750  1.0  -0.1349
  C  C184  1  0.699550  0.547600  0.160350  1.0  -0.0406
  C  C185  1  0.628460  0.751400  0.213250  1.0  -0.1146
  C  C186  1  0.607060  0.844000  0.253330  1.0  -0.0241
  C  C187  1  0.582390  0.258100  0.141730  1.0  0.7376
  C  C188  1  0.789820  0.456400  0.083650  1.0  0.702
  O  O189  1  0.942140  0.732700  0.206040  1.0  -0.6286
  O  O190  1  0.922570  0.705380  0.079190  1.0  -0.6049
  O  O191  1  0.694080  0.879820  0.039870  1.0  -0.5213
  O  O192  1  0.673720  0.035090  0.104530  1.0  -0.5776
  O  O193  1  0.941830  0.553920  0.321500  1.0  -0.7807
  O  O194  1  0.906310  0.465800  0.445220  1.0  -0.7847
  O  O195  1  0.023910  0.444260  0.400370  1.0  -0.7888
  O  O196  1  0.557860  0.767300  0.706040  1.0  -0.6292
  O  O197  1  0.577430  0.794620  0.579190  1.0  -0.606
  O  O198  1  0.805920  0.620180  0.539870  1.0  -0.5216
  O  O199  1  0.826280  0.464910  0.604530  1.0  -0.5764
  O  O200  1  0.558170  0.946080  0.821500  1.0  -0.7819
  O  O201  1  0.593690  0.034200  0.945220  1.0  -0.7853
  O  O202  1  0.476090  0.055740  0.900370  1.0  -0.7873
  O  O203  1  0.057860  0.732700  0.293960  1.0  -0.627
  O  O204  1  0.077430  0.705380  0.420810  1.0  -0.6051
  O  O205  1  0.305920  0.879820  0.460130  1.0  -0.5229
  O  O206  1  0.326280  0.035090  0.395470  1.0  -0.5766
  O  O207  1  0.058170  0.553920  0.178500  1.0  -0.781
  O  O208  1  0.093690  0.465800  0.054780  1.0  -0.7838
  O  O209  1  0.976090  0.444260  0.099630  1.0  -0.7879
  O  O210  1  0.442140  0.767300  0.793960  1.0  -0.6264
  O  O211  1  0.422570  0.794620  0.920810  1.0  -0.6038
  O  O212  1  0.194080  0.620180  0.960130  1.0  -0.522
  O  O213  1  0.173720  0.464910  0.895470  1.0  -0.577
  O  O214  1  0.441830  0.946080  0.678500  1.0  -0.782
  O  O215  1  0.406310  0.034200  0.554780  1.0  -0.784
  O  O216  1  0.523910  0.055740  0.599630  1.0  -0.7883
  O  O217  1  0.057860  0.267300  0.793960  1.0  -0.6274
  O  O218  1  0.077430  0.294620  0.920810  1.0  -0.6053
  O  O219  1  0.305920  0.120180  0.960130  1.0  -0.522
  O  O220  1  0.326280  0.964910  0.895470  1.0  -0.5761
  O  O221  1  0.058170  0.446080  0.678500  1.0  -0.7825
  O  O222  1  0.093690  0.534200  0.554780  1.0  -0.7843
  O  O223  1  0.976090  0.555740  0.599630  1.0  -0.7873
  O  O224  1  0.442140  0.232700  0.293960  1.0  -0.6262
  O  O225  1  0.422570  0.205380  0.420810  1.0  -0.6042
  O  O226  1  0.194080  0.379820  0.460130  1.0  -0.523
  O  O227  1  0.173720  0.535090  0.395470  1.0  -0.5774
  O  O228  1  0.441830  0.053920  0.178500  1.0  -0.7813
  O  O229  1  0.406310  0.965800  0.054780  1.0  -0.7838
  O  O230  1  0.523910  0.944260  0.099630  1.0  -0.7889
  O  O231  1  0.942140  0.267300  0.706040  1.0  -0.6288
  O  O232  1  0.922570  0.294620  0.579190  1.0  -0.6047
  O  O233  1  0.694080  0.120180  0.539870  1.0  -0.5211
  O  O234  1  0.673720  0.964910  0.604530  1.0  -0.577
  O  O235  1  0.941830  0.446080  0.821500  1.0  -0.7821
  O  O236  1  0.906310  0.534200  0.945220  1.0  -0.785
  O  O237  1  0.023910  0.555740  0.900370  1.0  -0.7883
  O  O238  1  0.557860  0.232700  0.206040  1.0  -0.6288
  O  O239  1  0.577430  0.205380  0.079190  1.0  -0.6062
  O  O240  1  0.805920  0.379820  0.039870  1.0  -0.5216
  O  O241  1  0.826280  0.535090  0.104530  1.0  -0.5771
  O  O242  1  0.558170  0.053920  0.321500  1.0  -0.7804
  O  O243  1  0.593690  0.965800  0.445220  1.0  -0.7849
  O  O244  1  0.476090  0.944260  0.400370  1.0  -0.7877
