# generated using pymatgen
data_ZnH10C17NO4
_symmetry_space_group_name_H-M   'P 1'
_cell_length_a   10.23900000
_cell_length_b   12.19100000
_cell_length_c   13.91000000
_cell_angle_alpha   94.60000000
_cell_angle_beta   93.75000000
_cell_angle_gamma   99.87000000
_symmetry_Int_Tables_number   1
_chemical_formula_structural   ZnH10C17NO4
_chemical_formula_sum   'Zn4 H40 C68 N4 O16'
_cell_volume   1699.54103126
_cell_formula_units_Z   4
loop_
 _symmetry_equiv_pos_site_id
 _symmetry_equiv_pos_as_xyz
  1  'x, y, z'
loop_
 _atom_site_type_symbol
 _atom_site_label
 _atom_site_symmetry_multiplicity
 _atom_site_fract_x
 _atom_site_fract_y
 _atom_site_fract_z
 _atom_site_occupancy
 _atom_site_charge
  Zn  Zn1  1  0.261080  0.696190  0.460480  1.0  0.9238
  Zn  Zn2  1  0.222020  0.519090  0.228250  1.0  0.9187
  Zn  Zn3  1  0.777980  0.480910  0.771750  1.0  0.9183
  Zn  Zn4  1  0.738920  0.303810  0.539520  1.0  0.9224
  H  H5  1  0.094400  0.694500  0.933200  1.0  0.1303
  H  H6  1  0.338100  0.856400  0.072400  1.0  0.1041
  H  H7  1  0.076600  0.701200  0.612200  1.0  0.0779
  H  H8  1  0.379900  0.513800  0.896700  1.0  0.1137
  H  H9  1  0.866500  0.569400  0.472200  1.0  0.1008
  H  H10  1  0.527200  0.731300  0.197700  1.0  0.1067
  H  H11  1  0.358000  0.463000  0.050700  1.0  0.0787
  H  H12  1  0.640800  0.804100  0.074400  1.0  0.1114
  H  H13  1  0.137500  0.069200  0.463300  1.0  0.119
  H  H14  1  0.868000  0.808900  0.074400  1.0  0.1106
  H  H15  1  0.979500  0.734600  0.191800  1.0  0.1092
  H  H16  1  0.320100  0.180800  0.098700  1.0  0.1096
  H  H17  1  0.061300  0.666100  0.770300  1.0  0.1231
  H  H18  1  0.452200  0.676400  0.628600  1.0  0.0848
  H  H19  1  0.161300  0.242000  0.402400  1.0  0.0961
  H  H20  1  0.642700  0.578000  0.479500  1.0  0.0999
  H  H21  1  0.445600  0.638400  0.786100  1.0  0.1185
  H  H22  1  0.363800  0.028500  0.011500  1.0  0.1139
  H  H23  1  0.081600  0.639400  0.085300  1.0  0.0765
  H  H24  1  0.271100  0.836300  0.224900  1.0  0.1104
  H  H25  1  0.905600  0.305500  0.066800  1.0  0.1292
  H  H26  1  0.679900  0.819200  0.901300  1.0  0.1094
  H  H27  1  0.862500  0.930800  0.536700  1.0  0.1185
  H  H28  1  0.359200  0.195900  0.925600  1.0  0.1118
  H  H29  1  0.620100  0.486200  0.103300  1.0  0.1142
  H  H30  1  0.020500  0.265400  0.808200  1.0  0.1099
  H  H31  1  0.642000  0.537000  0.949300  1.0  0.0786
  H  H32  1  0.132000  0.191100  0.925600  1.0  0.1112
  H  H33  1  0.357300  0.422000  0.520500  1.0  0.1009
  H  H34  1  0.728900  0.163700  0.775100  1.0  0.1103
  H  H35  1  0.938700  0.333900  0.229700  1.0  0.1225
  H  H36  1  0.636200  0.971500  0.988500  1.0  0.114
  H  H37  1  0.918400  0.360600  0.914700  1.0  0.077
  H  H38  1  0.554400  0.361600  0.213900  1.0  0.1183
  H  H39  1  0.472800  0.268700  0.802300  1.0  0.106
  H  H40  1  0.838700  0.758000  0.597600  1.0  0.0964
  H  H41  1  0.133500  0.430600  0.527800  1.0  0.1011
  H  H42  1  0.547800  0.323600  0.371400  1.0  0.0847
  H  H43  1  0.923400  0.298800  0.387800  1.0  0.0779
  H  H44  1  0.661900  0.143600  0.927600  1.0  0.1035
  C  C45  1  0.232800  0.198700  0.276900  1.0  -0.1486
  C  C46  1  0.372200  0.673000  0.657300  1.0  0.1911
  C  C47  1  0.682200  0.680500  0.270700  1.0  0.0476
  C  C48  1  0.368700  0.649400  0.751700  1.0  -0.1813
  C  C49  1  0.141200  0.665500  0.742300  1.0  -0.1969
  C  C50  1  0.685500  0.774600  0.123800  1.0  -0.1243
  C  C51  1  0.886700  0.628700  0.342800  1.0  -0.1117
  C  C52  1  0.195600  0.882100  0.403000  1.0  0.6665
  C  C53  1  0.888200  0.731100  0.193000  1.0  -0.137
  C  C54  1  0.821800  0.776200  0.123300  1.0  -0.101
  C  C55  1  0.144100  0.614800  0.047300  1.0  0.2043
  C  C56  1  0.252200  0.999900  0.259300  1.0  0.0574
  C  C57  1  0.241200  0.611300  0.896300  1.0  0.0995
  C  C58  1  0.335300  0.021600  0.073200  1.0  -0.1091
  C  C59  1  0.821200  0.678500  0.268000  1.0  0.0432
  C  C60  1  0.820800  0.595300  0.421200  1.0  -0.0722
  C  C61  1  0.309300  0.112500  0.125200  1.0  -0.1362
  C  C62  1  0.171300  0.077700  0.403300  1.0  -0.0814
  C  C63  1  0.685300  0.599800  0.425300  1.0  -0.0678
  C  C64  1  0.318500  0.541500  0.934000  1.0  -0.1812
  C  C65  1  0.467100  0.625000  0.355100  1.0  0.7205
  C  C66  1  0.206800  0.988400  0.352800  1.0  -0.1404
  C  C67  1  0.265400  0.105400  0.220500  1.0  0.0513
  C  C68  1  0.617600  0.729600  0.196700  1.0  -0.0929
  C  C69  1  0.320500  0.918000  0.109900  1.0  -0.0894
  C  C70  1  0.280300  0.906000  0.200900  1.0  -0.1465
  C  C71  1  0.250600  0.641900  0.796200  1.0  0.1054
  C  C72  1  0.026800  0.606200  0.337900  1.0  0.6948
  C  C73  1  0.150400  0.647900  0.955500  1.0  -0.1985
  C  C74  1  0.244700  0.312900  0.244500  1.0  0.6715
  C  C75  1  0.615100  0.635700  0.350500  1.0  -0.1155
  C  C76  1  0.185000  0.182100  0.366000  1.0  -0.0801
  C  C77  1  0.305500  0.511800  0.027500  1.0  0.1957
  C  C78  1  0.151600  0.687900  0.647600  1.0  0.1607
  C  C79  1  0.179200  0.404700  0.578800  1.0  -0.0724
  C  C80  1  0.793200  0.011600  0.647200  1.0  -0.142
  C  C81  1  0.532900  0.375000  0.644900  1.0  0.7202
  C  C82  1  0.858800  0.334500  0.257700  1.0  -0.1991
  C  C83  1  0.747800  0.000100  0.740700  1.0  0.0572
  C  C84  1  0.631300  0.350600  0.248300  1.0  -0.1813
  C  C85  1  0.828700  0.922300  0.596700  1.0  -0.0793
  C  C86  1  0.627800  0.327000  0.342700  1.0  0.1889
  C  C87  1  0.384900  0.364300  0.649500  1.0  -0.1163
  C  C88  1  0.113300  0.371300  0.657200  1.0  -0.111
  C  C89  1  0.815000  0.817900  0.634000  1.0  -0.0794
  C  C90  1  0.317800  0.319500  0.729300  1.0  0.0476
  C  C91  1  0.758800  0.388700  0.103700  1.0  0.0994
  C  C92  1  0.314500  0.225400  0.876200  1.0  -0.1204
  C  C93  1  0.755300  0.687100  0.755500  1.0  0.6703
  C  C94  1  0.849600  0.352100  0.044500  1.0  -0.1967
  C  C95  1  0.767200  0.801300  0.723100  1.0  -0.1475
  C  C96  1  0.111800  0.268900  0.807000  1.0  -0.1394
  C  C97  1  0.734600  0.894600  0.779500  1.0  0.0514
  C  C98  1  0.382400  0.270400  0.803300  1.0  -0.0927
  C  C99  1  0.719700  0.094000  0.799100  1.0  -0.1441
  C  C100  1  0.848400  0.312100  0.352400  1.0  0.1604
  C  C101  1  0.804400  0.117900  0.597000  1.0  0.6679
  C  C102  1  0.178800  0.321500  0.732000  1.0  0.042
  C  C103  1  0.679500  0.082000  0.890100  1.0  -0.0905
  C  C104  1  0.694500  0.488200  0.972500  1.0  0.1952
  C  C105  1  0.664700  0.978400  0.926800  1.0  -0.112
  C  C106  1  0.690700  0.887500  0.874800  1.0  -0.1369
  C  C107  1  0.855900  0.385200  0.952700  1.0  0.204
  C  C108  1  0.314700  0.400200  0.574700  1.0  -0.0674
  C  C109  1  0.178200  0.223800  0.876700  1.0  -0.1004
  C  C110  1  0.973200  0.393800  0.662100  1.0  0.6945
  C  C111  1  0.681500  0.458500  0.066000  1.0  -0.1804
  C  C112  1  0.749400  0.358100  0.203800  1.0  0.1048
  N  N113  1  0.222200  0.549400  0.085400  1.0  -0.3358
  N  N114  1  0.265100  0.691400  0.604200  1.0  -0.3398
  N  N115  1  0.777800  0.450600  0.914600  1.0  -0.3359
  N  N116  1  0.734900  0.308600  0.395800  1.0  -0.3396
  O  O117  1  0.091300  0.598000  0.416200  1.0  -0.5942
  O  O118  1  0.323700  0.348400  0.184300  1.0  -0.6016
  O  O119  1  0.292600  0.828100  0.393100  1.0  -0.6056
  O  O120  1  0.395400  0.604100  0.276900  1.0  -0.5911
  O  O121  1  0.105400  0.853400  0.452400  1.0  -0.5057
  O  O122  1  0.423600  0.633000  0.437100  1.0  -0.5873
  O  O123  1  0.069400  0.593800  0.256000  1.0  -0.5727
  O  O124  1  0.175300  0.378400  0.283500  1.0  -0.599
  O  O125  1  0.930600  0.406200  0.744000  1.0  -0.572
  O  O126  1  0.707400  0.171900  0.606900  1.0  -0.606
  O  O127  1  0.604600  0.395900  0.723100  1.0  -0.5901
  O  O128  1  0.676300  0.651600  0.815700  1.0  -0.6006
  O  O129  1  0.908700  0.402000  0.583800  1.0  -0.5948
  O  O130  1  0.824700  0.621600  0.716500  1.0  -0.5985
  O  O131  1  0.576400  0.367000  0.562900  1.0  -0.5887
  O  O132  1  0.894600  0.146600  0.547600  1.0  -0.5067
