# generated using pymatgen
data_ZnH10C17NO4
_symmetry_space_group_name_H-M   'P 1'
_cell_length_a   10.23900000
_cell_length_b   12.19100000
_cell_length_c   13.91000000
_cell_angle_alpha   94.60000000
_cell_angle_beta   93.75000000
_cell_angle_gamma   99.87000000
_symmetry_Int_Tables_number   1
_chemical_formula_structural   ZnH10C17NO4
_chemical_formula_sum   'Zn4 H40 C68 N4 O16'
_cell_volume   1699.54103126
_cell_formula_units_Z   4
loop_
 _symmetry_equiv_pos_site_id
 _symmetry_equiv_pos_as_xyz
  1  'x, y, z'
loop_
 _atom_site_type_symbol
 _atom_site_label
 _atom_site_symmetry_multiplicity
 _atom_site_fract_x
 _atom_site_fract_y
 _atom_site_fract_z
 _atom_site_occupancy
 _atom_site_charge
  Zn  Zn1  1  0.277970  0.980930  0.771770  1.0  0.9158
  Zn  Zn2  1  0.238900  0.803780  0.539520  1.0  0.922
  Zn  Zn3  1  0.722030  0.019070  0.228230  1.0  0.9161
  Zn  Zn4  1  0.761100  0.196220  0.460480  1.0  0.9231
  H  H5  1  0.229600  0.663400  0.774500  1.0  0.1079
  H  H6  1  0.339000  0.257700  0.597900  1.0  0.0926
  H  H7  1  0.136600  0.471100  0.988600  1.0  0.1093
  H  H8  1  0.047800  0.822300  0.371200  1.0  0.0843
  H  H9  1  0.142400  0.037800  0.949900  1.0  0.0788
  H  H10  1  0.633600  0.931600  0.528700  1.0  0.0972
  H  H11  1  0.520700  0.765700  0.808300  1.0  0.1082
  H  H12  1  0.416700  0.858800  0.913700  1.0  0.077
  H  H13  1  0.361700  0.429800  0.536000  1.0  0.1126
  H  H14  1  0.055100  0.863200  0.214300  1.0  0.1218
  H  H15  1  0.118800  0.984500  0.102800  1.0  0.1073
  H  H16  1  0.406400  0.806800  0.067400  1.0  0.1253
  H  H17  1  0.973000  0.769700  0.802600  1.0  0.1044
  H  H18  1  0.438700  0.834500  0.229600  1.0  0.1186
  H  H19  1  0.859700  0.695000  0.924800  1.0  0.1154
  H  H20  1  0.423300  0.797600  0.387100  1.0  0.0786
  H  H21  1  0.162200  0.644300  0.927900  1.0  0.1119
  H  H22  1  0.180700  0.318300  0.900800  1.0  0.1061
  H  H23  1  0.632100  0.690900  0.925500  1.0  0.1097
  H  H24  1  0.857000  0.921300  0.520500  1.0  0.0971
  H  H25  1  0.881200  0.015500  0.897200  1.0  0.1069
  H  H26  1  0.952200  0.177700  0.628800  1.0  0.0847
  H  H27  1  0.770400  0.336600  0.225500  1.0  0.108
  H  H28  1  0.661000  0.742300  0.402100  1.0  0.0921
  H  H29  1  0.140300  0.305000  0.075200  1.0  0.1156
  H  H30  1  0.576700  0.202400  0.612900  1.0  0.0787
  H  H31  1  0.944900  0.136800  0.785700  1.0  0.122
  H  H32  1  0.143000  0.078700  0.479500  1.0  0.0964
  H  H33  1  0.366400  0.068400  0.471300  1.0  0.097
  H  H34  1  0.638300  0.570200  0.464000  1.0  0.1133
  H  H35  1  0.561300  0.165500  0.770400  1.0  0.1189
  H  H36  1  0.479300  0.234300  0.191700  1.0  0.1078
  H  H37  1  0.583300  0.141200  0.086300  1.0  0.0763
  H  H38  1  0.863400  0.528900  0.011400  1.0  0.1092
  H  H39  1  0.837800  0.355700  0.072100  1.0  0.1127
  H  H40  1  0.819300  0.681700  0.099200  1.0  0.1058
  H  H41  1  0.593600  0.193200  0.932600  1.0  0.1262
  H  H42  1  0.027000  0.230300  0.197400  1.0  0.1047
  H  H43  1  0.367900  0.309100  0.074500  1.0  0.1091
  H  H44  1  0.857600  0.962200  0.050100  1.0  0.0784
  C  C45  1  0.884900  0.864000  0.649300  1.0  -0.114
  C  C46  1  0.314900  0.317600  0.634000  1.0  -0.0808
  C  C47  1  0.181200  0.957900  0.065800  1.0  -0.1684
  C  C48  1  0.814900  0.725100  0.875900  1.0  -0.1208
  C  C49  1  0.131700  0.851100  0.248400  1.0  -0.1855
  C  C50  1  0.678800  0.821000  0.731600  1.0  0.0405
  C  C51  1  0.613200  0.871100  0.657000  1.0  -0.1021
  C  C52  1  0.234300  0.394200  0.779200  1.0  0.0579
  C  C53  1  0.349700  0.852700  0.044700  1.0  -0.1969
  C  C54  1  0.328500  0.421600  0.596100  1.0  -0.0811
  C  C55  1  0.303500  0.618100  0.597400  1.0  0.7109
  C  C56  1  0.293100  0.511100  0.647000  1.0  -0.1375
  C  C57  1  0.248000  0.500200  0.740700  1.0  0.0507
  C  C58  1  0.612000  0.768800  0.806900  1.0  -0.1252
  C  C59  1  0.255600  0.186900  0.755400  1.0  0.6874
  C  C60  1  0.358600  0.834600  0.257600  1.0  -0.1954
  C  C61  1  0.165000  0.478200  0.926900  1.0  -0.1117
  C  C62  1  0.882500  0.770900  0.803500  1.0  -0.0982
  C  C63  1  0.179700  0.582600  0.890400  1.0  -0.1256
  C  C64  1  0.267200  0.301000  0.722600  1.0  -0.1556
  C  C65  1  0.128000  0.826600  0.342800  1.0  0.1841
  C  C66  1  0.473300  0.894000  0.662100  1.0  0.6973
  C  C67  1  0.032900  0.875100  0.645100  1.0  0.7168
  C  C68  1  0.348400  0.811700  0.352000  1.0  0.1543
  C  C69  1  0.220200  0.593800  0.798800  1.0  -0.1403
  C  C70  1  0.259200  0.889100  0.103900  1.0  0.0998
  C  C71  1  0.818000  0.820000  0.729600  1.0  0.0425
  C  C72  1  0.194400  0.988500  0.972800  1.0  0.1894
  C  C73  1  0.355400  0.884600  0.952200  1.0  0.2059
  C  C74  1  0.191100  0.386700  0.874400  1.0  -0.1349
  C  C75  1  0.814600  0.899900  0.574900  1.0  -0.0366
  C  C76  1  0.678100  0.723500  0.876600  1.0  -0.1173
  C  C77  1  0.679000  0.904900  0.579300  1.0  -0.0751
  C  C78  1  0.249600  0.857900  0.203900  1.0  0.0919
  C  C79  1  0.388000  0.231200  0.193100  1.0  -0.1245
  C  C80  1  0.185400  0.100100  0.425100  1.0  -0.0368
  C  C81  1  0.115100  0.136000  0.350700  1.0  -0.1145
  C  C82  1  0.321900  0.276500  0.123400  1.0  -0.1193
  C  C83  1  0.386800  0.128900  0.343000  1.0  -0.1025
  C  C84  1  0.967100  0.124900  0.354900  1.0  0.7168
  C  C85  1  0.765700  0.605800  0.220800  1.0  0.0575
  C  C86  1  0.818800  0.042100  0.934200  1.0  -0.168
  C  C87  1  0.696500  0.381900  0.402600  1.0  0.7107
  C  C88  1  0.671500  0.578400  0.403900  1.0  -0.0831
  C  C89  1  0.117500  0.229100  0.196500  1.0  -0.0989
  C  C90  1  0.752000  0.499800  0.259300  1.0  0.0506
  C  C91  1  0.706900  0.488900  0.353000  1.0  -0.1362
  C  C92  1  0.872000  0.173400  0.657200  1.0  0.184
  C  C93  1  0.644600  0.115400  0.047800  1.0  0.2055
  C  C94  1  0.835000  0.521800  0.073100  1.0  -0.1108
  C  C95  1  0.651600  0.188300  0.648000  1.0  0.1524
  C  C96  1  0.650300  0.147300  0.955300  1.0  -0.198
  C  C97  1  0.868300  0.148900  0.751600  1.0  -0.1863
  C  C98  1  0.750400  0.142100  0.796100  1.0  0.0927
  C  C99  1  0.779800  0.406200  0.201200  1.0  -0.1416
  C  C100  1  0.740800  0.110900  0.896100  1.0  0.0996
  C  C101  1  0.526700  0.106000  0.337900  1.0  0.6981
  C  C102  1  0.744400  0.813100  0.244600  1.0  0.6884
  C  C103  1  0.182000  0.180000  0.270400  1.0  0.0431
  C  C104  1  0.808900  0.613300  0.125600  1.0  -0.1331
  C  C105  1  0.321200  0.179000  0.268400  1.0  0.0419
  C  C106  1  0.685100  0.682400  0.366000  1.0  -0.0819
  C  C107  1  0.321000  0.095100  0.420700  1.0  -0.0742
  C  C108  1  0.185100  0.274900  0.124100  1.0  -0.1234
  C  C109  1  0.820300  0.417400  0.109600  1.0  -0.1256
  C  C110  1  0.732800  0.699000  0.277400  1.0  -0.1575
  C  C111  1  0.641400  0.165400  0.742400  1.0  -0.1918
  C  C112  1  0.805600  0.011500  0.027200  1.0  0.1896
  N  N113  1  0.277800  0.950700  0.914600  1.0  -0.3375
  N  N114  1  0.234900  0.808700  0.396000  1.0  -0.3332
  N  N115  1  0.722200  0.049300  0.085400  1.0  -0.3371
  N  N116  1  0.765100  0.191300  0.604000  1.0  -0.3324
  O  O117  1  0.176600  0.151800  0.815900  1.0  -0.5857
  O  O118  1  0.076600  0.866600  0.562800  1.0  -0.5859
  O  O119  1  0.394500  0.646300  0.547600  1.0  -0.5266
  O  O120  1  0.104600  0.895800  0.723100  1.0  -0.594
  O  O121  1  0.207300  0.672300  0.607100  1.0  -0.601
  O  O122  1  0.430500  0.906600  0.744100  1.0  -0.5743
  O  O123  1  0.324600  0.121400  0.716100  1.0  -0.5919
  O  O124  1  0.408700  0.902000  0.583900  1.0  -0.5982
  O  O125  1  0.605500  0.353700  0.452400  1.0  -0.5257
  O  O126  1  0.675400  0.878600  0.283900  1.0  -0.5924
  O  O127  1  0.895400  0.104200  0.276900  1.0  -0.5947
  O  O128  1  0.923400  0.133400  0.437200  1.0  -0.5843
  O  O129  1  0.591300  0.098000  0.416100  1.0  -0.598
  O  O130  1  0.569500  0.093400  0.255900  1.0  -0.5747
  O  O131  1  0.823400  0.848200  0.184100  1.0  -0.5872
  O  O132  1  0.792700  0.327700  0.392900  1.0  -0.5998
