# generated using pymatgen
data_CoH8C14SO6
_symmetry_space_group_name_H-M   'P 1'
_cell_length_a   16.65400000
_cell_length_b   17.19800000
_cell_length_c   20.42600000
_cell_angle_alpha   90.00000000
_cell_angle_beta   90.00000000
_cell_angle_gamma   99.83030000
_symmetry_Int_Tables_number   1
_chemical_formula_structural   CoH8C14SO6
_chemical_formula_sum   'Co12 H96 C168 S12 O72'
_cell_volume   5764.42692535
_cell_formula_units_Z   12
loop_
 _symmetry_equiv_pos_site_id
 _symmetry_equiv_pos_as_xyz
  1  'x, y, z'
loop_
 _atom_site_type_symbol
 _atom_site_label
 _atom_site_symmetry_multiplicity
 _atom_site_fract_x
 _atom_site_fract_y
 _atom_site_fract_z
 _atom_site_occupancy
 _atom_site_charge
  Co  Co1  1  0.537860  0.258830  0.335850  1.0  1.1188
  Co  Co2  1  0.640700  0.446930  0.376340  1.0  1.0171
  Co  Co3  1  0.410700  0.065010  0.357350  1.0  1.0174
  Co  Co4  1  0.962140  0.241170  0.835850  1.0  1.1192
  Co  Co5  1  0.859300  0.053070  0.876340  1.0  1.0189
  Co  Co6  1  0.089300  0.434990  0.857350  1.0  1.0195
  Co  Co7  1  0.462140  0.741170  0.664150  1.0  1.1179
  Co  Co8  1  0.359300  0.553070  0.623660  1.0  1.019
  Co  Co9  1  0.589300  0.934990  0.642650  1.0  1.0192
  Co  Co10  1  0.037860  0.758830  0.164150  1.0  1.1176
  Co  Co11  1  0.140700  0.946930  0.123660  1.0  1.016
  Co  Co12  1  0.910700  0.565010  0.142650  1.0  1.0181
  H  H13  1  0.512400  0.221600  0.496300  1.0  0.1017
  H  H14  1  0.471600  0.165600  0.596900  1.0  0.1109
  H  H15  1  0.464600  0.381400  0.669600  1.0  0.107
  H  H16  1  0.501600  0.436300  0.567800  1.0  0.1065
  H  H17  1  0.594400  0.327500  0.757700  1.0  0.1158
  H  H18  1  0.722600  0.305600  0.788300  1.0  0.1015
  H  H19  1  0.648800  0.072600  0.776700  1.0  0.1006
  H  H20  1  0.520600  0.094100  0.742600  1.0  0.1076
  H  H21  1  0.518300  0.240000  0.149800  1.0  0.1016
  H  H22  1  0.514400  0.247900  0.039000  1.0  0.1153
  H  H23  1  0.393300  0.028200  0.031200  1.0  0.1077
  H  H24  1  0.392300  0.022400  0.144100  1.0  0.101
  H  H25  1  0.410000  0.301100  0.939700  1.0  0.1162
  H  H26  1  0.293200  0.353100  0.922000  1.0  0.1037
  H  H27  1  0.166200  0.138700  0.890900  1.0  0.1131
  H  H28  1  0.281200  0.085100  0.907700  1.0  0.1083
  H  H29  1  0.533200  0.565600  0.221800  1.0  0.1086
  H  H30  1  0.482000  0.612400  0.127100  1.0  0.1059
  H  H31  1  0.387800  0.391100  0.073900  1.0  0.1112
  H  H32  1  0.437100  0.344000  0.167800  1.0  0.103
  H  H33  1  0.328600  0.670800  0.063000  1.0  0.1175
  H  H34  1  0.197000  0.689800  0.090700  1.0  0.1056
  H  H35  1  0.109200  0.465300  0.043400  1.0  0.1035
  H  H36  1  0.238300  0.446600  0.011700  1.0  0.1139
  H  H37  1  0.987600  0.278400  0.996300  1.0  0.1016
  H  H38  1  0.028400  0.334400  0.096900  1.0  0.1112
  H  H39  1  0.035400  0.118600  0.169600  1.0  0.1074
  H  H40  1  0.998400  0.063700  0.067800  1.0  0.1066
  H  H41  1  0.905600  0.172500  0.257700  1.0  0.1158
  H  H42  1  0.777400  0.194400  0.288300  1.0  0.1009
  H  H43  1  0.851200  0.427400  0.276700  1.0  0.1007
  H  H44  1  0.979400  0.405900  0.242600  1.0  0.1077
  H  H45  1  0.981700  0.260000  0.649800  1.0  0.102
  H  H46  1  0.985600  0.252100  0.539000  1.0  0.1146
  H  H47  1  0.106700  0.471800  0.531200  1.0  0.1081
  H  H48  1  0.107700  0.477600  0.644100  1.0  0.1018
  H  H49  1  0.090000  0.198900  0.439700  1.0  0.1165
  H  H50  1  0.206800  0.146900  0.422000  1.0  0.1037
  H  H51  1  0.333800  0.361300  0.390900  1.0  0.1135
  H  H52  1  0.218800  0.414900  0.407700  1.0  0.1083
  H  H53  1  0.966800  0.934400  0.721800  1.0  0.1088
  H  H54  1  0.018000  0.887600  0.627100  1.0  0.1061
  H  H55  1  0.112200  0.108900  0.573900  1.0  0.1118
  H  H56  1  0.062900  0.156000  0.667800  1.0  0.1029
  H  H57  1  0.171400  0.829200  0.563000  1.0  0.1174
  H  H58  1  0.303000  0.810200  0.590700  1.0  0.1056
  H  H59  1  0.390800  0.034700  0.543400  1.0  0.1038
  H  H60  1  0.261700  0.053400  0.511700  1.0  0.1142
  H  H61  1  0.487600  0.778400  0.503700  1.0  0.1015
  H  H62  1  0.528400  0.834400  0.403100  1.0  0.1109
  H  H63  1  0.535400  0.618600  0.330400  1.0  0.1075
  H  H64  1  0.498400  0.563700  0.432200  1.0  0.1068
  H  H65  1  0.405600  0.672500  0.242300  1.0  0.116
  H  H66  1  0.277400  0.694400  0.211700  1.0  0.1013
  H  H67  1  0.351200  0.927400  0.223300  1.0  0.0999
  H  H68  1  0.479400  0.905900  0.257400  1.0  0.1077
  H  H69  1  0.481700  0.760000  0.850200  1.0  0.1015
  H  H70  1  0.485600  0.752100  0.961000  1.0  0.1147
  H  H71  1  0.606700  0.971800  0.968800  1.0  0.1081
  H  H72  1  0.607700  0.977600  0.855900  1.0  0.1022
  H  H73  1  0.590000  0.698900  0.060300  1.0  0.1164
  H  H74  1  0.706800  0.646900  0.078000  1.0  0.1038
  H  H75  1  0.833800  0.861300  0.109100  1.0  0.113
  H  H76  1  0.718800  0.914900  0.092300  1.0  0.1086
  H  H77  1  0.466800  0.434400  0.778200  1.0  0.1082
  H  H78  1  0.518000  0.387600  0.872900  1.0  0.1061
  H  H79  1  0.612200  0.608900  0.926100  1.0  0.1111
  H  H80  1  0.562900  0.656000  0.832200  1.0  0.1034
  H  H81  1  0.671400  0.329200  0.937000  1.0  0.1174
  H  H82  1  0.803000  0.310200  0.909300  1.0  0.1061
  H  H83  1  0.890800  0.534700  0.956600  1.0  0.1038
  H  H84  1  0.761700  0.553400  0.988300  1.0  0.1138
  H  H85  1  0.012400  0.721600  0.003700  1.0  0.1019
  H  H86  1  0.971600  0.665600  0.903100  1.0  0.1107
  H  H87  1  0.964600  0.881400  0.830400  1.0  0.1075
  H  H88  1  0.001600  0.936300  0.932200  1.0  0.1068
  H  H89  1  0.094400  0.827500  0.742300  1.0  0.1159
  H  H90  1  0.222600  0.805600  0.711700  1.0  0.1016
  H  H91  1  0.148800  0.572600  0.723300  1.0  0.0999
  H  H92  1  0.020600  0.594100  0.757400  1.0  0.108
  H  H93  1  0.018300  0.740000  0.350200  1.0  0.1016
  H  H94  1  0.014400  0.747900  0.461000  1.0  0.1151
  H  H95  1  0.893300  0.528200  0.468800  1.0  0.108
  H  H96  1  0.892300  0.522400  0.355900  1.0  0.1014
  H  H97  1  0.910000  0.801100  0.560300  1.0  0.1161
  H  H98  1  0.793200  0.853100  0.578000  1.0  0.1037
  H  H99  1  0.666200  0.638700  0.609100  1.0  0.113
  H  H100  1  0.781200  0.585100  0.592300  1.0  0.1086
  H  H101  1  0.033200  0.065600  0.278200  1.0  0.1085
  H  H102  1  0.982000  0.112400  0.372900  1.0  0.1061
  H  H103  1  0.887800  0.891100  0.426100  1.0  0.1107
  H  H104  1  0.937100  0.844000  0.332200  1.0  0.1031
  H  H105  1  0.828600  0.170800  0.437000  1.0  0.1173
  H  H106  1  0.697000  0.189800  0.409300  1.0  0.106
  H  H107  1  0.609200  0.965300  0.456600  1.0  0.1036
  H  H108  1  0.738300  0.946600  0.488300  1.0  0.1138
  C  C109  1  0.548600  0.372000  0.461200  1.0  0.6947
  C  C110  1  0.513700  0.334500  0.522200  1.0  -0.14
  C  C111  1  0.503300  0.253800  0.531200  1.0  -0.0279
  C  C112  1  0.479600  0.220000  0.591600  1.0  -0.0481
  C  C113  1  0.468300  0.268500  0.643500  1.0  -0.1802
  C  C114  1  0.474900  0.349400  0.634900  1.0  -0.0495
  C  C115  1  0.497400  0.382200  0.574000  1.0  -0.0361
  C  C116  1  0.545000  0.211900  0.749200  1.0  -0.1764
  C  C117  1  0.605200  0.276400  0.761500  1.0  -0.0584
  C  C118  1  0.681700  0.262800  0.779800  1.0  -0.0216
  C  C119  1  0.698800  0.187700  0.785900  1.0  -0.1262
  C  C120  1  0.638100  0.123700  0.772600  1.0  -0.0441
  C  C121  1  0.561000  0.136700  0.753000  1.0  -0.0281
  C  C122  1  0.782700  0.172900  0.805800  1.0  0.706
  C  C123  1  0.462300  0.128200  0.232300  1.0  0.7272
  C  C124  1  0.458400  0.129400  0.158700  1.0  -0.1093
  C  C125  1  0.492700  0.196700  0.125900  1.0  -0.0394
  C  C126  1  0.490300  0.201700  0.059800  1.0  -0.0366
  C  C127  1  0.452300  0.138600  0.023300  1.0  -0.1843
  C  C128  1  0.417800  0.071700  0.055300  1.0  -0.0404
  C  C129  1  0.418800  0.067500  0.123000  1.0  -0.0556
  C  C130  1  0.358300  0.186400  0.925600  1.0  -0.2038
  C  C131  1  0.361300  0.268000  0.929800  1.0  -0.0248
  C  C132  1  0.291100  0.298800  0.919000  1.0  -0.0293
  C  C133  1  0.218800  0.251700  0.904200  1.0  -0.1229
  C  C134  1  0.215300  0.171300  0.900500  1.0  -0.0543
  C  C135  1  0.284100  0.139500  0.910700  1.0  -0.0303
  C  C136  1  0.143500  0.288100  0.887900  1.0  0.722
  C  C137  1  0.524900  0.418400  0.265600  1.0  0.7118
  C  C138  1  0.490200  0.449400  0.205300  1.0  -0.1307
  C  C139  1  0.504000  0.530600  0.192300  1.0  -0.0283
  C  C140  1  0.473800  0.558500  0.135500  1.0  -0.0163
  C  C141  1  0.431300  0.505900  0.090800  1.0  -0.2006
  C  C142  1  0.417200  0.425900  0.103500  1.0  -0.0238
  C  C143  1  0.446400  0.398000  0.159700  1.0  -0.0298
  C  C144  1  0.295900  0.556100  0.036500  1.0  -0.195
  C  C145  1  0.284700  0.629700  0.059300  1.0  -0.0406
  C  C146  1  0.206100  0.640700  0.076400  1.0  -0.0333
  C  C147  1  0.141800  0.578600  0.072100  1.0  -0.1134
  C  C148  1  0.153300  0.506200  0.047500  1.0  -0.0466
  C  C149  1  0.230300  0.494700  0.029000  1.0  -0.0375
  C  C150  1  0.058300  0.589200  0.095000  1.0  0.6917
  C  C151  1  0.951400  0.128000  0.961200  1.0  0.6928
  C  C152  1  0.986300  0.165500  0.022200  1.0  -0.1406
  C  C153  1  0.996700  0.246200  0.031200  1.0  -0.028
  C  C154  1  0.020400  0.280000  0.091600  1.0  -0.0493
  C  C155  1  0.031700  0.231500  0.143500  1.0  -0.1812
  C  C156  1  0.025100  0.150600  0.134900  1.0  -0.0492
  C  C157  1  0.002600  0.117800  0.074000  1.0  -0.0353
  C  C158  1  0.955000  0.288100  0.249200  1.0  -0.1782
  C  C159  1  0.894800  0.223600  0.261500  1.0  -0.0583
  C  C160  1  0.818300  0.237200  0.279800  1.0  -0.0182
  C  C161  1  0.801200  0.312300  0.285900  1.0  -0.1269
  C  C162  1  0.861900  0.376300  0.272600  1.0  -0.0447
  C  C163  1  0.939000  0.363300  0.253000  1.0  -0.0293
  C  C164  1  0.717300  0.327100  0.305800  1.0  0.7066
  C  C165  1  0.037700  0.371800  0.732300  1.0  0.7267
  C  C166  1  0.041600  0.370600  0.658700  1.0  -0.1095
  C  C167  1  0.007300  0.303300  0.625900  1.0  -0.0383
  C  C168  1  0.009700  0.298300  0.559800  1.0  -0.0367
  C  C169  1  0.047700  0.361400  0.523300  1.0  -0.1831
  C  C170  1  0.082200  0.428300  0.555300  1.0  -0.0398
  C  C171  1  0.081200  0.432500  0.623000  1.0  -0.0569
  C  C172  1  0.141700  0.313600  0.425600  1.0  -0.2019
  C  C173  1  0.138700  0.232000  0.429800  1.0  -0.0245
  C  C174  1  0.208900  0.201200  0.419000  1.0  -0.0297
  C  C175  1  0.281200  0.248300  0.404200  1.0  -0.1227
  C  C176  1  0.284700  0.328700  0.400500  1.0  -0.0542
  C  C177  1  0.215900  0.360500  0.410700  1.0  -0.0315
  C  C178  1  0.356500  0.211900  0.387900  1.0  0.7211
  C  C179  1  0.975100  0.081600  0.765600  1.0  0.7116
  C  C180  1  0.009800  0.050600  0.705300  1.0  -0.1307
  C  C181  1  0.996000  0.969400  0.692300  1.0  -0.0285
  C  C182  1  0.026200  0.941500  0.635500  1.0  -0.0161
  C  C183  1  0.068700  0.994100  0.590800  1.0  -0.2005
  C  C184  1  0.082800  0.074100  0.603500  1.0  -0.0241
  C  C185  1  0.053600  0.102000  0.659700  1.0  -0.0311
  C  C186  1  0.204100  0.943900  0.536500  1.0  -0.1947
  C  C187  1  0.215300  0.870300  0.559300  1.0  -0.0387
  C  C188  1  0.293900  0.859300  0.576400  1.0  -0.0337
  C  C189  1  0.358200  0.921400  0.572100  1.0  -0.1138
  C  C190  1  0.346700  0.993800  0.547500  1.0  -0.0475
  C  C191  1  0.269700  0.005300  0.529000  1.0  -0.0377
  C  C192  1  0.441700  0.910800  0.595000  1.0  0.6924
  C  C193  1  0.451400  0.628000  0.538800  1.0  0.693
  C  C194  1  0.486300  0.665500  0.477800  1.0  -0.1406
  C  C195  1  0.496700  0.746200  0.468800  1.0  -0.0276
  C  C196  1  0.520400  0.780000  0.408400  1.0  -0.0492
  C  C197  1  0.531700  0.731500  0.356500  1.0  -0.1812
  C  C198  1  0.525100  0.650600  0.365100  1.0  -0.0492
  C  C199  1  0.502600  0.617800  0.426000  1.0  -0.0352
  C  C200  1  0.455000  0.788100  0.250800  1.0  -0.1781
  C  C201  1  0.394800  0.723600  0.238500  1.0  -0.0574
  C  C202  1  0.318300  0.737200  0.220200  1.0  -0.0175
  C  C203  1  0.301200  0.812300  0.214100  1.0  -0.1264
  C  C204  1  0.361900  0.876300  0.227400  1.0  -0.0441
  C  C205  1  0.439000  0.863300  0.247000  1.0  -0.0293
  C  C206  1  0.217300  0.827100  0.194200  1.0  0.7061
  C  C207  1  0.537700  0.871800  0.767700  1.0  0.7277
  C  C208  1  0.541600  0.870600  0.841300  1.0  -0.1091
  C  C209  1  0.507300  0.803300  0.874100  1.0  -0.0378
  C  C210  1  0.509700  0.798300  0.940200  1.0  -0.0354
  C  C211  1  0.547700  0.861400  0.976700  1.0  -0.185
  C  C212  1  0.582200  0.928300  0.944700  1.0  -0.0401
  C  C213  1  0.581200  0.932500  0.877000  1.0  -0.057
  C  C214  1  0.641700  0.813600  0.074400  1.0  -0.2022
  C  C215  1  0.638700  0.732000  0.070200  1.0  -0.0247
  C  C216  1  0.708900  0.701200  0.081000  1.0  -0.0296
  C  C217  1  0.781200  0.748300  0.095800  1.0  -0.1231
  C  C218  1  0.784700  0.828700  0.099500  1.0  -0.0541
  C  C219  1  0.715900  0.860500  0.089300  1.0  -0.0313
  C  C220  1  0.856500  0.711900  0.112100  1.0  0.7209
  C  C221  1  0.475100  0.581600  0.734400  1.0  0.7117
  C  C222  1  0.509800  0.550600  0.794700  1.0  -0.1309
  C  C223  1  0.496000  0.469400  0.807700  1.0  -0.028
  C  C224  1  0.526200  0.441500  0.864500  1.0  -0.0161
  C  C225  1  0.568700  0.494100  0.909200  1.0  -0.2007
  C  C226  1  0.582800  0.574100  0.896500  1.0  -0.0245
  C  C227  1  0.553600  0.602000  0.840300  1.0  -0.0315
  C  C228  1  0.704100  0.443900  0.963500  1.0  -0.1936
  C  C229  1  0.715300  0.370300  0.940700  1.0  -0.0392
  C  C230  1  0.793900  0.359300  0.923600  1.0  -0.0343
  C  C231  1  0.858200  0.421400  0.927900  1.0  -0.1137
  C  C232  1  0.846700  0.493800  0.952500  1.0  -0.0476
  C  C233  1  0.769700  0.505300  0.971000  1.0  -0.0374
  C  C234  1  0.941700  0.410800  0.905000  1.0  0.6926
  C  C235  1  0.048600  0.872000  0.038800  1.0  0.695
  C  C236  1  0.013700  0.834500  0.977800  1.0  -0.1406
  C  C237  1  0.003300  0.753800  0.968800  1.0  -0.0273
  C  C238  1  0.979600  0.720000  0.908400  1.0  -0.0484
  C  C239  1  0.968300  0.768500  0.856500  1.0  -0.1805
  C  C240  1  0.974900  0.849400  0.865100  1.0  -0.0497
  C  C241  1  0.997400  0.882200  0.926000  1.0  -0.0356
  C  C242  1  0.045000  0.711900  0.750800  1.0  -0.1765
  C  C243  1  0.105200  0.776400  0.738500  1.0  -0.0574
  C  C244  1  0.181700  0.762800  0.720200  1.0  -0.0212
  C  C245  1  0.198800  0.687700  0.714100  1.0  -0.1258
  C  C246  1  0.138100  0.623700  0.727400  1.0  -0.0441
  C  C247  1  0.061000  0.636700  0.747000  1.0  -0.0279
  C  C248  1  0.282700  0.672900  0.694200  1.0  0.7053
  C  C249  1  0.962300  0.628200  0.267700  1.0  0.7277
  C  C250  1  0.958400  0.629400  0.341300  1.0  -0.1088
  C  C251  1  0.992700  0.696700  0.374100  1.0  -0.0384
  C  C252  1  0.990300  0.701700  0.440200  1.0  -0.0354
  C  C253  1  0.952300  0.638600  0.476700  1.0  -0.186
  C  C254  1  0.917800  0.571700  0.444700  1.0  -0.0403
  C  C255  1  0.918800  0.567500  0.377000  1.0  -0.0559
  C  C256  1  0.858300  0.686400  0.574400  1.0  -0.2038
  C  C257  1  0.861300  0.768000  0.570200  1.0  -0.0252
  C  C258  1  0.791100  0.798800  0.581000  1.0  -0.0291
  C  C259  1  0.718800  0.751700  0.595800  1.0  -0.123
  C  C260  1  0.715300  0.671300  0.599500  1.0  -0.0538
  C  C261  1  0.784100  0.639500  0.589300  1.0  -0.0303
  C  C262  1  0.643500  0.788100  0.612100  1.0  0.7214
  C  C263  1  0.024900  0.918400  0.234400  1.0  0.7119
  C  C264  1  0.990200  0.949400  0.294700  1.0  -0.1313
  C  C265  1  0.004000  0.030600  0.307700  1.0  -0.0286
  C  C266  1  0.973800  0.058500  0.364500  1.0  -0.0168
  C  C267  1  0.931300  0.005900  0.409200  1.0  -0.2011
  C  C268  1  0.917200  0.925900  0.396500  1.0  -0.0238
  C  C269  1  0.946400  0.898000  0.340300  1.0  -0.0305
  C  C270  1  0.795900  0.056100  0.463500  1.0  -0.1944
  C  C271  1  0.784700  0.129700  0.440700  1.0  -0.0412
  C  C272  1  0.706100  0.140700  0.423600  1.0  -0.0336
  C  C273  1  0.641800  0.078600  0.427900  1.0  -0.1136
  C  C274  1  0.653300  0.006200  0.452500  1.0  -0.0466
  C  C275  1  0.730300  0.994700  0.471000  1.0  -0.037
  C  C276  1  0.558300  0.089200  0.405000  1.0  0.692
  S  S277  1  0.448510  0.229140  0.722580  1.0  1.108
  S  S278  1  0.446390  0.146090  0.937460  1.0  1.0929
  S  S279  1  0.395260  0.540790  0.017000  1.0  1.1137
  S  S280  1  0.051490  0.270860  0.222580  1.0  1.1072
  S  S281  1  0.053610  0.353910  0.437460  1.0  1.0987
  S  S282  1  0.104740  0.959210  0.517000  1.0  1.1143
  S  S283  1  0.551490  0.770860  0.277420  1.0  1.1072
  S  S284  1  0.553610  0.853910  0.062540  1.0  1.1043
  S  S285  1  0.604740  0.459210  0.983000  1.0  1.1152
  S  S286  1  0.948510  0.729140  0.777420  1.0  1.1083
  S  S287  1  0.946390  0.646090  0.562540  1.0  1.0989
  S  S288  1  0.895260  0.040790  0.483000  1.0  1.1141
  O  O289  1  0.562700  0.444700  0.455800  1.0  -0.569
  O  O290  1  0.571500  0.330400  0.415600  1.0  -0.6619
  O  O291  1  0.424600  0.288400  0.764300  1.0  -0.5426
  O  O292  1  0.396700  0.153700  0.716200  1.0  -0.5508
  O  O293  1  0.838900  0.230800  0.811200  1.0  -0.5629
  O  O294  1  0.787900  0.101400  0.815500  1.0  -0.6157
  O  O295  1  0.508800  0.182300  0.258900  1.0  -0.5945
  O  O296  1  0.417000  0.073000  0.261200  1.0  -0.6093
  O  O297  1  0.516000  0.203800  0.916200  1.0  -0.564
  O  O298  1  0.431500  0.067300  0.912500  1.0  -0.5523
  O  O299  1  0.151600  0.361700  0.896600  1.0  -0.6251
  O  O300  1  0.083300  0.244400  0.867100  1.0  -0.5782
  O  O301  1  0.516600  0.345500  0.271500  1.0  -0.5712
  O  O302  1  0.561100  0.468800  0.306000  1.0  -0.6
  O  O303  1  0.387500  0.479100  0.969200  1.0  -0.5511
  O  O304  1  0.443600  0.616500  0.002500  1.0  -0.5641
  O  O305  1  0.003900  0.529100  0.101400  1.0  -0.6075
  O  O306  1  0.047000  0.657600  0.106700  1.0  -0.6334
  O  O307  1  0.937300  0.055300  0.955800  1.0  -0.57
  O  O308  1  0.928500  0.169600  0.915600  1.0  -0.6581
  O  O309  1  0.075400  0.211600  0.264300  1.0  -0.543
  O  O310  1  0.103300  0.346300  0.216200  1.0  -0.5511
  O  O311  1  0.661100  0.269200  0.311200  1.0  -0.5623
  O  O312  1  0.712100  0.398600  0.315500  1.0  -0.6151
  O  O313  1  0.991200  0.317700  0.758900  1.0  -0.5967
  O  O314  1  0.083000  0.427000  0.761200  1.0  -0.6106
  O  O315  1  0.984000  0.296200  0.416200  1.0  -0.5639
  O  O316  1  0.068500  0.432700  0.412500  1.0  -0.5536
  O  O317  1  0.348400  0.138300  0.396600  1.0  -0.6281
  O  O318  1  0.416700  0.255600  0.367100  1.0  -0.5767
  O  O319  1  0.983400  0.154500  0.771500  1.0  -0.57
  O  O320  1  0.938900  0.031200  0.806000  1.0  -0.5998
  O  O321  1  0.112500  0.020900  0.469200  1.0  -0.5496
  O  O322  1  0.056400  0.883500  0.502500  1.0  -0.564
  O  O323  1  0.496100  0.970900  0.601400  1.0  -0.6073
  O  O324  1  0.453000  0.842400  0.606700  1.0  -0.6342
  O  O325  1  0.437300  0.555300  0.544200  1.0  -0.5706
  O  O326  1  0.428500  0.669600  0.584400  1.0  -0.6567
  O  O327  1  0.575400  0.711600  0.235700  1.0  -0.5431
  O  O328  1  0.603300  0.846300  0.283800  1.0  -0.5511
  O  O329  1  0.161100  0.769200  0.188800  1.0  -0.5619
  O  O330  1  0.212100  0.898600  0.184500  1.0  -0.6151
  O  O331  1  0.491200  0.817700  0.741100  1.0  -0.5964
  O  O332  1  0.583000  0.927000  0.738800  1.0  -0.6102
  O  O333  1  0.484000  0.796200  0.083800  1.0  -0.5637
  O  O334  1  0.568500  0.932700  0.087500  1.0  -0.554
  O  O335  1  0.848400  0.638300  0.103400  1.0  -0.6282
  O  O336  1  0.916700  0.755600  0.132900  1.0  -0.5766
  O  O337  1  0.483400  0.654500  0.728500  1.0  -0.5706
  O  O338  1  0.438900  0.531200  0.694000  1.0  -0.6002
  O  O339  1  0.612500  0.520900  0.030800  1.0  -0.5506
  O  O340  1  0.556400  0.383500  0.997500  1.0  -0.5641
  O  O341  1  0.996100  0.470900  0.898600  1.0  -0.6074
  O  O342  1  0.953000  0.342400  0.893300  1.0  -0.6338
  O  O343  1  0.062700  0.944700  0.044200  1.0  -0.5695
  O  O344  1  0.071500  0.830400  0.084400  1.0  -0.6599
  O  O345  1  0.924600  0.788400  0.735700  1.0  -0.542
  O  O346  1  0.896700  0.653700  0.783800  1.0  -0.5506
  O  O347  1  0.338900  0.730800  0.688800  1.0  -0.5623
  O  O348  1  0.287900  0.601400  0.684500  1.0  -0.6161
  O  O349  1  0.008800  0.682300  0.241100  1.0  -0.5949
  O  O350  1  0.917000  0.573000  0.238800  1.0  -0.6097
  O  O351  1  0.016000  0.703800  0.583800  1.0  -0.564
  O  O352  1  0.931500  0.567300  0.587500  1.0  -0.5529
  O  O353  1  0.651600  0.861700  0.603400  1.0  -0.6254
  O  O354  1  0.583300  0.744400  0.632900  1.0  -0.578
  O  O355  1  0.016600  0.845500  0.228500  1.0  -0.5701
  O  O356  1  0.061100  0.968800  0.194000  1.0  -0.5998
  O  O357  1  0.887500  0.979100  0.530800  1.0  -0.5522
  O  O358  1  0.943600  0.116500  0.497500  1.0  -0.5643
  O  O359  1  0.503900  0.029100  0.398600  1.0  -0.6076
  O  O360  1  0.547000  0.157600  0.393300  1.0  -0.633
