# generated using pymatgen
data_ZnH12C22IN9
_symmetry_space_group_name_H-M   'P 1'
_cell_length_a   21.50000000
_cell_length_b   21.50000000
_cell_length_c   22.45400000
_cell_angle_alpha   90.00000000
_cell_angle_beta   90.00000000
_cell_angle_gamma   90.00000000
_symmetry_Int_Tables_number   1
_chemical_formula_structural   ZnH12C22IN9
_chemical_formula_sum   'Zn8 H96 C176 I8 N72'
_cell_volume   10379.36150000
_cell_formula_units_Z   8
loop_
 _symmetry_equiv_pos_site_id
 _symmetry_equiv_pos_as_xyz
  1  'x, y, z'
loop_
 _atom_site_type_symbol
 _atom_site_label
 _atom_site_symmetry_multiplicity
 _atom_site_fract_x
 _atom_site_fract_y
 _atom_site_fract_z
 _atom_site_occupancy
 _atom_site_charge
  Zn  Zn1  1  0.004940  0.014590  0.493760  1.0  0.7065
  Zn  Zn2  1  0.495060  0.985410  0.993760  1.0  0.7047
  Zn  Zn3  1  0.995060  0.514590  0.006240  1.0  0.7052
  Zn  Zn4  1  0.504940  0.485410  0.506240  1.0  0.708
  Zn  Zn5  1  0.506720  0.993090  0.501310  1.0  0.7185
  Zn  Zn6  1  0.993280  0.006910  0.001310  1.0  0.7159
  Zn  Zn7  1  0.493280  0.493090  0.998690  1.0  0.716
  Zn  Zn8  1  0.006720  0.506910  0.498690  1.0  0.718
  H  H9  1  0.951400  0.969600  0.381100  1.0  0.094
  H  H10  1  0.906000  0.881100  0.342300  1.0  0.0963
  H  H11  1  0.912000  0.801700  0.503400  1.0  0.1161
  H  H12  1  0.955700  0.895500  0.538800  1.0  0.0942
  H  H13  1  0.912700  0.476800  0.110000  1.0  0.0871
  H  H14  1  0.874100  0.516600  0.194700  1.0  0.1005
  H  H15  1  0.953200  0.681500  0.155300  1.0  0.1151
  H  H16  1  0.984800  0.638800  0.068000  1.0  0.0692
  H  H17  1  0.587100  0.600300  0.528400  1.0  0.0925
  H  H18  1  0.676500  0.645200  0.487300  1.0  0.102
  H  H19  1  0.677800  0.513400  0.358300  1.0  0.1061
  H  H20  1  0.588400  0.468600  0.399400  1.0  0.1026
  H  H21  1  0.548600  0.030400  0.881100  1.0  0.0934
  H  H22  1  0.594000  0.118900  0.842300  1.0  0.0964
  H  H23  1  0.588000  0.198300  0.003400  1.0  0.1157
  H  H24  1  0.544300  0.104500  0.038800  1.0  0.0937
  H  H25  1  0.587300  0.523200  0.610000  1.0  0.0871
  H  H26  1  0.625900  0.483400  0.694700  1.0  0.1005
  H  H27  1  0.546800  0.318500  0.655300  1.0  0.115
  H  H28  1  0.515200  0.361200  0.568000  1.0  0.0687
  H  H29  1  0.912900  0.399700  0.028400  1.0  0.0929
  H  H30  1  0.823500  0.354800  0.987300  1.0  0.1018
  H  H31  1  0.822200  0.486600  0.858300  1.0  0.1061
  H  H32  1  0.911600  0.531400  0.899400  1.0  0.1024
  H  H33  1  0.048600  0.469600  0.118900  1.0  0.0948
  H  H34  1  0.094000  0.381100  0.157700  1.0  0.0962
  H  H35  1  0.088000  0.301700  0.996600  1.0  0.1152
  H  H36  1  0.044300  0.395500  0.961200  1.0  0.0933
  H  H37  1  0.087300  0.976800  0.390000  1.0  0.0876
  H  H38  1  0.125900  0.016600  0.305300  1.0  0.1012
  H  H39  1  0.046800  0.181500  0.344700  1.0  0.1157
  H  H40  1  0.015200  0.138800  0.432000  1.0  0.0689
  H  H41  1  0.412900  0.100300  0.971600  1.0  0.0922
  H  H42  1  0.323500  0.145200  0.012700  1.0  0.1019
  H  H43  1  0.322200  0.013400  0.141700  1.0  0.1061
  H  H44  1  0.411600  0.968600  0.100600  1.0  0.1031
  H  H45  1  0.451400  0.530400  0.618900  1.0  0.0952
  H  H46  1  0.406000  0.618900  0.657700  1.0  0.0965
  H  H47  1  0.412000  0.698300  0.496600  1.0  0.1155
  H  H48  1  0.455700  0.604500  0.461200  1.0  0.0934
  H  H49  1  0.412700  0.023200  0.890000  1.0  0.0879
  H  H50  1  0.374100  0.983400  0.805300  1.0  0.1014
  H  H51  1  0.453200  0.818500  0.844700  1.0  0.115
  H  H52  1  0.484800  0.861200  0.932000  1.0  0.0695
  H  H53  1  0.087100  0.899700  0.471600  1.0  0.0926
  H  H54  1  0.176500  0.854800  0.512700  1.0  0.1015
  H  H55  1  0.177800  0.986600  0.641700  1.0  0.1061
  H  H56  1  0.088400  0.031400  0.600600  1.0  0.1026
  H  H57  1  0.452800  0.934900  0.391200  1.0  0.1019
  H  H58  1  0.489200  0.895900  0.300400  1.0  0.113
  H  H59  1  0.666667  0.911700  0.359300  1.0  0.1051
  H  H60  1  0.630200  0.950700  0.450200  1.0  0.094
  H  H61  1  0.602600  0.576300  0.983200  1.0  0.0753
  H  H62  1  0.646300  0.665600  0.021100  1.0  0.1126
  H  H63  1  0.519000  0.658900  0.155300  1.0  0.113
  H  H64  1  0.476300  0.570200  0.107000  1.0  0.0692
  H  H65  1  0.920100  0.013000  0.115900  1.0  0.0965
  H  H66  1  0.823700  0.980900  0.151700  1.0  0.1019
  H  H67  1  0.801100  0.877300  0.004900  1.0  0.1099
  H  H68  1  0.889200  0.927900  0.965400  1.0  0.077
  H  H69  1  0.047200  0.065100  0.891200  1.0  0.1013
  H  H70  1  0.010800  0.104100  0.800400  1.0  0.114
  H  H71  1  0.833400  0.088300  0.859300  1.0  0.1051
  H  H72  1  0.869800  0.049300  0.950200  1.0  0.0945
  H  H73  1  0.897400  0.423700  0.483200  1.0  0.0735
  H  H74  1  0.853700  0.334400  0.521100  1.0  0.113
  H  H75  1  0.981000  0.341100  0.655300  1.0  0.1125
  H  H76  1  0.023700  0.429800  0.607000  1.0  0.0691
  H  H77  1  0.579900  0.987000  0.615900  1.0  0.0962
  H  H78  1  0.676300  0.019100  0.651700  1.0  0.1023
  H  H79  1  0.698900  0.122700  0.504900  1.0  0.1104
  H  H80  1  0.610800  0.072100  0.465400  1.0  0.0774
  H  H81  1  0.547200  0.434900  0.108800  1.0  0.102
  H  H82  1  0.510800  0.395900  0.199600  1.0  0.1134
  H  H83  1  0.333400  0.411700  0.140700  1.0  0.1052
  H  H84  1  0.369800  0.450700  0.049800  1.0  0.0942
  H  H85  1  0.397400  0.076300  0.516800  1.0  0.0746
  H  H86  1  0.353700  0.165600  0.478900  1.0  0.1125
  H  H87  1  0.481000  0.158900  0.344700  1.0  0.1136
  H  H88  1  0.523700  0.070200  0.393000  1.0  0.0687
  H  H89  1  0.079900  0.513000  0.384100  1.0  0.0964
  H  H90  1  0.176300  0.480900  0.348300  1.0  0.1023
  H  H91  1  0.198900  0.377300  0.495100  1.0  0.1103
  H  H92  1  0.110800  0.427900  0.534600  1.0  0.0757
  H  H93  1  0.952800  0.565100  0.608800  1.0  0.1019
  H  H94  1  0.989200  0.604100  0.699600  1.0  0.1134
  H  H95  1  0.166600  0.588300  0.640700  1.0  0.1048
  H  H96  1  0.130200  0.549300  0.549800  1.0  0.0947
  H  H97  1  0.102600  0.923700  0.016800  1.0  0.0746
  H  H98  1  0.146300  0.834400  0.978900  1.0  0.1125
  H  H99  1  0.019000  0.841100  0.844700  1.0  0.1129
  H  H100  1  0.976300  0.929800  0.893000  1.0  0.0691
  H  H101  1  0.420100  0.487000  0.884100  1.0  0.0958
  H  H102  1  0.323700  0.519100  0.848300  1.0  0.1018
  H  H103  1  0.301100  0.622700  0.995100  1.0  0.1109
  H  H104  1  0.389200  0.572100  0.034600  1.0  0.0761
  C  C105  1  0.943300  0.934700  0.405800  1.0  0.1029
  C  C106  1  0.917900  0.881800  0.383000  1.0  -0.1209
  C  C107  1  0.908700  0.829000  0.417200  1.0  -0.0077
  C  C108  1  0.920600  0.834900  0.476700  1.0  -0.1359
  C  C109  1  0.946100  0.891200  0.497700  1.0  0.1661
  C  C110  1  0.921500  0.518900  0.119600  1.0  0.1317
  C  C111  1  0.898400  0.542500  0.169500  1.0  -0.1054
  C  C112  1  0.907900  0.600800  0.185500  1.0  -0.0619
  C  C113  1  0.944100  0.639400  0.146000  1.0  -0.1573
  C  C114  1  0.964100  0.612800  0.095900  1.0  0.141
  C  C115  1  0.605500  0.582700  0.493900  1.0  0.1336
  C  C116  1  0.658600  0.609300  0.469500  1.0  -0.0511
  C  C117  1  0.685600  0.583500  0.418900  1.0  -0.1357
  C  C118  1  0.659400  0.531000  0.392800  1.0  -0.0611
  C  C119  1  0.606300  0.504400  0.417200  1.0  0.1152
  C  C120  1  0.885200  0.770900  0.390000  1.0  0.2834
  C  C121  1  0.888300  0.701200  0.313400  1.0  0.5742
  C  C122  1  0.882800  0.626300  0.241700  1.0  0.3129
  C  C123  1  0.813900  0.617600  0.316200  1.0  0.3501
  C  C124  1  0.743600  0.615900  0.393500  1.0  0.3578
  C  C125  1  0.814200  0.691400  0.395700  1.0  0.3148
  C  C126  1  0.837100  0.669300  0.342800  1.0  -0.0847
  C  C127  1  0.556700  0.065300  0.905800  1.0  0.1013
  C  C128  1  0.582100  0.118200  0.883000  1.0  -0.1216
  C  C129  1  0.591300  0.171000  0.917200  1.0  -0.0061
  C  C130  1  0.579400  0.165100  0.976700  1.0  -0.1342
  C  C131  1  0.553900  0.108800  0.997700  1.0  0.1654
  C  C132  1  0.578500  0.481100  0.619600  1.0  0.1323
  C  C133  1  0.601600  0.457500  0.669500  1.0  -0.105
  C  C134  1  0.592100  0.399200  0.685500  1.0  -0.062
  C  C135  1  0.555900  0.360600  0.646000  1.0  -0.1588
  C  C136  1  0.535900  0.387200  0.595900  1.0  0.1439
  C  C137  1  0.894500  0.417300  0.993900  1.0  0.1339
  C  C138  1  0.841400  0.390700  0.969500  1.0  -0.0518
  C  C139  1  0.814400  0.416500  0.918900  1.0  -0.1352
  C  C140  1  0.840600  0.469000  0.892800  1.0  -0.0613
  C  C141  1  0.893700  0.495600  0.917200  1.0  0.1146
  C  C142  1  0.614800  0.229100  0.890000  1.0  0.2831
  C  C143  1  0.611700  0.298800  0.813400  1.0  0.5757
  C  C144  1  0.617200  0.373700  0.741700  1.0  0.313
  C  C145  1  0.686100  0.382400  0.816200  1.0  0.3532
  C  C146  1  0.756400  0.384100  0.893500  1.0  0.3565
  C  C147  1  0.685800  0.308600  0.895700  1.0  0.3151
  C  C148  1  0.662900  0.330700  0.842800  1.0  -0.0846
  C  C149  1  0.056700  0.434700  0.094200  1.0  0.1011
  C  C150  1  0.082100  0.381800  0.117000  1.0  -0.1229
  C  C151  1  0.091300  0.329000  0.082800  1.0  -0.0071
  C  C152  1  0.079400  0.334900  0.023300  1.0  -0.1355
  C  C153  1  0.053900  0.391200  0.002300  1.0  0.1662
  C  C154  1  0.078500  0.018900  0.380400  1.0  0.1307
  C  C155  1  0.101600  0.042500  0.330500  1.0  -0.1047
  C  C156  1  0.092100  0.100800  0.314500  1.0  -0.0617
  C  C157  1  0.055900  0.139400  0.354000  1.0  -0.1571
  C  C158  1  0.035900  0.112800  0.404100  1.0  0.1417
  C  C159  1  0.394500  0.082700  0.006100  1.0  0.134
  C  C160  1  0.341400  0.109300  0.030500  1.0  -0.0521
  C  C161  1  0.314400  0.083500  0.081100  1.0  -0.1349
  C  C162  1  0.340600  0.031000  0.107200  1.0  -0.0611
  C  C163  1  0.393700  0.004400  0.082800  1.0  0.1147
  C  C164  1  0.114800  0.270900  0.110000  1.0  0.2837
  C  C165  1  0.111700  0.201200  0.186600  1.0  0.5753
  C  C166  1  0.117200  0.126300  0.258300  1.0  0.3128
  C  C167  1  0.186100  0.117600  0.183800  1.0  0.3499
  C  C168  1  0.256400  0.115900  0.106500  1.0  0.3568
  C  C169  1  0.185800  0.191400  0.104300  1.0  0.3137
  C  C170  1  0.162900  0.169300  0.157200  1.0  -0.0844
  C  C171  1  0.443300  0.565300  0.594200  1.0  0.1025
  C  C172  1  0.417900  0.618200  0.617000  1.0  -0.1227
  C  C173  1  0.408700  0.671000  0.582800  1.0  -0.0066
  C  C174  1  0.420600  0.665100  0.523300  1.0  -0.1363
  C  C175  1  0.446100  0.608800  0.502300  1.0  0.1662
  C  C176  1  0.421500  0.981100  0.880400  1.0  0.1314
  C  C177  1  0.398400  0.957500  0.830500  1.0  -0.1043
  C  C178  1  0.407900  0.899200  0.814500  1.0  -0.0617
  C  C179  1  0.444100  0.860600  0.854000  1.0  -0.159
  C  C180  1  0.464100  0.887200  0.904100  1.0  0.1429
  C  C181  1  0.105500  0.917300  0.506100  1.0  0.1332
  C  C182  1  0.158600  0.890700  0.530500  1.0  -0.0521
  C  C183  1  0.185600  0.916500  0.581100  1.0  -0.1361
  C  C184  1  0.159400  0.969000  0.607200  1.0  -0.06
  C  C185  1  0.106300  0.995600  0.582800  1.0  0.1124
  C  C186  1  0.385200  0.729100  0.610000  1.0  0.2837
  C  C187  1  0.388300  0.798800  0.686600  1.0  0.5746
  C  C188  1  0.382800  0.873700  0.758300  1.0  0.3129
  C  C189  1  0.313900  0.882400  0.683800  1.0  0.3521
  C  C190  1  0.243600  0.884100  0.606500  1.0  0.3578
  C  C191  1  0.314200  0.808600  0.604300  1.0  0.3141
  C  C192  1  0.337100  0.830700  0.657200  1.0  -0.0846
  C  C193  1  0.496200  0.930200  0.384700  1.0  0.131
  C  C194  1  0.517800  0.907000  0.330800  1.0  -0.1003
  C  C195  1  0.581300  0.900100  0.321300  1.0  -0.076
  C  C196  1  0.623200  0.916400  0.365800  1.0  -0.1116
  C  C197  1  0.601600  0.939600  0.419700  1.0  0.1398
  C  C198  1  0.583700  0.594900  0.017100  1.0  0.1395
  C  C199  1  0.611000  0.647900  0.039900  1.0  -0.1348
  C  C200  1  0.586300  0.674700  0.090300  1.0  -0.1482
  C  C201  1  0.535600  0.644300  0.118600  1.0  -0.1228
  C  C202  1  0.510800  0.590800  0.089300  1.0  0.1277
  C  C203  1  0.894500  0.986700  0.092200  1.0  0.1025
  C  C204  1  0.838700  0.964800  0.115000  1.0  -0.0913
  C  C205  1  0.805700  0.921600  0.086200  1.0  -0.0892
  C  C206  1  0.824100  0.906200  0.028200  1.0  -0.1497
  C  C207  1  0.877900  0.935200  0.005700  1.0  0.1256
  C  C208  1  0.603800  0.876700  0.259600  1.0  0.2298
  C  C209  1  0.603500  0.805200  0.189400  1.0  0.345
  C  C210  1  0.610600  0.732600  0.117200  1.0  0.3924
  C  C211  1  0.681500  0.807400  0.113300  1.0  0.3103
  C  C212  1  0.748700  0.889600  0.115000  1.0  0.356
  C  C213  1  0.679800  0.887900  0.188700  1.0  0.3326
  C  C214  1  0.654700  0.834000  0.163000  1.0  -0.0166
  C  C215  1  0.003800  0.069800  0.884700  1.0  0.1304
  C  C216  1  0.982200  0.093000  0.830800  1.0  -0.0986
  C  C217  1  0.918700  0.099900  0.821300  1.0  -0.0754
  C  C218  1  0.876800  0.083600  0.865800  1.0  -0.1132
  C  C219  1  0.898400  0.060400  0.919700  1.0  0.1409
  C  C220  1  0.916300  0.405100  0.517100  1.0  0.1402
  C  C221  1  0.889000  0.352100  0.539900  1.0  -0.135
  C  C222  1  0.913700  0.325300  0.590300  1.0  -0.1481
  C  C223  1  0.964400  0.355700  0.618600  1.0  -0.1208
  C  C224  1  0.989200  0.409200  0.589300  1.0  0.128
  C  C225  1  0.605500  0.013300  0.592200  1.0  0.1044
  C  C226  1  0.661300  0.035200  0.615000  1.0  -0.0904
  C  C227  1  0.694300  0.078400  0.586200  1.0  -0.0882
  C  C228  1  0.675900  0.093800  0.528200  1.0  -0.1498
  C  C229  1  0.622100  0.064800  0.505700  1.0  0.1244
  C  C230  1  0.896200  0.123300  0.759600  1.0  0.2297
  C  C231  1  0.896500  0.194800  0.689400  1.0  0.3459
  C  C232  1  0.889400  0.267400  0.617200  1.0  0.3924
  C  C233  1  0.818500  0.192600  0.613300  1.0  0.3108
  C  C234  1  0.751300  0.110400  0.615000  1.0  0.3566
  C  C235  1  0.820200  0.112100  0.688700  1.0  0.3322
  C  C236  1  0.845300  0.166000  0.663000  1.0  -0.0168
  C  C237  1  0.503800  0.430200  0.115300  1.0  0.1299
  C  C238  1  0.482200  0.407000  0.169200  1.0  -0.098
  C  C239  1  0.418700  0.400100  0.178700  1.0  -0.0754
  C  C240  1  0.376800  0.416400  0.134200  1.0  -0.1132
  C  C241  1  0.398400  0.439600  0.080300  1.0  0.1403
  C  C242  1  0.416300  0.094900  0.482900  1.0  0.14
  C  C243  1  0.389000  0.147900  0.460100  1.0  -0.1351
  C  C244  1  0.413700  0.174700  0.409700  1.0  -0.148
  C  C245  1  0.464400  0.144300  0.381400  1.0  -0.1229
  C  C246  1  0.489200  0.090800  0.410700  1.0  0.1284
  C  C247  1  0.105500  0.486700  0.407800  1.0  0.1044
  C  C248  1  0.161300  0.464800  0.385000  1.0  -0.0883
  C  C249  1  0.194300  0.421600  0.413800  1.0  -0.0879
  C  C250  1  0.175900  0.406200  0.471800  1.0  -0.1497
  C  C251  1  0.122100  0.435200  0.494300  1.0  0.1258
  C  C252  1  0.396200  0.376700  0.240400  1.0  0.2304
  C  C253  1  0.396500  0.305200  0.310600  1.0  0.347
  C  C254  1  0.389400  0.232600  0.382800  1.0  0.3925
  C  C255  1  0.318500  0.307400  0.386700  1.0  0.3101
  C  C256  1  0.251300  0.389600  0.385000  1.0  0.3563
  C  C257  1  0.320200  0.387900  0.311300  1.0  0.3326
  C  C258  1  0.345300  0.334000  0.337000  1.0  -0.0165
  C  C259  1  0.996200  0.569800  0.615300  1.0  0.131
  C  C260  1  0.017800  0.593000  0.669200  1.0  -0.1005
  C  C261  1  0.081300  0.599900  0.678700  1.0  -0.0753
  C  C262  1  0.123200  0.583600  0.634200  1.0  -0.1106
  C  C263  1  0.101600  0.560400  0.580300  1.0  0.1412
  C  C264  1  0.083700  0.905100  0.982900  1.0  0.1403
  C  C265  1  0.111000  0.852100  0.960100  1.0  -0.1335
  C  C266  1  0.086300  0.825300  0.909700  1.0  -0.1473
  C  C267  1  0.035600  0.855700  0.881400  1.0  -0.1219
  C  C268  1  0.010800  0.909200  0.910700  1.0  0.1283
  C  C269  1  0.394500  0.513300  0.907800  1.0  0.1026
  C  C270  1  0.338700  0.535200  0.885000  1.0  -0.0891
  C  C271  1  0.305700  0.578400  0.913800  1.0  -0.0894
  C  C272  1  0.324100  0.593800  0.971800  1.0  -0.1497
  C  C273  1  0.377900  0.564800  0.994300  1.0  0.1259
  C  C274  1  0.103800  0.623300  0.740400  1.0  0.2303
  C  C275  1  0.103500  0.694800  0.810600  1.0  0.3461
  C  C276  1  0.110600  0.767400  0.882800  1.0  0.3924
  C  C277  1  0.181500  0.692600  0.886700  1.0  0.3094
  C  C278  1  0.248700  0.610400  0.885000  1.0  0.3553
  C  C279  1  0.179800  0.612100  0.811300  1.0  0.3325
  C  C280  1  0.154700  0.666000  0.837000  1.0  -0.0166
  I  I281  1  0.952410  0.087710  0.564740  1.0  -0.3573
  I  I282  1  0.547590  0.912290  0.064740  1.0  -0.3568
  I  I283  1  0.047590  0.587710  0.935260  1.0  -0.3571
  I  I284  1  0.452410  0.412290  0.435260  1.0  -0.357
  I  I285  1  0.431070  0.942380  0.571670  1.0  -0.3623
  I  I286  1  0.068930  0.057620  0.071670  1.0  -0.3624
  I  I287  1  0.568930  0.442380  0.928330  1.0  -0.3625
  I  I288  1  0.931070  0.557620  0.428330  1.0  -0.3625
  N  N289  1  0.956300  0.936200  0.462800  1.0  -0.2613
  N  N290  1  0.957700  0.553000  0.081400  1.0  -0.3359
  N  N291  1  0.579400  0.530200  0.467800  1.0  -0.3251
  N  N292  1  0.909600  0.753100  0.337100  1.0  -0.4157
  N  N293  1  0.908600  0.681500  0.263600  1.0  -0.4113
  N  N294  1  0.836300  0.595200  0.265400  1.0  -0.4306
  N  N295  1  0.761900  0.588800  0.342300  1.0  -0.4352
  N  N296  1  0.764400  0.664100  0.423300  1.0  -0.4066
  N  N297  1  0.838000  0.743900  0.423000  1.0  -0.3564
  N  N298  1  0.543700  0.063800  0.962800  1.0  -0.2618
  N  N299  1  0.542300  0.447000  0.581400  1.0  -0.3356
  N  N300  1  0.920600  0.469800  0.967800  1.0  -0.3246
  N  N301  1  0.590400  0.246900  0.837100  1.0  -0.4139
  N  N302  1  0.591400  0.318500  0.763600  1.0  -0.4111
  N  N303  1  0.663700  0.404800  0.765400  1.0  -0.4329
  N  N304  1  0.738100  0.411200  0.842300  1.0  -0.4345
  N  N305  1  0.735600  0.335900  0.923300  1.0  -0.4047
  N  N306  1  0.662000  0.256100  0.923000  1.0  -0.3548
  N  N307  1  0.043700  0.436200  0.037200  1.0  -0.2642
  N  N308  1  0.042300  0.053000  0.418600  1.0  -0.3384
  N  N309  1  0.420600  0.030200  0.032200  1.0  -0.3243
  N  N310  1  0.090400  0.253100  0.162900  1.0  -0.4139
  N  N311  1  0.091400  0.181500  0.236400  1.0  -0.4118
  N  N312  1  0.163700  0.095200  0.234600  1.0  -0.4307
  N  N313  1  0.238100  0.088800  0.157700  1.0  -0.4322
  N  N314  1  0.235600  0.164100  0.076700  1.0  -0.4124
  N  N315  1  0.162000  0.243900  0.077000  1.0  -0.3578
  N  N316  1  0.456300  0.563800  0.537200  1.0  -0.2602
  N  N317  1  0.457700  0.947000  0.918600  1.0  -0.3381
  N  N318  1  0.079400  0.969800  0.532200  1.0  -0.3238
  N  N319  1  0.409600  0.746900  0.662900  1.0  -0.4148
  N  N320  1  0.408600  0.818500  0.736400  1.0  -0.4116
  N  N321  1  0.336300  0.904800  0.734600  1.0  -0.4319
  N  N322  1  0.261900  0.911200  0.657700  1.0  -0.4328
  N  N323  1  0.264400  0.835900  0.576700  1.0  -0.4097
  N  N324  1  0.338000  0.756100  0.577000  1.0  -0.3577
  N  N325  1  0.538100  0.946500  0.429200  1.0  -0.3249
  N  N326  1  0.533400  0.568500  0.038800  1.0  -0.3188
  N  N327  1  0.912500  0.971300  0.037500  1.0  -0.324
  N  N328  1  0.576600  0.826700  0.238600  1.0  -0.355
  N  N329  1  0.581400  0.751000  0.165200  1.0  -0.4471
  N  N330  1  0.658900  0.755800  0.088300  1.0  -0.4472
  N  N331  1  0.733100  0.837900  0.088000  1.0  -0.4157
  N  N332  1  0.727600  0.918100  0.163200  1.0  -0.435
  N  N333  1  0.654600  0.911800  0.239500  1.0  -0.3644
  N  N334  1  0.961900  0.053500  0.929200  1.0  -0.3234
  N  N335  1  0.966600  0.431500  0.538800  1.0  -0.3182
  N  N336  1  0.587500  0.028700  0.537500  1.0  -0.3239
  N  N337  1  0.923400  0.173300  0.738600  1.0  -0.3568
  N  N338  1  0.918600  0.249000  0.665200  1.0  -0.4494
  N  N339  1  0.841100  0.244200  0.588300  1.0  -0.4454
  N  N340  1  0.766900  0.162100  0.588000  1.0  -0.4167
  N  N341  1  0.772400  0.081900  0.663200  1.0  -0.4348
  N  N342  1  0.845400  0.088200  0.739500  1.0  -0.3646
  N  N343  1  0.461900  0.446500  0.070800  1.0  -0.3247
  N  N344  1  0.466600  0.068500  0.461200  1.0  -0.3168
  N  N345  1  0.087500  0.471300  0.462500  1.0  -0.3241
  N  N346  1  0.423400  0.326700  0.261400  1.0  -0.3544
  N  N347  1  0.418600  0.251000  0.334800  1.0  -0.4525
  N  N348  1  0.341100  0.255800  0.411700  1.0  -0.4418
  N  N349  1  0.266900  0.337900  0.412000  1.0  -0.4134
  N  N350  1  0.272400  0.418100  0.336800  1.0  -0.4355
  N  N351  1  0.345400  0.411800  0.260500  1.0  -0.3651
  N  N352  1  0.038100  0.553500  0.570800  1.0  -0.3259
  N  N353  1  0.033400  0.931500  0.961200  1.0  -0.319
  N  N354  1  0.412500  0.528700  0.962500  1.0  -0.3248
  N  N355  1  0.076600  0.673300  0.761400  1.0  -0.3546
  N  N356  1  0.081400  0.749000  0.834800  1.0  -0.4486
  N  N357  1  0.158900  0.744200  0.911700  1.0  -0.4423
  N  N358  1  0.233100  0.662100  0.912000  1.0  -0.4127
  N  N359  1  0.227600  0.581900  0.836800  1.0  -0.4352
  N  N360  1  0.154600  0.588200  0.760500  1.0  -0.3632
