# generated using pymatgen
data_ZnH8C12(IN2)2
_symmetry_space_group_name_H-M   'P 1'
_cell_length_a   35.83200000
_cell_length_b   14.83800000
_cell_length_c   30.78300000
_cell_angle_alpha   90.00000000
_cell_angle_beta   102.06600000
_cell_angle_gamma   90.00000000
_symmetry_Int_Tables_number   1
_chemical_formula_structural   ZnH8C12(IN2)2
_chemical_formula_sum   'Zn24 H192 C288 I48 N96'
_cell_volume   16004.97924713
_cell_formula_units_Z   24
loop_
 _symmetry_equiv_pos_site_id
 _symmetry_equiv_pos_as_xyz
  1  'x, y, z'
loop_
 _atom_site_type_symbol
 _atom_site_label
 _atom_site_symmetry_multiplicity
 _atom_site_fract_x
 _atom_site_fract_y
 _atom_site_fract_z
 _atom_site_occupancy
 _atom_site_charge
  Zn  Zn1  1  0.621650  0.099050  0.066870  1.0  0.9028
  Zn  Zn2  1  0.419570  0.376080  0.905310  1.0  0.8799
  Zn  Zn3  1  0.326540  0.862170  0.225600  1.0  0.8774
  Zn  Zn4  1  0.121650  0.599050  0.066870  1.0  0.9028
  Zn  Zn5  1  0.919570  0.876080  0.905310  1.0  0.8799
  Zn  Zn6  1  0.826540  0.362170  0.225600  1.0  0.8774
  Zn  Zn7  1  0.621650  0.900950  0.566870  1.0  0.9006
  Zn  Zn8  1  0.419570  0.623920  0.405310  1.0  0.8775
  Zn  Zn9  1  0.326540  0.137830  0.725600  1.0  0.8782
  Zn  Zn10  1  0.121650  0.400950  0.566870  1.0  0.9006
  Zn  Zn11  1  0.919570  0.123920  0.405310  1.0  0.8775
  Zn  Zn12  1  0.826540  0.637830  0.725600  1.0  0.8782
  Zn  Zn13  1  0.378350  0.099050  0.433130  1.0  0.9024
  Zn  Zn14  1  0.580430  0.376080  0.594690  1.0  0.8801
  Zn  Zn15  1  0.673460  0.862170  0.274400  1.0  0.8784
  Zn  Zn16  1  0.878350  0.599050  0.433130  1.0  0.9024
  Zn  Zn17  1  0.080430  0.876080  0.594690  1.0  0.8801
  Zn  Zn18  1  0.173460  0.362170  0.274400  1.0  0.8784
  Zn  Zn19  1  0.378350  0.900950  0.933130  1.0  0.901
  Zn  Zn20  1  0.580430  0.623920  0.094690  1.0  0.8771
  Zn  Zn21  1  0.673460  0.137830  0.774400  1.0  0.8784
  Zn  Zn22  1  0.878350  0.400950  0.933130  1.0  0.901
  Zn  Zn23  1  0.080430  0.123920  0.094690  1.0  0.8771
  Zn  Zn24  1  0.173460  0.637830  0.774400  1.0  0.8784
  H  H25  1  0.867400  0.862000  0.312300  1.0  0.1173
  H  H26  1  0.905100  0.942000  0.369800  1.0  0.0851
  H  H27  1  0.844900  0.161000  0.337700  1.0  0.0882
  H  H28  1  0.803800  0.084600  0.280500  1.0  0.1146
  H  H29  1  0.729900  0.069100  0.198900  1.0  0.1077
  H  H30  1  0.679200  0.138200  0.151700  1.0  0.0827
  H  H31  1  0.660400  0.921600  0.076800  1.0  0.0853
  H  H32  1  0.709600  0.844300  0.123000  1.0  0.1237
  H  H33  1  0.750800  0.645800  0.176200  1.0  0.1139
  H  H34  1  0.763300  0.492900  0.179800  1.0  0.0815
  H  H35  1  0.863300  0.532400  0.259500  1.0  0.089
  H  H36  1  0.853100  0.686700  0.259200  1.0  0.1207
  H  H37  1  0.390700  0.596700  0.016200  1.0  0.1168
  H  H38  1  0.383200  0.470600  0.970800  1.0  0.0846
  H  H39  1  0.480900  0.518600  0.936300  1.0  0.0907
  H  H40  1  0.491200  0.645400  0.981700  1.0  0.1198
  H  H41  1  0.516600  0.887200  0.995100  1.0  0.1074
  H  H42  1  0.569100  0.982200  0.997800  1.0  0.1017
  H  H43  1  0.579200  0.010900  0.127400  1.0  0.0782
  H  H44  1  0.527300  0.920200  0.127400  1.0  0.1183
  H  H45  1  0.442700  0.898700  0.161100  1.0  0.1194
  H  H46  1  0.402600  0.920200  0.210200  1.0  0.0909
  H  H47  1  0.327000  0.753700  0.141800  1.0  0.0936
  H  H48  1  0.366300  0.726900  0.092400  1.0  0.1175
  H  H49  1  0.367400  0.362000  0.312300  1.0  0.1173
  H  H50  1  0.405100  0.442000  0.369800  1.0  0.0851
  H  H51  1  0.344900  0.661000  0.337700  1.0  0.0882
  H  H52  1  0.303800  0.584600  0.280500  1.0  0.1146
  H  H53  1  0.229900  0.569100  0.198900  1.0  0.1077
  H  H54  1  0.179200  0.638200  0.151700  1.0  0.0827
  H  H55  1  0.160400  0.421600  0.076800  1.0  0.0853
  H  H56  1  0.209600  0.344300  0.123000  1.0  0.1237
  H  H57  1  0.250800  0.145800  0.176200  1.0  0.1139
  H  H58  1  0.263300  0.992900  0.179800  1.0  0.0815
  H  H59  1  0.363300  0.032400  0.259500  1.0  0.089
  H  H60  1  0.353100  0.186700  0.259200  1.0  0.1207
  H  H61  1  0.890700  0.096700  0.016200  1.0  0.1168
  H  H62  1  0.883200  0.970600  0.970800  1.0  0.0846
  H  H63  1  0.980900  0.018600  0.936300  1.0  0.0907
  H  H64  1  0.991200  0.145400  0.981700  1.0  0.1198
  H  H65  1  0.016600  0.387200  0.995100  1.0  0.1074
  H  H66  1  0.069100  0.482200  0.997800  1.0  0.1017
  H  H67  1  0.079200  0.510900  0.127400  1.0  0.0782
  H  H68  1  0.027300  0.420200  0.127400  1.0  0.1183
  H  H69  1  0.942700  0.398700  0.161100  1.0  0.1194
  H  H70  1  0.902600  0.420200  0.210200  1.0  0.0909
  H  H71  1  0.827000  0.253700  0.141800  1.0  0.0936
  H  H72  1  0.866300  0.226900  0.092400  1.0  0.1175
  H  H73  1  0.867400  0.138000  0.812300  1.0  0.117
  H  H74  1  0.905100  0.058000  0.869800  1.0  0.0853
  H  H75  1  0.844900  0.839000  0.837700  1.0  0.0884
  H  H76  1  0.803800  0.915400  0.780500  1.0  0.1144
  H  H77  1  0.729900  0.930900  0.698900  1.0  0.1081
  H  H78  1  0.679200  0.861800  0.651700  1.0  0.0831
  H  H79  1  0.660400  0.078400  0.576800  1.0  0.0855
  H  H80  1  0.709600  0.155700  0.623000  1.0  0.1233
  H  H81  1  0.750800  0.354200  0.676200  1.0  0.1138
  H  H82  1  0.763300  0.507100  0.679800  1.0  0.082
  H  H83  1  0.863300  0.467600  0.759500  1.0  0.0889
  H  H84  1  0.853100  0.313300  0.759200  1.0  0.1209
  H  H85  1  0.390700  0.403300  0.516200  1.0  0.1167
  H  H86  1  0.383200  0.529400  0.470800  1.0  0.0849
  H  H87  1  0.480900  0.481400  0.436300  1.0  0.0907
  H  H88  1  0.491200  0.354600  0.481700  1.0  0.1196
  H  H89  1  0.516600  0.112800  0.495100  1.0  0.1072
  H  H90  1  0.569100  0.017800  0.497800  1.0  0.1015
  H  H91  1  0.579200  0.989100  0.627400  1.0  0.0785
  H  H92  1  0.527300  0.079800  0.627400  1.0  0.1182
  H  H93  1  0.442700  0.101300  0.661100  1.0  0.1195
  H  H94  1  0.402600  0.079800  0.710200  1.0  0.0907
  H  H95  1  0.327000  0.246300  0.641800  1.0  0.093
  H  H96  1  0.366300  0.273100  0.592400  1.0  0.1182
  H  H97  1  0.367400  0.638000  0.812300  1.0  0.117
  H  H98  1  0.405100  0.558000  0.869800  1.0  0.0853
  H  H99  1  0.344900  0.339000  0.837700  1.0  0.0884
  H  H100  1  0.303800  0.415400  0.780500  1.0  0.1144
  H  H101  1  0.229900  0.430900  0.698900  1.0  0.1081
  H  H102  1  0.179200  0.361800  0.651700  1.0  0.0831
  H  H103  1  0.160400  0.578400  0.576800  1.0  0.0855
  H  H104  1  0.209600  0.655700  0.623000  1.0  0.1233
  H  H105  1  0.250800  0.854200  0.676200  1.0  0.1138
  H  H106  1  0.263300  0.007100  0.679800  1.0  0.082
  H  H107  1  0.363300  0.967600  0.759500  1.0  0.0889
  H  H108  1  0.353100  0.813300  0.759200  1.0  0.1209
  H  H109  1  0.890700  0.903300  0.516200  1.0  0.1167
  H  H110  1  0.883200  0.029400  0.470800  1.0  0.0849
  H  H111  1  0.980900  0.981400  0.436300  1.0  0.0907
  H  H112  1  0.991200  0.854600  0.481700  1.0  0.1196
  H  H113  1  0.016600  0.612800  0.495100  1.0  0.1072
  H  H114  1  0.069100  0.517800  0.497800  1.0  0.1015
  H  H115  1  0.079200  0.489100  0.627400  1.0  0.0785
  H  H116  1  0.027300  0.579800  0.627400  1.0  0.1182
  H  H117  1  0.942700  0.601300  0.661100  1.0  0.1195
  H  H118  1  0.902600  0.579800  0.710200  1.0  0.0907
  H  H119  1  0.827000  0.746300  0.641800  1.0  0.093
  H  H120  1  0.866300  0.773100  0.592400  1.0  0.1182
  H  H121  1  0.132600  0.862000  0.187700  1.0  0.1174
  H  H122  1  0.094900  0.942000  0.130200  1.0  0.0854
  H  H123  1  0.155100  0.161000  0.162300  1.0  0.0881
  H  H124  1  0.196200  0.084600  0.219500  1.0  0.1143
  H  H125  1  0.270100  0.069100  0.301100  1.0  0.1087
  H  H126  1  0.320800  0.138200  0.348300  1.0  0.0822
  H  H127  1  0.339600  0.921600  0.423200  1.0  0.0855
  H  H128  1  0.290400  0.844300  0.377000  1.0  0.1239
  H  H129  1  0.249200  0.645800  0.323800  1.0  0.1142
  H  H130  1  0.236700  0.492900  0.320200  1.0  0.0822
  H  H131  1  0.136700  0.532400  0.240500  1.0  0.089
  H  H132  1  0.146900  0.686700  0.240800  1.0  0.1214
  H  H133  1  0.609300  0.596700  0.483800  1.0  0.1164
  H  H134  1  0.616800  0.470600  0.529200  1.0  0.0843
  H  H135  1  0.519100  0.518600  0.563700  1.0  0.0903
  H  H136  1  0.508800  0.645400  0.518300  1.0  0.1202
  H  H137  1  0.483400  0.887200  0.504900  1.0  0.1074
  H  H138  1  0.430900  0.982200  0.502200  1.0  0.1015
  H  H139  1  0.420800  0.010900  0.372600  1.0  0.0784
  H  H140  1  0.472700  0.920200  0.372600  1.0  0.1183
  H  H141  1  0.557300  0.898700  0.338900  1.0  0.1202
  H  H142  1  0.597400  0.920200  0.289800  1.0  0.0906
  H  H143  1  0.673000  0.753700  0.358200  1.0  0.0936
  H  H144  1  0.633700  0.726900  0.407600  1.0  0.1167
  H  H145  1  0.632600  0.362000  0.187700  1.0  0.1174
  H  H146  1  0.594900  0.442000  0.130200  1.0  0.0854
  H  H147  1  0.655100  0.661000  0.162300  1.0  0.0881
  H  H148  1  0.696200  0.584600  0.219500  1.0  0.1143
  H  H149  1  0.770100  0.569100  0.301100  1.0  0.1087
  H  H150  1  0.820800  0.638200  0.348300  1.0  0.0822
  H  H151  1  0.839600  0.421600  0.423200  1.0  0.0855
  H  H152  1  0.790400  0.344300  0.377000  1.0  0.1239
  H  H153  1  0.749200  0.145800  0.323800  1.0  0.1142
  H  H154  1  0.736700  0.992900  0.320200  1.0  0.0822
  H  H155  1  0.636700  0.032400  0.240500  1.0  0.089
  H  H156  1  0.646900  0.186700  0.240800  1.0  0.1214
  H  H157  1  0.109300  0.096700  0.483800  1.0  0.1164
  H  H158  1  0.116800  0.970600  0.529200  1.0  0.0843
  H  H159  1  0.019100  0.018600  0.563700  1.0  0.0903
  H  H160  1  0.008800  0.145400  0.518300  1.0  0.1202
  H  H161  1  0.983400  0.387200  0.504900  1.0  0.1074
  H  H162  1  0.930900  0.482200  0.502200  1.0  0.1015
  H  H163  1  0.920800  0.510900  0.372600  1.0  0.0784
  H  H164  1  0.972700  0.420200  0.372600  1.0  0.1183
  H  H165  1  0.057300  0.398700  0.338900  1.0  0.1202
  H  H166  1  0.097400  0.420200  0.289800  1.0  0.0906
  H  H167  1  0.173000  0.253700  0.358200  1.0  0.0936
  H  H168  1  0.133700  0.226900  0.407600  1.0  0.1167
  H  H169  1  0.132600  0.138000  0.687700  1.0  0.1176
  H  H170  1  0.094900  0.058000  0.630200  1.0  0.0852
  H  H171  1  0.155100  0.839000  0.662300  1.0  0.0884
  H  H172  1  0.196200  0.915400  0.719500  1.0  0.1144
  H  H173  1  0.270100  0.930900  0.801100  1.0  0.1088
  H  H174  1  0.320800  0.861800  0.848300  1.0  0.0829
  H  H175  1  0.339600  0.078400  0.923200  1.0  0.0849
  H  H176  1  0.290400  0.155700  0.877000  1.0  0.1239
  H  H177  1  0.249200  0.354200  0.823800  1.0  0.1143
  H  H178  1  0.236700  0.507100  0.820200  1.0  0.0823
  H  H179  1  0.136700  0.467600  0.740500  1.0  0.0893
  H  H180  1  0.146900  0.313300  0.740800  1.0  0.1212
  H  H181  1  0.609300  0.403300  0.983800  1.0  0.1164
  H  H182  1  0.616800  0.529400  0.029200  1.0  0.0841
  H  H183  1  0.519100  0.481400  0.063700  1.0  0.0901
  H  H184  1  0.508800  0.354600  0.018300  1.0  0.1199
  H  H185  1  0.483400  0.112800  0.004900  1.0  0.1069
  H  H186  1  0.430900  0.017800  0.002200  1.0  0.1015
  H  H187  1  0.420800  0.989100  0.872600  1.0  0.0787
  H  H188  1  0.472700  0.079800  0.872600  1.0  0.1185
  H  H189  1  0.557300  0.101300  0.838900  1.0  0.1199
  H  H190  1  0.597400  0.079800  0.789800  1.0  0.0903
  H  H191  1  0.673000  0.246300  0.858200  1.0  0.0939
  H  H192  1  0.633700  0.273100  0.907600  1.0  0.1167
  H  H193  1  0.632600  0.638000  0.687700  1.0  0.1176
  H  H194  1  0.594900  0.558000  0.630200  1.0  0.0852
  H  H195  1  0.655100  0.339000  0.662300  1.0  0.0884
  H  H196  1  0.696200  0.415400  0.719500  1.0  0.1144
  H  H197  1  0.770100  0.430900  0.801100  1.0  0.1088
  H  H198  1  0.820800  0.361800  0.848300  1.0  0.0829
  H  H199  1  0.839600  0.578400  0.923200  1.0  0.0849
  H  H200  1  0.790400  0.655700  0.877000  1.0  0.1239
  H  H201  1  0.749200  0.854200  0.823800  1.0  0.1143
  H  H202  1  0.736700  0.007100  0.820200  1.0  0.0823
  H  H203  1  0.636700  0.967600  0.740500  1.0  0.0893
  H  H204  1  0.646900  0.813300  0.740800  1.0  0.1212
  H  H205  1  0.109300  0.903300  0.983800  1.0  0.1164
  H  H206  1  0.116800  0.029400  0.029200  1.0  0.0841
  H  H207  1  0.019100  0.981400  0.063700  1.0  0.0901
  H  H208  1  0.008800  0.854600  0.018300  1.0  0.1199
  H  H209  1  0.983400  0.612800  0.004900  1.0  0.1069
  H  H210  1  0.930900  0.517800  0.002200  1.0  0.1015
  H  H211  1  0.920800  0.489100  0.872600  1.0  0.0787
  H  H212  1  0.972700  0.579800  0.872600  1.0  0.1185
  H  H213  1  0.057300  0.601300  0.838900  1.0  0.1199
  H  H214  1  0.097400  0.579800  0.789800  1.0  0.0903
  H  H215  1  0.173000  0.746300  0.858200  1.0  0.0939
  H  H216  1  0.133700  0.773100  0.907600  1.0  0.1167
  C  C217  1  0.807100  0.913800  0.254100  1.0  0.4022
  C  C218  1  0.831700  0.965200  0.290700  1.0  -0.0975
  C  C219  1  0.861900  0.923400  0.317000  1.0  -0.1086
  C  C220  1  0.884500  0.971900  0.350800  1.0  0.1619
  C  C221  1  0.849400  0.099200  0.332500  1.0  0.1344
  C  C222  1  0.824900  0.054200  0.298300  1.0  -0.1087
  C  C223  1  0.757500  0.904000  0.196300  1.0  0.3982
  C  C224  1  0.725200  0.949300  0.165900  1.0  -0.1328
  C  C225  1  0.715800  0.037200  0.174000  1.0  -0.1293
  C  C226  1  0.685800  0.078100  0.145700  1.0  0.1464
  C  C227  1  0.674700  0.951400  0.102200  1.0  0.1505
  C  C228  1  0.704100  0.904900  0.129300  1.0  -0.1542
  C  C229  1  0.793300  0.781700  0.218800  1.0  0.1609
  C  C230  1  0.800600  0.683200  0.217100  1.0  -0.121
  C  C231  1  0.774100  0.624000  0.193700  1.0  -0.1134
  C  C232  1  0.781800  0.533000  0.195800  1.0  0.1546
  C  C233  1  0.840200  0.556000  0.242500  1.0  0.1502
  C  C234  1  0.834400  0.647900  0.242400  1.0  -0.1186
  C  C235  1  0.448200  0.713100  0.034700  1.0  0.3845
  C  C236  1  0.442000  0.633200  0.004700  1.0  -0.0847
  C  C237  1  0.409900  0.581400  0.000400  1.0  -0.1211
  C  C238  1  0.405500  0.506400  0.973000  1.0  0.1438
  C  C239  1  0.462400  0.534500  0.953000  1.0  0.1325
  C  C240  1  0.468800  0.610100  0.980100  1.0  -0.1628
  C  C241  1  0.482800  0.834600  0.060400  1.0  0.384
  C  C242  1  0.515600  0.894600  0.060600  1.0  -0.0712
  C  C243  1  0.528900  0.913100  0.022600  1.0  -0.1091
  C  C244  1  0.560300  0.969700  0.024200  1.0  0.1278
  C  C245  1  0.565900  0.986300  0.100000  1.0  0.1404
  C  C246  1  0.535200  0.932200  0.100300  1.0  -0.1709
  C  C247  1  0.434000  0.791800  0.091000  1.0  0.401
  C  C248  1  0.408900  0.808000  0.122300  1.0  -0.0719
  C  C249  1  0.419100  0.867400  0.156900  1.0  -0.121
  C  C250  1  0.394700  0.881100  0.185600  1.0  0.1287
  C  C251  1  0.350800  0.784000  0.145900  1.0  0.1341
  C  C252  1  0.374300  0.767100  0.116600  1.0  -0.0894
  C  C253  1  0.307100  0.413800  0.254100  1.0  0.4022
  C  C254  1  0.331700  0.465200  0.290700  1.0  -0.0975
  C  C255  1  0.361900  0.423400  0.317000  1.0  -0.1086
  C  C256  1  0.384500  0.471900  0.350800  1.0  0.1619
  C  C257  1  0.349400  0.599200  0.332500  1.0  0.1344
  C  C258  1  0.324900  0.554200  0.298300  1.0  -0.1087
  C  C259  1  0.257500  0.404000  0.196300  1.0  0.3982
  C  C260  1  0.225200  0.449300  0.165900  1.0  -0.1328
  C  C261  1  0.215800  0.537200  0.174000  1.0  -0.1293
  C  C262  1  0.185800  0.578100  0.145700  1.0  0.1464
  C  C263  1  0.174700  0.451400  0.102200  1.0  0.1505
  C  C264  1  0.204100  0.404900  0.129300  1.0  -0.1542
  C  C265  1  0.293300  0.281700  0.218800  1.0  0.1609
  C  C266  1  0.300600  0.183200  0.217100  1.0  -0.121
  C  C267  1  0.274100  0.124000  0.193700  1.0  -0.1134
  C  C268  1  0.281800  0.033000  0.195800  1.0  0.1546
  C  C269  1  0.340200  0.056000  0.242500  1.0  0.1502
  C  C270  1  0.334400  0.147900  0.242400  1.0  -0.1186
  C  C271  1  0.948200  0.213100  0.034700  1.0  0.3845
  C  C272  1  0.942000  0.133200  0.004700  1.0  -0.0847
  C  C273  1  0.909900  0.081400  0.000400  1.0  -0.1211
  C  C274  1  0.905500  0.006400  0.973000  1.0  0.1438
  C  C275  1  0.962400  0.034500  0.953000  1.0  0.1325
  C  C276  1  0.968800  0.110100  0.980100  1.0  -0.1628
  C  C277  1  0.982800  0.334600  0.060400  1.0  0.384
  C  C278  1  0.015600  0.394600  0.060600  1.0  -0.0712
  C  C279  1  0.028900  0.413100  0.022600  1.0  -0.1091
  C  C280  1  0.060300  0.469700  0.024200  1.0  0.1278
  C  C281  1  0.065900  0.486300  0.100000  1.0  0.1404
  C  C282  1  0.035200  0.432200  0.100300  1.0  -0.1709
  C  C283  1  0.934000  0.291800  0.091000  1.0  0.401
  C  C284  1  0.908900  0.308000  0.122300  1.0  -0.0719
  C  C285  1  0.919100  0.367400  0.156900  1.0  -0.121
  C  C286  1  0.894700  0.381100  0.185600  1.0  0.1287
  C  C287  1  0.850800  0.284000  0.145900  1.0  0.1341
  C  C288  1  0.874300  0.267100  0.116600  1.0  -0.0894
  C  C289  1  0.807100  0.086200  0.754100  1.0  0.4019
  C  C290  1  0.831700  0.034800  0.790700  1.0  -0.0971
  C  C291  1  0.861900  0.076600  0.817000  1.0  -0.1074
  C  C292  1  0.884500  0.028100  0.850800  1.0  0.1613
  C  C293  1  0.849400  0.900800  0.832500  1.0  0.1335
  C  C294  1  0.824900  0.945800  0.798300  1.0  -0.1086
  C  C295  1  0.757500  0.096000  0.696300  1.0  0.3981
  C  C296  1  0.725200  0.050700  0.665900  1.0  -0.1327
  C  C297  1  0.715800  0.962800  0.674000  1.0  -0.1284
  C  C298  1  0.685800  0.921900  0.645700  1.0  0.1448
  C  C299  1  0.674700  0.048600  0.602200  1.0  0.1506
  C  C300  1  0.704100  0.095100  0.629300  1.0  -0.1558
  C  C301  1  0.793300  0.218300  0.718800  1.0  0.1614
  C  C302  1  0.800600  0.316800  0.717100  1.0  -0.1221
  C  C303  1  0.774100  0.376000  0.693700  1.0  -0.1131
  C  C304  1  0.781800  0.467000  0.695800  1.0  0.1548
  C  C305  1  0.840200  0.444000  0.742500  1.0  0.1501
  C  C306  1  0.834400  0.352100  0.742400  1.0  -0.1187
  C  C307  1  0.448200  0.286900  0.534700  1.0  0.384
  C  C308  1  0.442000  0.366800  0.504700  1.0  -0.0848
  C  C309  1  0.409900  0.418600  0.500400  1.0  -0.1211
  C  C310  1  0.405500  0.493600  0.473000  1.0  0.143
  C  C311  1  0.462400  0.465500  0.453000  1.0  0.1324
  C  C312  1  0.468800  0.389900  0.480100  1.0  -0.1633
  C  C313  1  0.482800  0.165400  0.560400  1.0  0.3838
  C  C314  1  0.515600  0.105400  0.560600  1.0  -0.0717
  C  C315  1  0.528900  0.086900  0.522600  1.0  -0.1098
  C  C316  1  0.560300  0.030300  0.524200  1.0  0.1278
  C  C317  1  0.565900  0.013700  0.600000  1.0  0.1413
  C  C318  1  0.535200  0.067800  0.600300  1.0  -0.1712
  C  C319  1  0.434000  0.208200  0.591000  1.0  0.401
  C  C320  1  0.408900  0.192000  0.622300  1.0  -0.0716
  C  C321  1  0.419100  0.132600  0.656900  1.0  -0.122
  C  C322  1  0.394700  0.118900  0.685600  1.0  0.1293
  C  C323  1  0.350800  0.216000  0.645900  1.0  0.1334
  C  C324  1  0.374300  0.232900  0.616600  1.0  -0.0899
  C  C325  1  0.307100  0.586200  0.754100  1.0  0.4019
  C  C326  1  0.331700  0.534800  0.790700  1.0  -0.0971
  C  C327  1  0.361900  0.576600  0.817000  1.0  -0.1074
  C  C328  1  0.384500  0.528100  0.850800  1.0  0.1613
  C  C329  1  0.349400  0.400800  0.832500  1.0  0.1335
  C  C330  1  0.324900  0.445800  0.798300  1.0  -0.1086
  C  C331  1  0.257500  0.596000  0.696300  1.0  0.3981
  C  C332  1  0.225200  0.550700  0.665900  1.0  -0.1327
  C  C333  1  0.215800  0.462800  0.674000  1.0  -0.1284
  C  C334  1  0.185800  0.421900  0.645700  1.0  0.1448
  C  C335  1  0.174700  0.548600  0.602200  1.0  0.1506
  C  C336  1  0.204100  0.595100  0.629300  1.0  -0.1558
  C  C337  1  0.293300  0.718300  0.718800  1.0  0.1614
  C  C338  1  0.300600  0.816800  0.717100  1.0  -0.1221
  C  C339  1  0.274100  0.876000  0.693700  1.0  -0.1131
  C  C340  1  0.281800  0.967000  0.695800  1.0  0.1548
  C  C341  1  0.340200  0.944000  0.742500  1.0  0.1501
  C  C342  1  0.334400  0.852100  0.742400  1.0  -0.1187
  C  C343  1  0.948200  0.786900  0.534700  1.0  0.384
  C  C344  1  0.942000  0.866800  0.504700  1.0  -0.0848
  C  C345  1  0.909900  0.918600  0.500400  1.0  -0.1211
  C  C346  1  0.905500  0.993600  0.473000  1.0  0.143
  C  C347  1  0.962400  0.965500  0.453000  1.0  0.1324
  C  C348  1  0.968800  0.889900  0.480100  1.0  -0.1633
  C  C349  1  0.982800  0.665400  0.560400  1.0  0.3838
  C  C350  1  0.015600  0.605400  0.560600  1.0  -0.0717
  C  C351  1  0.028900  0.586900  0.522600  1.0  -0.1098
  C  C352  1  0.060300  0.530300  0.524200  1.0  0.1278
  C  C353  1  0.065900  0.513700  0.600000  1.0  0.1413
  C  C354  1  0.035200  0.567800  0.600300  1.0  -0.1712
  C  C355  1  0.934000  0.708200  0.591000  1.0  0.401
  C  C356  1  0.908900  0.692000  0.622300  1.0  -0.0716
  C  C357  1  0.919100  0.632600  0.656900  1.0  -0.122
  C  C358  1  0.894700  0.618900  0.685600  1.0  0.1293
  C  C359  1  0.850800  0.716000  0.645900  1.0  0.1334
  C  C360  1  0.874300  0.732900  0.616600  1.0  -0.0899
  C  C361  1  0.192900  0.913800  0.245900  1.0  0.4027
  C  C362  1  0.168300  0.965200  0.209300  1.0  -0.0969
  C  C363  1  0.138100  0.923400  0.183000  1.0  -0.1079
  C  C364  1  0.115500  0.971900  0.149200  1.0  0.161
  C  C365  1  0.150600  0.099200  0.167500  1.0  0.1367
  C  C366  1  0.175100  0.054200  0.201700  1.0  -0.1073
  C  C367  1  0.242500  0.904000  0.303700  1.0  0.3996
  C  C368  1  0.274800  0.949300  0.334100  1.0  -0.1314
  C  C369  1  0.284200  0.037200  0.326000  1.0  -0.1305
  C  C370  1  0.314200  0.078100  0.354300  1.0  0.1468
  C  C371  1  0.325300  0.951400  0.397800  1.0  0.1515
  C  C372  1  0.295900  0.904900  0.370700  1.0  -0.1545
  C  C373  1  0.206700  0.781700  0.281200  1.0  0.1618
  C  C374  1  0.199400  0.683200  0.282900  1.0  -0.1212
  C  C375  1  0.225900  0.624000  0.306300  1.0  -0.1124
  C  C376  1  0.218200  0.533000  0.304200  1.0  0.155
  C  C377  1  0.159800  0.556000  0.257500  1.0  0.1498
  C  C378  1  0.165600  0.647900  0.257600  1.0  -0.1207
  C  C379  1  0.551800  0.713100  0.465300  1.0  0.3848
  C  C380  1  0.558000  0.633200  0.495300  1.0  -0.086
  C  C381  1  0.590100  0.581400  0.499600  1.0  -0.1195
  C  C382  1  0.594500  0.506400  0.527000  1.0  0.1427
  C  C383  1  0.537600  0.534500  0.547000  1.0  0.1318
  C  C384  1  0.531200  0.610100  0.519900  1.0  -0.165
  C  C385  1  0.517200  0.834600  0.439600  1.0  0.3838
  C  C386  1  0.484400  0.894600  0.439400  1.0  -0.0725
  C  C387  1  0.471100  0.913100  0.477400  1.0  -0.1074
  C  C388  1  0.439700  0.969700  0.475800  1.0  0.1276
  C  C389  1  0.434100  0.986300  0.400000  1.0  0.1407
  C  C390  1  0.464800  0.932200  0.399700  1.0  -0.1687
  C  C391  1  0.566000  0.791800  0.409000  1.0  0.4014
  C  C392  1  0.591100  0.808000  0.377700  1.0  -0.0713
  C  C393  1  0.580900  0.867400  0.343100  1.0  -0.122
  C  C394  1  0.605300  0.881100  0.314400  1.0  0.1296
  C  C395  1  0.649200  0.784000  0.354100  1.0  0.134
  C  C396  1  0.625700  0.767100  0.383400  1.0  -0.0889
  C  C397  1  0.692900  0.413800  0.245900  1.0  0.4027
  C  C398  1  0.668300  0.465200  0.209300  1.0  -0.0969
  C  C399  1  0.638100  0.423400  0.183000  1.0  -0.1079
  C  C400  1  0.615500  0.471900  0.149200  1.0  0.161
  C  C401  1  0.650600  0.599200  0.167500  1.0  0.1367
  C  C402  1  0.675100  0.554200  0.201700  1.0  -0.1073
  C  C403  1  0.742500  0.404000  0.303700  1.0  0.3996
  C  C404  1  0.774800  0.449300  0.334100  1.0  -0.1314
  C  C405  1  0.784200  0.537200  0.326000  1.0  -0.1305
  C  C406  1  0.814200  0.578100  0.354300  1.0  0.1468
  C  C407  1  0.825300  0.451400  0.397800  1.0  0.1515
  C  C408  1  0.795900  0.404900  0.370700  1.0  -0.1545
  C  C409  1  0.706700  0.281700  0.281200  1.0  0.1618
  C  C410  1  0.699400  0.183200  0.282900  1.0  -0.1212
  C  C411  1  0.725900  0.124000  0.306300  1.0  -0.1124
  C  C412  1  0.718200  0.033000  0.304200  1.0  0.155
  C  C413  1  0.659800  0.056000  0.257500  1.0  0.1498
  C  C414  1  0.665600  0.147900  0.257600  1.0  -0.1207
  C  C415  1  0.051800  0.213100  0.465300  1.0  0.3848
  C  C416  1  0.058000  0.133200  0.495300  1.0  -0.086
  C  C417  1  0.090100  0.081400  0.499600  1.0  -0.1195
  C  C418  1  0.094500  0.006400  0.527000  1.0  0.1427
  C  C419  1  0.037600  0.034500  0.547000  1.0  0.1318
  C  C420  1  0.031200  0.110100  0.519900  1.0  -0.165
  C  C421  1  0.017200  0.334600  0.439600  1.0  0.3838
  C  C422  1  0.984400  0.394600  0.439400  1.0  -0.0725
  C  C423  1  0.971100  0.413100  0.477400  1.0  -0.1074
  C  C424  1  0.939700  0.469700  0.475800  1.0  0.1276
  C  C425  1  0.934100  0.486300  0.400000  1.0  0.1407
  C  C426  1  0.964800  0.432200  0.399700  1.0  -0.1687
  C  C427  1  0.066000  0.291800  0.409000  1.0  0.4014
  C  C428  1  0.091100  0.308000  0.377700  1.0  -0.0713
  C  C429  1  0.080900  0.367400  0.343100  1.0  -0.122
  C  C430  1  0.105300  0.381100  0.314400  1.0  0.1296
  C  C431  1  0.149200  0.284000  0.354100  1.0  0.134
  C  C432  1  0.125700  0.267100  0.383400  1.0  -0.0889
  C  C433  1  0.192900  0.086200  0.745900  1.0  0.4024
  C  C434  1  0.168300  0.034800  0.709300  1.0  -0.0965
  C  C435  1  0.138100  0.076600  0.683000  1.0  -0.1071
  C  C436  1  0.115500  0.028100  0.649200  1.0  0.1609
  C  C437  1  0.150600  0.900800  0.667500  1.0  0.135
  C  C438  1  0.175100  0.945800  0.701700  1.0  -0.1059
  C  C439  1  0.242500  0.096000  0.803700  1.0  0.3996
  C  C440  1  0.274800  0.050700  0.834100  1.0  -0.1321
  C  C441  1  0.284200  0.962800  0.826000  1.0  -0.13
  C  C442  1  0.314200  0.921900  0.854300  1.0  0.1464
  C  C443  1  0.325300  0.048600  0.897800  1.0  0.1505
  C  C444  1  0.295900  0.095100  0.870700  1.0  -0.1567
  C  C445  1  0.206700  0.218300  0.781200  1.0  0.1618
  C  C446  1  0.199400  0.316800  0.782900  1.0  -0.1211
  C  C447  1  0.225900  0.376000  0.806300  1.0  -0.1132
  C  C448  1  0.218200  0.467000  0.804200  1.0  0.1543
  C  C449  1  0.159800  0.444000  0.757500  1.0  0.1494
  C  C450  1  0.165600  0.352100  0.757600  1.0  -0.1193
  C  C451  1  0.551800  0.286900  0.965300  1.0  0.3842
  C  C452  1  0.558000  0.366800  0.995300  1.0  -0.0861
  C  C453  1  0.590100  0.418600  0.999600  1.0  -0.1193
  C  C454  1  0.594500  0.493600  0.027000  1.0  0.144
  C  C455  1  0.537600  0.465500  0.047000  1.0  0.1309
  C  C456  1  0.531200  0.389900  0.019900  1.0  -0.1648
  C  C457  1  0.517200  0.165400  0.939600  1.0  0.3836
  C  C458  1  0.484400  0.105400  0.939400  1.0  -0.0731
  C  C459  1  0.471100  0.086900  0.977400  1.0  -0.1088
  C  C460  1  0.439700  0.030300  0.975800  1.0  0.1281
  C  C461  1  0.434100  0.013700  0.900000  1.0  0.1413
  C  C462  1  0.464800  0.067800  0.899700  1.0  -0.1685
  C  C463  1  0.566000  0.208200  0.909000  1.0  0.4014
  C  C464  1  0.591100  0.192000  0.877700  1.0  -0.071
  C  C465  1  0.580900  0.132600  0.843100  1.0  -0.1229
  C  C466  1  0.605300  0.118900  0.814400  1.0  0.1293
  C  C467  1  0.649200  0.216000  0.854100  1.0  0.1342
  C  C468  1  0.625700  0.232900  0.883400  1.0  -0.0902
  C  C469  1  0.692900  0.586200  0.745900  1.0  0.4024
  C  C470  1  0.668300  0.534800  0.709300  1.0  -0.0965
  C  C471  1  0.638100  0.576600  0.683000  1.0  -0.1071
  C  C472  1  0.615500  0.528100  0.649200  1.0  0.1609
  C  C473  1  0.650600  0.400800  0.667500  1.0  0.135
  C  C474  1  0.675100  0.445800  0.701700  1.0  -0.1059
  C  C475  1  0.742500  0.596000  0.803700  1.0  0.3996
  C  C476  1  0.774800  0.550700  0.834100  1.0  -0.1321
  C  C477  1  0.784200  0.462800  0.826000  1.0  -0.13
  C  C478  1  0.814200  0.421900  0.854300  1.0  0.1464
  C  C479  1  0.825300  0.548600  0.897800  1.0  0.1505
  C  C480  1  0.795900  0.595100  0.870700  1.0  -0.1567
  C  C481  1  0.706700  0.718300  0.781200  1.0  0.1618
  C  C482  1  0.699400  0.816800  0.782900  1.0  -0.1211
  C  C483  1  0.725900  0.876000  0.806300  1.0  -0.1132
  C  C484  1  0.718200  0.967000  0.804200  1.0  0.1543
  C  C485  1  0.659800  0.944000  0.757500  1.0  0.1494
  C  C486  1  0.665600  0.852100  0.757600  1.0  -0.1193
  C  C487  1  0.051800  0.786900  0.965300  1.0  0.3842
  C  C488  1  0.058000  0.866800  0.995300  1.0  -0.0861
  C  C489  1  0.090100  0.918600  0.999600  1.0  -0.1193
  C  C490  1  0.094500  0.993600  0.027000  1.0  0.144
  C  C491  1  0.037600  0.965500  0.047000  1.0  0.1309
  C  C492  1  0.031200  0.889900  0.019900  1.0  -0.1648
  C  C493  1  0.017200  0.665400  0.939600  1.0  0.3836
  C  C494  1  0.984400  0.605400  0.939400  1.0  -0.0731
  C  C495  1  0.971100  0.586900  0.977400  1.0  -0.1088
  C  C496  1  0.939700  0.530300  0.975800  1.0  0.1281
  C  C497  1  0.934100  0.513700  0.900000  1.0  0.1413
  C  C498  1  0.964800  0.567800  0.899700  1.0  -0.1685
  C  C499  1  0.066000  0.708200  0.909000  1.0  0.4014
  C  C500  1  0.091100  0.692000  0.877700  1.0  -0.071
  C  C501  1  0.080900  0.632600  0.843100  1.0  -0.1229
  C  C502  1  0.105300  0.618900  0.814400  1.0  0.1293
  C  C503  1  0.149200  0.716000  0.854100  1.0  0.1342
  C  C504  1  0.125700  0.732900  0.883400  1.0  -0.0902
  I  I505  1  0.640690  0.108190  0.992820  1.0  -0.3513
  I  I506  1  0.600130  0.232980  0.106890  1.0  -0.4376
  I  I507  1  0.265760  0.771900  0.199280  1.0  -0.4271
  I  I508  1  0.369350  0.841320  0.302050  1.0  -0.4444
  I  I509  1  0.391320  0.252870  0.944090  1.0  -0.4185
  I  I510  1  0.476130  0.356070  0.868200  1.0  -0.355
  I  I511  1  0.140690  0.608190  0.992820  1.0  -0.3513
  I  I512  1  0.100130  0.732980  0.106890  1.0  -0.4376
  I  I513  1  0.765760  0.271900  0.199280  1.0  -0.4271
  I  I514  1  0.869350  0.341320  0.302050  1.0  -0.4444
  I  I515  1  0.891320  0.752870  0.944090  1.0  -0.4185
  I  I516  1  0.976130  0.856070  0.868200  1.0  -0.3597
  I  I517  1  0.640690  0.891810  0.492820  1.0  -0.351
  I  I518  1  0.600130  0.767020  0.606890  1.0  -0.4377
  I  I519  1  0.265760  0.228100  0.699280  1.0  -0.4272
  I  I520  1  0.369350  0.158680  0.802050  1.0  -0.444
  I  I521  1  0.391320  0.747130  0.444090  1.0  -0.42
  I  I522  1  0.476130  0.643930  0.368200  1.0  -0.3549
  I  I523  1  0.140690  0.391810  0.492820  1.0  -0.351
  I  I524  1  0.100130  0.267020  0.606890  1.0  -0.4377
  I  I525  1  0.765760  0.728100  0.699280  1.0  -0.4272
  I  I526  1  0.869350  0.658680  0.802050  1.0  -0.444
  I  I527  1  0.891320  0.247130  0.444090  1.0  -0.42
  I  I528  1  0.976130  0.143930  0.368200  1.0  -0.3598
  I  I529  1  0.359310  0.108190  0.507180  1.0  -0.3506
  I  I530  1  0.399870  0.232980  0.393110  1.0  -0.4405
  I  I531  1  0.734240  0.771900  0.300720  1.0  -0.4261
  I  I532  1  0.630650  0.841320  0.197950  1.0  -0.4444
  I  I533  1  0.608680  0.252870  0.555910  1.0  -0.4209
  I  I534  1  0.523870  0.356070  0.631800  1.0  -0.3542
  I  I535  1  0.859310  0.608190  0.507180  1.0  -0.3506
  I  I536  1  0.899870  0.732980  0.393110  1.0  -0.4405
  I  I537  1  0.234240  0.271900  0.300720  1.0  -0.4261
  I  I538  1  0.130650  0.341320  0.197950  1.0  -0.4444
  I  I539  1  0.108680  0.752870  0.555910  1.0  -0.4209
  I  I540  1  0.023870  0.856070  0.631800  1.0  -0.3594
  I  I541  1  0.359310  0.891810  0.007180  1.0  -0.351
  I  I542  1  0.399870  0.767020  0.893110  1.0  -0.4407
  I  I543  1  0.734240  0.228100  0.800720  1.0  -0.4258
  I  I544  1  0.630650  0.158680  0.697950  1.0  -0.4441
  I  I545  1  0.608680  0.747130  0.055910  1.0  -0.4189
  I  I546  1  0.523870  0.643930  0.131800  1.0  -0.3541
  I  I547  1  0.859310  0.391810  0.007180  1.0  -0.351
  I  I548  1  0.899870  0.267020  0.893110  1.0  -0.4407
  I  I549  1  0.234240  0.728100  0.800720  1.0  -0.4258
  I  I550  1  0.130650  0.658680  0.697950  1.0  -0.4441
  I  I551  1  0.108680  0.247130  0.055910  1.0  -0.4189
  I  I552  1  0.023870  0.143930  0.131800  1.0  -0.3595
  N  N553  1  0.816760  0.827600  0.250800  1.0  -0.453
  N  N554  1  0.777570  0.955200  0.228700  1.0  -0.4665
  N  N555  1  0.763620  0.816300  0.190100  1.0  -0.3103
  N  N556  1  0.878760  0.058000  0.358100  1.0  -0.309
  N  N557  1  0.665410  0.035900  0.110070  1.0  -0.3137
  N  N558  1  0.814490  0.498700  0.219600  1.0  -0.3211
  N  N559  1  0.426180  0.720800  0.063800  1.0  -0.434
  N  N560  1  0.476130  0.770000  0.029820  1.0  -0.4479
  N  N561  1  0.462890  0.849600  0.091700  1.0  -0.4416
  N  N562  1  0.430940  0.482700  0.949700  1.0  -0.2855
  N  N563  1  0.578360  0.006700  0.062900  1.0  -0.3276
  N  N564  1  0.360500  0.841700  0.180100  1.0  -0.3161
  N  N565  1  0.316760  0.327600  0.250800  1.0  -0.453
  N  N566  1  0.277570  0.455200  0.228700  1.0  -0.4665
  N  N567  1  0.263620  0.316300  0.190100  1.0  -0.3103
  N  N568  1  0.378760  0.558000  0.358100  1.0  -0.309
  N  N569  1  0.165410  0.535900  0.110070  1.0  -0.3137
  N  N570  1  0.314490  0.998700  0.219600  1.0  -0.3211
  N  N571  1  0.926180  0.220800  0.063800  1.0  -0.434
  N  N572  1  0.976130  0.270000  0.029820  1.0  -0.4479
  N  N573  1  0.962890  0.349600  0.091700  1.0  -0.4416
  N  N574  1  0.930940  0.982700  0.949700  1.0  -0.2855
  N  N575  1  0.078360  0.506700  0.062900  1.0  -0.3276
  N  N576  1  0.860500  0.341700  0.180100  1.0  -0.3161
  N  N577  1  0.816760  0.172400  0.750800  1.0  -0.453
  N  N578  1  0.777570  0.044800  0.728700  1.0  -0.4652
  N  N579  1  0.763620  0.183700  0.690100  1.0  -0.3093
  N  N580  1  0.878760  0.942000  0.858100  1.0  -0.3068
  N  N581  1  0.665410  0.964100  0.610070  1.0  -0.3146
  N  N582  1  0.814490  0.501300  0.719600  1.0  -0.3231
  N  N583  1  0.426180  0.279200  0.563800  1.0  -0.4335
  N  N584  1  0.476130  0.230000  0.529820  1.0  -0.4481
  N  N585  1  0.462890  0.150400  0.591700  1.0  -0.4405
  N  N586  1  0.430940  0.517300  0.449700  1.0  -0.2831
  N  N587  1  0.578360  0.993300  0.562900  1.0  -0.3266
  N  N588  1  0.360500  0.158300  0.680100  1.0  -0.316
  N  N589  1  0.316760  0.672400  0.750800  1.0  -0.453
  N  N590  1  0.277570  0.544800  0.728700  1.0  -0.4652
  N  N591  1  0.263620  0.683700  0.690100  1.0  -0.3093
  N  N592  1  0.378760  0.442000  0.858100  1.0  -0.3068
  N  N593  1  0.165410  0.464100  0.610070  1.0  -0.3146
  N  N594  1  0.314490  0.001300  0.719600  1.0  -0.3231
  N  N595  1  0.926180  0.779200  0.563800  1.0  -0.4335
  N  N596  1  0.976130  0.730000  0.529820  1.0  -0.4481
  N  N597  1  0.962890  0.650400  0.591700  1.0  -0.4405
  N  N598  1  0.930940  0.017300  0.449700  1.0  -0.2831
  N  N599  1  0.078360  0.493300  0.562900  1.0  -0.3266
  N  N600  1  0.860500  0.658300  0.680100  1.0  -0.316
  N  N601  1  0.183240  0.827600  0.249200  1.0  -0.4524
  N  N602  1  0.222430  0.955200  0.271300  1.0  -0.4656
  N  N603  1  0.236380  0.816300  0.309900  1.0  -0.3065
  N  N604  1  0.121240  0.058000  0.141900  1.0  -0.3056
  N  N605  1  0.334590  0.035900  0.389930  1.0  -0.3142
  N  N606  1  0.185510  0.498700  0.280400  1.0  -0.3223
  N  N607  1  0.573820  0.720800  0.436200  1.0  -0.4327
  N  N608  1  0.523870  0.770000  0.470180  1.0  -0.4506
  N  N609  1  0.537110  0.849600  0.408300  1.0  -0.442
  N  N610  1  0.569060  0.482700  0.550300  1.0  -0.2841
  N  N611  1  0.421640  0.006700  0.437100  1.0  -0.3265
  N  N612  1  0.639500  0.841700  0.319900  1.0  -0.3161
  N  N613  1  0.683240  0.327600  0.249200  1.0  -0.4524
  N  N614  1  0.722430  0.455200  0.271300  1.0  -0.4656
  N  N615  1  0.736380  0.316300  0.309900  1.0  -0.3065
  N  N616  1  0.621240  0.558000  0.141900  1.0  -0.3056
  N  N617  1  0.834590  0.535900  0.389930  1.0  -0.3142
  N  N618  1  0.685510  0.998700  0.280400  1.0  -0.3223
  N  N619  1  0.073820  0.220800  0.436200  1.0  -0.4327
  N  N620  1  0.023870  0.270000  0.470180  1.0  -0.4506
  N  N621  1  0.037110  0.349600  0.408300  1.0  -0.442
  N  N622  1  0.069060  0.982700  0.550300  1.0  -0.2841
  N  N623  1  0.921640  0.506700  0.437100  1.0  -0.3265
  N  N624  1  0.139500  0.341700  0.319900  1.0  -0.3161
  N  N625  1  0.183240  0.172400  0.749200  1.0  -0.4526
  N  N626  1  0.222430  0.044800  0.771300  1.0  -0.4647
  N  N627  1  0.236380  0.183700  0.809900  1.0  -0.3077
  N  N628  1  0.121240  0.942000  0.641900  1.0  -0.3066
  N  N629  1  0.334590  0.964100  0.889930  1.0  -0.314
  N  N630  1  0.185510  0.501300  0.780400  1.0  -0.3231
  N  N631  1  0.573820  0.279200  0.936200  1.0  -0.4319
  N  N632  1  0.523870  0.230000  0.970180  1.0  -0.4506
  N  N633  1  0.537110  0.150400  0.908300  1.0  -0.4417
  N  N634  1  0.569060  0.517300  0.050300  1.0  -0.2824
  N  N635  1  0.421640  0.993300  0.937100  1.0  -0.3271
  N  N636  1  0.639500  0.158300  0.819900  1.0  -0.3163
  N  N637  1  0.683240  0.672400  0.749200  1.0  -0.4526
  N  N638  1  0.722430  0.544800  0.771300  1.0  -0.4647
  N  N639  1  0.736380  0.683700  0.809900  1.0  -0.3077
  N  N640  1  0.621240  0.442000  0.641900  1.0  -0.3066
  N  N641  1  0.834590  0.464100  0.889930  1.0  -0.314
  N  N642  1  0.685510  0.001300  0.780400  1.0  -0.3231
  N  N643  1  0.073820  0.779200  0.936200  1.0  -0.4319
  N  N644  1  0.023870  0.730000  0.970180  1.0  -0.4506
  N  N645  1  0.037110  0.650400  0.908300  1.0  -0.4417
  N  N646  1  0.069060  0.017300  0.050300  1.0  -0.2824
  N  N647  1  0.921640  0.493300  0.937100  1.0  -0.3271
  N  N648  1  0.139500  0.658300  0.819900  1.0  -0.3163
