# generated using pymatgen
data_Gd2Zn19H54C54N72(Cl2O9)4
_symmetry_space_group_name_H-M   'P 1'
_cell_length_a   18.11520000
_cell_length_b   18.11520000
_cell_length_c   24.85150000
_cell_angle_alpha   90.00000000
_cell_angle_beta   90.00000000
_cell_angle_gamma   120.00000000
_symmetry_Int_Tables_number   1
_chemical_formula_structural   Gd2Zn19H54C54N72(Cl2O9)4
_chemical_formula_sum   'Gd4 Zn38 H108 C108 N144 Cl16 O72'
_cell_volume   7062.67960825
_cell_formula_units_Z   2
loop_
 _symmetry_equiv_pos_site_id
 _symmetry_equiv_pos_as_xyz
  1  'x, y, z'
loop_
 _atom_site_type_symbol
 _atom_site_label
 _atom_site_symmetry_multiplicity
 _atom_site_fract_x
 _atom_site_fract_y
 _atom_site_fract_z
 _atom_site_occupancy
 _atom_site_charge
  Gd  Gd1  1  0.000000  0.000000  0.124640  1.0  2.2301
  Gd  Gd2  1  0.000000  0.000000  0.624640  1.0  2.2301
  Gd  Gd3  1  0.000000  0.000000  0.375360  1.0  2.2303
  Gd  Gd4  1  0.000000  0.000000  0.875360  1.0  2.2303
  Zn  Zn5  1  0.000000  0.211040  0.143490  1.0  0.8499
  Zn  Zn6  1  0.000000  0.332910  0.914160  1.0  0.9058
  Zn  Zn7  1  0.788960  0.788960  0.143490  1.0  0.8491
  Zn  Zn8  1  0.667090  0.667090  0.914160  1.0  0.9059
  Zn  Zn9  1  0.211040  0.000000  0.143490  1.0  0.8471
  Zn  Zn10  1  0.332910  0.000000  0.914160  1.0  0.9054
  Zn  Zn11  1  0.000000  0.788960  0.643490  1.0  0.8483
  Zn  Zn12  1  0.000000  0.667090  0.414160  1.0  0.9059
  Zn  Zn13  1  0.211040  0.211040  0.643490  1.0  0.8489
  Zn  Zn14  1  0.332910  0.332910  0.414160  1.0  0.9059
  Zn  Zn15  1  0.788960  0.000000  0.643490  1.0  0.8479
  Zn  Zn16  1  0.667090  0.000000  0.414160  1.0  0.9051
  Zn  Zn17  1  0.211040  0.000000  0.356510  1.0  0.8458
  Zn  Zn18  1  0.332910  0.000000  0.585840  1.0  0.905
  Zn  Zn19  1  0.788960  0.788960  0.356510  1.0  0.8479
  Zn  Zn20  1  0.667090  0.667090  0.585840  1.0  0.9055
  Zn  Zn21  1  0.000000  0.211040  0.356510  1.0  0.8485
  Zn  Zn22  1  0.000000  0.332910  0.585840  1.0  0.9055
  Zn  Zn23  1  0.788960  0.000000  0.856510  1.0  0.8466
  Zn  Zn24  1  0.667090  0.000000  0.085840  1.0  0.9048
  Zn  Zn25  1  0.211040  0.211040  0.856510  1.0  0.8478
  Zn  Zn26  1  0.332910  0.332910  0.085840  1.0  0.9057
  Zn  Zn27  1  0.000000  0.788960  0.856510  1.0  0.8472
  Zn  Zn28  1  0.000000  0.667090  0.085840  1.0  0.9055
  Zn  Zn29  1  0.000000  0.500000  0.000000  1.0  0.5327
  Zn  Zn30  1  0.500000  0.500000  0.000000  1.0  0.5327
  Zn  Zn31  1  0.500000  0.000000  0.000000  1.0  0.5327
  Zn  Zn32  1  0.000000  0.500000  0.500000  1.0  0.5327
  Zn  Zn33  1  0.500000  0.500000  0.500000  1.0  0.5327
  Zn  Zn34  1  0.500000  0.000000  0.500000  1.0  0.5327
  Zn  Zn35  1  0.333333  0.666667  0.872440  1.0  0.2405
  Zn  Zn36  1  0.666667  0.333333  0.372440  1.0  0.2405
  Zn  Zn37  1  0.666667  0.333333  0.627560  1.0  0.2399
  Zn  Zn38  1  0.333333  0.666667  0.127560  1.0  0.2399
  Zn  Zn39  1  0.666667  0.333333  0.127560  1.0  0.2399
  Zn  Zn40  1  0.333333  0.666667  0.627560  1.0  0.2399
  Zn  Zn41  1  0.333333  0.666667  0.372440  1.0  0.2405
  Zn  Zn42  1  0.666667  0.333333  0.872440  1.0  0.2405
  H  H43  1  0.181200  0.641300  0.948000  1.0  0.0686
  H  H44  1  0.253300  0.485200  0.837800  1.0  0.3465
  H  H45  1  0.173800  0.401700  0.847400  1.0  0.3307
  H  H46  1  0.358700  0.539900  0.948000  1.0  0.068
  H  H47  1  0.514800  0.768100  0.837800  1.0  0.3471
  H  H48  1  0.598300  0.772100  0.847400  1.0  0.3322
  H  H49  1  0.460100  0.818800  0.948000  1.0  0.068
  H  H50  1  0.231900  0.746700  0.837800  1.0  0.3449
  H  H51  1  0.227900  0.826200  0.847400  1.0  0.3314
  H  H52  1  0.818800  0.358700  0.448000  1.0  0.0683
  H  H53  1  0.746700  0.514800  0.337800  1.0  0.3458
  H  H54  1  0.826200  0.598300  0.347400  1.0  0.3318
  H  H55  1  0.641300  0.460100  0.448000  1.0  0.068
  H  H56  1  0.485200  0.231900  0.337800  1.0  0.3461
  H  H57  1  0.401700  0.227900  0.347400  1.0  0.3316
  H  H58  1  0.539900  0.181200  0.448000  1.0  0.0684
  H  H59  1  0.768100  0.253300  0.337800  1.0  0.3456
  H  H60  1  0.772100  0.173800  0.347400  1.0  0.3322
  H  H61  1  0.641300  0.181200  0.552000  1.0  0.0684
  H  H62  1  0.485200  0.253300  0.662200  1.0  0.3464
  H  H63  1  0.401700  0.173800  0.652600  1.0  0.3314
  H  H64  1  0.539900  0.358700  0.552000  1.0  0.0686
  H  H65  1  0.768100  0.514800  0.662200  1.0  0.3477
  H  H66  1  0.772100  0.598300  0.652600  1.0  0.3314
  H  H67  1  0.818800  0.460100  0.552000  1.0  0.0686
  H  H68  1  0.746700  0.231900  0.662200  1.0  0.3482
  H  H69  1  0.826200  0.227900  0.652600  1.0  0.333
  H  H70  1  0.358700  0.818800  0.052000  1.0  0.0681
  H  H71  1  0.514800  0.746700  0.162200  1.0  0.3449
  H  H72  1  0.598300  0.826200  0.152600  1.0  0.332
  H  H73  1  0.460100  0.641300  0.052000  1.0  0.0683
  H  H74  1  0.231900  0.485200  0.162200  1.0  0.3468
  H  H75  1  0.227900  0.401700  0.152600  1.0  0.3313
  H  H76  1  0.181200  0.539900  0.052000  1.0  0.0677
  H  H77  1  0.253300  0.768100  0.162200  1.0  0.3472
  H  H78  1  0.173800  0.772100  0.152600  1.0  0.3312
  H  H79  1  0.818800  0.358700  0.052000  1.0  0.0682
  H  H80  1  0.746700  0.514800  0.162200  1.0  0.3467
  H  H81  1  0.826200  0.598300  0.152600  1.0  0.3316
  H  H82  1  0.641300  0.460100  0.052000  1.0  0.068
  H  H83  1  0.485200  0.231900  0.162200  1.0  0.3479
  H  H84  1  0.401700  0.227900  0.152600  1.0  0.3315
  H  H85  1  0.539900  0.181200  0.052000  1.0  0.0687
  H  H86  1  0.768100  0.253300  0.162200  1.0  0.3459
  H  H87  1  0.772100  0.173800  0.152600  1.0  0.3326
  H  H88  1  0.181200  0.641300  0.552000  1.0  0.0688
  H  H89  1  0.253300  0.485200  0.662200  1.0  0.3472
  H  H90  1  0.173800  0.401700  0.652600  1.0  0.3312
  H  H91  1  0.358700  0.539900  0.552000  1.0  0.0678
  H  H92  1  0.514800  0.768100  0.662200  1.0  0.3477
  H  H93  1  0.598300  0.772100  0.652600  1.0  0.3325
  H  H94  1  0.460100  0.818800  0.552000  1.0  0.0678
  H  H95  1  0.231900  0.746700  0.662200  1.0  0.3453
  H  H96  1  0.227900  0.826200  0.652600  1.0  0.331
  H  H97  1  0.358700  0.818800  0.448000  1.0  0.0681
  H  H98  1  0.514800  0.746700  0.337800  1.0  0.344
  H  H99  1  0.598300  0.826200  0.347400  1.0  0.3317
  H  H100  1  0.460100  0.641300  0.448000  1.0  0.0682
  H  H101  1  0.231900  0.485200  0.337800  1.0  0.346
  H  H102  1  0.227900  0.401700  0.347400  1.0  0.331
  H  H103  1  0.181200  0.539900  0.448000  1.0  0.068
  H  H104  1  0.253300  0.768100  0.337800  1.0  0.3459
  H  H105  1  0.173800  0.772100  0.347400  1.0  0.3316
  H  H106  1  0.641300  0.181200  0.948000  1.0  0.0683
  H  H107  1  0.485200  0.253300  0.837800  1.0  0.3465
  H  H108  1  0.401700  0.173800  0.847400  1.0  0.3317
  H  H109  1  0.539900  0.358700  0.948000  1.0  0.0686
  H  H110  1  0.768100  0.514800  0.837800  1.0  0.3462
  H  H111  1  0.772100  0.598300  0.847400  1.0  0.3316
  H  H112  1  0.818800  0.460100  0.948000  1.0  0.0683
  H  H113  1  0.746700  0.231900  0.837800  1.0  0.3475
  H  H114  1  0.826200  0.227900  0.847400  1.0  0.3324
  H  H115  1  0.000000  0.213500  0.018500  1.0  0.0904
  H  H116  1  0.000000  0.446600  0.126100  1.0  0.3474
  H  H117  1  0.000000  0.377700  0.159300  1.0  0.3536
  H  H118  1  0.786500  0.786500  0.018500  1.0  0.091
  H  H119  1  0.553400  0.553400  0.126100  1.0  0.3464
  H  H120  1  0.622300  0.622300  0.159300  1.0  0.3534
  H  H121  1  0.213500  0.000000  0.018500  1.0  0.0908
  H  H122  1  0.446600  0.000000  0.126100  1.0  0.3506
  H  H123  1  0.377700  0.000000  0.159300  1.0  0.3532
  H  H124  1  0.000000  0.786500  0.518500  1.0  0.0906
  H  H125  1  0.000000  0.553400  0.626100  1.0  0.3466
  H  H126  1  0.000000  0.622300  0.659300  1.0  0.3527
  H  H127  1  0.213500  0.213500  0.518500  1.0  0.0902
  H  H128  1  0.446600  0.446600  0.626100  1.0  0.3475
  H  H129  1  0.377700  0.377700  0.659300  1.0  0.3531
  H  H130  1  0.786500  0.000000  0.518500  1.0  0.0903
  H  H131  1  0.553400  0.000000  0.626100  1.0  0.3488
  H  H132  1  0.622300  0.000000  0.659300  1.0  0.3542
  H  H133  1  0.213500  0.000000  0.481500  1.0  0.0908
  H  H134  1  0.446600  0.000000  0.373900  1.0  0.3496
  H  H135  1  0.377700  0.000000  0.340700  1.0  0.3534
  H  H136  1  0.786500  0.786500  0.481500  1.0  0.0906
  H  H137  1  0.553400  0.553400  0.373900  1.0  0.3464
  H  H138  1  0.622300  0.622300  0.340700  1.0  0.3532
  H  H139  1  0.000000  0.213500  0.481500  1.0  0.0905
  H  H140  1  0.000000  0.446600  0.373900  1.0  0.3463
  H  H141  1  0.000000  0.377700  0.340700  1.0  0.3534
  H  H142  1  0.786500  0.000000  0.981500  1.0  0.0901
  H  H143  1  0.553400  0.000000  0.873900  1.0  0.3495
  H  H144  1  0.622300  0.000000  0.840700  1.0  0.3533
  H  H145  1  0.213500  0.213500  0.981500  1.0  0.0907
  H  H146  1  0.446600  0.446600  0.873900  1.0  0.3465
  H  H147  1  0.377700  0.377700  0.840700  1.0  0.353
  H  H148  1  0.000000  0.786500  0.981500  1.0  0.0905
  H  H149  1  0.000000  0.553400  0.873900  1.0  0.3469
  H  H150  1  0.000000  0.622300  0.840700  1.0  0.3526
  C  C151  1  0.156400  0.205600  0.110900  1.0  0.6648
  C  C152  1  0.174800  0.494600  0.884900  1.0  0.6072
  C  C153  1  0.167100  0.589100  0.932200  1.0  0.2863
  C  C154  1  0.794400  0.950800  0.110900  1.0  0.6668
  C  C155  1  0.505400  0.680200  0.884900  1.0  0.6074
  C  C156  1  0.410900  0.578000  0.932200  1.0  0.289
  C  C157  1  0.049200  0.843600  0.110900  1.0  0.6646
  C  C158  1  0.319800  0.825200  0.884900  1.0  0.6079
  C  C159  1  0.422000  0.832900  0.932200  1.0  0.288
  C  C160  1  0.843600  0.794400  0.610900  1.0  0.666
  C  C161  1  0.825200  0.505400  0.384900  1.0  0.6072
  C  C162  1  0.832900  0.410900  0.432200  1.0  0.2868
  C  C163  1  0.205600  0.049200  0.610900  1.0  0.6664
  C  C164  1  0.494600  0.319800  0.384900  1.0  0.6076
  C  C165  1  0.589100  0.422000  0.432200  1.0  0.2879
  C  C166  1  0.950800  0.156400  0.610900  1.0  0.6634
  C  C167  1  0.680200  0.174800  0.384900  1.0  0.6078
  C  C168  1  0.578000  0.167100  0.432200  1.0  0.2876
  C  C169  1  0.205600  0.156400  0.389100  1.0  0.665
  C  C170  1  0.494600  0.174800  0.615100  1.0  0.6064
  C  C171  1  0.589100  0.167100  0.567800  1.0  0.2874
  C  C172  1  0.950800  0.794400  0.389100  1.0  0.6645
  C  C173  1  0.680200  0.505400  0.615100  1.0  0.6056
  C  C174  1  0.578000  0.410900  0.567800  1.0  0.2862
  C  C175  1  0.843600  0.049200  0.389100  1.0  0.6667
  C  C176  1  0.825200  0.319800  0.615100  1.0  0.6054
  C  C177  1  0.832900  0.422000  0.567800  1.0  0.2883
  C  C178  1  0.794400  0.843600  0.889100  1.0  0.6637
  C  C179  1  0.505400  0.825200  0.115100  1.0  0.6058
  C  C180  1  0.410900  0.832900  0.067800  1.0  0.2875
  C  C181  1  0.049200  0.205600  0.889100  1.0  0.6667
  C  C182  1  0.319800  0.494600  0.115100  1.0  0.6052
  C  C183  1  0.422000  0.589100  0.067800  1.0  0.2863
  C  C184  1  0.156400  0.950800  0.889100  1.0  0.6667
  C  C185  1  0.174800  0.680200  0.115100  1.0  0.6062
  C  C186  1  0.167100  0.578000  0.067800  1.0  0.2871
  C  C187  1  0.843600  0.794400  0.889100  1.0  0.6662
  C  C188  1  0.825200  0.505400  0.115100  1.0  0.6055
  C  C189  1  0.832900  0.410900  0.067800  1.0  0.2861
  C  C190  1  0.205600  0.049200  0.889100  1.0  0.6665
  C  C191  1  0.494600  0.319800  0.115100  1.0  0.6056
  C  C192  1  0.589100  0.422000  0.067800  1.0  0.2875
  C  C193  1  0.950800  0.156400  0.889100  1.0  0.6637
  C  C194  1  0.680200  0.174800  0.115100  1.0  0.606
  C  C195  1  0.578000  0.167100  0.067800  1.0  0.287
  C  C196  1  0.156400  0.205600  0.389100  1.0  0.665
  C  C197  1  0.174800  0.494600  0.615100  1.0  0.6053
  C  C198  1  0.167100  0.589100  0.567800  1.0  0.2861
  C  C199  1  0.794400  0.950800  0.389100  1.0  0.6671
  C  C200  1  0.505400  0.680200  0.615100  1.0  0.606
  C  C201  1  0.410900  0.578000  0.567800  1.0  0.288
  C  C202  1  0.049200  0.843600  0.389100  1.0  0.6649
  C  C203  1  0.319800  0.825200  0.615100  1.0  0.6062
  C  C204  1  0.422000  0.832900  0.567800  1.0  0.2873
  C  C205  1  0.794400  0.843600  0.610900  1.0  0.6635
  C  C206  1  0.505400  0.825200  0.384900  1.0  0.6077
  C  C207  1  0.410900  0.832900  0.432200  1.0  0.2884
  C  C208  1  0.049200  0.205600  0.610900  1.0  0.6666
  C  C209  1  0.319800  0.494600  0.384900  1.0  0.6071
  C  C210  1  0.422000  0.589100  0.432200  1.0  0.2864
  C  C211  1  0.156400  0.950800  0.610900  1.0  0.6664
  C  C212  1  0.174800  0.680200  0.384900  1.0  0.6077
  C  C213  1  0.167100  0.578000  0.432200  1.0  0.2879
  C  C214  1  0.205600  0.156400  0.110900  1.0  0.6649
  C  C215  1  0.494600  0.174800  0.884900  1.0  0.608
  C  C216  1  0.589100  0.167100  0.932200  1.0  0.288
  C  C217  1  0.950800  0.794400  0.110900  1.0  0.6643
  C  C218  1  0.680200  0.505400  0.884900  1.0  0.6073
  C  C219  1  0.578000  0.410900  0.932200  1.0  0.287
  C  C220  1  0.843600  0.049200  0.110900  1.0  0.6665
  C  C221  1  0.825200  0.319800  0.884900  1.0  0.6073
  C  C222  1  0.832900  0.422000  0.932200  1.0  0.289
  C  C223  1  0.049100  0.263100  0.250000  1.0  0.6462
  C  C224  1  0.736900  0.786000  0.250000  1.0  0.6459
  C  C225  1  0.214000  0.950900  0.250000  1.0  0.6462
  C  C226  1  0.950900  0.736900  0.750000  1.0  0.645
  C  C227  1  0.263100  0.214000  0.750000  1.0  0.6461
  C  C228  1  0.786000  0.049100  0.750000  1.0  0.6467
  C  C229  1  0.263100  0.049100  0.250000  1.0  0.647
  C  C230  1  0.786000  0.736900  0.250000  1.0  0.6452
  C  C231  1  0.950900  0.214000  0.250000  1.0  0.6464
  C  C232  1  0.736900  0.950900  0.750000  1.0  0.646
  C  C233  1  0.214000  0.263100  0.750000  1.0  0.6457
  C  C234  1  0.049100  0.786000  0.750000  1.0  0.646
  C  C235  1  0.000000  0.262200  0.031000  1.0  0.2475
  C  C236  1  0.000000  0.357300  0.082300  1.0  0.5645
  C  C237  1  0.737800  0.737800  0.031000  1.0  0.2475
  C  C238  1  0.642700  0.642700  0.082300  1.0  0.5643
  C  C239  1  0.262200  0.000000  0.031000  1.0  0.2482
  C  C240  1  0.357300  0.000000  0.082300  1.0  0.5625
  C  C241  1  0.000000  0.737800  0.531000  1.0  0.2479
  C  C242  1  0.000000  0.642700  0.582300  1.0  0.5643
  C  C243  1  0.262200  0.262200  0.531000  1.0  0.2483
  C  C244  1  0.357300  0.357300  0.582300  1.0  0.5644
  C  C245  1  0.737800  0.000000  0.531000  1.0  0.2483
  C  C246  1  0.642700  0.000000  0.582300  1.0  0.5628
  C  C247  1  0.262200  0.000000  0.469000  1.0  0.2479
  C  C248  1  0.357300  0.000000  0.417700  1.0  0.5627
  C  C249  1  0.737800  0.737800  0.469000  1.0  0.2468
  C  C250  1  0.642700  0.642700  0.417700  1.0  0.5647
  C  C251  1  0.000000  0.262200  0.469000  1.0  0.2473
  C  C252  1  0.000000  0.357300  0.417700  1.0  0.5648
  C  C253  1  0.737800  0.000000  0.969000  1.0  0.2477
  C  C254  1  0.642700  0.000000  0.917700  1.0  0.5631
  C  C255  1  0.262200  0.262200  0.969000  1.0  0.2479
  C  C256  1  0.357300  0.357300  0.917700  1.0  0.5648
  C  C257  1  0.000000  0.737800  0.969000  1.0  0.2469
  C  C258  1  0.000000  0.642700  0.917700  1.0  0.5646
  N  N259  1  0.097600  0.519000  0.942700  1.0  -0.2179
  N  N260  1  0.217900  0.579500  0.895800  1.0  -0.4933
  N  N261  1  0.100500  0.456200  0.913100  1.0  -0.3576
  N  N262  1  0.204100  0.456000  0.853000  1.0  -0.7595
  N  N263  1  0.481000  0.578600  0.942700  1.0  -0.218
  N  N264  1  0.420500  0.638400  0.895800  1.0  -0.4928
  N  N265  1  0.543800  0.644300  0.913100  1.0  -0.3584
  N  N266  1  0.544000  0.748100  0.853000  1.0  -0.7607
  N  N267  1  0.421400  0.902400  0.942700  1.0  -0.2187
  N  N268  1  0.361600  0.782100  0.895800  1.0  -0.4896
  N  N269  1  0.355700  0.899500  0.913100  1.0  -0.3596
  N  N270  1  0.251900  0.795900  0.853000  1.0  -0.759
  N  N271  1  0.902400  0.481000  0.442700  1.0  -0.2182
  N  N272  1  0.782100  0.420500  0.395800  1.0  -0.4906
  N  N273  1  0.899500  0.543800  0.413100  1.0  -0.3583
  N  N274  1  0.795900  0.544000  0.353000  1.0  -0.7586
  N  N275  1  0.519000  0.421400  0.442700  1.0  -0.2183
  N  N276  1  0.579500  0.361600  0.395800  1.0  -0.4939
  N  N277  1  0.456200  0.355700  0.413100  1.0  -0.3594
  N  N278  1  0.456000  0.251900  0.353000  1.0  -0.7603
  N  N279  1  0.578600  0.097600  0.442700  1.0  -0.2172
  N  N280  1  0.638400  0.217900  0.395800  1.0  -0.4902
  N  N281  1  0.644300  0.100500  0.413100  1.0  -0.3583
  N  N282  1  0.748100  0.204100  0.353000  1.0  -0.7606
  N  N283  1  0.519000  0.097600  0.557300  1.0  -0.2177
  N  N284  1  0.579500  0.217900  0.604200  1.0  -0.4895
  N  N285  1  0.456200  0.100500  0.586900  1.0  -0.3593
  N  N286  1  0.456000  0.204100  0.647000  1.0  -0.7608
  N  N287  1  0.578600  0.481000  0.557300  1.0  -0.2178
  N  N288  1  0.638400  0.420500  0.604200  1.0  -0.492
  N  N289  1  0.644300  0.543800  0.586900  1.0  -0.3572
  N  N290  1  0.748100  0.544000  0.647000  1.0  -0.761
  N  N291  1  0.902400  0.421400  0.557300  1.0  -0.218
  N  N292  1  0.782100  0.361600  0.604200  1.0  -0.4933
  N  N293  1  0.899500  0.355700  0.586900  1.0  -0.3573
  N  N294  1  0.795900  0.251900  0.647000  1.0  -0.7613
  N  N295  1  0.481000  0.902400  0.057300  1.0  -0.2184
  N  N296  1  0.420500  0.782100  0.104200  1.0  -0.4901
  N  N297  1  0.543800  0.899500  0.086900  1.0  -0.3572
  N  N298  1  0.544000  0.795900  0.147000  1.0  -0.7616
  N  N299  1  0.421400  0.519000  0.057300  1.0  -0.218
  N  N300  1  0.361600  0.579500  0.104200  1.0  -0.4905
  N  N301  1  0.355700  0.456200  0.086900  1.0  -0.3571
  N  N302  1  0.251900  0.456000  0.147000  1.0  -0.7605
  N  N303  1  0.097600  0.578600  0.057300  1.0  -0.218
  N  N304  1  0.217900  0.638400  0.104200  1.0  -0.4933
  N  N305  1  0.100500  0.644300  0.086900  1.0  -0.3583
  N  N306  1  0.204100  0.748100  0.147000  1.0  -0.7618
  N  N307  1  0.902400  0.481000  0.057300  1.0  -0.2181
  N  N308  1  0.782100  0.420500  0.104200  1.0  -0.4901
  N  N309  1  0.899500  0.543800  0.086900  1.0  -0.3576
  N  N310  1  0.795900  0.544000  0.147000  1.0  -0.7607
  N  N311  1  0.519000  0.421400  0.057300  1.0  -0.2181
  N  N312  1  0.579500  0.361600  0.104200  1.0  -0.4936
  N  N313  1  0.456200  0.355700  0.086900  1.0  -0.3584
  N  N314  1  0.456000  0.251900  0.147000  1.0  -0.7613
  N  N315  1  0.578600  0.097600  0.057300  1.0  -0.2175
  N  N316  1  0.638400  0.217900  0.104200  1.0  -0.4902
  N  N317  1  0.644300  0.100500  0.086900  1.0  -0.3575
  N  N318  1  0.748100  0.204100  0.147000  1.0  -0.7618
  N  N319  1  0.097600  0.519000  0.557300  1.0  -0.2177
  N  N320  1  0.217900  0.579500  0.604200  1.0  -0.4929
  N  N321  1  0.100500  0.456200  0.586900  1.0  -0.3568
  N  N322  1  0.204100  0.456000  0.647000  1.0  -0.7609
  N  N323  1  0.481000  0.578600  0.557300  1.0  -0.2181
  N  N324  1  0.420500  0.638400  0.604200  1.0  -0.4929
  N  N325  1  0.543800  0.644300  0.586900  1.0  -0.3576
  N  N326  1  0.544000  0.748100  0.647000  1.0  -0.7618
  N  N327  1  0.421400  0.902400  0.557300  1.0  -0.2187
  N  N328  1  0.361600  0.782100  0.604200  1.0  -0.489
  N  N329  1  0.355700  0.899500  0.586900  1.0  -0.359
  N  N330  1  0.251900  0.795900  0.647000  1.0  -0.7604
  N  N331  1  0.481000  0.902400  0.442700  1.0  -0.2183
  N  N332  1  0.420500  0.782100  0.395800  1.0  -0.4905
  N  N333  1  0.543800  0.899500  0.413100  1.0  -0.358
  N  N334  1  0.544000  0.795900  0.353000  1.0  -0.7606
  N  N335  1  0.421400  0.519000  0.442700  1.0  -0.2179
  N  N336  1  0.361600  0.579500  0.395800  1.0  -0.4903
  N  N337  1  0.355700  0.456200  0.413100  1.0  -0.3578
  N  N338  1  0.251900  0.456000  0.353000  1.0  -0.7586
  N  N339  1  0.097600  0.578600  0.442700  1.0  -0.2182
  N  N340  1  0.217900  0.638400  0.395800  1.0  -0.4932
  N  N341  1  0.100500  0.644300  0.413100  1.0  -0.3591
  N  N342  1  0.204100  0.748100  0.353000  1.0  -0.7607
  N  N343  1  0.519000  0.097600  0.942700  1.0  -0.2175
  N  N344  1  0.579500  0.217900  0.895800  1.0  -0.4898
  N  N345  1  0.456200  0.100500  0.913100  1.0  -0.3601
  N  N346  1  0.456000  0.204100  0.853000  1.0  -0.7593
  N  N347  1  0.578600  0.481000  0.942700  1.0  -0.2183
  N  N348  1  0.638400  0.420500  0.895800  1.0  -0.4926
  N  N349  1  0.644300  0.543800  0.913100  1.0  -0.3581
  N  N350  1  0.748100  0.544000  0.853000  1.0  -0.7596
  N  N351  1  0.902400  0.421400  0.942700  1.0  -0.218
  N  N352  1  0.782100  0.361600  0.895800  1.0  -0.4933
  N  N353  1  0.899500  0.355700  0.913100  1.0  -0.3583
  N  N354  1  0.795900  0.251900  0.853000  1.0  -0.7601
  N  N355  1  0.000000  0.281400  0.083300  1.0  -0.4969
  N  N356  1  0.000000  0.322700  0.998400  1.0  -0.2976
  N  N357  1  0.000000  0.384100  0.032500  1.0  -0.2897
  N  N358  1  0.000000  0.399000  0.128200  1.0  -0.7431
  N  N359  1  0.718600  0.718600  0.083300  1.0  -0.4972
  N  N360  1  0.677300  0.677300  0.998400  1.0  -0.2976
  N  N361  1  0.615900  0.615900  0.032500  1.0  -0.2903
  N  N362  1  0.601000  0.601000  0.128200  1.0  -0.7432
  N  N363  1  0.281400  0.000000  0.083300  1.0  -0.4963
  N  N364  1  0.322700  0.000000  0.998400  1.0  -0.2966
  N  N365  1  0.384100  0.000000  0.032500  1.0  -0.2892
  N  N366  1  0.399000  0.000000  0.128200  1.0  -0.7409
  N  N367  1  0.000000  0.718600  0.583300  1.0  -0.4976
  N  N368  1  0.000000  0.677300  0.498400  1.0  -0.2969
  N  N369  1  0.000000  0.615900  0.532500  1.0  -0.2908
  N  N370  1  0.000000  0.601000  0.628200  1.0  -0.7422
  N  N371  1  0.281400  0.281400  0.583300  1.0  -0.4976
  N  N372  1  0.322700  0.322700  0.498400  1.0  -0.2968
  N  N373  1  0.384100  0.384100  0.532500  1.0  -0.29
  N  N374  1  0.399000  0.399000  0.628200  1.0  -0.7421
  N  N375  1  0.718600  0.000000  0.583300  1.0  -0.4952
  N  N376  1  0.677300  0.000000  0.498400  1.0  -0.2967
  N  N377  1  0.615900  0.000000  0.532500  1.0  -0.2903
  N  N378  1  0.601000  0.000000  0.628200  1.0  -0.742
  N  N379  1  0.281400  0.000000  0.416700  1.0  -0.4971
  N  N380  1  0.322700  0.000000  0.501600  1.0  -0.2973
  N  N381  1  0.384100  0.000000  0.467500  1.0  -0.2892
  N  N382  1  0.399000  0.000000  0.371800  1.0  -0.7438
  N  N383  1  0.718600  0.718600  0.416700  1.0  -0.4981
  N  N384  1  0.677300  0.677300  0.501600  1.0  -0.2984
  N  N385  1  0.615900  0.615900  0.467500  1.0  -0.2901
  N  N386  1  0.601000  0.601000  0.371800  1.0  -0.7437
  N  N387  1  0.000000  0.281400  0.416700  1.0  -0.4975
  N  N388  1  0.000000  0.322700  0.501600  1.0  -0.2983
  N  N389  1  0.000000  0.384100  0.467500  1.0  -0.2895
  N  N390  1  0.000000  0.399000  0.371800  1.0  -0.7447
  N  N391  1  0.718600  0.000000  0.916700  1.0  -0.4965
  N  N392  1  0.677300  0.000000  0.001600  1.0  -0.2975
  N  N393  1  0.615900  0.000000  0.967500  1.0  -0.2902
  N  N394  1  0.601000  0.000000  0.871800  1.0  -0.743
  N  N395  1  0.281400  0.281400  0.916700  1.0  -0.498
  N  N396  1  0.322700  0.322700  0.001600  1.0  -0.2976
  N  N397  1  0.384100  0.384100  0.967500  1.0  -0.29
  N  N398  1  0.399000  0.399000  0.871800  1.0  -0.7449
  N  N399  1  0.000000  0.718600  0.916700  1.0  -0.4984
  N  N400  1  0.000000  0.677300  0.001600  1.0  -0.2977
  N  N401  1  0.000000  0.615900  0.967500  1.0  -0.2909
  N  N402  1  0.000000  0.601000  0.871800  1.0  -0.744
  Cl  Cl403  1  0.000000  0.336900  0.820800  1.0  -0.5106
  Cl  Cl404  1  0.663100  0.663100  0.820800  1.0  -0.5103
  Cl  Cl405  1  0.336900  0.000000  0.820800  1.0  -0.5109
  Cl  Cl406  1  0.000000  0.663100  0.320800  1.0  -0.5107
  Cl  Cl407  1  0.336900  0.336900  0.320800  1.0  -0.5111
  Cl  Cl408  1  0.663100  0.000000  0.320800  1.0  -0.5115
  Cl  Cl409  1  0.336900  0.000000  0.679200  1.0  -0.5092
  Cl  Cl410  1  0.663100  0.663100  0.679200  1.0  -0.5089
  Cl  Cl411  1  0.000000  0.336900  0.679200  1.0  -0.509
  Cl  Cl412  1  0.663100  0.000000  0.179200  1.0  -0.5104
  Cl  Cl413  1  0.336900  0.336900  0.179200  1.0  -0.5093
  Cl  Cl414  1  0.000000  0.663100  0.179200  1.0  -0.5092
  Cl  Cl415  1  0.000000  0.000000  0.250000  1.0  -0.4022
  Cl  Cl416  1  0.000000  0.000000  0.750000  1.0  -0.4022
  Cl  Cl417  1  0.000000  0.000000  0.000000  1.0  -0.4444
  Cl  Cl418  1  0.000000  0.000000  0.500000  1.0  -0.4444
  O  O419  1  0.079200  0.162700  0.124200  1.0  -0.6392
  O  O420  1  0.085600  0.280900  0.205500  1.0  -0.5662
  O  O421  1  0.195600  0.282000  0.098800  1.0  -0.6193
  O  O422  1  0.837300  0.916500  0.124200  1.0  -0.6396
  O  O423  1  0.719100  0.804700  0.205500  1.0  -0.5663
  O  O424  1  0.718000  0.913600  0.098800  1.0  -0.6199
  O  O425  1  0.083500  0.920800  0.124200  1.0  -0.6396
  O  O426  1  0.195300  0.914400  0.205500  1.0  -0.5652
  O  O427  1  0.086400  0.804400  0.098800  1.0  -0.6201
  O  O428  1  0.920800  0.837300  0.624200  1.0  -0.6405
  O  O429  1  0.914400  0.719100  0.705500  1.0  -0.5664
  O  O430  1  0.804400  0.718000  0.598800  1.0  -0.619
  O  O431  1  0.162700  0.083500  0.624200  1.0  -0.6381
  O  O432  1  0.280900  0.195300  0.705500  1.0  -0.5662
  O  O433  1  0.282000  0.086400  0.598800  1.0  -0.6207
  O  O434  1  0.916500  0.079200  0.624200  1.0  -0.6396
  O  O435  1  0.804700  0.085600  0.705500  1.0  -0.5639
  O  O436  1  0.913600  0.195600  0.598800  1.0  -0.6188
  O  O437  1  0.162700  0.079200  0.375800  1.0  -0.639
  O  O438  1  0.280900  0.085600  0.294500  1.0  -0.5646
  O  O439  1  0.282000  0.195600  0.401200  1.0  -0.6197
  O  O440  1  0.916500  0.837300  0.375800  1.0  -0.6396
  O  O441  1  0.804700  0.719100  0.294500  1.0  -0.5671
  O  O442  1  0.913600  0.718000  0.401200  1.0  -0.6191
  O  O443  1  0.920800  0.083500  0.375800  1.0  -0.639
  O  O444  1  0.914400  0.195300  0.294500  1.0  -0.5668
  O  O445  1  0.804400  0.086400  0.401200  1.0  -0.6199
  O  O446  1  0.837300  0.920800  0.875800  1.0  -0.6394
  O  O447  1  0.719100  0.914400  0.794500  1.0  -0.5652
  O  O448  1  0.718000  0.804400  0.901200  1.0  -0.6188
  O  O449  1  0.083500  0.162700  0.875800  1.0  -0.6409
  O  O450  1  0.195300  0.280900  0.794500  1.0  -0.5668
  O  O451  1  0.086400  0.282000  0.901200  1.0  -0.6187
  O  O452  1  0.079200  0.916500  0.875800  1.0  -0.6383
  O  O453  1  0.085600  0.804700  0.794500  1.0  -0.567
  O  O454  1  0.195600  0.913600  0.901200  1.0  -0.6197
  O  O455  1  0.920800  0.837300  0.875800  1.0  -0.6397
  O  O456  1  0.914400  0.719100  0.794500  1.0  -0.5658
  O  O457  1  0.804400  0.718000  0.901200  1.0  -0.6187
  O  O458  1  0.162700  0.083500  0.875800  1.0  -0.6382
  O  O459  1  0.280900  0.195300  0.794500  1.0  -0.5655
  O  O460  1  0.282000  0.086400  0.901200  1.0  -0.6206
  O  O461  1  0.916500  0.079200  0.875800  1.0  -0.6391
  O  O462  1  0.804700  0.085600  0.794500  1.0  -0.5633
  O  O463  1  0.913600  0.195600  0.901200  1.0  -0.6186
  O  O464  1  0.079200  0.162700  0.375800  1.0  -0.6388
  O  O465  1  0.085600  0.280900  0.294500  1.0  -0.5658
  O  O466  1  0.195600  0.282000  0.401200  1.0  -0.6193
  O  O467  1  0.837300  0.916500  0.375800  1.0  -0.6392
  O  O468  1  0.719100  0.804700  0.294500  1.0  -0.5659
  O  O469  1  0.718000  0.913600  0.401200  1.0  -0.6194
  O  O470  1  0.083500  0.920800  0.375800  1.0  -0.6392
  O  O471  1  0.195300  0.914400  0.294500  1.0  -0.5656
  O  O472  1  0.086400  0.804400  0.401200  1.0  -0.6199
  O  O473  1  0.837300  0.920800  0.624200  1.0  -0.6397
  O  O474  1  0.719100  0.914400  0.705500  1.0  -0.564
  O  O475  1  0.718000  0.804400  0.598800  1.0  -0.6191
  O  O476  1  0.083500  0.162700  0.624200  1.0  -0.6405
  O  O477  1  0.195300  0.280900  0.705500  1.0  -0.5653
  O  O478  1  0.086400  0.282000  0.598800  1.0  -0.6187
  O  O479  1  0.079200  0.916500  0.624200  1.0  -0.6381
  O  O480  1  0.085600  0.804700  0.705500  1.0  -0.5653
  O  O481  1  0.195600  0.913600  0.598800  1.0  -0.6202
  O  O482  1  0.162700  0.079200  0.124200  1.0  -0.6388
  O  O483  1  0.280900  0.085600  0.205500  1.0  -0.5633
  O  O484  1  0.282000  0.195600  0.098800  1.0  -0.62
  O  O485  1  0.916500  0.837300  0.124200  1.0  -0.6396
  O  O486  1  0.804700  0.719100  0.205500  1.0  -0.5658
  O  O487  1  0.913600  0.718000  0.098800  1.0  -0.6194
  O  O488  1  0.920800  0.083500  0.124200  1.0  -0.639
  O  O489  1  0.914400  0.195300  0.205500  1.0  -0.5655
  O  O490  1  0.804400  0.086400  0.098800  1.0  -0.6202
