# generated using pymatgen
data_Tb2Zn19H54C54N72(Cl2O9)4
_symmetry_space_group_name_H-M   'P 1'
_cell_length_a   18.09080000
_cell_length_b   18.09080000
_cell_length_c   24.75300000
_cell_angle_alpha   90.00000000
_cell_angle_beta   90.00000000
_cell_angle_gamma   120.00000000
_symmetry_Int_Tables_number   1
_chemical_formula_structural   Tb2Zn19H54C54N72(Cl2O9)4
_chemical_formula_sum   'Tb4 Zn38 H108 C108 N144 Cl16 O72'
_cell_volume   7015.74860036
_cell_formula_units_Z   2
loop_
 _symmetry_equiv_pos_site_id
 _symmetry_equiv_pos_as_xyz
  1  'x, y, z'
loop_
 _atom_site_type_symbol
 _atom_site_label
 _atom_site_symmetry_multiplicity
 _atom_site_fract_x
 _atom_site_fract_y
 _atom_site_fract_z
 _atom_site_occupancy
 _atom_site_charge
  Tb  Tb1  1  0.000000  0.000000  0.124520  1.0  2.2736
  Tb  Tb2  1  0.000000  0.000000  0.624520  1.0  2.2736
  Tb  Tb3  1  0.000000  0.000000  0.375480  1.0  2.274
  Tb  Tb4  1  0.000000  0.000000  0.875480  1.0  2.274
  Zn  Zn5  1  0.000000  0.210690  0.143290  1.0  0.8795
  Zn  Zn6  1  0.000000  0.332850  0.913560  1.0  0.9109
  Zn  Zn7  1  0.789310  0.789310  0.143290  1.0  0.8786
  Zn  Zn8  1  0.667150  0.667150  0.913560  1.0  0.9107
  Zn  Zn9  1  0.210690  0.000000  0.143290  1.0  0.8772
  Zn  Zn10  1  0.332850  0.000000  0.913560  1.0  0.9096
  Zn  Zn11  1  0.000000  0.789310  0.643290  1.0  0.8778
  Zn  Zn12  1  0.000000  0.667150  0.413560  1.0  0.9103
  Zn  Zn13  1  0.210690  0.210690  0.643290  1.0  0.8785
  Zn  Zn14  1  0.332850  0.332850  0.413560  1.0  0.9106
  Zn  Zn15  1  0.789310  0.000000  0.643290  1.0  0.8775
  Zn  Zn16  1  0.667150  0.000000  0.413560  1.0  0.91
  Zn  Zn17  1  0.210690  0.000000  0.356710  1.0  0.8752
  Zn  Zn18  1  0.332850  0.000000  0.586440  1.0  0.9094
  Zn  Zn19  1  0.789310  0.789310  0.356710  1.0  0.8766
  Zn  Zn20  1  0.667150  0.667150  0.586440  1.0  0.9103
  Zn  Zn21  1  0.000000  0.210690  0.356710  1.0  0.8773
  Zn  Zn22  1  0.000000  0.332850  0.586440  1.0  0.9105
  Zn  Zn23  1  0.789310  0.000000  0.856710  1.0  0.8756
  Zn  Zn24  1  0.667150  0.000000  0.086440  1.0  0.9097
  Zn  Zn25  1  0.210690  0.210690  0.856710  1.0  0.8765
  Zn  Zn26  1  0.332850  0.332850  0.086440  1.0  0.9102
  Zn  Zn27  1  0.000000  0.789310  0.856710  1.0  0.8759
  Zn  Zn28  1  0.000000  0.667150  0.086440  1.0  0.9098
  Zn  Zn29  1  0.000000  0.500000  0.000000  1.0  0.6037
  Zn  Zn30  1  0.500000  0.500000  0.000000  1.0  0.6037
  Zn  Zn31  1  0.500000  0.000000  0.000000  1.0  0.6037
  Zn  Zn32  1  0.000000  0.500000  0.500000  1.0  0.6037
  Zn  Zn33  1  0.500000  0.500000  0.500000  1.0  0.6037
  Zn  Zn34  1  0.500000  0.000000  0.500000  1.0  0.6037
  Zn  Zn35  1  0.333333  0.666667  0.872660  1.0  0.2412
  Zn  Zn36  1  0.666667  0.333333  0.372660  1.0  0.2412
  Zn  Zn37  1  0.666667  0.333333  0.627340  1.0  0.2403
  Zn  Zn38  1  0.333333  0.666667  0.127340  1.0  0.2403
  Zn  Zn39  1  0.666667  0.333333  0.127340  1.0  0.2403
  Zn  Zn40  1  0.333333  0.666667  0.627340  1.0  0.2403
  Zn  Zn41  1  0.333333  0.666667  0.372660  1.0  0.2412
  Zn  Zn42  1  0.666667  0.333333  0.872660  1.0  0.2412
  H  H43  1  0.180900  0.641700  0.947600  1.0  0.0713
  H  H44  1  0.175500  0.400900  0.849400  1.0  0.3415
  H  H45  1  0.253200  0.484900  0.837600  1.0  0.3449
  H  H46  1  0.358300  0.539200  0.947600  1.0  0.0706
  H  H47  1  0.599100  0.774600  0.849400  1.0  0.3437
  H  H48  1  0.515100  0.768300  0.837600  1.0  0.3463
  H  H49  1  0.460800  0.819100  0.947600  1.0  0.0704
  H  H50  1  0.225400  0.824500  0.849400  1.0  0.3429
  H  H51  1  0.231700  0.746800  0.837600  1.0  0.344
  H  H52  1  0.819100  0.358300  0.447600  1.0  0.071
  H  H53  1  0.824500  0.599100  0.349400  1.0  0.3425
  H  H54  1  0.746800  0.515100  0.337600  1.0  0.3447
  H  H55  1  0.641700  0.460800  0.447600  1.0  0.0708
  H  H56  1  0.400900  0.225400  0.349400  1.0  0.3432
  H  H57  1  0.484900  0.231700  0.337600  1.0  0.3457
  H  H58  1  0.539200  0.180900  0.447600  1.0  0.0709
  H  H59  1  0.774600  0.175500  0.349400  1.0  0.3437
  H  H60  1  0.768300  0.253200  0.337600  1.0  0.345
  H  H61  1  0.641700  0.180900  0.552400  1.0  0.071
  H  H62  1  0.400900  0.175500  0.650600  1.0  0.3431
  H  H63  1  0.484900  0.253200  0.662400  1.0  0.3453
  H  H64  1  0.539200  0.358300  0.552400  1.0  0.0709
  H  H65  1  0.774600  0.599100  0.650600  1.0  0.3423
  H  H66  1  0.768300  0.515100  0.662400  1.0  0.3461
  H  H67  1  0.819100  0.460800  0.552400  1.0  0.071
  H  H68  1  0.824500  0.225400  0.650600  1.0  0.3443
  H  H69  1  0.746800  0.231700  0.662400  1.0  0.3464
  H  H70  1  0.358300  0.819100  0.052400  1.0  0.0702
  H  H71  1  0.599100  0.824500  0.150600  1.0  0.3434
  H  H72  1  0.515100  0.746800  0.162400  1.0  0.3449
  H  H73  1  0.460800  0.641700  0.052400  1.0  0.0709
  H  H74  1  0.225400  0.400900  0.150600  1.0  0.3427
  H  H75  1  0.231700  0.484900  0.162400  1.0  0.3454
  H  H76  1  0.180900  0.539200  0.052400  1.0  0.0702
  H  H77  1  0.175500  0.774600  0.150600  1.0  0.3436
  H  H78  1  0.253200  0.768300  0.162400  1.0  0.3467
  H  H79  1  0.819100  0.358300  0.052400  1.0  0.0708
  H  H80  1  0.824500  0.599100  0.150600  1.0  0.3425
  H  H81  1  0.746800  0.515100  0.162400  1.0  0.3453
  H  H82  1  0.641700  0.460800  0.052400  1.0  0.0707
  H  H83  1  0.400900  0.225400  0.150600  1.0  0.3431
  H  H84  1  0.484900  0.231700  0.162400  1.0  0.3475
  H  H85  1  0.539200  0.180900  0.052400  1.0  0.0711
  H  H86  1  0.774600  0.175500  0.150600  1.0  0.3443
  H  H87  1  0.768300  0.253200  0.162400  1.0  0.3455
  H  H88  1  0.180900  0.641700  0.552400  1.0  0.0714
  H  H89  1  0.175500  0.400900  0.650600  1.0  0.3426
  H  H90  1  0.253200  0.484900  0.662400  1.0  0.3455
  H  H91  1  0.358300  0.539200  0.552400  1.0  0.0702
  H  H92  1  0.599100  0.774600  0.650600  1.0  0.3441
  H  H93  1  0.515100  0.768300  0.662400  1.0  0.3462
  H  H94  1  0.460800  0.819100  0.552400  1.0  0.0702
  H  H95  1  0.225400  0.824500  0.650600  1.0  0.3427
  H  H96  1  0.231700  0.746800  0.662400  1.0  0.3448
  H  H97  1  0.358300  0.819100  0.447600  1.0  0.0704
  H  H98  1  0.599100  0.824500  0.349400  1.0  0.3431
  H  H99  1  0.515100  0.746800  0.337600  1.0  0.3438
  H  H100  1  0.460800  0.641700  0.447600  1.0  0.071
  H  H101  1  0.225400  0.400900  0.349400  1.0  0.3419
  H  H102  1  0.231700  0.484900  0.337600  1.0  0.3445
  H  H103  1  0.180900  0.539200  0.447600  1.0  0.0706
  H  H104  1  0.175500  0.774600  0.349400  1.0  0.3437
  H  H105  1  0.253200  0.768300  0.337600  1.0  0.3453
  H  H106  1  0.641700  0.180900  0.947600  1.0  0.0709
  H  H107  1  0.400900  0.175500  0.849400  1.0  0.3432
  H  H108  1  0.484900  0.253200  0.837600  1.0  0.3453
  H  H109  1  0.539200  0.358300  0.947600  1.0  0.0712
  H  H110  1  0.774600  0.599100  0.849400  1.0  0.3422
  H  H111  1  0.768300  0.515100  0.837600  1.0  0.3453
  H  H112  1  0.819100  0.460800  0.947600  1.0  0.0709
  H  H113  1  0.824500  0.225400  0.849400  1.0  0.3437
  H  H114  1  0.746800  0.231700  0.837600  1.0  0.3464
  H  H115  1  0.000000  0.214100  0.018100  1.0  0.0941
  H  H116  1  0.000000  0.446600  0.126800  1.0  0.35
  H  H117  1  0.000000  0.377100  0.159400  1.0  0.3481
  H  H118  1  0.785900  0.785900  0.018100  1.0  0.0948
  H  H119  1  0.553400  0.553400  0.126800  1.0  0.3496
  H  H120  1  0.622900  0.622900  0.159400  1.0  0.3479
  H  H121  1  0.214100  0.000000  0.018100  1.0  0.0946
  H  H122  1  0.446600  0.000000  0.126800  1.0  0.3505
  H  H123  1  0.377100  0.000000  0.159400  1.0  0.3485
  H  H124  1  0.000000  0.785900  0.518100  1.0  0.0945
  H  H125  1  0.000000  0.553400  0.626800  1.0  0.3494
  H  H126  1  0.000000  0.622900  0.659400  1.0  0.3481
  H  H127  1  0.214100  0.214100  0.518100  1.0  0.0939
  H  H128  1  0.446600  0.446600  0.626800  1.0  0.3497
  H  H129  1  0.377100  0.377100  0.659400  1.0  0.3485
  H  H130  1  0.785900  0.000000  0.518100  1.0  0.094
  H  H131  1  0.553400  0.000000  0.626800  1.0  0.3506
  H  H132  1  0.622900  0.000000  0.659400  1.0  0.3498
  H  H133  1  0.214100  0.000000  0.481900  1.0  0.0947
  H  H134  1  0.446600  0.000000  0.373200  1.0  0.3495
  H  H135  1  0.377100  0.000000  0.340600  1.0  0.3481
  H  H136  1  0.785900  0.785900  0.481900  1.0  0.0947
  H  H137  1  0.553400  0.553400  0.373200  1.0  0.3491
  H  H138  1  0.622900  0.622900  0.340600  1.0  0.3468
  H  H139  1  0.000000  0.214100  0.481900  1.0  0.0944
  H  H140  1  0.000000  0.446600  0.373200  1.0  0.3493
  H  H141  1  0.000000  0.377100  0.340600  1.0  0.3472
  H  H142  1  0.785900  0.000000  0.981900  1.0  0.094
  H  H143  1  0.553400  0.000000  0.873200  1.0  0.3511
  H  H144  1  0.622900  0.000000  0.840600  1.0  0.3483
  H  H145  1  0.214100  0.214100  0.981900  1.0  0.0945
  H  H146  1  0.446600  0.446600  0.873200  1.0  0.3491
  H  H147  1  0.377100  0.377100  0.840600  1.0  0.3478
  H  H148  1  0.000000  0.785900  0.981900  1.0  0.0944
  H  H149  1  0.000000  0.553400  0.873200  1.0  0.3491
  H  H150  1  0.000000  0.622900  0.840600  1.0  0.3472
  C  C151  1  0.156100  0.204800  0.110800  1.0  0.6546
  C  C152  1  0.175000  0.494600  0.885300  1.0  0.646
  C  C153  1  0.167200  0.589300  0.932300  1.0  0.256
  C  C154  1  0.795200  0.951300  0.110800  1.0  0.6548
  C  C155  1  0.505400  0.680400  0.885300  1.0  0.6455
  C  C156  1  0.410700  0.577900  0.932300  1.0  0.2577
  C  C157  1  0.048700  0.843900  0.110800  1.0  0.6543
  C  C158  1  0.319600  0.825000  0.885300  1.0  0.6457
  C  C159  1  0.422100  0.832800  0.932300  1.0  0.2578
  C  C160  1  0.843900  0.795200  0.610800  1.0  0.6554
  C  C161  1  0.825000  0.505400  0.385300  1.0  0.6452
  C  C162  1  0.832800  0.410700  0.432300  1.0  0.2565
  C  C163  1  0.204800  0.048700  0.610800  1.0  0.6552
  C  C164  1  0.494600  0.319600  0.385300  1.0  0.646
  C  C165  1  0.589300  0.422100  0.432300  1.0  0.2572
  C  C166  1  0.951300  0.156100  0.610800  1.0  0.6535
  C  C167  1  0.680400  0.175000  0.385300  1.0  0.6459
  C  C168  1  0.577900  0.167200  0.432300  1.0  0.2572
  C  C169  1  0.204800  0.156100  0.389200  1.0  0.6541
  C  C170  1  0.494600  0.175000  0.614700  1.0  0.6452
  C  C171  1  0.589300  0.167200  0.567700  1.0  0.2573
  C  C172  1  0.951300  0.795200  0.389200  1.0  0.6544
  C  C173  1  0.680400  0.505400  0.614700  1.0  0.6452
  C  C174  1  0.577900  0.410700  0.567700  1.0  0.2561
  C  C175  1  0.843900  0.048700  0.389200  1.0  0.6553
  C  C176  1  0.825000  0.319600  0.614700  1.0  0.6446
  C  C177  1  0.832800  0.422100  0.567700  1.0  0.257
  C  C178  1  0.795200  0.843900  0.889200  1.0  0.6536
  C  C179  1  0.505400  0.825000  0.114700  1.0  0.645
  C  C180  1  0.410700  0.832800  0.067700  1.0  0.257
  C  C181  1  0.048700  0.204800  0.889200  1.0  0.6561
  C  C182  1  0.319600  0.494600  0.114700  1.0  0.6445
  C  C183  1  0.422100  0.589300  0.067700  1.0  0.2557
  C  C184  1  0.156100  0.951300  0.889200  1.0  0.6549
  C  C185  1  0.175000  0.680400  0.114700  1.0  0.6453
  C  C186  1  0.167200  0.577900  0.067700  1.0  0.256
  C  C187  1  0.843900  0.795200  0.889200  1.0  0.6555
  C  C188  1  0.825000  0.505400  0.114700  1.0  0.6445
  C  C189  1  0.832800  0.410700  0.067700  1.0  0.2559
  C  C190  1  0.204800  0.048700  0.889200  1.0  0.6554
  C  C191  1  0.494600  0.319600  0.114700  1.0  0.645
  C  C192  1  0.589300  0.422100  0.067700  1.0  0.2565
  C  C193  1  0.951300  0.156100  0.889200  1.0  0.6537
  C  C194  1  0.680400  0.175000  0.114700  1.0  0.6452
  C  C195  1  0.577900  0.167200  0.067700  1.0  0.2565
  C  C196  1  0.156100  0.204800  0.389200  1.0  0.6546
  C  C197  1  0.175000  0.494600  0.614700  1.0  0.6452
  C  C198  1  0.167200  0.589300  0.567700  1.0  0.2556
  C  C199  1  0.795200  0.951300  0.389200  1.0  0.6551
  C  C200  1  0.505400  0.680400  0.614700  1.0  0.6448
  C  C201  1  0.410700  0.577900  0.567700  1.0  0.2568
  C  C202  1  0.048700  0.843900  0.389200  1.0  0.6545
  C  C203  1  0.319600  0.825000  0.614700  1.0  0.645
  C  C204  1  0.422100  0.832800  0.567700  1.0  0.2571
  C  C205  1  0.795200  0.843900  0.610800  1.0  0.6534
  C  C206  1  0.505400  0.825000  0.385300  1.0  0.6458
  C  C207  1  0.410700  0.832800  0.432300  1.0  0.2578
  C  C208  1  0.048700  0.204800  0.610800  1.0  0.6561
  C  C209  1  0.319600  0.494600  0.385300  1.0  0.6452
  C  C210  1  0.422100  0.589300  0.432300  1.0  0.256
  C  C211  1  0.156100  0.951300  0.610800  1.0  0.6547
  C  C212  1  0.175000  0.680400  0.385300  1.0  0.6459
  C  C213  1  0.167200  0.577900  0.432300  1.0  0.2569
  C  C214  1  0.204800  0.156100  0.110800  1.0  0.654
  C  C215  1  0.494600  0.175000  0.885300  1.0  0.6456
  C  C216  1  0.589300  0.167200  0.932300  1.0  0.258
  C  C217  1  0.951300  0.795200  0.110800  1.0  0.6542
  C  C218  1  0.680400  0.505400  0.885300  1.0  0.646
  C  C219  1  0.577900  0.410700  0.932300  1.0  0.2568
  C  C220  1  0.843900  0.048700  0.110800  1.0  0.6551
  C  C221  1  0.825000  0.319600  0.885300  1.0  0.6455
  C  C222  1  0.832800  0.422100  0.932300  1.0  0.2578
  C  C223  1  0.049100  0.262500  0.250000  1.0  0.6062
  C  C224  1  0.737500  0.786600  0.250000  1.0  0.605
  C  C225  1  0.213400  0.950900  0.250000  1.0  0.6046
  C  C226  1  0.950900  0.737500  0.750000  1.0  0.6042
  C  C227  1  0.262500  0.213400  0.750000  1.0  0.6051
  C  C228  1  0.786600  0.049100  0.750000  1.0  0.6066
  C  C229  1  0.262500  0.049100  0.250000  1.0  0.6069
  C  C230  1  0.786600  0.737500  0.250000  1.0  0.605
  C  C231  1  0.950900  0.213400  0.250000  1.0  0.6048
  C  C232  1  0.737500  0.950900  0.750000  1.0  0.6044
  C  C233  1  0.213400  0.262500  0.750000  1.0  0.6047
  C  C234  1  0.049100  0.786600  0.750000  1.0  0.6058
  C  C235  1  0.000000  0.262800  0.030500  1.0  0.2464
  C  C236  1  0.000000  0.358100  0.082200  1.0  0.5584
  C  C237  1  0.737200  0.737200  0.030500  1.0  0.2465
  C  C238  1  0.641900  0.641900  0.082200  1.0  0.5583
  C  C239  1  0.262800  0.000000  0.030500  1.0  0.2475
  C  C240  1  0.358100  0.000000  0.082200  1.0  0.5573
  C  C241  1  0.000000  0.737200  0.530500  1.0  0.2477
  C  C242  1  0.000000  0.641900  0.582200  1.0  0.5584
  C  C243  1  0.262800  0.262800  0.530500  1.0  0.2481
  C  C244  1  0.358100  0.358100  0.582200  1.0  0.5585
  C  C245  1  0.737200  0.000000  0.530500  1.0  0.2478
  C  C246  1  0.641900  0.000000  0.582200  1.0  0.5575
  C  C247  1  0.262800  0.000000  0.469500  1.0  0.2473
  C  C248  1  0.358100  0.000000  0.417800  1.0  0.5579
  C  C249  1  0.737200  0.737200  0.469500  1.0  0.2459
  C  C250  1  0.641900  0.641900  0.417800  1.0  0.5591
  C  C251  1  0.000000  0.262800  0.469500  1.0  0.2465
  C  C252  1  0.000000  0.358100  0.417800  1.0  0.5591
  C  C253  1  0.737200  0.000000  0.969500  1.0  0.2476
  C  C254  1  0.641900  0.000000  0.917800  1.0  0.5582
  C  C255  1  0.262800  0.262800  0.969500  1.0  0.248
  C  C256  1  0.358100  0.358100  0.917800  1.0  0.5592
  C  C257  1  0.000000  0.737200  0.969500  1.0  0.2468
  C  C258  1  0.000000  0.641900  0.917800  1.0  0.5591
  N  N259  1  0.097500  0.518900  0.943000  1.0  -0.2207
  N  N260  1  0.218600  0.579400  0.896300  1.0  -0.4996
  N  N261  1  0.100400  0.455800  0.912400  1.0  -0.3746
  N  N262  1  0.204700  0.455500  0.853700  1.0  -0.7653
  N  N263  1  0.481100  0.578600  0.943000  1.0  -0.2202
  N  N264  1  0.420600  0.639200  0.896300  1.0  -0.4992
  N  N265  1  0.544200  0.644600  0.912400  1.0  -0.3753
  N  N266  1  0.544500  0.749200  0.853700  1.0  -0.7666
  N  N267  1  0.421400  0.902500  0.943000  1.0  -0.2204
  N  N268  1  0.360800  0.781400  0.896300  1.0  -0.4972
  N  N269  1  0.355400  0.899600  0.912400  1.0  -0.3753
  N  N270  1  0.250800  0.795300  0.853700  1.0  -0.7653
  N  N271  1  0.902500  0.481100  0.443000  1.0  -0.2206
  N  N272  1  0.781400  0.420600  0.396300  1.0  -0.4976
  N  N273  1  0.899600  0.544200  0.412400  1.0  -0.3748
  N  N274  1  0.795300  0.544500  0.353700  1.0  -0.7645
  N  N275  1  0.518900  0.421400  0.443000  1.0  -0.2202
  N  N276  1  0.579400  0.360800  0.396300  1.0  -0.5003
  N  N277  1  0.455800  0.355400  0.412400  1.0  -0.3768
  N  N278  1  0.455500  0.250800  0.353700  1.0  -0.7661
  N  N279  1  0.578600  0.097500  0.443000  1.0  -0.2195
  N  N280  1  0.639200  0.218600  0.396300  1.0  -0.4976
  N  N281  1  0.644600  0.100400  0.412400  1.0  -0.3749
  N  N282  1  0.749200  0.204700  0.353700  1.0  -0.7662
  N  N283  1  0.518900  0.097500  0.557000  1.0  -0.2197
  N  N284  1  0.579400  0.218600  0.603700  1.0  -0.4969
  N  N285  1  0.455800  0.100400  0.587600  1.0  -0.3753
  N  N286  1  0.455500  0.204700  0.646300  1.0  -0.766
  N  N287  1  0.578600  0.481100  0.557000  1.0  -0.2205
  N  N288  1  0.639200  0.420600  0.603700  1.0  -0.4992
  N  N289  1  0.644600  0.544200  0.587600  1.0  -0.3735
  N  N290  1  0.749200  0.544500  0.646300  1.0  -0.766
  N  N291  1  0.902500  0.421400  0.557000  1.0  -0.2198
  N  N292  1  0.781400  0.360800  0.603700  1.0  -0.4999
  N  N293  1  0.899600  0.355400  0.587600  1.0  -0.3741
  N  N294  1  0.795300  0.250800  0.646300  1.0  -0.7667
  N  N295  1  0.481100  0.902500  0.057000  1.0  -0.2199
  N  N296  1  0.420600  0.781400  0.103700  1.0  -0.4978
  N  N297  1  0.544200  0.899600  0.087600  1.0  -0.3736
  N  N298  1  0.544500  0.795300  0.146300  1.0  -0.7665
  N  N299  1  0.421400  0.518900  0.057000  1.0  -0.2202
  N  N300  1  0.360800  0.579400  0.103700  1.0  -0.4974
  N  N301  1  0.355400  0.455800  0.087600  1.0  -0.3735
  N  N302  1  0.250800  0.455500  0.146300  1.0  -0.766
  N  N303  1  0.097500  0.578600  0.057000  1.0  -0.2199
  N  N304  1  0.218600  0.639200  0.103700  1.0  -0.4998
  N  N305  1  0.100400  0.644600  0.087600  1.0  -0.3752
  N  N306  1  0.204700  0.749200  0.146300  1.0  -0.7665
  N  N307  1  0.902500  0.481100  0.057000  1.0  -0.2203
  N  N308  1  0.781400  0.420600  0.103700  1.0  -0.4974
  N  N309  1  0.899600  0.544200  0.087600  1.0  -0.3738
  N  N310  1  0.795300  0.544500  0.146300  1.0  -0.7659
  N  N311  1  0.518900  0.421400  0.057000  1.0  -0.2199
  N  N312  1  0.579400  0.360800  0.103700  1.0  -0.5001
  N  N313  1  0.455800  0.355400  0.087600  1.0  -0.3755
  N  N314  1  0.455500  0.250800  0.146300  1.0  -0.7662
  N  N315  1  0.578600  0.097500  0.057000  1.0  -0.2194
  N  N316  1  0.639200  0.218600  0.103700  1.0  -0.4976
  N  N317  1  0.644600  0.100400  0.087600  1.0  -0.3739
  N  N318  1  0.749200  0.204700  0.146300  1.0  -0.7665
  N  N319  1  0.097500  0.518900  0.557000  1.0  -0.2205
  N  N320  1  0.218600  0.579400  0.603700  1.0  -0.4995
  N  N321  1  0.100400  0.455800  0.587600  1.0  -0.3735
  N  N322  1  0.204700  0.455500  0.646300  1.0  -0.7659
  N  N323  1  0.481100  0.578600  0.557000  1.0  -0.2199
  N  N324  1  0.420600  0.639200  0.603700  1.0  -0.4996
  N  N325  1  0.544200  0.644600  0.587600  1.0  -0.3746
  N  N326  1  0.544500  0.749200  0.646300  1.0  -0.7669
  N  N327  1  0.421400  0.902500  0.557000  1.0  -0.2202
  N  N328  1  0.360800  0.781400  0.603700  1.0  -0.4968
  N  N329  1  0.355400  0.899600  0.587600  1.0  -0.3745
  N  N330  1  0.250800  0.795300  0.646300  1.0  -0.7657
  N  N331  1  0.481100  0.902500  0.443000  1.0  -0.22
  N  N332  1  0.420600  0.781400  0.396300  1.0  -0.4981
  N  N333  1  0.544200  0.899600  0.412400  1.0  -0.3744
  N  N334  1  0.544500  0.795300  0.353700  1.0  -0.7665
  N  N335  1  0.421400  0.518900  0.443000  1.0  -0.2203
  N  N336  1  0.360800  0.579400  0.396300  1.0  -0.4969
  N  N337  1  0.355400  0.455800  0.412400  1.0  -0.3746
  N  N338  1  0.250800  0.455500  0.353700  1.0  -0.7646
  N  N339  1  0.097500  0.578600  0.443000  1.0  -0.2202
  N  N340  1  0.218600  0.639200  0.396300  1.0  -0.4996
  N  N341  1  0.100400  0.644600  0.412400  1.0  -0.3762
  N  N342  1  0.204700  0.749200  0.353700  1.0  -0.766
  N  N343  1  0.518900  0.097500  0.943000  1.0  -0.2199
  N  N344  1  0.579400  0.218600  0.896300  1.0  -0.4972
  N  N345  1  0.455800  0.100400  0.912400  1.0  -0.3764
  N  N346  1  0.455500  0.204700  0.853700  1.0  -0.7652
  N  N347  1  0.578600  0.481100  0.943000  1.0  -0.2211
  N  N348  1  0.639200  0.420600  0.896300  1.0  -0.4994
  N  N349  1  0.644600  0.544200  0.912400  1.0  -0.3745
  N  N350  1  0.749200  0.544500  0.853700  1.0  -0.7653
  N  N351  1  0.902500  0.421400  0.943000  1.0  -0.2199
  N  N352  1  0.781400  0.360800  0.896300  1.0  -0.4997
  N  N353  1  0.899600  0.355400  0.912400  1.0  -0.3752
  N  N354  1  0.795300  0.250800  0.853700  1.0  -0.7666
  N  N355  1  0.000000  0.282000  0.083000  1.0  -0.4972
  N  N356  1  0.000000  0.322400  0.998100  1.0  -0.3369
  N  N357  1  0.000000  0.383800  0.032600  1.0  -0.269
  N  N358  1  0.000000  0.399000  0.128500  1.0  -0.7397
  N  N359  1  0.718000  0.718000  0.083000  1.0  -0.4977
  N  N360  1  0.677600  0.677600  0.998100  1.0  -0.3369
  N  N361  1  0.616200  0.616200  0.032600  1.0  -0.2696
  N  N362  1  0.601000  0.601000  0.128500  1.0  -0.7399
  N  N363  1  0.282000  0.000000  0.083000  1.0  -0.4969
  N  N364  1  0.322400  0.000000  0.998100  1.0  -0.3356
  N  N365  1  0.383800  0.000000  0.032600  1.0  -0.2699
  N  N366  1  0.399000  0.000000  0.128500  1.0  -0.7371
  N  N367  1  0.000000  0.718000  0.583000  1.0  -0.4983
  N  N368  1  0.000000  0.677600  0.498100  1.0  -0.3357
  N  N369  1  0.000000  0.616200  0.532600  1.0  -0.2704
  N  N370  1  0.000000  0.601000  0.628500  1.0  -0.7388
  N  N371  1  0.282000  0.282000  0.583000  1.0  -0.498
  N  N372  1  0.322400  0.322400  0.498100  1.0  -0.3358
  N  N373  1  0.383800  0.383800  0.532600  1.0  -0.2695
  N  N374  1  0.399000  0.399000  0.628500  1.0  -0.7387
  N  N375  1  0.718000  0.000000  0.583000  1.0  -0.4959
  N  N376  1  0.677600  0.000000  0.498100  1.0  -0.3367
  N  N377  1  0.616200  0.000000  0.532600  1.0  -0.27
  N  N378  1  0.601000  0.000000  0.628500  1.0  -0.7389
  N  N379  1  0.282000  0.000000  0.417000  1.0  -0.4974
  N  N380  1  0.322400  0.000000  0.501900  1.0  -0.3358
  N  N381  1  0.383800  0.000000  0.467400  1.0  -0.2698
  N  N382  1  0.399000  0.000000  0.371500  1.0  -0.7409
  N  N383  1  0.718000  0.718000  0.417000  1.0  -0.4985
  N  N384  1  0.677600  0.677600  0.501900  1.0  -0.3369
  N  N385  1  0.616200  0.616200  0.467400  1.0  -0.2692
  N  N386  1  0.601000  0.601000  0.371500  1.0  -0.7417
  N  N387  1  0.000000  0.282000  0.417000  1.0  -0.4973
  N  N388  1  0.000000  0.322400  0.501900  1.0  -0.3366
  N  N389  1  0.000000  0.383800  0.467400  1.0  -0.2688
  N  N390  1  0.000000  0.399000  0.371500  1.0  -0.7425
  N  N391  1  0.718000  0.000000  0.917000  1.0  -0.4967
  N  N392  1  0.677600  0.000000  0.001900  1.0  -0.3364
  N  N393  1  0.616200  0.000000  0.967400  1.0  -0.2699
  N  N394  1  0.601000  0.000000  0.871500  1.0  -0.741
  N  N395  1  0.282000  0.282000  0.917000  1.0  -0.498
  N  N396  1  0.322400  0.322400  0.001900  1.0  -0.3357
  N  N397  1  0.383800  0.383800  0.967400  1.0  -0.2695
  N  N398  1  0.399000  0.399000  0.871500  1.0  -0.7425
  N  N399  1  0.000000  0.718000  0.917000  1.0  -0.4992
  N  N400  1  0.000000  0.677600  0.001900  1.0  -0.336
  N  N401  1  0.000000  0.616200  0.967400  1.0  -0.2703
  N  N402  1  0.000000  0.601000  0.871500  1.0  -0.7417
  Cl  Cl403  1  0.000000  0.336700  0.821100  1.0  -0.4942
  Cl  Cl404  1  0.663300  0.663300  0.821100  1.0  -0.4943
  Cl  Cl405  1  0.336700  0.000000  0.821100  1.0  -0.4944
  Cl  Cl406  1  0.000000  0.663300  0.321100  1.0  -0.4945
  Cl  Cl407  1  0.336700  0.336700  0.321100  1.0  -0.4945
  Cl  Cl408  1  0.663300  0.000000  0.321100  1.0  -0.4952
  Cl  Cl409  1  0.336700  0.000000  0.678900  1.0  -0.4916
  Cl  Cl410  1  0.663300  0.663300  0.678900  1.0  -0.4917
  Cl  Cl411  1  0.000000  0.336700  0.678900  1.0  -0.4915
  Cl  Cl412  1  0.663300  0.000000  0.178900  1.0  -0.493
  Cl  Cl413  1  0.336700  0.336700  0.178900  1.0  -0.4914
  Cl  Cl414  1  0.000000  0.663300  0.178900  1.0  -0.4918
  Cl  Cl415  1  0.000000  0.000000  0.250000  1.0  -0.3369
  Cl  Cl416  1  0.000000  0.000000  0.750000  1.0  -0.3369
  Cl  Cl417  1  0.000000  0.000000  0.000000  1.0  -0.4471
  Cl  Cl418  1  0.000000  0.000000  0.500000  1.0  -0.4471
  O  O419  1  0.079000  0.162400  0.124400  1.0  -0.6449
  O  O420  1  0.086000  0.280500  0.205100  1.0  -0.5683
  O  O421  1  0.194900  0.281700  0.098800  1.0  -0.6164
  O  O422  1  0.837600  0.916600  0.124400  1.0  -0.6456
  O  O423  1  0.719500  0.805500  0.205100  1.0  -0.5685
  O  O424  1  0.718300  0.913200  0.098800  1.0  -0.6165
  O  O425  1  0.083400  0.921000  0.124400  1.0  -0.6443
  O  O426  1  0.194500  0.914000  0.205100  1.0  -0.5664
  O  O427  1  0.086800  0.805100  0.098800  1.0  -0.6171
  O  O428  1  0.921000  0.837600  0.624400  1.0  -0.6444
  O  O429  1  0.914000  0.719500  0.705100  1.0  -0.5683
  O  O430  1  0.805100  0.718300  0.598800  1.0  -0.6157
  O  O431  1  0.162400  0.083400  0.624400  1.0  -0.6433
  O  O432  1  0.280500  0.194500  0.705100  1.0  -0.5684
  O  O433  1  0.281700  0.086800  0.598800  1.0  -0.6173
  O  O434  1  0.916600  0.079000  0.624400  1.0  -0.6454
  O  O435  1  0.805500  0.086000  0.705100  1.0  -0.5662
  O  O436  1  0.913200  0.194900  0.598800  1.0  -0.6154
  O  O437  1  0.162400  0.079000  0.375600  1.0  -0.6447
  O  O438  1  0.280500  0.086000  0.294900  1.0  -0.5663
  O  O439  1  0.281700  0.194900  0.401200  1.0  -0.6167
  O  O440  1  0.916600  0.837600  0.375600  1.0  -0.6438
  O  O441  1  0.805500  0.719500  0.294900  1.0  -0.5688
  O  O442  1  0.913200  0.718300  0.401200  1.0  -0.616
  O  O443  1  0.921000  0.083400  0.375600  1.0  -0.645
  O  O444  1  0.914000  0.194500  0.294900  1.0  -0.5685
  O  O445  1  0.805100  0.086800  0.401200  1.0  -0.6166
  O  O446  1  0.837600  0.921000  0.875600  1.0  -0.6448
  O  O447  1  0.719500  0.914000  0.794900  1.0  -0.5664
  O  O448  1  0.718300  0.805100  0.901200  1.0  -0.6155
  O  O449  1  0.083400  0.162400  0.875600  1.0  -0.6456
  O  O450  1  0.194500  0.280500  0.794900  1.0  -0.5683
  O  O451  1  0.086800  0.281700  0.901200  1.0  -0.6158
  O  O452  1  0.079000  0.916600  0.875600  1.0  -0.6436
  O  O453  1  0.086000  0.805500  0.794900  1.0  -0.5685
  O  O454  1  0.194900  0.913200  0.901200  1.0  -0.6165
  O  O455  1  0.921000  0.837600  0.875600  1.0  -0.6437
  O  O456  1  0.914000  0.719500  0.794900  1.0  -0.568
  O  O457  1  0.805100  0.718300  0.901200  1.0  -0.6154
  O  O458  1  0.162400  0.083400  0.875600  1.0  -0.6433
  O  O459  1  0.280500  0.194500  0.794900  1.0  -0.5677
  O  O460  1  0.281700  0.086800  0.901200  1.0  -0.6173
  O  O461  1  0.916600  0.079000  0.875600  1.0  -0.645
  O  O462  1  0.805500  0.086000  0.794900  1.0  -0.5656
  O  O463  1  0.913200  0.194900  0.901200  1.0  -0.6152
  O  O464  1  0.079000  0.162400  0.375600  1.0  -0.6443
  O  O465  1  0.086000  0.280500  0.294900  1.0  -0.5679
  O  O466  1  0.194900  0.281700  0.401200  1.0  -0.6165
  O  O467  1  0.837600  0.916600  0.375600  1.0  -0.6455
  O  O468  1  0.719500  0.805500  0.294900  1.0  -0.5679
  O  O469  1  0.718300  0.913200  0.401200  1.0  -0.6161
  O  O470  1  0.083400  0.921000  0.375600  1.0  -0.6443
  O  O471  1  0.194500  0.914000  0.294900  1.0  -0.5665
  O  O472  1  0.086800  0.805100  0.401200  1.0  -0.6169
  O  O473  1  0.837600  0.921000  0.624400  1.0  -0.6448
  O  O474  1  0.719500  0.914000  0.705100  1.0  -0.5659
  O  O475  1  0.718300  0.805100  0.598800  1.0  -0.6157
  O  O476  1  0.083400  0.162400  0.624400  1.0  -0.6455
  O  O477  1  0.194500  0.280500  0.705100  1.0  -0.5675
  O  O478  1  0.086800  0.281700  0.598800  1.0  -0.6157
  O  O479  1  0.079000  0.916600  0.624400  1.0  -0.6435
  O  O480  1  0.086000  0.805500  0.705100  1.0  -0.5678
  O  O481  1  0.194900  0.913200  0.598800  1.0  -0.6169
  O  O482  1  0.162400  0.079000  0.124400  1.0  -0.6444
  O  O483  1  0.280500  0.086000  0.205100  1.0  -0.5657
  O  O484  1  0.281700  0.194900  0.098800  1.0  -0.6168
  O  O485  1  0.916600  0.837600  0.124400  1.0  -0.6438
  O  O486  1  0.805500  0.719500  0.205100  1.0  -0.5683
  O  O487  1  0.913200  0.718300  0.098800  1.0  -0.6164
  O  O488  1  0.921000  0.083400  0.124400  1.0  -0.645
  O  O489  1  0.914000  0.194500  0.205100  1.0  -0.5677
  O  O490  1  0.805100  0.086800  0.098800  1.0  -0.6168
