# generated using pymatgen
data_Cd3H16(CO)28
_symmetry_space_group_name_H-M   'P 1'
_cell_length_a   18.11280000
_cell_length_b   8.79310000
_cell_length_c   19.20530000
_cell_angle_alpha   90.00000000
_cell_angle_beta   102.90900000
_cell_angle_gamma   90.00000000
_symmetry_Int_Tables_number   1
_chemical_formula_structural   Cd3H16(CO)28
_chemical_formula_sum   'Cd6 H32 C56 O56'
_cell_volume   2981.47588476
_cell_formula_units_Z   2
loop_
 _symmetry_equiv_pos_site_id
 _symmetry_equiv_pos_as_xyz
  1  'x, y, z'
loop_
 _atom_site_type_symbol
 _atom_site_label
 _atom_site_symmetry_multiplicity
 _atom_site_fract_x
 _atom_site_fract_y
 _atom_site_fract_z
 _atom_site_occupancy
 _atom_site_charge
  Cd  Cd1  1  0.208660  0.907030  0.047580  1.0  1.1221
  Cd  Cd2  1  0.791340  0.407030  0.452420  1.0  1.1202
  Cd  Cd3  1  0.791340  0.092970  0.952420  1.0  1.1122
  Cd  Cd4  1  0.208660  0.592970  0.547580  1.0  1.1138
  Cd  Cd5  1  0.000000  0.000000  0.000000  1.0  0.9933
  Cd  Cd6  1  0.000000  0.500000  0.500000  1.0  0.9933
  H  H7  1  0.987900  0.636500  0.949200  1.0  0.1438
  H  H8  1  0.040600  0.509300  0.929900  1.0  0.1364
  H  H9  1  0.020800  0.652400  0.880700  1.0  0.1455
  H  H10  1  0.257000  0.104900  0.894000  1.0  0.4004
  H  H11  1  0.994400  0.440000  0.682300  1.0  0.404
  H  H12  1  0.993400  0.221400  0.870300  1.0  0.3829
  H  H13  1  0.246300  0.323200  0.696800  1.0  0.4258
  H  H14  1  0.618100  0.260600  0.041900  1.0  0.3955
  H  H15  1  0.012100  0.136500  0.550800  1.0  0.1422
  H  H16  1  0.959400  0.009300  0.570100  1.0  0.1359
  H  H17  1  0.979200  0.152400  0.619300  1.0  0.144
  H  H18  1  0.743000  0.604900  0.606000  1.0  0.3994
  H  H19  1  0.005600  0.940000  0.817700  1.0  0.4057
  H  H20  1  0.006600  0.721400  0.629700  1.0  0.3827
  H  H21  1  0.753700  0.823200  0.803200  1.0  0.4223
  H  H22  1  0.381900  0.760600  0.458100  1.0  0.3957
  H  H23  1  0.012100  0.363500  0.050800  1.0  0.1423
  H  H24  1  0.959400  0.490700  0.070100  1.0  0.1361
  H  H25  1  0.979200  0.347600  0.119300  1.0  0.1443
  H  H26  1  0.743000  0.895100  0.106000  1.0  0.3995
  H  H27  1  0.005600  0.560000  0.317700  1.0  0.4057
  H  H28  1  0.006600  0.778600  0.129700  1.0  0.3835
  H  H29  1  0.753700  0.676800  0.303200  1.0  0.4218
  H  H30  1  0.381900  0.739400  0.958100  1.0  0.3939
  H  H31  1  0.987900  0.863500  0.449200  1.0  0.1439
  H  H32  1  0.040600  0.990700  0.429900  1.0  0.1359
  H  H33  1  0.020800  0.847600  0.380700  1.0  0.1455
  H  H34  1  0.257000  0.395100  0.394000  1.0  0.4004
  H  H35  1  0.994400  0.060000  0.182300  1.0  0.4041
  H  H36  1  0.993400  0.278600  0.370300  1.0  0.3832
  H  H37  1  0.246300  0.176800  0.196800  1.0  0.4259
  H  H38  1  0.618100  0.239400  0.541900  1.0  0.394
  C  C39  1  0.117100  0.419600  0.650600  1.0  0.7187
  C  C40  1  0.129300  0.217300  0.856000  1.0  -0.0435
  C  C41  1  0.058600  0.349200  0.752500  1.0  0.3629
  C  C42  1  0.062000  0.282600  0.818400  1.0  0.2491
  C  C43  1  0.097900  0.696300  0.971400  1.0  0.765
  C  C44  1  0.188600  0.286900  0.760600  1.0  0.2619
  C  C45  1  0.132700  0.142500  0.926700  1.0  0.7285
  C  C46  1  0.476500  0.090000  0.048200  1.0  0.3069
  C  C47  1  0.031000  0.616700  0.929100  1.0  -0.4296
  C  C48  1  0.192000  0.218100  0.826200  1.0  0.241
  C  C49  1  0.122000  0.350800  0.722800  1.0  -0.1552
  C  C50  1  0.355800  0.937100  0.037600  1.0  0.7178
  C  C51  1  0.431700  0.970000  0.018900  1.0  -0.1349
  C  C52  1  0.543900  0.119200  0.031300  1.0  0.3265
  C  C53  1  0.882900  0.919600  0.849400  1.0  0.7188
  C  C54  1  0.870700  0.717300  0.644000  1.0  -0.0422
  C  C55  1  0.941400  0.849200  0.747500  1.0  0.362
  C  C56  1  0.938000  0.782600  0.681600  1.0  0.2494
  C  C57  1  0.902100  0.196300  0.528600  1.0  0.7667
  C  C58  1  0.811400  0.786900  0.739400  1.0  0.2625
  C  C59  1  0.867300  0.642500  0.573300  1.0  0.7288
  C  C60  1  0.523500  0.590000  0.451800  1.0  0.3075
  C  C61  1  0.969000  0.116700  0.570900  1.0  -0.4302
  C  C62  1  0.808000  0.718100  0.673800  1.0  0.24
  C  C63  1  0.878000  0.850800  0.777200  1.0  -0.1572
  C  C64  1  0.644200  0.437100  0.462400  1.0  0.718
  C  C65  1  0.568300  0.470000  0.481100  1.0  -0.1361
  C  C66  1  0.456100  0.619200  0.468700  1.0  0.3246
  C  C67  1  0.882900  0.580400  0.349400  1.0  0.7195
  C  C68  1  0.870700  0.782700  0.144000  1.0  -0.0424
  C  C69  1  0.941400  0.650800  0.247500  1.0  0.3621
  C  C70  1  0.938000  0.717400  0.181600  1.0  0.25
  C  C71  1  0.902100  0.303700  0.028600  1.0  0.7662
  C  C72  1  0.811400  0.713100  0.239400  1.0  0.2626
  C  C73  1  0.867300  0.857500  0.073300  1.0  0.7288
  C  C74  1  0.523500  0.910000  0.951800  1.0  0.3096
  C  C75  1  0.969000  0.383300  0.070900  1.0  -0.4303
  C  C76  1  0.808000  0.781900  0.173800  1.0  0.2402
  C  C77  1  0.878000  0.649200  0.277200  1.0  -0.1575
  C  C78  1  0.644200  0.062900  0.962400  1.0  0.7181
  C  C79  1  0.568300  0.030000  0.981100  1.0  -0.1363
  C  C80  1  0.456100  0.880800  0.968700  1.0  0.3246
  C  C81  1  0.117100  0.080400  0.150600  1.0  0.7192
  C  C82  1  0.129300  0.282700  0.356000  1.0  -0.0436
  C  C83  1  0.058600  0.150800  0.252500  1.0  0.3628
  C  C84  1  0.062000  0.217400  0.318400  1.0  0.2498
  C  C85  1  0.097900  0.803700  0.471400  1.0  0.7651
  C  C86  1  0.188600  0.213100  0.260600  1.0  0.2621
  C  C87  1  0.132700  0.357500  0.426700  1.0  0.7284
  C  C88  1  0.476500  0.410000  0.548200  1.0  0.309
  C  C89  1  0.031000  0.883300  0.429100  1.0  -0.4297
  C  C90  1  0.192000  0.281900  0.326200  1.0  0.2408
  C  C91  1  0.122000  0.149200  0.222800  1.0  -0.1556
  C  C92  1  0.355800  0.562900  0.537600  1.0  0.7182
  C  C93  1  0.431700  0.530000  0.518900  1.0  -0.135
  C  C94  1  0.543900  0.380800  0.531300  1.0  0.3264
  O  O95  1  0.076300  0.159800  0.955200  1.0  -0.5968
  O  O96  1  0.178300  0.434200  0.629700  1.0  -0.6643
  O  O97  1  0.190800  0.066500  0.952800  1.0  -0.5967
  O  O98  1  0.053600  0.461300  0.616300  1.0  -0.6262
  O  O99  1  0.087400  0.815000  0.005400  1.0  -0.6818
  O  O100  1  0.316900  0.826400  0.008700  1.0  -0.6417
  O  O101  1  0.334200  0.023900  0.080100  1.0  -0.5728
  O  O102  1  0.259200  0.140600  0.855000  1.0  -0.4983
  O  O103  1  0.993000  0.408700  0.722200  1.0  -0.5001
  O  O104  1  0.462100  0.166100  0.101000  1.0  -0.5057
  O  O105  1  0.992300  0.282800  0.838000  1.0  -0.5511
  O  O106  1  0.255100  0.305000  0.739800  1.0  -0.4973
  O  O107  1  0.580200  0.249300  0.058100  1.0  -0.4609
  O  O108  1  0.163500  0.654000  0.972200  1.0  -0.5655
  O  O109  1  0.923700  0.659800  0.544800  1.0  -0.5947
  O  O110  1  0.821700  0.934200  0.870300  1.0  -0.6656
  O  O111  1  0.809200  0.566500  0.547200  1.0  -0.5965
  O  O112  1  0.946400  0.961300  0.883700  1.0  -0.6266
  O  O113  1  0.912600  0.315000  0.494600  1.0  -0.68
  O  O114  1  0.683100  0.326400  0.491300  1.0  -0.6407
  O  O115  1  0.665800  0.523900  0.419900  1.0  -0.574
  O  O116  1  0.740800  0.640600  0.645000  1.0  -0.4951
  O  O117  1  0.007000  0.908700  0.777800  1.0  -0.5017
  O  O118  1  0.537900  0.666100  0.399000  1.0  -0.5102
  O  O119  1  0.007700  0.782800  0.662000  1.0  -0.5498
  O  O120  1  0.744900  0.805000  0.760200  1.0  -0.4999
  O  O121  1  0.419800  0.749300  0.441900  1.0  -0.4625
  O  O122  1  0.836500  0.154000  0.527800  1.0  -0.5622
  O  O123  1  0.923700  0.840200  0.044800  1.0  -0.595
  O  O124  1  0.821700  0.565800  0.370300  1.0  -0.666
  O  O125  1  0.809200  0.933500  0.047200  1.0  -0.5961
  O  O126  1  0.946400  0.538700  0.383700  1.0  -0.6259
  O  O127  1  0.912600  0.185000  0.994600  1.0  -0.6796
  O  O128  1  0.683100  0.173600  0.991300  1.0  -0.6428
  O  O129  1  0.665800  0.976100  0.919900  1.0  -0.5752
  O  O130  1  0.740800  0.859400  0.145000  1.0  -0.4947
  O  O131  1  0.007000  0.591300  0.277800  1.0  -0.5012
  O  O132  1  0.537900  0.833900  0.899000  1.0  -0.5072
  O  O133  1  0.007700  0.717200  0.162000  1.0  -0.5502
  O  O134  1  0.744900  0.695000  0.260200  1.0  -0.5004
  O  O135  1  0.419800  0.750700  0.941900  1.0  -0.4603
  O  O136  1  0.836500  0.346000  0.027800  1.0  -0.5631
  O  O137  1  0.076300  0.340200  0.455200  1.0  -0.5964
  O  O138  1  0.178300  0.065800  0.129700  1.0  -0.6649
  O  O139  1  0.190800  0.433500  0.452800  1.0  -0.597
  O  O140  1  0.053600  0.038700  0.116300  1.0  -0.6262
  O  O141  1  0.087400  0.685000  0.505400  1.0  -0.6816
  O  O142  1  0.316900  0.673600  0.508700  1.0  -0.643
  O  O143  1  0.334200  0.476100  0.580100  1.0  -0.5742
  O  O144  1  0.259200  0.359400  0.355000  1.0  -0.4979
  O  O145  1  0.993000  0.091300  0.222200  1.0  -0.4998
  O  O146  1  0.462100  0.333900  0.601000  1.0  -0.5066
  O  O147  1  0.992300  0.217200  0.338000  1.0  -0.5507
  O  O148  1  0.255100  0.195000  0.239800  1.0  -0.4983
  O  O149  1  0.580200  0.250700  0.558100  1.0  -0.4616
  O  O150  1  0.163500  0.846000  0.472200  1.0  -0.5635
