# generated using pymatgen
data_MnH4(C2O)4
_symmetry_space_group_name_H-M   'P 1'
_cell_length_a   9.80600000
_cell_length_b   9.99800000
_cell_length_c   10.67400000
_cell_angle_alpha   99.98000000
_cell_angle_beta   111.38000000
_cell_angle_gamma   108.56000000
_symmetry_Int_Tables_number   1
_chemical_formula_structural   MnH4(C2O)4
_chemical_formula_sum   'Mn3 H12 C24 O12'
_cell_volume   872.75384324
_cell_formula_units_Z   3
loop_
 _symmetry_equiv_pos_site_id
 _symmetry_equiv_pos_as_xyz
  1  'x, y, z'
loop_
 _atom_site_type_symbol
 _atom_site_label
 _atom_site_symmetry_multiplicity
 _atom_site_fract_x
 _atom_site_fract_y
 _atom_site_fract_z
 _atom_site_occupancy
 _atom_site_charge
  Mn  Mn1  1  0.070090  0.886840  0.701960  1.0  1.131
  Mn  Mn2  1  0.929910  0.113160  0.298040  1.0  1.1306
  Mn  Mn3  1  0.000000  0.000000  0.000000  1.0  1.1923
  H  H4  1  0.652900  0.929100  0.403300  1.0  0.1065
  H  H5  1  0.482500  0.312200  0.826300  1.0  0.0943
  H  H6  1  0.428200  0.955400  0.259900  1.0  0.1052
  H  H7  1  0.517500  0.687800  0.173700  1.0  0.0939
  H  H8  1  0.160700  0.605500  0.243800  1.0  0.1068
  H  H9  1  0.347100  0.070900  0.596700  1.0  0.1066
  H  H10  1  0.855200  0.243900  0.897600  1.0  0.093
  H  H11  1  0.144800  0.756100  0.102400  1.0  0.0931
  H  H12  1  0.325300  0.447600  0.101200  1.0  0.0905
  H  H13  1  0.571800  0.044600  0.740100  1.0  0.1054
  H  H14  1  0.839300  0.394500  0.756200  1.0  0.107
  H  H15  1  0.674700  0.552400  0.898800  1.0  0.0909
  C  C16  1  0.617600  0.644800  0.044600  1.0  -0.1322
  C  C17  1  0.395100  0.468400  0.060100  1.0  -0.0348
  C  C18  1  0.364400  0.015900  0.412900  1.0  -0.1374
  C  C19  1  0.086200  0.653200  0.061300  1.0  -0.0174
  C  C20  1  0.913800  0.346800  0.938700  1.0  -0.0174
  C  C21  1  0.255100  0.198900  0.906900  1.0  0.7218
  C  C22  1  0.010800  0.408800  0.084600  1.0  -0.1436
  C  C23  1  0.218000  0.033000  0.318300  1.0  0.7443
  C  C24  1  0.489100  0.387600  0.895900  1.0  -0.0461
  C  C25  1  0.782000  0.967000  0.681700  1.0  0.7429
  C  C26  1  0.635600  0.984100  0.587100  1.0  -0.1378
  C  C27  1  0.604900  0.531600  0.939900  1.0  -0.0346
  C  C28  1  0.457000  0.973400  0.356500  1.0  -0.0458
  C  C29  1  0.984000  0.690400  0.825600  1.0  0.6817
  C  C30  1  0.382400  0.355200  0.955400  1.0  -0.1323
  C  C31  1  0.744900  0.801100  0.093100  1.0  0.7216
  C  C32  1  0.543000  0.026600  0.643500  1.0  -0.0457
  C  C33  1  0.591600  0.957500  0.442100  1.0  -0.0667
  C  C34  1  0.016000  0.309600  0.174400  1.0  0.6848
  C  C35  1  0.096500  0.563000  0.145900  1.0  -0.0367
  C  C36  1  0.989200  0.591200  0.915400  1.0  -0.1438
  C  C37  1  0.510900  0.612400  0.104100  1.0  -0.0465
  C  C38  1  0.903500  0.437000  0.854100  1.0  -0.0371
  C  C39  1  0.408400  0.042500  0.557900  1.0  -0.0667
  O  O40  1  0.121100  0.043500  0.368920  1.0  -0.6367
  O  O41  1  0.245800  0.104220  0.805890  1.0  -0.6003
  O  O42  1  0.800600  0.965010  0.803260  1.0  -0.6165
  O  O43  1  0.831420  0.826020  0.030410  1.0  -0.635
  O  O44  1  0.944890  0.168310  0.111550  1.0  -0.6754
  O  O45  1  0.921200  0.638480  0.692790  1.0  -0.645
  O  O46  1  0.754200  0.895780  0.194110  1.0  -0.6019
  O  O47  1  0.199400  0.034990  0.196740  1.0  -0.617
  O  O48  1  0.168580  0.173980  0.969590  1.0  -0.637
  O  O49  1  0.878900  0.956500  0.631080  1.0  -0.6378
  O  O50  1  0.078800  0.361520  0.307210  1.0  -0.6448
  O  O51  1  0.055110  0.831690  0.888450  1.0  -0.6742
