# generated using pymatgen
data_NaCuH8(C2O)8
_symmetry_space_group_name_H-M   'P 1'
_cell_length_a   17.76370000
_cell_length_b   11.71350000
_cell_length_c   11.21930000
_cell_angle_alpha   90.00000000
_cell_angle_beta   109.50800000
_cell_angle_gamma   90.00000000
_symmetry_Int_Tables_number   1
_chemical_formula_structural   NaCuH8(C2O)8
_chemical_formula_sum   'Na4 Cu4 H32 C64 O32'
_cell_volume   2200.44717167
_cell_formula_units_Z   4
loop_
 _symmetry_equiv_pos_site_id
 _symmetry_equiv_pos_as_xyz
  1  'x, y, z'
loop_
 _atom_site_type_symbol
 _atom_site_label
 _atom_site_symmetry_multiplicity
 _atom_site_fract_x
 _atom_site_fract_y
 _atom_site_fract_z
 _atom_site_occupancy
 _atom_site_charge
  Na  Na1  1  0.000000  0.000000  0.500000  1.0  0.9353
  Na  Na2  1  0.500000  0.500000  0.500000  1.0  0.9353
  Na  Na3  1  0.000000  0.000000  0.000000  1.0  0.9353
  Na  Na4  1  0.500000  0.500000  0.000000  1.0  0.9353
  Cu  Cu5  1  0.000000  0.864720  0.250000  1.0  1.0664
  Cu  Cu6  1  0.500000  0.364720  0.250000  1.0  1.0659
  Cu  Cu7  1  0.000000  0.135280  0.750000  1.0  1.0654
  Cu  Cu8  1  0.500000  0.635280  0.750000  1.0  1.0648
  H  H9  1  0.187700  0.053800  0.164500  1.0  0.1104
  H  H10  1  0.302800  0.153400  0.180800  1.0  0.1232
  H  H11  1  0.350700  0.182300  0.554500  1.0  0.1244
  H  H12  1  0.238700  0.075500  0.539300  1.0  0.1144
  H  H13  1  0.687700  0.553800  0.164500  1.0  0.1104
  H  H14  1  0.802800  0.653400  0.180800  1.0  0.1232
  H  H15  1  0.850700  0.682300  0.554500  1.0  0.1244
  H  H16  1  0.738700  0.575500  0.539300  1.0  0.1144
  H  H17  1  0.812300  0.053800  0.335500  1.0  0.1107
  H  H18  1  0.697200  0.153400  0.319200  1.0  0.1232
  H  H19  1  0.649300  0.182300  0.945500  1.0  0.124
  H  H20  1  0.761300  0.075500  0.960700  1.0  0.1143
  H  H21  1  0.312300  0.553800  0.335500  1.0  0.1107
  H  H22  1  0.197200  0.653400  0.319200  1.0  0.1232
  H  H23  1  0.149300  0.682300  0.945500  1.0  0.124
  H  H24  1  0.261300  0.575500  0.960700  1.0  0.1143
  H  H25  1  0.812300  0.946200  0.835500  1.0  0.1106
  H  H26  1  0.697200  0.846600  0.819200  1.0  0.1232
  H  H27  1  0.649300  0.817700  0.445500  1.0  0.1236
  H  H28  1  0.761300  0.924500  0.460700  1.0  0.1144
  H  H29  1  0.312300  0.446200  0.835500  1.0  0.1106
  H  H30  1  0.197200  0.346600  0.819200  1.0  0.1232
  H  H31  1  0.149300  0.317700  0.445500  1.0  0.1236
  H  H32  1  0.261300  0.424500  0.460700  1.0  0.1144
  H  H33  1  0.187700  0.946200  0.664500  1.0  0.1103
  H  H34  1  0.302800  0.846600  0.680800  1.0  0.1229
  H  H35  1  0.350700  0.817700  0.054500  1.0  0.1239
  H  H36  1  0.238700  0.924500  0.039300  1.0  0.1141
  H  H37  1  0.687700  0.446200  0.664500  1.0  0.1103
  H  H38  1  0.802800  0.346600  0.680800  1.0  0.1229
  H  H39  1  0.850700  0.317700  0.054500  1.0  0.1239
  H  H40  1  0.738700  0.424500  0.039300  1.0  0.1141
  C  C41  1  0.200560  0.055700  0.350100  1.0  -0.1139
  C  C42  1  0.220590  0.079100  0.243200  1.0  -0.029
  C  C43  1  0.289320  0.139900  0.252800  1.0  -0.0326
  C  C44  1  0.338330  0.180800  0.369100  1.0  -0.1177
  C  C45  1  0.318280  0.156100  0.475800  1.0  -0.0258
  C  C46  1  0.250600  0.092900  0.466700  1.0  -0.0295
  C  C47  1  0.124460  0.993200  0.338700  1.0  0.6913
  C  C48  1  0.410690  0.253200  0.379600  1.0  0.697
  C  C49  1  0.700560  0.555700  0.350100  1.0  -0.1139
  C  C50  1  0.720590  0.579100  0.243200  1.0  -0.029
  C  C51  1  0.789320  0.639900  0.252800  1.0  -0.0326
  C  C52  1  0.838330  0.680800  0.369100  1.0  -0.1177
  C  C53  1  0.818280  0.656100  0.475800  1.0  -0.0258
  C  C54  1  0.750600  0.592900  0.466700  1.0  -0.0295
  C  C55  1  0.624460  0.493200  0.338700  1.0  0.6913
  C  C56  1  0.910690  0.753200  0.379600  1.0  0.697
  C  C57  1  0.799440  0.055700  0.149900  1.0  -0.1123
  C  C58  1  0.779410  0.079100  0.256800  1.0  -0.0297
  C  C59  1  0.710680  0.139900  0.247200  1.0  -0.0305
  C  C60  1  0.661670  0.180800  0.130900  1.0  -0.1192
  C  C61  1  0.681720  0.156100  0.024200  1.0  -0.023
  C  C62  1  0.749400  0.092900  0.033300  1.0  -0.0276
  C  C63  1  0.875540  0.993200  0.161300  1.0  0.6915
  C  C64  1  0.589310  0.253200  0.120400  1.0  0.6971
  C  C65  1  0.299440  0.555700  0.149900  1.0  -0.1123
  C  C66  1  0.279410  0.579100  0.256800  1.0  -0.0297
  C  C67  1  0.210680  0.639900  0.247200  1.0  -0.0305
  C  C68  1  0.161670  0.680800  0.130900  1.0  -0.1192
  C  C69  1  0.181720  0.656100  0.024200  1.0  -0.023
  C  C70  1  0.249400  0.592900  0.033300  1.0  -0.0276
  C  C71  1  0.375540  0.493200  0.161300  1.0  0.6915
  C  C72  1  0.089310  0.753200  0.120400  1.0  0.6971
  C  C73  1  0.799440  0.944300  0.649900  1.0  -0.1133
  C  C74  1  0.779410  0.920900  0.756800  1.0  -0.0296
  C  C75  1  0.710680  0.860100  0.747200  1.0  -0.0309
  C  C76  1  0.661670  0.819200  0.630900  1.0  -0.1177
  C  C77  1  0.681720  0.843900  0.524200  1.0  -0.0235
  C  C78  1  0.749400  0.907100  0.533300  1.0  -0.0272
  C  C79  1  0.875540  0.006800  0.661300  1.0  0.6918
  C  C80  1  0.589310  0.746800  0.620400  1.0  0.6968
  C  C81  1  0.299440  0.444300  0.649900  1.0  -0.1133
  C  C82  1  0.279410  0.420900  0.756800  1.0  -0.0296
  C  C83  1  0.210680  0.360100  0.747200  1.0  -0.0309
  C  C84  1  0.161670  0.319200  0.630900  1.0  -0.1177
  C  C85  1  0.181720  0.343900  0.524200  1.0  -0.0235
  C  C86  1  0.249400  0.407100  0.533300  1.0  -0.0272
  C  C87  1  0.375540  0.506800  0.661300  1.0  0.6918
  C  C88  1  0.089310  0.246800  0.620400  1.0  0.6968
  C  C89  1  0.200560  0.944300  0.850100  1.0  -0.114
  C  C90  1  0.220590  0.920900  0.743200  1.0  -0.0287
  C  C91  1  0.289320  0.860100  0.752800  1.0  -0.0319
  C  C92  1  0.338330  0.819200  0.869100  1.0  -0.1175
  C  C93  1  0.318280  0.843900  0.975800  1.0  -0.0261
  C  C94  1  0.250600  0.907100  0.966700  1.0  -0.0293
  C  C95  1  0.124460  0.006800  0.838700  1.0  0.6914
  C  C96  1  0.410690  0.746800  0.879600  1.0  0.6964
  C  C97  1  0.700560  0.444300  0.850100  1.0  -0.114
  C  C98  1  0.720590  0.420900  0.743200  1.0  -0.0287
  C  C99  1  0.789320  0.360100  0.752800  1.0  -0.0319
  C  C100  1  0.838330  0.319200  0.869100  1.0  -0.1175
  C  C101  1  0.818280  0.343900  0.975800  1.0  -0.0261
  C  C102  1  0.750600  0.407100  0.966700  1.0  -0.0293
  C  C103  1  0.624460  0.506800  0.838700  1.0  0.6914
  C  C104  1  0.910690  0.246800  0.879600  1.0  0.6964
  O  O105  1  0.073530  0.984430  0.227790  1.0  -0.6259
  O  O106  1  0.113960  0.952620  0.433880  1.0  -0.668
  O  O107  1  0.443170  0.308700  0.475740  1.0  -0.6324
  O  O108  1  0.431940  0.249150  0.280900  1.0  -0.5878
  O  O109  1  0.573530  0.484430  0.227790  1.0  -0.6259
  O  O110  1  0.613960  0.452620  0.433880  1.0  -0.668
  O  O111  1  0.943170  0.808700  0.475740  1.0  -0.6324
  O  O112  1  0.931940  0.749150  0.280900  1.0  -0.5877
  O  O113  1  0.926470  0.984430  0.272210  1.0  -0.625
  O  O114  1  0.886040  0.952620  0.066120  1.0  -0.6695
  O  O115  1  0.556830  0.308700  0.024260  1.0  -0.6322
  O  O116  1  0.568060  0.249150  0.219100  1.0  -0.5895
  O  O117  1  0.426470  0.484430  0.272210  1.0  -0.625
  O  O118  1  0.386040  0.452620  0.066120  1.0  -0.6695
  O  O119  1  0.056830  0.808700  0.024260  1.0  -0.6322
  O  O120  1  0.068060  0.749150  0.219100  1.0  -0.5894
  O  O121  1  0.926470  0.015570  0.772210  1.0  -0.6245
  O  O122  1  0.886040  0.047380  0.566120  1.0  -0.6689
  O  O123  1  0.556830  0.691300  0.524260  1.0  -0.6333
  O  O124  1  0.568060  0.750850  0.719100  1.0  -0.5895
  O  O125  1  0.426470  0.515570  0.772210  1.0  -0.6245
  O  O126  1  0.386040  0.547380  0.566120  1.0  -0.6689
  O  O127  1  0.056830  0.191300  0.524260  1.0  -0.6333
  O  O128  1  0.068060  0.250850  0.719100  1.0  -0.5894
  O  O129  1  0.073530  0.015570  0.727790  1.0  -0.6259
  O  O130  1  0.113960  0.047380  0.933880  1.0  -0.6687
  O  O131  1  0.443170  0.691300  0.975740  1.0  -0.6332
  O  O132  1  0.431940  0.750850  0.780900  1.0  -0.5881
  O  O133  1  0.573530  0.515570  0.727790  1.0  -0.6259
  O  O134  1  0.613960  0.547380  0.933880  1.0  -0.6687
  O  O135  1  0.943170  0.191300  0.975740  1.0  -0.6332
  O  O136  1  0.931940  0.250850  0.780900  1.0  -0.5882
