# generated using pymatgen
data_Ni2H7C16O9
_symmetry_space_group_name_H-M   'P 1'
_cell_length_a   14.72600000
_cell_length_b   9.22100000
_cell_length_c   16.96900000
_cell_angle_alpha   90.00000000
_cell_angle_beta   90.33200000
_cell_angle_gamma   90.00000000
_symmetry_Int_Tables_number   1
_chemical_formula_structural   Ni2H7C16O9
_chemical_formula_sum   'Ni8 H28 C64 O36'
_cell_volume   2304.15545730
_cell_formula_units_Z   4
loop_
 _symmetry_equiv_pos_site_id
 _symmetry_equiv_pos_as_xyz
  1  'x, y, z'
loop_
 _atom_site_type_symbol
 _atom_site_label
 _atom_site_symmetry_multiplicity
 _atom_site_fract_x
 _atom_site_fract_y
 _atom_site_fract_z
 _atom_site_occupancy
 _atom_site_charge
  Ni  Ni1  1  0.980950  0.837560  0.995140  1.0  1.015
  Ni  Ni2  1  0.194650  0.906550  0.038510  1.0  0.9709
  Ni  Ni3  1  0.519050  0.337560  0.504860  1.0  1.0143
  Ni  Ni4  1  0.305350  0.406550  0.461490  1.0  0.9722
  Ni  Ni5  1  0.019050  0.162440  0.004860  1.0  1.0175
  Ni  Ni6  1  0.805350  0.093450  0.961490  1.0  0.9724
  Ni  Ni7  1  0.480950  0.662440  0.495140  1.0  1.0205
  Ni  Ni8  1  0.694650  0.593450  0.538510  1.0  0.9709
  H  H9  1  0.053900  0.975300  0.106600  1.0  0.4404
  H  H10  1  0.296900  0.817800  0.834600  1.0  0.1186
  H  H11  1  0.368700  0.767400  0.717900  1.0  0.1281
  H  H12  1  0.141600  0.581600  0.635900  1.0  0.1305
  H  H13  1  0.986100  0.661600  0.651400  1.0  0.1363
  H  H14  1  0.811200  0.404900  0.766500  1.0  0.1337
  H  H15  1  0.055000  0.494800  0.862500  1.0  0.1323
  H  H16  1  0.446100  0.475300  0.393400  1.0  0.4423
  H  H17  1  0.203100  0.317800  0.665400  1.0  0.1192
  H  H18  1  0.131300  0.267400  0.782100  1.0  0.1271
  H  H19  1  0.358400  0.081600  0.864100  1.0  0.1304
  H  H20  1  0.513900  0.161600  0.848600  1.0  0.136
  H  H21  1  0.688800  0.904900  0.733500  1.0  0.1338
  H  H22  1  0.445000  0.994800  0.637500  1.0  0.1323
  H  H23  1  0.946100  0.024700  0.893400  1.0  0.4425
  H  H24  1  0.703100  0.182200  0.165400  1.0  0.1184
  H  H25  1  0.631300  0.232600  0.282100  1.0  0.1274
  H  H26  1  0.858400  0.418400  0.364100  1.0  0.1302
  H  H27  1  0.013900  0.338400  0.348600  1.0  0.1362
  H  H28  1  0.188800  0.595100  0.233500  1.0  0.1336
  H  H29  1  0.945000  0.505200  0.137500  1.0  0.1323
  H  H30  1  0.553900  0.524700  0.606600  1.0  0.4411
  H  H31  1  0.796900  0.682200  0.334600  1.0  0.1194
  H  H32  1  0.868700  0.732600  0.217900  1.0  0.128
  H  H33  1  0.641600  0.918400  0.135900  1.0  0.1302
  H  H34  1  0.486100  0.838400  0.151400  1.0  0.1364
  H  H35  1  0.311200  0.095100  0.266500  1.0  0.1335
  H  H36  1  0.555000  0.005200  0.362500  1.0  0.1321
  C  C37  1  0.127700  0.653600  0.747800  1.0  0.0536
  C  C38  1  0.175200  0.727300  0.808200  1.0  -0.0893
  C  C39  1  0.265300  0.768900  0.795100  1.0  -0.0637
  C  C40  1  0.308600  0.739300  0.724800  1.0  -0.0313
  C  C41  1  0.262700  0.668000  0.664900  1.0  -0.1275
  C  C42  1  0.172900  0.627500  0.676600  1.0  -0.1039
  C  C43  1  0.035500  0.590500  0.755800  1.0  0.0378
  C  C44  1  0.972200  0.604200  0.694800  1.0  -0.0383
  C  C45  1  0.888200  0.532900  0.697500  1.0  -0.1226
  C  C46  1  0.867400  0.450400  0.763200  1.0  0.0539
  C  C47  1  0.930000  0.434900  0.824400  1.0  -0.1159
  C  C48  1  0.013700  0.504900  0.821200  1.0  -0.0383
  C  C49  1  0.135200  0.772800  0.886200  1.0  0.7169
  C  C50  1  0.311100  0.628400  0.590100  1.0  0.7233
  C  C51  1  0.820300  0.550000  0.633400  1.0  0.6833
  C  C52  1  0.908700  0.337100  0.893700  1.0  0.7442
  C  C53  1  0.372300  0.153600  0.752200  1.0  0.0549
  C  C54  1  0.324800  0.227300  0.691800  1.0  -0.0881
  C  C55  1  0.234700  0.268900  0.704900  1.0  -0.0636
  C  C56  1  0.191400  0.239300  0.775200  1.0  -0.031
  C  C57  1  0.237300  0.168000  0.835100  1.0  -0.1278
  C  C58  1  0.327100  0.127500  0.823400  1.0  -0.1027
  C  C59  1  0.464500  0.090500  0.744200  1.0  0.038
  C  C60  1  0.527800  0.104200  0.805200  1.0  -0.039
  C  C61  1  0.611800  0.032900  0.802500  1.0  -0.1233
  C  C62  1  0.632600  0.950400  0.736800  1.0  0.0544
  C  C63  1  0.570000  0.934900  0.675600  1.0  -0.1161
  C  C64  1  0.486300  0.004900  0.678800  1.0  -0.038
  C  C65  1  0.364800  0.272800  0.613800  1.0  0.717
  C  C66  1  0.188900  0.128400  0.909900  1.0  0.7209
  C  C67  1  0.679700  0.050000  0.866600  1.0  0.6808
  C  C68  1  0.591300  0.837100  0.606300  1.0  0.7432
  C  C69  1  0.872300  0.346400  0.252200  1.0  0.0557
  C  C70  1  0.824800  0.272700  0.191800  1.0  -0.0882
  C  C71  1  0.734700  0.231100  0.204900  1.0  -0.0639
  C  C72  1  0.691400  0.260700  0.275200  1.0  -0.031
  C  C73  1  0.737300  0.332000  0.335100  1.0  -0.1279
  C  C74  1  0.827100  0.372500  0.323400  1.0  -0.1023
  C  C75  1  0.964500  0.409500  0.244200  1.0  0.0375
  C  C76  1  0.027800  0.395800  0.305200  1.0  -0.0379
  C  C77  1  0.111800  0.467100  0.302500  1.0  -0.1232
  C  C78  1  0.132600  0.549600  0.236800  1.0  0.0542
  C  C79  1  0.070000  0.565100  0.175600  1.0  -0.1156
  C  C80  1  0.986300  0.495100  0.178800  1.0  -0.0381
  C  C81  1  0.864800  0.227200  0.113800  1.0  0.7161
  C  C82  1  0.688900  0.371600  0.409900  1.0  0.7209
  C  C83  1  0.179700  0.450000  0.366600  1.0  0.681
  C  C84  1  0.091300  0.662900  0.106300  1.0  0.7443
  C  C85  1  0.627700  0.846400  0.247800  1.0  0.0537
  C  C86  1  0.675200  0.772700  0.308200  1.0  -0.0898
  C  C87  1  0.765300  0.731100  0.295100  1.0  -0.0641
  C  C88  1  0.808600  0.760700  0.224800  1.0  -0.0314
  C  C89  1  0.762700  0.832000  0.164900  1.0  -0.1286
  C  C90  1  0.672900  0.872500  0.176600  1.0  -0.1035
  C  C91  1  0.535500  0.909500  0.255800  1.0  0.0372
  C  C92  1  0.472200  0.895800  0.194800  1.0  -0.0385
  C  C93  1  0.388200  0.967100  0.197500  1.0  -0.1225
  C  C94  1  0.367400  0.049600  0.263200  1.0  0.0538
  C  C95  1  0.430000  0.065100  0.324400  1.0  -0.1159
  C  C96  1  0.513700  0.995100  0.321200  1.0  -0.0385
  C  C97  1  0.635200  0.727200  0.386200  1.0  0.716
  C  C98  1  0.811100  0.871600  0.090100  1.0  0.7212
  C  C99  1  0.320300  0.950000  0.133400  1.0  0.6835
  C  C100  1  0.408700  0.162900  0.393700  1.0  0.745
  O  O101  1  0.053800  0.804600  0.890500  1.0  -0.5597
  O  O102  1  0.191900  0.776000  0.943000  1.0  -0.5869
  O  O103  1  0.395600  0.647600  0.590900  1.0  -0.5726
  O  O104  1  0.264100  0.577500  0.533800  1.0  -0.613
  O  O105  1  0.835700  0.629500  0.574500  1.0  -0.5278
  O  O106  1  0.744600  0.484500  0.638900  1.0  -0.5175
  O  O107  1  0.836700  0.264100  0.889400  1.0  -0.5719
  O  O108  1  0.963600  0.339700  0.950300  1.0  -0.598
  O  O109  1  0.068300  0.976300  0.050200  1.0  -0.9435
  O  O110  1  0.446200  0.304600  0.609500  1.0  -0.56
  O  O111  1  0.308100  0.276000  0.557000  1.0  -0.5875
  O  O112  1  0.104400  0.147600  0.909100  1.0  -0.5712
  O  O113  1  0.235900  0.077500  0.966200  1.0  -0.6129
  O  O114  1  0.664300  0.129500  0.925500  1.0  -0.5283
  O  O115  1  0.755400  0.984500  0.861100  1.0  -0.5174
  O  O116  1  0.663300  0.764100  0.610600  1.0  -0.5711
  O  O117  1  0.536400  0.839700  0.549700  1.0  -0.5982
  O  O118  1  0.431700  0.476300  0.449800  1.0  -0.9422
  O  O119  1  0.946200  0.195400  0.109500  1.0  -0.5597
  O  O120  1  0.808100  0.224000  0.057000  1.0  -0.588
  O  O121  1  0.604400  0.352400  0.409100  1.0  -0.5716
  O  O122  1  0.735900  0.422500  0.466200  1.0  -0.6123
  O  O123  1  0.164300  0.370500  0.425500  1.0  -0.5284
  O  O124  1  0.255400  0.515500  0.361100  1.0  -0.5179
  O  O125  1  0.163300  0.735900  0.110600  1.0  -0.5706
  O  O126  1  0.036400  0.660300  0.049700  1.0  -0.5986
  O  O127  1  0.931700  0.023700  0.949800  1.0  -0.9405
  O  O128  1  0.553800  0.695400  0.390500  1.0  -0.5597
  O  O129  1  0.691900  0.724000  0.443000  1.0  -0.5871
  O  O130  1  0.895600  0.852400  0.090900  1.0  -0.5725
  O  O131  1  0.764100  0.922500  0.033800  1.0  -0.6125
  O  O132  1  0.335700  0.870500  0.074500  1.0  -0.5281
  O  O133  1  0.244600  0.015500  0.138900  1.0  -0.5181
  O  O134  1  0.336700  0.235900  0.389400  1.0  -0.5717
  O  O135  1  0.463600  0.160300  0.450300  1.0  -0.5976
  O  O136  1  0.568300  0.523700  0.550200  1.0  -0.9427
