# generated using pymatgen
data_Co2H18C24N4O9
_symmetry_space_group_name_H-M   'P 1'
_cell_length_a   10.53440000
_cell_length_b   11.90730000
_cell_length_c   14.04610000
_cell_angle_alpha   106.64500000
_cell_angle_beta   101.97700000
_cell_angle_gamma   112.07800000
_symmetry_Int_Tables_number   1
_chemical_formula_structural   Co2H18C24N4O9
_chemical_formula_sum   'Co4 H36 C48 N8 O18'
_cell_volume   1462.39612094
_cell_formula_units_Z   2
loop_
 _symmetry_equiv_pos_site_id
 _symmetry_equiv_pos_as_xyz
  1  'x, y, z'
loop_
 _atom_site_type_symbol
 _atom_site_label
 _atom_site_symmetry_multiplicity
 _atom_site_fract_x
 _atom_site_fract_y
 _atom_site_fract_z
 _atom_site_occupancy
 _atom_site_charge
  Co  Co1  1  0.808510  0.008640  0.787200  1.0  0.951
  Co  Co2  1  0.448710  0.729200  0.688370  1.0  0.946
  Co  Co3  1  0.191490  0.991360  0.212800  1.0  0.9507
  Co  Co4  1  0.551290  0.270800  0.311630  1.0  0.9449
  H  H5  1  0.564000  0.975000  0.790000  1.0  0.41
  H  H6  1  0.524000  0.955000  0.689000  1.0  0.3976
  H  H7  1  0.845800  0.850600  0.469900  1.0  0.1112
  H  H8  1  0.861200  0.723100  0.315100  1.0  0.1088
  H  H9  1  0.744900  0.496000  0.253600  1.0  0.0748
  H  H10  1  0.614200  0.512300  0.496400  1.0  0.0928
  H  H11  1  0.861800  0.430400  0.638800  1.0  0.0914
  H  H12  1  0.006300  0.481600  0.811700  1.0  0.1189
  H  H13  1  0.982700  0.312500  0.866800  1.0  0.0891
  H  H14  1  0.694400  0.044300  0.585600  1.0  0.0852
  H  H15  1  0.560400  0.819400  0.038900  1.0  0.1134
  H  H16  1  0.676800  0.894100  0.223900  1.0  0.1268
  H  H17  1  0.923200  0.956200  0.292500  1.0  0.0797
  H  H18  1  0.952700  0.892800  0.010200  1.0  0.0783
  H  H19  1  0.006700  0.226200  0.138400  1.0  0.1159
  H  H20  1  0.059400  0.307400  0.323200  1.0  0.1118
  H  H21  1  0.882100  0.325400  0.389300  1.0  0.0766
  H  H22  1  0.592900  0.165800  0.100400  1.0  0.0831
  H  H23  1  0.436000  0.025000  0.210000  1.0  0.4097
  H  H24  1  0.476000  0.045000  0.311000  1.0  0.3955
  H  H25  1  0.154200  0.149400  0.530100  1.0  0.1116
  H  H26  1  0.138800  0.276900  0.684900  1.0  0.1097
  H  H27  1  0.255100  0.504000  0.746400  1.0  0.0751
  H  H28  1  0.385800  0.487700  0.503600  1.0  0.0921
  H  H29  1  0.138200  0.569600  0.361200  1.0  0.0921
  H  H30  1  0.993700  0.518400  0.188300  1.0  0.1191
  H  H31  1  0.017300  0.687500  0.133200  1.0  0.0894
  H  H32  1  0.305600  0.955700  0.414400  1.0  0.0841
  H  H33  1  0.439600  0.180600  0.961100  1.0  0.1131
  H  H34  1  0.323200  0.105900  0.776100  1.0  0.1273
  H  H35  1  0.076800  0.043800  0.707500  1.0  0.0795
  H  H36  1  0.047300  0.107200  0.989800  1.0  0.0798
  H  H37  1  0.993300  0.773800  0.861600  1.0  0.1163
  H  H38  1  0.940600  0.692600  0.676800  1.0  0.1119
  H  H39  1  0.117900  0.674600  0.610700  1.0  0.0764
  H  H40  1  0.407100  0.834200  0.899600  1.0  0.0811
  C  C41  1  0.700400  0.766700  0.593900  1.0  0.6927
  C  C42  1  0.724200  0.692400  0.498100  1.0  -0.2244
  C  C43  1  0.800400  0.756800  0.444400  1.0  0.0274
  C  C44  1  0.808900  0.681600  0.353200  1.0  -0.1646
  C  C45  1  0.741100  0.546400  0.318000  1.0  0.1691
  C  C46  1  0.663800  0.556400  0.458400  1.0  0.1795
  C  C47  1  0.666900  0.190600  0.481300  1.0  0.6674
  C  C48  1  0.762900  0.230000  0.593900  1.0  -0.1943
  C  C49  1  0.856100  0.361900  0.662200  1.0  0.0314
  C  C50  1  0.940200  0.392400  0.764400  1.0  -0.1683
  C  C51  1  0.926000  0.291000  0.796000  1.0  0.167
  C  C52  1  0.757200  0.134500  0.632100  1.0  0.184
  C  C53  1  0.690800  0.817000  0.888200  1.0  0.6878
  C  C54  1  0.747400  0.850300  0.005600  1.0  -0.1773
  C  C55  1  0.662500  0.848700  0.068900  1.0  -0.0049
  C  C56  1  0.731200  0.891200  0.177900  1.0  -0.18
  C  C57  1  0.878200  0.928800  0.218200  1.0  0.1593
  C  C58  1  0.894600  0.891100  0.053700  1.0  0.1893
  C  C59  1  0.743100  0.130700  0.980400  1.0  0.6723
  C  C60  1  0.792400  0.189200  0.100100  1.0  -0.221
  C  C61  1  0.933500  0.231000  0.166700  1.0  -0.0004
  C  C62  1  0.964600  0.280100  0.275700  1.0  -0.1815
  C  C63  1  0.858000  0.289100  0.314500  1.0  0.1634
  C  C64  1  0.690300  0.197800  0.146000  1.0  0.1844
  C  C65  1  0.299600  0.233300  0.406100  1.0  0.6929
  C  C66  1  0.275800  0.307600  0.501900  1.0  -0.2251
  C  C67  1  0.199600  0.243200  0.555600  1.0  0.026
  C  C68  1  0.191100  0.318400  0.646800  1.0  -0.1648
  C  C69  1  0.258900  0.453600  0.682000  1.0  0.1702
  C  C70  1  0.336200  0.443600  0.541600  1.0  0.1792
  C  C71  1  0.333100  0.809400  0.518700  1.0  0.6674
  C  C72  1  0.237100  0.770000  0.406100  1.0  -0.1936
  C  C73  1  0.143900  0.638100  0.337800  1.0  0.0305
  C  C74  1  0.059800  0.607600  0.235600  1.0  -0.1692
  C  C75  1  0.074000  0.709000  0.204000  1.0  0.1671
  C  C76  1  0.242800  0.865500  0.367900  1.0  0.183
  C  C77  1  0.309200  0.183000  0.111800  1.0  0.6887
  C  C78  1  0.252600  0.149700  0.994400  1.0  -0.1785
  C  C79  1  0.337500  0.151300  0.931100  1.0  0.016
  C  C80  1  0.268800  0.108800  0.822100  1.0  -0.1783
  C  C81  1  0.121800  0.071200  0.781800  1.0  0.1581
  C  C82  1  0.105400  0.108900  0.946300  1.0  0.19
  C  C83  1  0.256900  0.869300  0.019600  1.0  0.6716
  C  C84  1  0.207600  0.810800  0.899900  1.0  -0.2207
  C  C85  1  0.066500  0.769000  0.833300  1.0  -0.0009
  C  C86  1  0.035400  0.719900  0.724300  1.0  -0.1835
  C  C87  1  0.142000  0.710900  0.685500  1.0  0.1641
  C  C88  1  0.309700  0.802200  0.854000  1.0  0.1844
  N  N89  1  0.670700  0.482300  0.369000  1.0  -0.3386
  N  N90  1  0.836000  0.162400  0.732100  1.0  -0.3642
  N  N91  1  0.960500  0.928600  0.158100  1.0  -0.3458
  N  N92  1  0.721400  0.248900  0.251600  1.0  -0.3666
  N  N93  1  0.329300  0.517700  0.631000  1.0  -0.3374
  N  N94  1  0.164000  0.837600  0.267900  1.0  -0.3644
  N  N95  1  0.039500  0.071400  0.841900  1.0  -0.3469
  N  N96  1  0.278600  0.751100  0.748400  1.0  -0.3668
  O  O97  1  0.598800  0.699500  0.618200  1.0  -0.5818
  O  O98  1  0.784800  0.888800  0.639800  1.0  -0.5783
  O  O99  1  0.597300  0.070500  0.423700  1.0  -0.5882
  O  O100  1  0.666500  0.284300  0.456500  1.0  -0.6023
  O  O101  1  0.784100  0.864200  0.849200  1.0  -0.5944
  O  O102  1  0.553400  0.745900  0.837700  1.0  -0.5851
  O  O103  1  0.839000  0.133600  0.940200  1.0  -0.5931
  O  O104  1  0.608200  0.080500  0.930800  1.0  -0.581
  O  O105  1  0.574800  0.939800  0.741600  1.0  -0.8082
  O  O106  1  0.401200  0.300500  0.381800  1.0  -0.5812
  O  O107  1  0.215200  0.111200  0.360200  1.0  -0.578
  O  O108  1  0.402700  0.929500  0.576300  1.0  -0.5896
  O  O109  1  0.333500  0.715700  0.543500  1.0  -0.6018
  O  O110  1  0.215900  0.135800  0.150800  1.0  -0.5928
  O  O111  1  0.446600  0.254100  0.162300  1.0  -0.5853
  O  O112  1  0.161000  0.866400  0.059800  1.0  -0.5926
  O  O113  1  0.391800  0.919500  0.069200  1.0  -0.5814
  O  O114  1  0.425200  0.060200  0.258400  1.0  -0.8081
