# generated using pymatgen
data_Ni2H16C24N4O9
_symmetry_space_group_name_H-M   'P 1'
_cell_length_a   14.01560000
_cell_length_b   20.08900000
_cell_length_c   20.08900000
_cell_angle_alpha   90.00000000
_cell_angle_beta   90.00000000
_cell_angle_gamma   90.00000000
_symmetry_Int_Tables_number   1
_chemical_formula_structural   Ni2H16C24N4O9
_chemical_formula_sum   'Ni16 H128 C192 N32 O72'
_cell_volume   5656.24655357
_cell_formula_units_Z   8
loop_
 _symmetry_equiv_pos_site_id
 _symmetry_equiv_pos_as_xyz
  1  'x, y, z'
loop_
 _atom_site_type_symbol
 _atom_site_label
 _atom_site_symmetry_multiplicity
 _atom_site_fract_x
 _atom_site_fract_y
 _atom_site_fract_z
 _atom_site_occupancy
 _atom_site_charge
  Ni  Ni1  1  0.841380  0.381710  0.966510  1.0  0.8899
  Ni  Ni2  1  0.841380  0.118290  0.533490  1.0  0.8891
  Ni  Ni3  1  0.841380  0.533490  0.381710  1.0  0.8897
  Ni  Ni4  1  0.841380  0.966510  0.118290  1.0  0.8906
  Ni  Ni5  1  0.658620  0.618290  0.466510  1.0  0.888
  Ni  Ni6  1  0.658620  0.881710  0.033490  1.0  0.8888
  Ni  Ni7  1  0.658620  0.466510  0.881710  1.0  0.889
  Ni  Ni8  1  0.658620  0.033490  0.618290  1.0  0.8889
  Ni  Ni9  1  0.158620  0.618290  0.033490  1.0  0.888
  Ni  Ni10  1  0.158620  0.881710  0.466510  1.0  0.8886
  Ni  Ni11  1  0.158620  0.466510  0.618290  1.0  0.8894
  Ni  Ni12  1  0.158620  0.033490  0.881710  1.0  0.8884
  Ni  Ni13  1  0.341380  0.381710  0.533490  1.0  0.8899
  Ni  Ni14  1  0.341380  0.118290  0.966510  1.0  0.8892
  Ni  Ni15  1  0.341380  0.533490  0.118290  1.0  0.8901
  Ni  Ni16  1  0.341380  0.966510  0.381710  1.0  0.8903
  H  H17  1  0.123000  0.451900  0.906700  1.0  0.1148
  H  H18  1  0.262400  0.491700  0.859500  1.0  0.1069
  H  H19  1  0.276500  0.498600  0.744600  1.0  0.0876
  H  H20  1  0.019200  0.426000  0.722500  1.0  0.0754
  H  H21  1  0.884700  0.611600  0.817100  1.0  0.1169
  H  H22  1  0.021800  0.677800  0.807400  1.0  0.1091
  H  H23  1  0.135900  0.677100  0.890200  1.0  0.106
  H  H24  1  0.981200  0.553400  0.996100  1.0  0.1133
  H  H25  1  0.123000  0.048100  0.593300  1.0  0.1147
  H  H26  1  0.262400  0.008300  0.640500  1.0  0.1077
  H  H27  1  0.276500  0.001400  0.755400  1.0  0.0874
  H  H28  1  0.019200  0.074000  0.777500  1.0  0.0759
  H  H29  1  0.884700  0.888400  0.682900  1.0  0.1176
  H  H30  1  0.021800  0.822200  0.692600  1.0  0.1094
  H  H31  1  0.135900  0.822900  0.609800  1.0  0.1055
  H  H32  1  0.981200  0.946600  0.503900  1.0  0.1119
  H  H33  1  0.123000  0.593300  0.451900  1.0  0.1128
  H  H34  1  0.262400  0.640500  0.491700  1.0  0.1086
  H  H35  1  0.276500  0.755400  0.498600  1.0  0.0876
  H  H36  1  0.019200  0.777500  0.426000  1.0  0.0763
  H  H37  1  0.884700  0.682900  0.611600  1.0  0.1177
  H  H38  1  0.021800  0.692600  0.677800  1.0  0.1078
  H  H39  1  0.135900  0.609800  0.677100  1.0  0.1047
  H  H40  1  0.981200  0.503900  0.553400  1.0  0.1122
  H  H41  1  0.123000  0.906700  0.048100  1.0  0.1131
  H  H42  1  0.262400  0.859500  0.008300  1.0  0.1081
  H  H43  1  0.276500  0.744600  0.001400  1.0  0.0877
  H  H44  1  0.019200  0.722500  0.074000  1.0  0.0764
  H  H45  1  0.884700  0.817100  0.888400  1.0  0.1172
  H  H46  1  0.021800  0.807400  0.822200  1.0  0.1084
  H  H47  1  0.135900  0.890200  0.822900  1.0  0.105
  H  H48  1  0.981200  0.996100  0.946600  1.0  0.1121
  H  H49  1  0.377000  0.548100  0.406700  1.0  0.114
  H  H50  1  0.237600  0.508300  0.359500  1.0  0.1066
  H  H51  1  0.223500  0.501400  0.244600  1.0  0.0874
  H  H52  1  0.480800  0.574000  0.222500  1.0  0.0765
  H  H53  1  0.615300  0.388400  0.317100  1.0  0.117
  H  H54  1  0.478200  0.322200  0.307400  1.0  0.1091
  H  H55  1  0.364100  0.322900  0.390200  1.0  0.1054
  H  H56  1  0.518800  0.446600  0.496100  1.0  0.113
  H  H57  1  0.377000  0.951900  0.093300  1.0  0.1147
  H  H58  1  0.237600  0.991700  0.140500  1.0  0.1084
  H  H59  1  0.223500  0.998600  0.255400  1.0  0.0868
  H  H60  1  0.480800  0.926000  0.277500  1.0  0.0765
  H  H61  1  0.615300  0.111600  0.182900  1.0  0.1177
  H  H62  1  0.478200  0.177800  0.192600  1.0  0.1089
  H  H63  1  0.364100  0.177100  0.109800  1.0  0.1053
  H  H64  1  0.518800  0.053400  0.003900  1.0  0.1113
  H  H65  1  0.377000  0.406700  0.951900  1.0  0.1127
  H  H66  1  0.237600  0.359500  0.991700  1.0  0.1081
  H  H67  1  0.223500  0.244600  0.998600  1.0  0.0872
  H  H68  1  0.480800  0.222500  0.926000  1.0  0.0772
  H  H69  1  0.615300  0.317100  0.111600  1.0  0.1174
  H  H70  1  0.478200  0.307400  0.177800  1.0  0.1077
  H  H71  1  0.364100  0.390200  0.177100  1.0  0.1048
  H  H72  1  0.518800  0.496100  0.053400  1.0  0.1113
  H  H73  1  0.377000  0.093300  0.548100  1.0  0.1123
  H  H74  1  0.237600  0.140500  0.508300  1.0  0.1085
  H  H75  1  0.223500  0.255400  0.501400  1.0  0.0872
  H  H76  1  0.480800  0.277500  0.574000  1.0  0.0763
  H  H77  1  0.615300  0.182900  0.388400  1.0  0.1175
  H  H78  1  0.478200  0.192600  0.322200  1.0  0.1085
  H  H79  1  0.364100  0.109800  0.322900  1.0  0.105
  H  H80  1  0.518800  0.003900  0.446600  1.0  0.1118
  H  H81  1  0.877000  0.548100  0.093300  1.0  0.1146
  H  H82  1  0.737600  0.508300  0.140500  1.0  0.1078
  H  H83  1  0.723500  0.501400  0.255400  1.0  0.0869
  H  H84  1  0.980800  0.574000  0.277500  1.0  0.0765
  H  H85  1  0.115300  0.388400  0.182900  1.0  0.1175
  H  H86  1  0.978200  0.322200  0.192600  1.0  0.1092
  H  H87  1  0.864100  0.322900  0.109800  1.0  0.1053
  H  H88  1  0.018800  0.446600  0.003900  1.0  0.1114
  H  H89  1  0.877000  0.951900  0.406700  1.0  0.1146
  H  H90  1  0.737600  0.991700  0.359500  1.0  0.1069
  H  H91  1  0.723500  0.998600  0.244600  1.0  0.0873
  H  H92  1  0.980800  0.926000  0.222500  1.0  0.0761
  H  H93  1  0.115300  0.111600  0.317100  1.0  0.1169
  H  H94  1  0.978200  0.177800  0.307400  1.0  0.1092
  H  H95  1  0.864100  0.177100  0.390200  1.0  0.1056
  H  H96  1  0.018800  0.053400  0.496100  1.0  0.1126
  H  H97  1  0.877000  0.406700  0.548100  1.0  0.1129
  H  H98  1  0.737600  0.359500  0.508300  1.0  0.1082
  H  H99  1  0.723500  0.244600  0.501400  1.0  0.0874
  H  H100  1  0.980800  0.222500  0.574000  1.0  0.0774
  H  H101  1  0.115300  0.317100  0.388400  1.0  0.1176
  H  H102  1  0.978200  0.307400  0.322200  1.0  0.1081
  H  H103  1  0.864100  0.390200  0.322900  1.0  0.1048
  H  H104  1  0.018800  0.496100  0.446600  1.0  0.1116
  H  H105  1  0.877000  0.093300  0.951900  1.0  0.1124
  H  H106  1  0.737600  0.140500  0.991700  1.0  0.1085
  H  H107  1  0.723500  0.255400  0.998600  1.0  0.0871
  H  H108  1  0.980800  0.277500  0.926000  1.0  0.0765
  H  H109  1  0.115300  0.182900  0.111600  1.0  0.1174
  H  H110  1  0.978200  0.192600  0.177800  1.0  0.1076
  H  H111  1  0.864100  0.109800  0.177100  1.0  0.1045
  H  H112  1  0.018800  0.003900  0.053400  1.0  0.1117
  H  H113  1  0.623000  0.451900  0.593300  1.0  0.1148
  H  H114  1  0.762400  0.491700  0.640500  1.0  0.1081
  H  H115  1  0.776500  0.498600  0.755400  1.0  0.0873
  H  H116  1  0.519200  0.426000  0.777500  1.0  0.076
  H  H117  1  0.384700  0.611600  0.682900  1.0  0.1177
  H  H118  1  0.521800  0.677800  0.692600  1.0  0.109
  H  H119  1  0.635900  0.677100  0.609800  1.0  0.1055
  H  H120  1  0.481200  0.553400  0.503900  1.0  0.112
  H  H121  1  0.623000  0.048100  0.906700  1.0  0.1141
  H  H122  1  0.762400  0.008300  0.859500  1.0  0.1067
  H  H123  1  0.776500  0.001400  0.744600  1.0  0.0879
  H  H124  1  0.519200  0.074000  0.722500  1.0  0.0761
  H  H125  1  0.384700  0.888400  0.817100  1.0  0.117
  H  H126  1  0.521800  0.822200  0.807400  1.0  0.1093
  H  H127  1  0.635900  0.822900  0.890200  1.0  0.1057
  H  H128  1  0.481200  0.946600  0.996100  1.0  0.1134
  H  H129  1  0.623000  0.593300  0.048100  1.0  0.1126
  H  H130  1  0.762400  0.640500  0.008300  1.0  0.1085
  H  H131  1  0.776500  0.755400  0.001400  1.0  0.0876
  H  H132  1  0.519200  0.777500  0.074000  1.0  0.076
  H  H133  1  0.384700  0.682900  0.888400  1.0  0.1176
  H  H134  1  0.521800  0.692600  0.822200  1.0  0.1086
  H  H135  1  0.635900  0.609800  0.822900  1.0  0.1051
  H  H136  1  0.481200  0.503900  0.946600  1.0  0.1122
  H  H137  1  0.623000  0.906700  0.451900  1.0  0.113
  H  H138  1  0.762400  0.859500  0.491700  1.0  0.1082
  H  H139  1  0.776500  0.744600  0.498600  1.0  0.0876
  H  H140  1  0.519200  0.722500  0.426000  1.0  0.0766
  H  H141  1  0.384700  0.817100  0.611600  1.0  0.1174
  H  H142  1  0.521800  0.807400  0.677800  1.0  0.108
  H  H143  1  0.635900  0.890200  0.677100  1.0  0.105
  H  H144  1  0.481200  0.996100  0.553400  1.0  0.1118
  C  C145  1  0.964900  0.403800  0.845700  1.0  0.6947
  C  C146  1  0.057700  0.432100  0.818300  1.0  -0.1785
  C  C147  1  0.130000  0.453700  0.859700  1.0  0.0029
  C  C148  1  0.211200  0.477600  0.832000  1.0  -0.0996
  C  C149  1  0.219300  0.481500  0.763200  1.0  0.1621
  C  C150  1  0.070200  0.438700  0.750900  1.0  0.1883
  C  C151  1  0.840500  0.525190  0.917940  1.0  0.6556
  C  C152  1  0.920700  0.574410  0.908000  1.0  -0.1884
  C  C153  1  0.931400  0.612200  0.851400  1.0  -0.0135
  C  C154  1  0.012400  0.651200  0.846000  1.0  -0.103
  C  C155  1  0.079200  0.651800  0.895900  1.0  0.1328
  C  C156  1  0.989400  0.579150  0.956890  1.0  0.1731
  C  C157  1  0.964900  0.096200  0.654300  1.0  0.6939
  C  C158  1  0.057700  0.067900  0.681700  1.0  -0.179
  C  C159  1  0.130000  0.046300  0.640300  1.0  -1e-04
  C  C160  1  0.211200  0.022400  0.668000  1.0  -0.0989
  C  C161  1  0.219300  0.018500  0.736800  1.0  0.1624
  C  C162  1  0.070200  0.061300  0.749100  1.0  0.1881
  C  C163  1  0.840500  0.974810  0.582060  1.0  0.6549
  C  C164  1  0.920700  0.925590  0.592000  1.0  -0.1887
  C  C165  1  0.931400  0.887800  0.648600  1.0  -0.014
  C  C166  1  0.012400  0.848800  0.654000  1.0  -0.1024
  C  C167  1  0.079200  0.848200  0.604100  1.0  0.1329
  C  C168  1  0.989400  0.920850  0.543110  1.0  0.1726
  C  C169  1  0.964900  0.654300  0.403800  1.0  0.6978
  C  C170  1  0.057700  0.681700  0.432100  1.0  -0.181
  C  C171  1  0.130000  0.640300  0.453700  1.0  -0.0014
  C  C172  1  0.211200  0.668000  0.477600  1.0  -0.1005
  C  C173  1  0.219300  0.736800  0.481500  1.0  0.16
  C  C174  1  0.070200  0.749100  0.438700  1.0  0.1872
  C  C175  1  0.840500  0.582060  0.525190  1.0  0.6554
  C  C176  1  0.920700  0.592000  0.574410  1.0  -0.1887
  C  C177  1  0.931400  0.648600  0.612200  1.0  -0.0145
  C  C178  1  0.012400  0.654000  0.651200  1.0  -0.1008
  C  C179  1  0.079200  0.604100  0.651800  1.0  0.1318
  C  C180  1  0.989400  0.543110  0.579150  1.0  0.1747
  C  C181  1  0.964900  0.845700  0.096200  1.0  0.697
  C  C182  1  0.057700  0.818300  0.067900  1.0  -0.1826
  C  C183  1  0.130000  0.859700  0.046300  1.0  -0.0019
  C  C184  1  0.211200  0.832000  0.022400  1.0  -0.0999
  C  C185  1  0.219300  0.763200  0.018500  1.0  0.1602
  C  C186  1  0.070200  0.750900  0.061300  1.0  0.1863
  C  C187  1  0.840500  0.917940  0.974810  1.0  0.6554
  C  C188  1  0.920700  0.908000  0.925590  1.0  -0.1893
  C  C189  1  0.931400  0.851400  0.887800  1.0  -0.0135
  C  C190  1  0.012400  0.846000  0.848800  1.0  -0.0999
  C  C191  1  0.079200  0.895900  0.848200  1.0  0.1312
  C  C192  1  0.989400  0.956890  0.920850  1.0  0.1754
  C  C193  1  0.535100  0.596200  0.345700  1.0  0.6951
  C  C194  1  0.442300  0.567900  0.318300  1.0  -0.1785
  C  C195  1  0.370000  0.546300  0.359700  1.0  0.0024
  C  C196  1  0.288800  0.522400  0.332000  1.0  -0.1002
  C  C197  1  0.280700  0.518500  0.263200  1.0  0.162
  C  C198  1  0.429800  0.561300  0.250900  1.0  0.1897
  C  C199  1  0.659500  0.474810  0.417940  1.0  0.6555
  C  C200  1  0.579300  0.425590  0.408000  1.0  -0.1871
  C  C201  1  0.568600  0.387800  0.351400  1.0  -0.0142
  C  C202  1  0.487600  0.348800  0.346000  1.0  -0.1006
  C  C203  1  0.420800  0.348200  0.395900  1.0  0.1319
  C  C204  1  0.510600  0.420850  0.456890  1.0  0.1735
  C  C205  1  0.535100  0.903800  0.154300  1.0  0.695
  C  C206  1  0.442300  0.932100  0.181700  1.0  -0.1781
  C  C207  1  0.370000  0.953700  0.140300  1.0  1e-04
  C  C208  1  0.288800  0.977600  0.168000  1.0  -0.0999
  C  C209  1  0.280700  0.981500  0.236800  1.0  0.1625
  C  C210  1  0.429800  0.938700  0.249100  1.0  0.1883
  C  C211  1  0.659500  0.025190  0.082060  1.0  0.6552
  C  C212  1  0.579300  0.074410  0.092000  1.0  -0.1872
  C  C213  1  0.568600  0.112200  0.148600  1.0  -0.0117
  C  C214  1  0.487600  0.151200  0.154000  1.0  -0.1028
  C  C215  1  0.420800  0.151800  0.104100  1.0  0.1323
  C  C216  1  0.510600  0.079150  0.043110  1.0  0.1727
  C  C217  1  0.535100  0.345700  0.903800  1.0  0.6971
  C  C218  1  0.442300  0.318300  0.932100  1.0  -0.1792
  C  C219  1  0.370000  0.359700  0.953700  1.0  -0.001
  C  C220  1  0.288800  0.332000  0.977600  1.0  -0.1014
  C  C221  1  0.280700  0.263200  0.981500  1.0  0.16
  C  C222  1  0.429800  0.250900  0.938700  1.0  0.1865
  C  C223  1  0.659500  0.417940  0.025190  1.0  0.6554
  C  C224  1  0.579300  0.408000  0.074410  1.0  -0.1879
  C  C225  1  0.568600  0.351400  0.112200  1.0  -0.0125
  C  C226  1  0.487600  0.346000  0.151200  1.0  -0.1006
  C  C227  1  0.420800  0.395900  0.151800  1.0  0.1311
  C  C228  1  0.510600  0.456890  0.079150  1.0  0.1751
  C  C229  1  0.535100  0.154300  0.596200  1.0  0.6982
  C  C230  1  0.442300  0.181700  0.567900  1.0  -0.1817
  C  C231  1  0.370000  0.140300  0.546300  1.0  -0.0017
  C  C232  1  0.288800  0.168000  0.522400  1.0  -0.1012
  C  C233  1  0.280700  0.236800  0.518500  1.0  0.1602
  C  C234  1  0.429800  0.249100  0.561300  1.0  0.1876
  C  C235  1  0.659500  0.082060  0.474810  1.0  0.6556
  C  C236  1  0.579300  0.092000  0.425590  1.0  -0.1876
  C  C237  1  0.568600  0.148600  0.387800  1.0  -0.0132
  C  C238  1  0.487600  0.154000  0.348800  1.0  -0.0999
  C  C239  1  0.420800  0.104100  0.348200  1.0  0.1305
  C  C240  1  0.510600  0.043110  0.420850  1.0  0.1755
  C  C241  1  0.035100  0.596200  0.154300  1.0  0.6945
  C  C242  1  0.942300  0.567900  0.181700  1.0  -0.1784
  C  C243  1  0.870000  0.546300  0.140300  1.0  -0.0002
  C  C244  1  0.788800  0.522400  0.168000  1.0  -0.1
  C  C245  1  0.780700  0.518500  0.236800  1.0  0.1625
  C  C246  1  0.929800  0.561300  0.249100  1.0  0.1888
  C  C247  1  0.159500  0.474810  0.082060  1.0  0.6552
  C  C248  1  0.079300  0.425590  0.092000  1.0  -0.1874
  C  C249  1  0.068600  0.387800  0.148600  1.0  -0.0127
  C  C250  1  0.987600  0.348800  0.154000  1.0  -0.102
  C  C251  1  0.920800  0.348200  0.104100  1.0  0.1319
  C  C252  1  0.010600  0.420850  0.043110  1.0  0.1728
  C  C253  1  0.035100  0.903800  0.345700  1.0  0.695
  C  C254  1  0.942300  0.932100  0.318300  1.0  -0.1776
  C  C255  1  0.870000  0.953700  0.359700  1.0  0.003
  C  C256  1  0.788800  0.977600  0.332000  1.0  -0.1005
  C  C257  1  0.780700  0.981500  0.263200  1.0  0.1621
  C  C258  1  0.929800  0.938700  0.250900  1.0  0.1888
  C  C259  1  0.159500  0.025190  0.417940  1.0  0.6557
  C  C260  1  0.079300  0.074410  0.408000  1.0  -0.1871
  C  C261  1  0.068600  0.112200  0.351400  1.0  -0.0133
  C  C262  1  0.987600  0.151200  0.346000  1.0  -0.1022
  C  C263  1  0.920800  0.151800  0.395900  1.0  0.1322
  C  C264  1  0.010600  0.079150  0.456890  1.0  0.1733
  C  C265  1  0.035100  0.345700  0.596200  1.0  0.6985
  C  C266  1  0.942300  0.318300  0.567900  1.0  -0.1818
  C  C267  1  0.870000  0.359700  0.546300  1.0  -0.0019
  C  C268  1  0.788800  0.332000  0.522400  1.0  -0.1007
  C  C269  1  0.780700  0.263200  0.518500  1.0  0.16
  C  C270  1  0.929800  0.250900  0.561300  1.0  0.1867
  C  C271  1  0.159500  0.417940  0.474810  1.0  0.6558
  C  C272  1  0.079300  0.408000  0.425590  1.0  -0.1873
  C  C273  1  0.068600  0.351400  0.387800  1.0  -0.0132
  C  C274  1  0.987600  0.346000  0.348800  1.0  -0.0993
  C  C275  1  0.920800  0.395900  0.348200  1.0  0.1302
  C  C276  1  0.010600  0.456890  0.420850  1.0  0.1759
  C  C277  1  0.035100  0.154300  0.903800  1.0  0.6974
  C  C278  1  0.942300  0.181700  0.932100  1.0  -0.1805
  C  C279  1  0.870000  0.140300  0.953700  1.0  -0.0014
  C  C280  1  0.788800  0.168000  0.977600  1.0  -0.1016
  C  C281  1  0.780700  0.236800  0.981500  1.0  0.16
  C  C282  1  0.929800  0.249100  0.938700  1.0  0.1876
  C  C283  1  0.159500  0.082060  0.025190  1.0  0.6553
  C  C284  1  0.079300  0.092000  0.074410  1.0  -0.1881
  C  C285  1  0.068600  0.148600  0.112200  1.0  -0.013
  C  C286  1  0.987600  0.154000  0.151200  1.0  -0.1003
  C  C287  1  0.920800  0.104100  0.151800  1.0  0.1313
  C  C288  1  0.010600  0.043110  0.079150  1.0  0.175
  C  C289  1  0.464900  0.403800  0.654300  1.0  0.6944
  C  C290  1  0.557700  0.432100  0.681700  1.0  -0.1791
  C  C291  1  0.630000  0.453700  0.640300  1.0  1e-04
  C  C292  1  0.711200  0.477600  0.668000  1.0  -0.099
  C  C293  1  0.719300  0.481500  0.736800  1.0  0.1623
  C  C294  1  0.570200  0.438700  0.749100  1.0  0.1879
  C  C295  1  0.340500  0.525190  0.582060  1.0  0.6549
  C  C296  1  0.420700  0.574410  0.592000  1.0  -0.1879
  C  C297  1  0.431400  0.612200  0.648600  1.0  -0.0135
  C  C298  1  0.512400  0.651200  0.654000  1.0  -0.1032
  C  C299  1  0.579200  0.651800  0.604100  1.0  0.133
  C  C300  1  0.489400  0.579150  0.543110  1.0  0.1725
  C  C301  1  0.464900  0.096200  0.845700  1.0  0.6947
  C  C302  1  0.557700  0.067900  0.818300  1.0  -0.1789
  C  C303  1  0.630000  0.046300  0.859700  1.0  0.0025
  C  C304  1  0.711200  0.022400  0.832000  1.0  -0.0992
  C  C305  1  0.719300  0.018500  0.763200  1.0  0.1621
  C  C306  1  0.570200  0.061300  0.750900  1.0  0.189
  C  C307  1  0.340500  0.974810  0.917940  1.0  0.6554
  C  C308  1  0.420700  0.925590  0.908000  1.0  -0.189
  C  C309  1  0.431400  0.887800  0.851400  1.0  -0.0142
  C  C310  1  0.512400  0.848800  0.846000  1.0  -0.1014
  C  C311  1  0.579200  0.848200  0.895900  1.0  0.1326
  C  C312  1  0.489400  0.920850  0.956890  1.0  0.1733
  C  C313  1  0.464900  0.654300  0.096200  1.0  0.6967
  C  C314  1  0.557700  0.681700  0.067900  1.0  -0.1813
  C  C315  1  0.630000  0.640300  0.046300  1.0  -0.0016
  C  C316  1  0.711200  0.668000  0.022400  1.0  -0.1004
  C  C317  1  0.719300  0.736800  0.018500  1.0  0.1602
  C  C318  1  0.570200  0.749100  0.061300  1.0  0.1869
  C  C319  1  0.340500  0.582060  0.974810  1.0  0.6553
  C  C320  1  0.420700  0.592000  0.925590  1.0  -0.1888
  C  C321  1  0.431400  0.648600  0.887800  1.0  -0.0143
  C  C322  1  0.512400  0.654000  0.848800  1.0  -0.1005
  C  C323  1  0.579200  0.604100  0.848200  1.0  0.131
  C  C324  1  0.489400  0.543110  0.920850  1.0  0.1752
  C  C325  1  0.464900  0.845700  0.403800  1.0  0.6972
  C  C326  1  0.557700  0.818300  0.432100  1.0  -0.1805
  C  C327  1  0.630000  0.859700  0.453700  1.0  -0.0014
  C  C328  1  0.711200  0.832000  0.477600  1.0  -0.1003
  C  C329  1  0.719300  0.763200  0.481500  1.0  0.1599
  C  C330  1  0.570200  0.750900  0.438700  1.0  0.1861
  C  C331  1  0.340500  0.917940  0.525190  1.0  0.6554
  C  C332  1  0.420700  0.908000  0.574410  1.0  -0.1893
  C  C333  1  0.431400  0.851400  0.612200  1.0  -0.0127
  C  C334  1  0.512400  0.846000  0.651200  1.0  -0.1011
  C  C335  1  0.579200  0.895900  0.651800  1.0  0.1322
  C  C336  1  0.489400  0.956890  0.579150  1.0  0.1748
  N  N337  1  0.150100  0.462050  0.722700  1.0  -0.3095
  N  N338  1  0.066500  0.617530  0.952660  1.0  -0.3079
  N  N339  1  0.150100  0.037950  0.777300  1.0  -0.3083
  N  N340  1  0.066500  0.882470  0.547340  1.0  -0.307
  N  N341  1  0.150100  0.777300  0.462050  1.0  -0.3081
  N  N342  1  0.066500  0.547340  0.617530  1.0  -0.3075
  N  N343  1  0.150100  0.722700  0.037950  1.0  -0.3086
  N  N344  1  0.066500  0.952660  0.882470  1.0  -0.3067
  N  N345  1  0.349900  0.537950  0.222700  1.0  -0.3096
  N  N346  1  0.433500  0.382470  0.452660  1.0  -0.3085
  N  N347  1  0.349900  0.962050  0.277300  1.0  -0.3083
  N  N348  1  0.433500  0.117530  0.047340  1.0  -0.308
  N  N349  1  0.349900  0.222700  0.962050  1.0  -0.3087
  N  N350  1  0.433500  0.452660  0.117530  1.0  -0.3076
  N  N351  1  0.349900  0.277300  0.537950  1.0  -0.308
  N  N352  1  0.433500  0.047340  0.382470  1.0  -0.3075
  N  N353  1  0.849900  0.537950  0.277300  1.0  -0.3082
  N  N354  1  0.933500  0.382470  0.047340  1.0  -0.3076
  N  N355  1  0.849900  0.962050  0.222700  1.0  -0.3094
  N  N356  1  0.933500  0.117530  0.452660  1.0  -0.3087
  N  N357  1  0.849900  0.222700  0.537950  1.0  -0.3087
  N  N358  1  0.933500  0.452660  0.382470  1.0  -0.3069
  N  N359  1  0.849900  0.277300  0.962050  1.0  -0.3082
  N  N360  1  0.933500  0.047340  0.117530  1.0  -0.3081
  N  N361  1  0.650100  0.462050  0.777300  1.0  -0.3082
  N  N362  1  0.566500  0.617530  0.547340  1.0  -0.3075
  N  N363  1  0.650100  0.037950  0.722700  1.0  -0.3097
  N  N364  1  0.566500  0.882470  0.952660  1.0  -0.3075
  N  N365  1  0.650100  0.777300  0.037950  1.0  -0.3081
  N  N366  1  0.566500  0.547340  0.882470  1.0  -0.3068
  N  N367  1  0.650100  0.722700  0.462050  1.0  -0.3085
  N  N368  1  0.566500  0.952660  0.617530  1.0  -0.3075
  O  O369  1  0.960060  0.392600  0.905270  1.0  -0.5685
  O  O370  1  0.896600  0.394900  0.804800  1.0  -0.5772
  O  O371  1  0.848920  0.485400  0.965850  1.0  -0.5827
  O  O372  1  0.773240  0.527080  0.876010  1.0  -0.5647
  O  O373  1  0.960060  0.107400  0.594730  1.0  -0.5687
  O  O374  1  0.896600  0.105100  0.695200  1.0  -0.5784
  O  O375  1  0.848920  0.014600  0.534150  1.0  -0.5832
  O  O376  1  0.773240  0.972920  0.623990  1.0  -0.5642
  O  O377  1  0.960060  0.594730  0.392600  1.0  -0.5661
  O  O378  1  0.896600  0.695200  0.394900  1.0  -0.5776
  O  O379  1  0.848920  0.534150  0.485400  1.0  -0.5832
  O  O380  1  0.773240  0.623990  0.527080  1.0  -0.5642
  O  O381  1  0.960060  0.905270  0.107400  1.0  -0.5677
  O  O382  1  0.896600  0.804800  0.105100  1.0  -0.5777
  O  O383  1  0.848920  0.965850  0.014600  1.0  -0.5833
  O  O384  1  0.773240  0.876010  0.972920  1.0  -0.5646
  O  O385  1  0.539940  0.607400  0.405270  1.0  -0.5682
  O  O386  1  0.603400  0.605100  0.304800  1.0  -0.5774
  O  O387  1  0.651080  0.514600  0.465850  1.0  -0.5822
  O  O388  1  0.726760  0.472920  0.376010  1.0  -0.5646
  O  O389  1  0.539940  0.892600  0.094730  1.0  -0.5685
  O  O390  1  0.603400  0.894900  0.195200  1.0  -0.578
  O  O391  1  0.651080  0.985400  0.034150  1.0  -0.5829
  O  O392  1  0.726760  0.027080  0.123990  1.0  -0.5642
  O  O393  1  0.539940  0.405270  0.892600  1.0  -0.5669
  O  O394  1  0.603400  0.304800  0.894900  1.0  -0.5774
  O  O395  1  0.651080  0.465850  0.985400  1.0  -0.5831
  O  O396  1  0.726760  0.376010  0.027080  1.0  -0.5634
  O  O397  1  0.539940  0.094730  0.607400  1.0  -0.5677
  O  O398  1  0.603400  0.195200  0.605100  1.0  -0.5774
  O  O399  1  0.651080  0.034150  0.514600  1.0  -0.5829
  O  O400  1  0.726760  0.123990  0.472920  1.0  -0.5639
  O  O401  1  0.039940  0.607400  0.094730  1.0  -0.5686
  O  O402  1  0.103400  0.605100  0.195200  1.0  -0.5775
  O  O403  1  0.151080  0.514600  0.034150  1.0  -0.5828
  O  O404  1  0.226760  0.472920  0.123990  1.0  -0.5638
  O  O405  1  0.039940  0.892600  0.405270  1.0  -0.5684
  O  O406  1  0.103400  0.894900  0.304800  1.0  -0.5764
  O  O407  1  0.151080  0.985400  0.465850  1.0  -0.5825
  O  O408  1  0.226760  0.027080  0.376010  1.0  -0.5644
  O  O409  1  0.039940  0.405270  0.607400  1.0  -0.5678
  O  O410  1  0.103400  0.304800  0.605100  1.0  -0.5779
  O  O411  1  0.151080  0.465850  0.514600  1.0  -0.583
  O  O412  1  0.226760  0.376010  0.472920  1.0  -0.564
  O  O413  1  0.039940  0.094730  0.892600  1.0  -0.5661
  O  O414  1  0.103400  0.195200  0.894900  1.0  -0.5772
  O  O415  1  0.151080  0.034150  0.985400  1.0  -0.583
  O  O416  1  0.226760  0.123990  0.027080  1.0  -0.5638
  O  O417  1  0.460060  0.392600  0.594730  1.0  -0.5686
  O  O418  1  0.396600  0.394900  0.695200  1.0  -0.5783
  O  O419  1  0.348920  0.485400  0.534150  1.0  -0.5834
  O  O420  1  0.273240  0.527080  0.623990  1.0  -0.5643
  O  O421  1  0.460060  0.107400  0.905270  1.0  -0.5682
  O  O422  1  0.396600  0.105100  0.804800  1.0  -0.578
  O  O423  1  0.348920  0.014600  0.965850  1.0  -0.5825
  O  O424  1  0.273240  0.972920  0.876010  1.0  -0.5649
  O  O425  1  0.460060  0.594730  0.107400  1.0  -0.5677
  O  O426  1  0.396600  0.695200  0.105100  1.0  -0.5781
  O  O427  1  0.348920  0.534150  0.014600  1.0  -0.5831
  O  O428  1  0.273240  0.623990  0.972920  1.0  -0.564
  O  O429  1  0.460060  0.905270  0.392600  1.0  -0.5668
  O  O430  1  0.396600  0.804800  0.394900  1.0  -0.577
  O  O431  1  0.348920  0.965850  0.485400  1.0  -0.5833
  O  O432  1  0.273240  0.876010  0.527080  1.0  -0.5637
  O  O433  1  0.750000  0.382600  0.882600  1.0  -0.4653
  O  O434  1  0.750000  0.117400  0.617400  1.0  -0.4641
  O  O435  1  0.750000  0.617400  0.382600  1.0  -0.4648
  O  O436  1  0.750000  0.882600  0.117400  1.0  -0.4655
  O  O437  1  0.250000  0.617400  0.117400  1.0  -0.4641
  O  O438  1  0.250000  0.882600  0.382600  1.0  -0.4653
  O  O439  1  0.250000  0.382600  0.617400  1.0  -0.4655
  O  O440  1  0.250000  0.117400  0.882600  1.0  -0.4648
