# generated using pymatgen
data_Eu2Zn19H54C54N72(Cl2O9)4
_symmetry_space_group_name_H-M   'P 1'
_cell_length_a   18.03300000
_cell_length_b   18.03300000
_cell_length_c   24.74300000
_cell_angle_alpha   90.00000000
_cell_angle_beta   90.00000000
_cell_angle_gamma   120.00000000
_symmetry_Int_Tables_number   1
_chemical_formula_structural   Eu2Zn19H54C54N72(Cl2O9)4
_chemical_formula_sum   'Eu4 Zn38 H108 C108 N144 Cl16 O72'
_cell_volume   6968.17344558
_cell_formula_units_Z   2
loop_
 _symmetry_equiv_pos_site_id
 _symmetry_equiv_pos_as_xyz
  1  'x, y, z'
loop_
 _atom_site_type_symbol
 _atom_site_label
 _atom_site_symmetry_multiplicity
 _atom_site_fract_x
 _atom_site_fract_y
 _atom_site_fract_z
 _atom_site_occupancy
 _atom_site_charge
  Eu  Eu1  1  0.000000  0.000000  0.375340  1.0  2.1535
  Eu  Eu2  1  0.000000  0.000000  0.124660  1.0  2.1531
  Eu  Eu3  1  0.000000  0.000000  0.875340  1.0  2.1535
  Eu  Eu4  1  0.000000  0.000000  0.624660  1.0  2.1532
  Zn  Zn5  1  0.000000  0.666860  0.914070  1.0  0.8991
  Zn  Zn6  1  0.788900  0.788900  0.856520  1.0  0.8473
  Zn  Zn7  1  0.500000  0.500000  0.500000  1.0  0.6046
  Zn  Zn8  1  0.333333  0.666667  0.372540  1.0  0.3091
  Zn  Zn9  1  0.000000  0.500000  0.500000  1.0  0.6046
  Zn  Zn10  1  0.333140  0.000000  0.085930  1.0  0.8975
  Zn  Zn11  1  0.211100  0.211100  0.356520  1.0  0.8477
  Zn  Zn12  1  0.000000  0.333140  0.414070  1.0  0.8993
  Zn  Zn13  1  0.500000  0.000000  0.500000  1.0  0.6046
  Zn  Zn14  1  0.333140  0.000000  0.414070  1.0  0.8984
  Zn  Zn15  1  0.211100  0.211100  0.143480  1.0  0.8487
  Zn  Zn16  1  0.333333  0.666667  0.127460  1.0  0.308
  Zn  Zn17  1  0.000000  0.666860  0.585930  1.0  0.8984
  Zn  Zn18  1  0.666667  0.333333  0.627460  1.0  0.308
  Zn  Zn19  1  0.333140  0.333140  0.585930  1.0  0.8984
  Zn  Zn20  1  0.000000  0.211100  0.643480  1.0  0.849
  Zn  Zn21  1  0.333333  0.666667  0.872540  1.0  0.3091
  Zn  Zn22  1  0.000000  0.500000  0.000000  1.0  0.6046
  Zn  Zn23  1  0.666667  0.333333  0.372540  1.0  0.3091
  Zn  Zn24  1  0.666860  0.666860  0.085930  1.0  0.8986
  Zn  Zn25  1  0.000000  0.333140  0.085930  1.0  0.8986
  Zn  Zn26  1  0.000000  0.211100  0.856520  1.0  0.848
  Zn  Zn27  1  0.500000  0.000000  0.000000  1.0  0.6046
  Zn  Zn28  1  0.788900  0.000000  0.143480  1.0  0.8473
  Zn  Zn29  1  0.000000  0.788900  0.143480  1.0  0.848
  Zn  Zn30  1  0.500000  0.500000  0.000000  1.0  0.6046
  Zn  Zn31  1  0.333333  0.666667  0.627460  1.0  0.308
  Zn  Zn32  1  0.666860  0.000000  0.914070  1.0  0.8987
  Zn  Zn33  1  0.000000  0.788900  0.356520  1.0  0.8471
  Zn  Zn34  1  0.788900  0.788900  0.643480  1.0  0.8483
  Zn  Zn35  1  0.788900  0.000000  0.356520  1.0  0.8463
  Zn  Zn36  1  0.333140  0.333140  0.914070  1.0  0.8991
  Zn  Zn37  1  0.666667  0.333333  0.872540  1.0  0.3091
  Zn  Zn38  1  0.666860  0.000000  0.585930  1.0  0.8979
  Zn  Zn39  1  0.211100  0.000000  0.643480  1.0  0.8472
  Zn  Zn40  1  0.666860  0.666860  0.414070  1.0  0.8994
  Zn  Zn41  1  0.666667  0.333333  0.127460  1.0  0.308
  Zn  Zn42  1  0.211100  0.000000  0.856520  1.0  0.8461
  H  H43  1  0.513800  0.765100  0.163700  1.0  0.3252
  H  H44  1  0.786400  0.786400  0.518500  1.0  0.0844
  H  H45  1  0.765100  0.513800  0.336300  1.0  0.3237
  H  H46  1  0.825400  0.598000  0.651000  1.0  0.3339
  H  H47  1  0.786400  0.000000  0.018500  1.0  0.0839
  H  H48  1  0.461500  0.820500  0.446200  1.0  0.0635
  H  H49  1  0.402000  0.174600  0.349000  1.0  0.3345
  H  H50  1  0.213600  0.213600  0.481500  1.0  0.0837
  H  H51  1  0.538500  0.359000  0.053800  1.0  0.0641
  H  H52  1  0.772600  0.598000  0.151000  1.0  0.3335
  H  H53  1  0.446600  0.446600  0.374000  1.0  0.3385
  H  H54  1  0.377800  0.000000  0.840700  1.0  0.347
  H  H55  1  0.820500  0.359000  0.946200  1.0  0.0643
  H  H56  1  0.359000  0.538500  0.446200  1.0  0.0635
  H  H57  1  0.513800  0.748700  0.663700  1.0  0.3229
  H  H58  1  0.820500  0.461500  0.053800  1.0  0.0633
  H  H59  1  0.251300  0.486200  0.163700  1.0  0.3251
  H  H60  1  0.251300  0.486200  0.336300  1.0  0.3237
  H  H61  1  0.820500  0.461500  0.446200  1.0  0.0633
  H  H62  1  0.227400  0.402000  0.849000  1.0  0.3327
  H  H63  1  0.359000  0.538500  0.053800  1.0  0.0631
  H  H64  1  0.765100  0.251300  0.836300  1.0  0.3234
  H  H65  1  0.622200  0.622200  0.840700  1.0  0.3462
  H  H66  1  0.359000  0.820500  0.946200  1.0  0.0636
  H  H67  1  0.486200  0.234900  0.836300  1.0  0.3234
  H  H68  1  0.446600  0.000000  0.874000  1.0  0.3407
  H  H69  1  0.538500  0.179500  0.946200  1.0  0.0637
  H  H70  1  0.213600  0.000000  0.518500  1.0  0.0847
  H  H71  1  0.486200  0.234900  0.663700  1.0  0.3253
  H  H72  1  0.446600  0.446600  0.126000  1.0  0.3392
  H  H73  1  0.772600  0.598000  0.349000  1.0  0.3332
  H  H74  1  0.538500  0.359000  0.446200  1.0  0.0645
  H  H75  1  0.213600  0.213600  0.018500  1.0  0.0829
  H  H76  1  0.000000  0.377800  0.659300  1.0  0.3468
  H  H77  1  0.402000  0.174600  0.151000  1.0  0.3346
  H  H78  1  0.786400  0.786400  0.981500  1.0  0.0846
  H  H79  1  0.461500  0.820500  0.053800  1.0  0.0632
  H  H80  1  0.786400  0.000000  0.481500  1.0  0.0841
  H  H81  1  0.598000  0.825400  0.849000  1.0  0.3337
  H  H82  1  0.000000  0.213600  0.981500  1.0  0.0839
  H  H83  1  0.765100  0.513800  0.163700  1.0  0.3252
  H  H84  1  0.174600  0.772600  0.651000  1.0  0.335
  H  H85  1  0.538500  0.179500  0.553800  1.0  0.0639
  H  H86  1  0.513800  0.765100  0.336300  1.0  0.3241
  H  H87  1  0.000000  0.446600  0.626000  1.0  0.3387
  H  H88  1  0.251300  0.765100  0.836300  1.0  0.3232
  H  H89  1  0.641000  0.461500  0.553800  1.0  0.063
  H  H90  1  0.377800  0.377800  0.159300  1.0  0.3468
  H  H91  1  0.000000  0.553400  0.126000  1.0  0.3398
  H  H92  1  0.000000  0.213600  0.518500  1.0  0.0836
  H  H93  1  0.446600  0.000000  0.626000  1.0  0.3414
  H  H94  1  0.825400  0.227400  0.349000  1.0  0.3343
  H  H95  1  0.000000  0.622200  0.159300  1.0  0.3463
  H  H96  1  0.179500  0.641000  0.053800  1.0  0.0643
  H  H97  1  0.402000  0.227400  0.849000  1.0  0.334
  H  H98  1  0.461500  0.641000  0.946200  1.0  0.0641
  H  H99  1  0.641000  0.179500  0.053800  1.0  0.0636
  H  H100  1  0.598000  0.825400  0.651000  1.0  0.3346
  H  H101  1  0.598000  0.772600  0.349000  1.0  0.3343
  H  H102  1  0.251300  0.765100  0.663700  1.0  0.3248
  H  H103  1  0.641000  0.461500  0.946200  1.0  0.0632
  H  H104  1  0.227400  0.825400  0.349000  1.0  0.3345
  H  H105  1  0.402000  0.227400  0.651000  1.0  0.3346
  H  H106  1  0.000000  0.786400  0.018500  1.0  0.0837
  H  H107  1  0.174600  0.402000  0.349000  1.0  0.3329
  H  H108  1  0.234900  0.748700  0.163700  1.0  0.323
  H  H109  1  0.461500  0.641000  0.553800  1.0  0.0639
  H  H110  1  0.553400  0.000000  0.374000  1.0  0.3422
  H  H111  1  0.213600  0.000000  0.981500  1.0  0.0853
  H  H112  1  0.553400  0.553400  0.626000  1.0  0.3392
  H  H113  1  0.772600  0.174600  0.651000  1.0  0.335
  H  H114  1  0.486200  0.251300  0.163700  1.0  0.3239
  H  H115  1  0.748700  0.234900  0.163700  1.0  0.3253
  H  H116  1  0.765100  0.251300  0.663700  1.0  0.3238
  H  H117  1  0.622200  0.000000  0.159300  1.0  0.348
  H  H118  1  0.000000  0.377800  0.840700  1.0  0.3463
  H  H119  1  0.234900  0.486200  0.663700  1.0  0.3242
  H  H120  1  0.174600  0.772600  0.849000  1.0  0.3348
  H  H121  1  0.234900  0.486200  0.836300  1.0  0.323
  H  H122  1  0.000000  0.446600  0.874000  1.0  0.3378
  H  H123  1  0.377800  0.000000  0.659300  1.0  0.347
  H  H124  1  0.622200  0.000000  0.340700  1.0  0.347
  H  H125  1  0.748700  0.234900  0.336300  1.0  0.3244
  H  H126  1  0.486200  0.251300  0.336300  1.0  0.3236
  H  H127  1  0.820500  0.359000  0.553800  1.0  0.0639
  H  H128  1  0.825400  0.598000  0.849000  1.0  0.3332
  H  H129  1  0.513800  0.748700  0.836300  1.0  0.3213
  H  H130  1  0.179500  0.538500  0.553800  1.0  0.063
  H  H131  1  0.748700  0.513800  0.836300  1.0  0.3228
  H  H132  1  0.553400  0.553400  0.874000  1.0  0.3387
  H  H133  1  0.772600  0.174600  0.849000  1.0  0.3346
  H  H134  1  0.174600  0.402000  0.151000  1.0  0.3339
  H  H135  1  0.000000  0.786400  0.481500  1.0  0.0841
  H  H136  1  0.227400  0.825400  0.151000  1.0  0.3346
  H  H137  1  0.622200  0.622200  0.659300  1.0  0.3464
  H  H138  1  0.359000  0.820500  0.553800  1.0  0.0633
  H  H139  1  0.234900  0.748700  0.336300  1.0  0.322
  H  H140  1  0.598000  0.772600  0.151000  1.0  0.3353
  H  H141  1  0.227400  0.402000  0.651000  1.0  0.3332
  H  H142  1  0.641000  0.179500  0.446200  1.0  0.0636
  H  H143  1  0.179500  0.641000  0.446200  1.0  0.0644
  H  H144  1  0.553400  0.000000  0.126000  1.0  0.3417
  H  H145  1  0.000000  0.622200  0.340700  1.0  0.3461
  H  H146  1  0.179500  0.538500  0.946200  1.0  0.0634
  H  H147  1  0.825400  0.227400  0.151000  1.0  0.3355
  H  H148  1  0.000000  0.553400  0.374000  1.0  0.3397
  H  H149  1  0.748700  0.513800  0.663700  1.0  0.3239
  H  H150  1  0.377800  0.377800  0.340700  1.0  0.3464
  C  C151  1  0.320500  0.495000  0.615400  1.0  0.6549
  C  C152  1  0.422000  0.588400  0.931500  1.0  0.2732
  C  C153  1  0.950300  0.156200  0.388800  1.0  0.6865
  C  C154  1  0.495000  0.174500  0.115400  1.0  0.6559
  C  C155  1  0.588400  0.422000  0.568500  1.0  0.2734
  C  C156  1  0.205900  0.156200  0.611200  1.0  0.6864
  C  C157  1  0.320500  0.495000  0.884600  1.0  0.6573
  C  C158  1  0.578000  0.166400  0.931500  1.0  0.2729
  C  C159  1  0.738100  0.786700  0.750000  1.0  0.6962
  C  C160  1  0.048600  0.261900  0.750000  1.0  0.6962
  C  C161  1  0.000000  0.357000  0.582000  1.0  0.5858
  C  C162  1  0.213300  0.261900  0.250000  1.0  0.6956
  C  C163  1  0.794100  0.950300  0.611200  1.0  0.6881
  C  C164  1  0.422000  0.833600  0.068500  1.0  0.2735
  C  C165  1  0.794100  0.843800  0.111200  1.0  0.6859
  C  C166  1  0.825500  0.320500  0.384600  1.0  0.6574
  C  C167  1  0.505000  0.825500  0.615400  1.0  0.6543
  C  C168  1  0.049700  0.843800  0.888800  1.0  0.6862
  C  C169  1  0.825500  0.320500  0.115400  1.0  0.6545
  C  C170  1  0.794100  0.843800  0.388800  1.0  0.6861
  C  C171  1  0.588400  0.422000  0.931500  1.0  0.2742
  C  C172  1  0.422000  0.833600  0.431500  1.0  0.2743
  C  C173  1  0.422000  0.588400  0.568500  1.0  0.2727
  C  C174  1  0.950300  0.794100  0.888800  1.0  0.6864
  C  C175  1  0.951400  0.213300  0.750000  1.0  0.6961
  C  C176  1  0.737800  0.737800  0.969000  1.0  0.19
  C  C177  1  0.000000  0.643000  0.418000  1.0  0.5852
  C  C178  1  0.643000  0.643000  0.582000  1.0  0.5858
  C  C179  1  0.495000  0.174500  0.384600  1.0  0.6582
  C  C180  1  0.357000  0.000000  0.582000  1.0  0.5843
  C  C181  1  0.950300  0.156200  0.111200  1.0  0.6863
  C  C182  1  0.950300  0.794100  0.611200  1.0  0.6861
  C  C183  1  0.205900  0.156200  0.888800  1.0  0.6864
  C  C184  1  0.000000  0.262200  0.531000  1.0  0.1908
  C  C185  1  0.505000  0.825500  0.884600  1.0  0.6574
  C  C186  1  0.786700  0.048600  0.250000  1.0  0.6974
  C  C187  1  0.833600  0.411600  0.931500  1.0  0.2733
  C  C188  1  0.000000  0.357000  0.918000  1.0  0.5855
  C  C189  1  0.833600  0.422000  0.431500  1.0  0.2746
  C  C190  1  0.166400  0.578000  0.568500  1.0  0.2729
  C  C191  1  0.166400  0.578000  0.931500  1.0  0.274
  C  C192  1  0.357000  0.000000  0.918000  1.0  0.5837
  C  C193  1  0.843800  0.049700  0.611200  1.0  0.6882
  C  C194  1  0.738100  0.951400  0.250000  1.0  0.6964
  C  C195  1  0.320500  0.825500  0.115400  1.0  0.6557
  C  C196  1  0.794100  0.950300  0.888800  1.0  0.6882
  C  C197  1  0.411600  0.833600  0.931500  1.0  0.2745
  C  C198  1  0.174500  0.495000  0.115400  1.0  0.6543
  C  C199  1  0.643000  0.000000  0.082000  1.0  0.5846
  C  C200  1  0.843800  0.794100  0.388800  1.0  0.6872
  C  C201  1  0.679500  0.505000  0.384600  1.0  0.6574
  C  C202  1  0.262200  0.262200  0.469000  1.0  0.1928
  C  C203  1  0.833600  0.411600  0.568500  1.0  0.2724
  C  C204  1  0.578000  0.411600  0.068500  1.0  0.2734
  C  C205  1  0.737800  0.000000  0.469000  1.0  0.1926
  C  C206  1  0.679500  0.174500  0.884600  1.0  0.6574
  C  C207  1  0.411600  0.578000  0.431500  1.0  0.2744
  C  C208  1  0.588400  0.166400  0.068500  1.0  0.2738
  C  C209  1  0.578000  0.166400  0.568500  1.0  0.2732
  C  C210  1  0.357000  0.357000  0.418000  1.0  0.5853
  C  C211  1  0.000000  0.737800  0.469000  1.0  0.1909
  C  C212  1  0.049700  0.205900  0.388800  1.0  0.6879
  C  C213  1  0.000000  0.643000  0.082000  1.0  0.5856
  C  C214  1  0.166400  0.588400  0.068500  1.0  0.272
  C  C215  1  0.679500  0.174500  0.615400  1.0  0.6545
  C  C216  1  0.205900  0.049700  0.111200  1.0  0.6881
  C  C217  1  0.174500  0.679500  0.615400  1.0  0.6554
  C  C218  1  0.643000  0.643000  0.918000  1.0  0.5854
  C  C219  1  0.000000  0.262200  0.969000  1.0  0.1916
  C  C220  1  0.505000  0.679500  0.115400  1.0  0.6551
  C  C221  1  0.825500  0.505000  0.615400  1.0  0.6552
  C  C222  1  0.951400  0.738100  0.250000  1.0  0.6948
  C  C223  1  0.156200  0.950300  0.111200  1.0  0.6881
  C  C224  1  0.156200  0.950300  0.388800  1.0  0.6882
  C  C225  1  0.505000  0.679500  0.384600  1.0  0.6573
  C  C226  1  0.205900  0.049700  0.388800  1.0  0.6883
  C  C227  1  0.166400  0.588400  0.431500  1.0  0.2737
  C  C228  1  0.049700  0.205900  0.111200  1.0  0.6878
  C  C229  1  0.156200  0.205900  0.888800  1.0  0.6867
  C  C230  1  0.000000  0.737800  0.031000  1.0  0.1923
  C  C231  1  0.357000  0.357000  0.082000  1.0  0.5856
  C  C232  1  0.643000  0.000000  0.418000  1.0  0.5842
  C  C233  1  0.495000  0.320500  0.884600  1.0  0.6578
  C  C234  1  0.588400  0.166400  0.431500  1.0  0.2746
  C  C235  1  0.411600  0.578000  0.068500  1.0  0.2731
  C  C236  1  0.578000  0.411600  0.431500  1.0  0.2742
  C  C237  1  0.261900  0.213300  0.250000  1.0  0.6957
  C  C238  1  0.213300  0.951400  0.750000  1.0  0.6964
  C  C239  1  0.411600  0.833600  0.568500  1.0  0.2736
  C  C240  1  0.495000  0.320500  0.615400  1.0  0.6547
  C  C241  1  0.737800  0.000000  0.031000  1.0  0.1931
  C  C242  1  0.262200  0.262200  0.031000  1.0  0.1915
  C  C243  1  0.679500  0.505000  0.115400  1.0  0.6546
  C  C244  1  0.737800  0.737800  0.531000  1.0  0.1907
  C  C245  1  0.048600  0.786700  0.250000  1.0  0.6964
  C  C246  1  0.843800  0.794100  0.111200  1.0  0.687
  C  C247  1  0.786700  0.738100  0.750000  1.0  0.6949
  C  C248  1  0.174500  0.495000  0.384600  1.0  0.6572
  C  C249  1  0.262200  0.000000  0.969000  1.0  0.1906
  C  C250  1  0.049700  0.843800  0.611200  1.0  0.6861
  C  C251  1  0.156200  0.205900  0.611200  1.0  0.6866
  C  C252  1  0.320500  0.825500  0.384600  1.0  0.6582
  C  C253  1  0.174500  0.679500  0.884600  1.0  0.6577
  C  C254  1  0.261900  0.048600  0.750000  1.0  0.6976
  C  C255  1  0.833600  0.422000  0.068500  1.0  0.2736
  C  C256  1  0.825500  0.505000  0.884600  1.0  0.6575
  C  C257  1  0.262200  0.000000  0.531000  1.0  0.1921
  C  C258  1  0.843800  0.049700  0.888800  1.0  0.6883
  N  N259  1  0.796600  0.253200  0.353000  1.0  -0.7465
  N  N260  1  0.616200  0.000000  0.467700  1.0  -0.2879
  N  N261  1  0.282000  0.000000  0.917300  1.0  -0.4388
  N  N262  1  0.323500  0.000000  0.499400  1.0  -0.2779
  N  N263  1  0.645000  0.544400  0.087100  1.0  -0.3726
  N  N264  1  0.746800  0.543400  0.353000  1.0  -0.7455
  N  N265  1  0.361300  0.780900  0.395700  1.0  -0.5128
  N  N266  1  0.544400  0.899400  0.912900  1.0  -0.3734
  N  N267  1  0.219100  0.638700  0.895700  1.0  -0.5142
  N  N268  1  0.543400  0.746800  0.147000  1.0  -0.7474
  N  N269  1  0.718000  0.718000  0.917300  1.0  -0.4424
  N  N270  1  0.578200  0.097700  0.943600  1.0  -0.275
  N  N271  1  0.580400  0.219100  0.104300  1.0  -0.5124
  N  N272  1  0.100600  0.645000  0.912900  1.0  -0.375
  N  N273  1  0.676500  0.676500  0.499400  1.0  -0.2789
  N  N274  1  0.899400  0.544400  0.587100  1.0  -0.373
  N  N275  1  0.902300  0.421800  0.056400  1.0  -0.2762
  N  N276  1  0.282000  0.282000  0.082700  1.0  -0.4404
  N  N277  1  0.419600  0.780900  0.604300  1.0  -0.5137
  N  N278  1  0.000000  0.383800  0.532300  1.0  -0.2868
  N  N279  1  0.361300  0.580400  0.895700  1.0  -0.5135
  N  N280  1  0.097700  0.519500  0.443600  1.0  -0.2763
  N  N281  1  0.097700  0.519500  0.056400  1.0  -0.2766
  N  N282  1  0.282000  0.282000  0.417300  1.0  -0.4437
  N  N283  1  0.902300  0.421800  0.443600  1.0  -0.2755
  N  N284  1  0.601000  0.601000  0.628100  1.0  -0.7464
  N  N285  1  0.421800  0.519500  0.556400  1.0  -0.2761
  N  N286  1  0.676500  0.676500  0.000600  1.0  -0.2816
  N  N287  1  0.580400  0.219100  0.395700  1.0  -0.5126
  N  N288  1  0.796600  0.543400  0.853000  1.0  -0.7444
  N  N289  1  0.902300  0.480500  0.556400  1.0  -0.2762
  N  N290  1  0.543400  0.796600  0.647000  1.0  -0.7476
  N  N291  1  0.000000  0.676500  0.999400  1.0  -0.2786
  N  N292  1  0.638700  0.219100  0.895700  1.0  -0.513
  N  N293  1  0.543400  0.746800  0.353000  1.0  -0.7469
  N  N294  1  0.899400  0.544400  0.912900  1.0  -0.3735
  N  N295  1  0.361300  0.780900  0.104300  1.0  -0.5126
  N  N296  1  0.746800  0.543400  0.147000  1.0  -0.7469
  N  N297  1  0.480500  0.578200  0.056400  1.0  -0.2761
  N  N298  1  0.000000  0.282000  0.917300  1.0  -0.443
  N  N299  1  0.000000  0.399000  0.871900  1.0  -0.7471
  N  N300  1  0.323500  0.000000  0.000600  1.0  -0.2808
  N  N301  1  0.383800  0.000000  0.967700  1.0  -0.287
  N  N302  1  0.455600  0.355000  0.587100  1.0  -0.3749
  N  N303  1  0.616200  0.000000  0.032300  1.0  -0.2877
  N  N304  1  0.796600  0.253200  0.147000  1.0  -0.7472
  N  N305  1  0.000000  0.616200  0.032300  1.0  -0.2877
  N  N306  1  0.455600  0.100600  0.412900  1.0  -0.3748
  N  N307  1  0.399000  0.399000  0.371900  1.0  -0.7472
  N  N308  1  0.000000  0.282000  0.582700  1.0  -0.4395
  N  N309  1  0.544400  0.899400  0.587100  1.0  -0.3731
  N  N310  1  0.253200  0.456600  0.647000  1.0  -0.7463
  N  N311  1  0.746800  0.203400  0.853000  1.0  -0.7462
  N  N312  1  0.456600  0.253200  0.853000  1.0  -0.7467
  N  N313  1  0.480500  0.578200  0.443600  1.0  -0.2757
  N  N314  1  0.399000  0.000000  0.871900  1.0  -0.7456
  N  N315  1  0.355000  0.455600  0.912900  1.0  -0.3736
  N  N316  1  0.253200  0.796600  0.353000  1.0  -0.7459
  N  N317  1  0.796600  0.543400  0.647000  1.0  -0.746
  N  N318  1  0.383800  0.383800  0.032300  1.0  -0.287
  N  N319  1  0.645000  0.544400  0.412900  1.0  -0.3733
  N  N320  1  0.383800  0.000000  0.532300  1.0  -0.2866
  N  N321  1  0.601000  0.601000  0.871900  1.0  -0.7461
  N  N322  1  0.899400  0.355000  0.412900  1.0  -0.3744
  N  N323  1  0.219100  0.580400  0.104300  1.0  -0.514
  N  N324  1  0.097700  0.578200  0.943600  1.0  -0.2764
  N  N325  1  0.000000  0.601000  0.128100  1.0  -0.7454
  N  N326  1  0.676500  0.000000  0.500600  1.0  -0.2807
  N  N327  1  0.323500  0.323500  0.999400  1.0  -0.2785
  N  N328  1  0.421800  0.902300  0.443600  1.0  -0.2761
  N  N329  1  0.746800  0.203400  0.647000  1.0  -0.7476
  N  N330  1  0.000000  0.676500  0.500600  1.0  -0.2815
  N  N331  1  0.100600  0.455600  0.412900  1.0  -0.3732
  N  N332  1  0.519500  0.421800  0.943600  1.0  -0.2764
  N  N333  1  0.203400  0.456600  0.353000  1.0  -0.7457
  N  N334  1  0.601000  0.000000  0.371900  1.0  -0.7455
  N  N335  1  0.456600  0.203400  0.147000  1.0  -0.7471
  N  N336  1  0.780900  0.361300  0.395700  1.0  -0.5159
  N  N337  1  0.000000  0.323500  0.499400  1.0  -0.2788
  N  N338  1  0.645000  0.100600  0.587100  1.0  -0.3735
  N  N339  1  0.718000  0.000000  0.082700  1.0  -0.4406
  N  N340  1  0.718000  0.718000  0.582700  1.0  -0.4393
  N  N341  1  0.323500  0.323500  0.500600  1.0  -0.2816
  N  N342  1  0.203400  0.746800  0.853000  1.0  -0.7469
  N  N343  1  0.480500  0.902300  0.943600  1.0  -0.2757
  N  N344  1  0.519500  0.421800  0.556400  1.0  -0.2765
  N  N345  1  0.419600  0.638700  0.104300  1.0  -0.5162
  N  N346  1  0.355000  0.899400  0.087100  1.0  -0.3739
  N  N347  1  0.544400  0.645000  0.412900  1.0  -0.3743
  N  N348  1  0.519500  0.097700  0.443600  1.0  -0.2754
  N  N349  1  0.780900  0.419600  0.604300  1.0  -0.5139
  N  N350  1  0.578200  0.480500  0.443600  1.0  -0.2768
  N  N351  1  0.421800  0.519500  0.943600  1.0  -0.2754
  N  N352  1  0.000000  0.718000  0.082700  1.0  -0.4401
  N  N353  1  0.000000  0.718000  0.417300  1.0  -0.4397
  N  N354  1  0.219100  0.638700  0.604300  1.0  -0.5144
  N  N355  1  0.616200  0.616200  0.967700  1.0  -0.2872
  N  N356  1  0.097700  0.578200  0.556400  1.0  -0.2763
  N  N357  1  0.580400  0.361300  0.895700  1.0  -0.5149
  N  N358  1  0.638700  0.419600  0.104300  1.0  -0.5137
  N  N359  1  0.638700  0.419600  0.395700  1.0  -0.5142
  N  N360  1  0.638700  0.219100  0.604300  1.0  -0.5132
  N  N361  1  0.100600  0.645000  0.587100  1.0  -0.3744
  N  N362  1  0.578200  0.480500  0.056400  1.0  -0.2768
  N  N363  1  0.902300  0.480500  0.943600  1.0  -0.2758
  N  N364  1  0.000000  0.399000  0.628100  1.0  -0.7463
  N  N365  1  0.578200  0.097700  0.556400  1.0  -0.2758
  N  N366  1  0.519500  0.097700  0.056400  1.0  -0.2761
  N  N367  1  0.544400  0.645000  0.087100  1.0  -0.3741
  N  N368  1  0.455600  0.355000  0.912900  1.0  -0.3756
  N  N369  1  0.355000  0.899400  0.412900  1.0  -0.3742
  N  N370  1  0.419600  0.638700  0.395700  1.0  -0.5155
  N  N371  1  0.355000  0.455600  0.587100  1.0  -0.3734
  N  N372  1  0.616200  0.616200  0.532300  1.0  -0.2872
  N  N373  1  0.543400  0.796600  0.853000  1.0  -0.7465
  N  N374  1  0.000000  0.383800  0.967700  1.0  -0.2869
  N  N375  1  0.480500  0.902300  0.556400  1.0  -0.2763
  N  N376  1  0.399000  0.399000  0.128100  1.0  -0.7455
  N  N377  1  0.361300  0.580400  0.604300  1.0  -0.5139
  N  N378  1  0.718000  0.000000  0.417300  1.0  -0.4386
  N  N379  1  0.580400  0.361300  0.604300  1.0  -0.5146
  N  N380  1  0.645000  0.100600  0.912900  1.0  -0.3737
  N  N381  1  0.000000  0.323500  0.000600  1.0  -0.2817
  N  N382  1  0.419600  0.780900  0.895700  1.0  -0.5135
  N  N383  1  0.780900  0.361300  0.104300  1.0  -0.5165
  N  N384  1  0.456600  0.203400  0.353000  1.0  -0.7459
  N  N385  1  0.601000  0.000000  0.128100  1.0  -0.7453
  N  N386  1  0.203400  0.456600  0.147000  1.0  -0.7471
  N  N387  1  0.780900  0.419600  0.895700  1.0  -0.514
  N  N388  1  0.282000  0.000000  0.582700  1.0  -0.4393
  N  N389  1  0.100600  0.455600  0.087100  1.0  -0.3729
  N  N390  1  0.421800  0.902300  0.056400  1.0  -0.2767
  N  N391  1  0.000000  0.601000  0.371900  1.0  -0.7462
  N  N392  1  0.219100  0.580400  0.395700  1.0  -0.5142
  N  N393  1  0.899400  0.355000  0.087100  1.0  -0.374
  N  N394  1  0.676500  0.000000  0.999400  1.0  -0.2782
  N  N395  1  0.383800  0.383800  0.467700  1.0  -0.2873
  N  N396  1  0.253200  0.456600  0.853000  1.0  -0.7448
  N  N397  1  0.253200  0.796600  0.147000  1.0  -0.7468
  N  N398  1  0.203400  0.746800  0.647000  1.0  -0.7473
  N  N399  1  0.399000  0.000000  0.628100  1.0  -0.7443
  N  N400  1  0.456600  0.253200  0.647000  1.0  -0.7473
  N  N401  1  0.455600  0.100600  0.087100  1.0  -0.3745
  N  N402  1  0.000000  0.616200  0.467700  1.0  -0.2879
  Cl  Cl403  1  0.662800  0.662800  0.180600  1.0  -0.5389
  Cl  Cl404  1  0.000000  0.000000  0.250000  1.0  -0.4118
  Cl  Cl405  1  0.662800  0.000000  0.819400  1.0  -0.5397
  Cl  Cl406  1  0.000000  0.337200  0.319400  1.0  -0.5393
  Cl  Cl407  1  0.337200  0.337200  0.819400  1.0  -0.5398
  Cl  Cl408  1  0.337200  0.000000  0.319400  1.0  -0.5391
  Cl  Cl409  1  0.000000  0.662800  0.819400  1.0  -0.5395
  Cl  Cl410  1  0.000000  0.000000  0.000000  1.0  -0.5109
  Cl  Cl411  1  0.662800  0.000000  0.680600  1.0  -0.54
  Cl  Cl412  1  0.662800  0.662800  0.319400  1.0  -0.5391
  Cl  Cl413  1  0.000000  0.662800  0.680600  1.0  -0.5392
  Cl  Cl414  1  0.337200  0.000000  0.180600  1.0  -0.5385
  Cl  Cl415  1  0.337200  0.337200  0.680600  1.0  -0.5391
  Cl  Cl416  1  0.000000  0.337200  0.180600  1.0  -0.5389
  Cl  Cl417  1  0.000000  0.000000  0.500000  1.0  -0.5109
  Cl  Cl418  1  0.000000  0.000000  0.750000  1.0  -0.4118
  O  O419  1  0.719500  0.806000  0.706200  1.0  -0.5725
  O  O420  1  0.280500  0.086500  0.706200  1.0  -0.5699
  O  O421  1  0.717800  0.913600  0.901700  1.0  -0.584
  O  O422  1  0.164800  0.079700  0.623800  1.0  -0.6568
  O  O423  1  0.282200  0.195800  0.901700  1.0  -0.5841
  O  O424  1  0.282200  0.086400  0.401700  1.0  -0.5846
  O  O425  1  0.085100  0.164800  0.123800  1.0  -0.6573
  O  O426  1  0.914900  0.835200  0.876200  1.0  -0.6553
  O  O427  1  0.804200  0.717800  0.098300  1.0  -0.5836
  O  O428  1  0.717800  0.913600  0.598300  1.0  -0.5844
  O  O429  1  0.920300  0.085100  0.623800  1.0  -0.6565
  O  O430  1  0.164800  0.085100  0.123800  1.0  -0.6563
  O  O431  1  0.835200  0.914900  0.876200  1.0  -0.6583
  O  O432  1  0.835200  0.914900  0.623800  1.0  -0.6584
  O  O433  1  0.806000  0.086500  0.206200  1.0  -0.5691
  O  O434  1  0.806000  0.086500  0.293800  1.0  -0.5691
  O  O435  1  0.164800  0.085100  0.376200  1.0  -0.6565
  O  O436  1  0.804200  0.717800  0.401700  1.0  -0.5833
  O  O437  1  0.085100  0.164800  0.376200  1.0  -0.6572
  O  O438  1  0.280500  0.086500  0.793800  1.0  -0.5702
  O  O439  1  0.806000  0.719500  0.706200  1.0  -0.5727
  O  O440  1  0.079700  0.164800  0.623800  1.0  -0.6558
  O  O441  1  0.280500  0.194000  0.293800  1.0  -0.5727
  O  O442  1  0.086400  0.804200  0.598300  1.0  -0.5842
  O  O443  1  0.194000  0.913500  0.793800  1.0  -0.5708
  O  O444  1  0.913500  0.719500  0.206200  1.0  -0.5723
  O  O445  1  0.086400  0.804200  0.901700  1.0  -0.584
  O  O446  1  0.719500  0.913500  0.206200  1.0  -0.5706
  O  O447  1  0.913600  0.195800  0.401700  1.0  -0.5833
  O  O448  1  0.195800  0.913600  0.401700  1.0  -0.5842
  O  O449  1  0.717800  0.804200  0.401700  1.0  -0.5832
  O  O450  1  0.086400  0.282200  0.098300  1.0  -0.5834
  O  O451  1  0.719500  0.806000  0.793800  1.0  -0.5728
  O  O452  1  0.194000  0.280500  0.293800  1.0  -0.5726
  O  O453  1  0.914900  0.079700  0.123800  1.0  -0.6571
  O  O454  1  0.086500  0.806000  0.206200  1.0  -0.5728
  O  O455  1  0.195800  0.282200  0.901700  1.0  -0.5833
  O  O456  1  0.835200  0.920300  0.376200  1.0  -0.6576
  O  O457  1  0.079700  0.914900  0.123800  1.0  -0.657
  O  O458  1  0.920300  0.835200  0.123800  1.0  -0.6568
  O  O459  1  0.195800  0.282200  0.598300  1.0  -0.5834
  O  O460  1  0.913500  0.194000  0.793800  1.0  -0.5725
  O  O461  1  0.079700  0.164800  0.876200  1.0  -0.6562
  O  O462  1  0.913600  0.717800  0.901700  1.0  -0.5831
  O  O463  1  0.282200  0.195800  0.598300  1.0  -0.5843
  O  O464  1  0.086500  0.280500  0.706200  1.0  -0.5726
  O  O465  1  0.920300  0.085100  0.876200  1.0  -0.6571
  O  O466  1  0.164800  0.079700  0.876200  1.0  -0.6573
  O  O467  1  0.804200  0.086400  0.901700  1.0  -0.584
  O  O468  1  0.086500  0.280500  0.793800  1.0  -0.5729
  O  O469  1  0.920300  0.835200  0.376200  1.0  -0.6565
  O  O470  1  0.079700  0.914900  0.376200  1.0  -0.6569
  O  O471  1  0.913500  0.194000  0.706200  1.0  -0.5721
  O  O472  1  0.835200  0.920300  0.123800  1.0  -0.6582
  O  O473  1  0.085100  0.920300  0.876200  1.0  -0.6575
  O  O474  1  0.282200  0.086400  0.098300  1.0  -0.5847
  O  O475  1  0.914900  0.079700  0.376200  1.0  -0.6572
  O  O476  1  0.194000  0.280500  0.206200  1.0  -0.5723
  O  O477  1  0.194000  0.913500  0.706200  1.0  -0.5698
  O  O478  1  0.914900  0.835200  0.623800  1.0  -0.6558
  O  O479  1  0.086400  0.282200  0.401700  1.0  -0.5834
  O  O480  1  0.717800  0.804200  0.098300  1.0  -0.5835
  O  O481  1  0.804200  0.086400  0.598300  1.0  -0.584
  O  O482  1  0.195800  0.913600  0.098300  1.0  -0.5847
  O  O483  1  0.913600  0.195800  0.098300  1.0  -0.5835
  O  O484  1  0.719500  0.913500  0.293800  1.0  -0.5699
  O  O485  1  0.913500  0.719500  0.293800  1.0  -0.5717
  O  O486  1  0.085100  0.920300  0.623800  1.0  -0.6576
  O  O487  1  0.280500  0.194000  0.206200  1.0  -0.5725
  O  O488  1  0.086500  0.806000  0.293800  1.0  -0.5721
  O  O489  1  0.806000  0.719500  0.793800  1.0  -0.5728
  O  O490  1  0.913600  0.717800  0.598300  1.0  -0.5835
