# generated using pymatgen
data_Ni2H25C32N4O9
_symmetry_space_group_name_H-M   'P 1'
_cell_length_a   14.08210000
_cell_length_b   15.24980000
_cell_length_c   18.60580000
_cell_angle_alpha   90.00000000
_cell_angle_beta   106.74700000
_cell_angle_gamma   90.00000000
_symmetry_Int_Tables_number   1
_chemical_formula_structural   Ni2H25C32N4O9
_chemical_formula_sum   'Ni8 H100 C128 N16 O36'
_cell_volume   3826.11405555
_cell_formula_units_Z   4
loop_
 _symmetry_equiv_pos_site_id
 _symmetry_equiv_pos_as_xyz
  1  'x, y, z'
loop_
 _atom_site_type_symbol
 _atom_site_label
 _atom_site_symmetry_multiplicity
 _atom_site_fract_x
 _atom_site_fract_y
 _atom_site_fract_z
 _atom_site_occupancy
 _atom_site_charge
  Ni  Ni1  1  0.366650  0.619920  0.216590  1.0  0.8685
  Ni  Ni2  1  0.866650  0.119920  0.216590  1.0  0.8685
  Ni  Ni3  1  0.633350  0.619920  0.283410  1.0  0.8663
  Ni  Ni4  1  0.133350  0.119920  0.283410  1.0  0.8663
  Ni  Ni5  1  0.633350  0.380080  0.783410  1.0  0.8659
  Ni  Ni6  1  0.133350  0.880080  0.783410  1.0  0.8659
  Ni  Ni7  1  0.366650  0.380080  0.716590  1.0  0.8681
  Ni  Ni8  1  0.866650  0.880080  0.716590  1.0  0.8681
  H  H9  1  0.140800  0.626300  0.845800  1.0  0.1209
  H  H10  1  0.235300  0.572000  0.974800  1.0  0.086
  H  H11  1  0.356200  0.445300  0.867900  1.0  0.0863
  H  H12  1  0.398100  0.469200  0.981100  1.0  0.1133
  H  H13  1  0.110300  0.616200  0.715400  1.0  0.107
  H  H14  1  0.201000  0.519200  0.666100  1.0  0.0891
  H  H15  1  0.266100  0.821900  0.928400  1.0  0.0884
  H  H16  1  0.362900  0.754700  0.036500  1.0  0.1162
  H  H17  1  0.554000  0.704500  0.041400  1.0  0.0971
  H  H18  1  0.285400  0.774800  0.726200  1.0  0.0931
  H  H19  1  0.425500  0.687800  0.775100  1.0  0.1091
  H  H20  1  0.489300  0.670500  0.905500  1.0  0.1119
  H  H21  1  0.640800  0.126300  0.845800  1.0  0.1209
  H  H22  1  0.735300  0.072000  0.974800  1.0  0.086
  H  H23  1  0.856200  0.945300  0.867900  1.0  0.0863
  H  H24  1  0.898100  0.969200  0.981100  1.0  0.1133
  H  H25  1  0.610300  0.116200  0.715400  1.0  0.107
  H  H26  1  0.701000  0.019200  0.666100  1.0  0.0891
  H  H27  1  0.766100  0.321900  0.928400  1.0  0.0884
  H  H28  1  0.862900  0.254700  0.036500  1.0  0.1162
  H  H29  1  0.054000  0.204500  0.041400  1.0  0.0971
  H  H30  1  0.785400  0.274800  0.726200  1.0  0.0931
  H  H31  1  0.925500  0.187800  0.775100  1.0  0.1091
  H  H32  1  0.989300  0.170500  0.905500  1.0  0.1119
  H  H33  1  0.859200  0.626300  0.654200  1.0  0.1203
  H  H34  1  0.764700  0.572000  0.525200  1.0  0.0848
  H  H35  1  0.643800  0.445300  0.632100  1.0  0.0863
  H  H36  1  0.601900  0.469200  0.518900  1.0  0.1128
  H  H37  1  0.889700  0.616200  0.784600  1.0  0.1072
  H  H38  1  0.799000  0.519200  0.833900  1.0  0.0884
  H  H39  1  0.733900  0.821900  0.571600  1.0  0.0882
  H  H40  1  0.637100  0.754700  0.463500  1.0  0.1173
  H  H41  1  0.446000  0.704500  0.458600  1.0  0.0963
  H  H42  1  0.714600  0.774800  0.773800  1.0  0.0933
  H  H43  1  0.574500  0.687800  0.724900  1.0  0.1092
  H  H44  1  0.510700  0.670500  0.594500  1.0  0.1106
  H  H45  1  0.359200  0.126300  0.654200  1.0  0.1203
  H  H46  1  0.264700  0.072000  0.525200  1.0  0.0848
  H  H47  1  0.143800  0.945300  0.632100  1.0  0.0863
  H  H48  1  0.101900  0.969200  0.518900  1.0  0.1128
  H  H49  1  0.389700  0.116200  0.784600  1.0  0.1072
  H  H50  1  0.299000  0.019200  0.833900  1.0  0.0884
  H  H51  1  0.233900  0.321900  0.571600  1.0  0.0882
  H  H52  1  0.137100  0.254700  0.463500  1.0  0.1173
  H  H53  1  0.946000  0.204500  0.458600  1.0  0.0963
  H  H54  1  0.214600  0.274800  0.773800  1.0  0.0933
  H  H55  1  0.074500  0.187800  0.724900  1.0  0.1092
  H  H56  1  0.010700  0.170500  0.594500  1.0  0.1106
  H  H57  1  0.859200  0.373700  0.154200  1.0  0.1208
  H  H58  1  0.764700  0.428000  0.025200  1.0  0.0832
  H  H59  1  0.643800  0.554700  0.132100  1.0  0.0869
  H  H60  1  0.601900  0.530800  0.018900  1.0  0.1134
  H  H61  1  0.889700  0.383800  0.284600  1.0  0.1072
  H  H62  1  0.799000  0.480800  0.333900  1.0  0.0887
  H  H63  1  0.733900  0.178100  0.071600  1.0  0.0876
  H  H64  1  0.637100  0.245300  0.963500  1.0  0.1173
  H  H65  1  0.446000  0.295500  0.958600  1.0  0.0968
  H  H66  1  0.714600  0.225200  0.273800  1.0  0.0936
  H  H67  1  0.574500  0.312200  0.224900  1.0  0.1088
  H  H68  1  0.510700  0.329500  0.094500  1.0  0.1105
  H  H69  1  0.359200  0.873700  0.154200  1.0  0.1208
  H  H70  1  0.264700  0.928000  0.025200  1.0  0.0832
  H  H71  1  0.143800  0.054700  0.132100  1.0  0.0869
  H  H72  1  0.101900  0.030800  0.018900  1.0  0.1134
  H  H73  1  0.389700  0.883800  0.284600  1.0  0.1072
  H  H74  1  0.299000  0.980800  0.333900  1.0  0.0887
  H  H75  1  0.233900  0.678100  0.071600  1.0  0.0876
  H  H76  1  0.137100  0.745300  0.963500  1.0  0.1173
  H  H77  1  0.946000  0.795500  0.958600  1.0  0.0968
  H  H78  1  0.214600  0.725200  0.273800  1.0  0.0936
  H  H79  1  0.074500  0.812200  0.224900  1.0  0.1088
  H  H80  1  0.010700  0.829500  0.094500  1.0  0.1105
  H  H81  1  0.140800  0.373700  0.345800  1.0  0.1211
  H  H82  1  0.235300  0.428000  0.474800  1.0  0.0845
  H  H83  1  0.356200  0.554700  0.367900  1.0  0.0864
  H  H84  1  0.398100  0.530800  0.481100  1.0  0.114
  H  H85  1  0.110300  0.383800  0.215400  1.0  0.1074
  H  H86  1  0.201000  0.480800  0.166100  1.0  0.0892
  H  H87  1  0.266100  0.178100  0.428400  1.0  0.0881
  H  H88  1  0.362900  0.245300  0.536500  1.0  0.1163
  H  H89  1  0.554000  0.295500  0.541400  1.0  0.0972
  H  H90  1  0.285400  0.225200  0.226200  1.0  0.0931
  H  H91  1  0.425500  0.312200  0.275100  1.0  0.109
  H  H92  1  0.489300  0.329500  0.405500  1.0  0.1115
  H  H93  1  0.640800  0.873700  0.345800  1.0  0.1211
  H  H94  1  0.735300  0.928000  0.474800  1.0  0.0845
  H  H95  1  0.856200  0.054700  0.367900  1.0  0.0864
  H  H96  1  0.898100  0.030800  0.481100  1.0  0.114
  H  H97  1  0.610300  0.883800  0.215400  1.0  0.1074
  H  H98  1  0.701000  0.980800  0.166100  1.0  0.0892
  H  H99  1  0.766100  0.678100  0.428400  1.0  0.0881
  H  H100  1  0.862900  0.745300  0.536500  1.0  0.1163
  H  H101  1  0.054000  0.795500  0.541400  1.0  0.0972
  H  H102  1  0.785400  0.725200  0.226200  1.0  0.0931
  H  H103  1  0.925500  0.812200  0.275100  1.0  0.109
  H  H104  1  0.989300  0.829500  0.405500  1.0  0.1115
  H  H105  1  0.500000  0.486300  0.250000  1.0  0.3733
  H  H106  1  0.000000  0.986300  0.250000  1.0  0.3733
  H  H107  1  0.500000  0.513700  0.750000  1.0  0.372
  H  H108  1  0.000000  0.013700  0.750000  1.0  0.372
  C  C109  1  0.383200  0.512300  0.084900  1.0  0.6937
  C  C110  1  0.510700  0.703100  0.142700  1.0  0.6777
  C  C111  1  0.178500  0.587400  0.824900  1.0  -0.0271
  C  C112  1  0.252700  0.536000  0.871200  1.0  0.0179
  C  C113  1  0.278900  0.539900  0.954000  1.0  -0.1174
  C  C114  1  0.305200  0.480500  0.836700  1.0  0.1484
  C  C115  1  0.355900  0.503800  0.001400  1.0  -0.1177
  C  C116  1  0.160300  0.581200  0.748000  1.0  -0.1124
  C  C117  1  0.215300  0.523700  0.719000  1.0  0.157
  C  C118  1  0.384000  0.747400  0.931200  1.0  0.048
  C  C119  1  0.300300  0.795100  0.896900  1.0  0.0934
  C  C120  1  0.412800  0.739800  0.013500  1.0  -0.0829
  C  C121  1  0.499100  0.714900  0.060200  1.0  -0.1851
  C  C122  1  0.310000  0.767400  0.779100  1.0  0.1611
  C  C123  1  0.394300  0.715700  0.808000  1.0  -0.099
  C  C124  1  0.432000  0.705400  0.884800  1.0  -0.0951
  C  C125  1  0.883200  0.012300  0.084900  1.0  0.6937
  C  C126  1  0.010700  0.203100  0.142700  1.0  0.6777
  C  C127  1  0.678500  0.087400  0.824900  1.0  -0.0271
  C  C128  1  0.752700  0.036000  0.871200  1.0  0.0179
  C  C129  1  0.778900  0.039900  0.954000  1.0  -0.1174
  C  C130  1  0.805200  0.980500  0.836700  1.0  0.1484
  C  C131  1  0.855900  0.003800  0.001400  1.0  -0.1177
  C  C132  1  0.660300  0.081200  0.748000  1.0  -0.1124
  C  C133  1  0.715300  0.023700  0.719000  1.0  0.157
  C  C134  1  0.884000  0.247400  0.931200  1.0  0.048
  C  C135  1  0.800300  0.295100  0.896900  1.0  0.0934
  C  C136  1  0.912800  0.239800  0.013500  1.0  -0.0829
  C  C137  1  0.999100  0.214900  0.060200  1.0  -0.1851
  C  C138  1  0.810000  0.267400  0.779100  1.0  0.1611
  C  C139  1  0.894300  0.215700  0.808000  1.0  -0.099
  C  C140  1  0.932000  0.205400  0.884800  1.0  -0.0951
  C  C141  1  0.616800  0.512300  0.415100  1.0  0.6936
  C  C142  1  0.489300  0.703100  0.357300  1.0  0.6762
  C  C143  1  0.821500  0.587400  0.675100  1.0  -0.0279
  C  C144  1  0.747300  0.536000  0.628800  1.0  0.0164
  C  C145  1  0.721100  0.539900  0.546000  1.0  -0.1197
  C  C146  1  0.694800  0.480500  0.663300  1.0  0.1486
  C  C147  1  0.644100  0.503800  0.498600  1.0  -0.1207
  C  C148  1  0.839700  0.581200  0.752000  1.0  -0.1099
  C  C149  1  0.784700  0.523700  0.781000  1.0  0.1582
  C  C150  1  0.616000  0.747400  0.568800  1.0  0.0482
  C  C151  1  0.699700  0.795100  0.603100  1.0  0.094
  C  C152  1  0.587200  0.739800  0.486500  1.0  -0.085
  C  C153  1  0.500900  0.714900  0.439800  1.0  -0.1901
  C  C154  1  0.690000  0.767400  0.720900  1.0  0.16
  C  C155  1  0.605700  0.715700  0.692000  1.0  -0.0992
  C  C156  1  0.568000  0.705400  0.615200  1.0  -0.0966
  C  C157  1  0.116800  0.012300  0.415100  1.0  0.6936
  C  C158  1  0.989300  0.203100  0.357300  1.0  0.6762
  C  C159  1  0.321500  0.087400  0.675100  1.0  -0.0279
  C  C160  1  0.247300  0.036000  0.628800  1.0  0.0164
  C  C161  1  0.221100  0.039900  0.546000  1.0  -0.1197
  C  C162  1  0.194800  0.980500  0.663300  1.0  0.1486
  C  C163  1  0.144100  0.003800  0.498600  1.0  -0.1207
  C  C164  1  0.339700  0.081200  0.752000  1.0  -0.1099
  C  C165  1  0.284700  0.023700  0.781000  1.0  0.1582
  C  C166  1  0.116000  0.247400  0.568800  1.0  0.0482
  C  C167  1  0.199700  0.295100  0.603100  1.0  0.094
  C  C168  1  0.087200  0.239800  0.486500  1.0  -0.085
  C  C169  1  0.000900  0.214900  0.439800  1.0  -0.1901
  C  C170  1  0.190000  0.267400  0.720900  1.0  0.16
  C  C171  1  0.105700  0.215700  0.692000  1.0  -0.0992
  C  C172  1  0.068000  0.205400  0.615200  1.0  -0.0966
  C  C173  1  0.616800  0.487700  0.915100  1.0  0.6955
  C  C174  1  0.489300  0.296900  0.857300  1.0  0.6747
  C  C175  1  0.821500  0.412600  0.175100  1.0  -0.0279
  C  C176  1  0.747300  0.464000  0.128800  1.0  0.0163
  C  C177  1  0.721100  0.460100  0.046000  1.0  -0.1199
  C  C178  1  0.694800  0.519500  0.163300  1.0  0.1481
  C  C179  1  0.644100  0.496200  0.998600  1.0  -0.1193
  C  C180  1  0.839700  0.418800  0.252000  1.0  -0.1105
  C  C181  1  0.784700  0.476300  0.281000  1.0  0.1583
  C  C182  1  0.616000  0.252600  0.068800  1.0  0.0464
  C  C183  1  0.699700  0.204900  0.103100  1.0  0.0936
  C  C184  1  0.587200  0.260200  0.986500  1.0  -0.0838
  C  C185  1  0.500900  0.285100  0.939800  1.0  -0.1886
  C  C186  1  0.690000  0.232600  0.220900  1.0  0.1601
  C  C187  1  0.605700  0.284300  0.192000  1.0  -0.0993
  C  C188  1  0.568000  0.294600  0.115200  1.0  -0.0951
  C  C189  1  0.116800  0.987700  0.915100  1.0  0.6955
  C  C190  1  0.989300  0.796900  0.857300  1.0  0.6747
  C  C191  1  0.321500  0.912600  0.175100  1.0  -0.0279
  C  C192  1  0.247300  0.964000  0.128800  1.0  0.0163
  C  C193  1  0.221100  0.960100  0.046000  1.0  -0.1199
  C  C194  1  0.194800  0.019500  0.163300  1.0  0.1481
  C  C195  1  0.144100  0.996200  0.998600  1.0  -0.1193
  C  C196  1  0.339700  0.918800  0.252000  1.0  -0.1105
  C  C197  1  0.284700  0.976300  0.281000  1.0  0.1583
  C  C198  1  0.116000  0.752600  0.068800  1.0  0.0464
  C  C199  1  0.199700  0.704900  0.103100  1.0  0.0936
  C  C200  1  0.087200  0.760200  0.986500  1.0  -0.0838
  C  C201  1  0.000900  0.785100  0.939800  1.0  -0.1886
  C  C202  1  0.190000  0.732600  0.220900  1.0  0.1601
  C  C203  1  0.105700  0.784300  0.192000  1.0  -0.0993
  C  C204  1  0.068000  0.794600  0.115200  1.0  -0.0951
  C  C205  1  0.383200  0.487700  0.584900  1.0  0.6959
  C  C206  1  0.510700  0.296900  0.642700  1.0  0.6773
  C  C207  1  0.178500  0.412600  0.324900  1.0  -0.0276
  C  C208  1  0.252700  0.464000  0.371200  1.0  0.0168
  C  C209  1  0.278900  0.460100  0.454000  1.0  -0.1169
  C  C210  1  0.305200  0.519500  0.336700  1.0  0.1481
  C  C211  1  0.355900  0.496200  0.501400  1.0  -0.1179
  C  C212  1  0.160300  0.418800  0.248000  1.0  -0.1127
  C  C213  1  0.215300  0.476300  0.219000  1.0  0.1571
  C  C214  1  0.384000  0.252600  0.431200  1.0  0.0466
  C  C215  1  0.300300  0.204900  0.396900  1.0  0.0948
  C  C216  1  0.412800  0.260200  0.513500  1.0  -0.0826
  C  C217  1  0.499100  0.285100  0.560200  1.0  -0.1849
  C  C218  1  0.310000  0.232600  0.279100  1.0  0.1609
  C  C219  1  0.394300  0.284300  0.308000  1.0  -0.0992
  C  C220  1  0.432000  0.294600  0.384800  1.0  -0.0945
  C  C221  1  0.883200  0.987700  0.584900  1.0  0.6959
  C  C222  1  0.010700  0.796900  0.642700  1.0  0.6773
  C  C223  1  0.678500  0.912600  0.324900  1.0  -0.0276
  C  C224  1  0.752700  0.964000  0.371200  1.0  0.0168
  C  C225  1  0.778900  0.960100  0.454000  1.0  -0.1169
  C  C226  1  0.805200  0.019500  0.336700  1.0  0.1481
  C  C227  1  0.855900  0.996200  0.501400  1.0  -0.1179
  C  C228  1  0.660300  0.918800  0.248000  1.0  -0.1127
  C  C229  1  0.715300  0.976300  0.219000  1.0  0.1571
  C  C230  1  0.884000  0.752600  0.431200  1.0  0.0466
  C  C231  1  0.800300  0.704900  0.396900  1.0  0.0948
  C  C232  1  0.912800  0.760200  0.513500  1.0  -0.0826
  C  C233  1  0.999100  0.785100  0.560200  1.0  -0.1849
  C  C234  1  0.810000  0.732600  0.279100  1.0  0.1609
  C  C235  1  0.894300  0.784300  0.308000  1.0  -0.0992
  C  C236  1  0.932000  0.794600  0.384800  1.0  -0.0945
  N  N237  1  0.288000  0.473900  0.762400  1.0  -0.3263
  N  N238  1  0.263100  0.806700  0.822600  1.0  -0.3131
  N  N239  1  0.788000  0.973900  0.762400  1.0  -0.3263
  N  N240  1  0.763100  0.306700  0.822600  1.0  -0.3131
  N  N241  1  0.712000  0.473900  0.737600  1.0  -0.3245
  N  N242  1  0.736900  0.806700  0.677400  1.0  -0.3129
  N  N243  1  0.212000  0.973900  0.737600  1.0  -0.3245
  N  N244  1  0.236900  0.306700  0.677400  1.0  -0.3129
  N  N245  1  0.712000  0.526100  0.237600  1.0  -0.3246
  N  N246  1  0.736900  0.193300  0.177400  1.0  -0.3116
  N  N247  1  0.212000  0.026100  0.237600  1.0  -0.3246
  N  N248  1  0.236900  0.693300  0.177400  1.0  -0.3116
  N  N249  1  0.288000  0.526100  0.262400  1.0  -0.3252
  N  N250  1  0.263100  0.193300  0.322600  1.0  -0.3135
  N  N251  1  0.788000  0.026100  0.262400  1.0  -0.3252
  N  N252  1  0.763100  0.693300  0.322600  1.0  -0.3135
  O  O253  1  0.326400  0.554000  0.113560  1.0  -0.5894
  O  O254  1  0.435100  0.711100  0.164660  1.0  -0.5812
  O  O255  1  0.464200  0.477700  0.120800  1.0  -0.5621
  O  O256  1  0.597300  0.682400  0.182210  1.0  -0.5913
  O  O257  1  0.826400  0.054000  0.113560  1.0  -0.5894
  O  O258  1  0.935100  0.211100  0.164660  1.0  -0.5812
  O  O259  1  0.964200  0.977700  0.120800  1.0  -0.5621
  O  O260  1  0.097300  0.182400  0.182210  1.0  -0.5913
  O  O261  1  0.673600  0.554000  0.386440  1.0  -0.5884
  O  O262  1  0.564900  0.711100  0.335340  1.0  -0.5813
  O  O263  1  0.535800  0.477700  0.379200  1.0  -0.5628
  O  O264  1  0.402700  0.682400  0.317790  1.0  -0.5897
  O  O265  1  0.173600  0.054000  0.386440  1.0  -0.5884
  O  O266  1  0.064900  0.211100  0.335340  1.0  -0.5813
  O  O267  1  0.035800  0.977700  0.379200  1.0  -0.5628
  O  O268  1  0.902700  0.182400  0.317790  1.0  -0.5897
  O  O269  1  0.673600  0.446000  0.886440  1.0  -0.5886
  O  O270  1  0.564900  0.288900  0.835340  1.0  -0.5811
  O  O271  1  0.535800  0.522300  0.879200  1.0  -0.5618
  O  O272  1  0.402700  0.317600  0.817790  1.0  -0.59
  O  O273  1  0.173600  0.946000  0.886440  1.0  -0.5886
  O  O274  1  0.064900  0.788900  0.835340  1.0  -0.5811
  O  O275  1  0.035800  0.022300  0.879200  1.0  -0.5618
  O  O276  1  0.902700  0.817600  0.817790  1.0  -0.59
  O  O277  1  0.326400  0.446000  0.613560  1.0  -0.5897
  O  O278  1  0.435100  0.288900  0.664660  1.0  -0.5814
  O  O279  1  0.464200  0.522300  0.620800  1.0  -0.5624
  O  O280  1  0.597300  0.317600  0.682210  1.0  -0.5914
  O  O281  1  0.826400  0.946000  0.613560  1.0  -0.5897
  O  O282  1  0.935100  0.788900  0.664660  1.0  -0.5814
  O  O283  1  0.964200  0.022300  0.620800  1.0  -0.5624
  O  O284  1  0.097300  0.817600  0.682210  1.0  -0.5914
  O  O285  1  0.500000  0.548600  0.250000  1.0  -0.9275
  O  O286  1  0.000000  0.048600  0.250000  1.0  -0.9275
  O  O287  1  0.500000  0.451400  0.750000  1.0  -0.9246
  O  O288  1  0.000000  0.951400  0.750000  1.0  -0.9246
