# generated using pymatgen
data_Co2H25C32N4O9
_symmetry_space_group_name_H-M   'P 1'
_cell_length_a   14.08220000
_cell_length_b   15.27810000
_cell_length_c   18.53740000
_cell_angle_alpha   90.00000000
_cell_angle_beta   105.36000000
_cell_angle_gamma   90.00000000
_symmetry_Int_Tables_number   1
_chemical_formula_structural   Co2H25C32N4O9
_chemical_formula_sum   'Co8 H100 C128 N16 O36'
_cell_volume   3845.84777429
_cell_formula_units_Z   4
loop_
 _symmetry_equiv_pos_site_id
 _symmetry_equiv_pos_as_xyz
  1  'x, y, z'
loop_
 _atom_site_type_symbol
 _atom_site_label
 _atom_site_symmetry_multiplicity
 _atom_site_fract_x
 _atom_site_fract_y
 _atom_site_fract_z
 _atom_site_occupancy
 _atom_site_charge
  Co  Co1  1  0.865790  0.627350  0.216860  1.0  0.9352
  Co  Co2  1  0.365790  0.127350  0.216860  1.0  0.9352
  Co  Co3  1  0.134210  0.627350  0.283140  1.0  0.935
  Co  Co4  1  0.634210  0.127350  0.283140  1.0  0.935
  Co  Co5  1  0.134210  0.372650  0.783140  1.0  0.9349
  Co  Co6  1  0.634210  0.872650  0.783140  1.0  0.9349
  Co  Co7  1  0.865790  0.372650  0.716860  1.0  0.9352
  Co  Co8  1  0.365790  0.872650  0.716860  1.0  0.9352
  H  H9  1  0.731800  0.572500  0.976100  1.0  0.0925
  H  H10  1  0.945600  0.698600  0.462400  1.0  0.1073
  H  H11  1  0.899900  0.475700  0.980200  1.0  0.1156
  H  H12  1  0.607700  0.609800  0.719200  1.0  0.099
  H  H13  1  0.637900  0.624000  0.848900  1.0  0.1368
  H  H14  1  0.694300  0.513400  0.668300  1.0  0.0978
  H  H15  1  0.848400  0.441100  0.869400  1.0  0.0843
  H  H16  1  0.230200  0.818200  0.571700  1.0  0.0924
  H  H17  1  0.009600  0.661900  0.595500  1.0  0.122
  H  H18  1  0.132200  0.757300  0.463000  1.0  0.1209
  H  H19  1  0.211300  0.762400  0.774200  1.0  0.106
  H  H20  1  0.074200  0.677300  0.725100  1.0  0.0984
  H  H21  1  0.231800  0.072500  0.976100  1.0  0.0925
  H  H22  1  0.445600  0.198600  0.462400  1.0  0.1073
  H  H23  1  0.399900  0.975700  0.980200  1.0  0.1156
  H  H24  1  0.107700  0.109800  0.719200  1.0  0.099
  H  H25  1  0.137900  0.124000  0.848900  1.0  0.1368
  H  H26  1  0.194300  0.013400  0.668300  1.0  0.0978
  H  H27  1  0.348400  0.941100  0.869400  1.0  0.0843
  H  H28  1  0.730200  0.318200  0.571700  1.0  0.0924
  H  H29  1  0.509600  0.161900  0.595500  1.0  0.122
  H  H30  1  0.632200  0.257300  0.463000  1.0  0.1209
  H  H31  1  0.711300  0.262400  0.774200  1.0  0.106
  H  H32  1  0.574200  0.177300  0.725100  1.0  0.0984
  H  H33  1  0.268200  0.572500  0.523900  1.0  0.0923
  H  H34  1  0.054400  0.698600  0.037600  1.0  0.1069
  H  H35  1  0.100100  0.475700  0.519800  1.0  0.1148
  H  H36  1  0.392300  0.609800  0.780800  1.0  0.099
  H  H37  1  0.362100  0.624000  0.651100  1.0  0.1363
  H  H38  1  0.305700  0.513400  0.831700  1.0  0.0968
  H  H39  1  0.151600  0.441100  0.630600  1.0  0.0833
  H  H40  1  0.769800  0.818200  0.928300  1.0  0.0925
  H  H41  1  0.990400  0.661900  0.904500  1.0  0.1229
  H  H42  1  0.867800  0.757300  0.037000  1.0  0.1198
  H  H43  1  0.788700  0.762400  0.725800  1.0  0.1066
  H  H44  1  0.925800  0.677300  0.774900  1.0  0.0989
  H  H45  1  0.768200  0.072500  0.523900  1.0  0.0923
  H  H46  1  0.554400  0.198600  0.037600  1.0  0.1069
  H  H47  1  0.600100  0.975700  0.519800  1.0  0.1148
  H  H48  1  0.892300  0.109800  0.780800  1.0  0.099
  H  H49  1  0.862100  0.124000  0.651100  1.0  0.1363
  H  H50  1  0.805700  0.013400  0.831700  1.0  0.0968
  H  H51  1  0.651600  0.941100  0.630600  1.0  0.0833
  H  H52  1  0.269800  0.318200  0.928300  1.0  0.0925
  H  H53  1  0.490400  0.161900  0.904500  1.0  0.1229
  H  H54  1  0.367800  0.257300  0.037000  1.0  0.1198
  H  H55  1  0.288700  0.262400  0.725800  1.0  0.1066
  H  H56  1  0.425800  0.177300  0.774900  1.0  0.0989
  H  H57  1  0.268200  0.427500  0.023900  1.0  0.0912
  H  H58  1  0.054400  0.301400  0.537600  1.0  0.1061
  H  H59  1  0.100100  0.524300  0.019800  1.0  0.1152
  H  H60  1  0.392300  0.390200  0.280800  1.0  0.0989
  H  H61  1  0.362100  0.376000  0.151100  1.0  0.1364
  H  H62  1  0.305700  0.486600  0.331700  1.0  0.0966
  H  H63  1  0.151600  0.558900  0.130600  1.0  0.0838
  H  H64  1  0.769800  0.181800  0.428300  1.0  0.0925
  H  H65  1  0.990400  0.338100  0.404500  1.0  0.1225
  H  H66  1  0.867800  0.242700  0.537000  1.0  0.1198
  H  H67  1  0.788700  0.237600  0.225800  1.0  0.1065
  H  H68  1  0.925800  0.322700  0.274900  1.0  0.0987
  H  H69  1  0.768200  0.927500  0.023900  1.0  0.0912
  H  H70  1  0.554400  0.801400  0.537600  1.0  0.1061
  H  H71  1  0.600100  0.024300  0.019800  1.0  0.1152
  H  H72  1  0.892300  0.890200  0.280800  1.0  0.0989
  H  H73  1  0.862100  0.876000  0.151100  1.0  0.1364
  H  H74  1  0.805700  0.986600  0.331700  1.0  0.0966
  H  H75  1  0.651600  0.058900  0.130600  1.0  0.0838
  H  H76  1  0.269800  0.681800  0.428300  1.0  0.0925
  H  H77  1  0.490400  0.838100  0.404500  1.0  0.1225
  H  H78  1  0.367800  0.742700  0.537000  1.0  0.1198
  H  H79  1  0.288700  0.737600  0.225800  1.0  0.1065
  H  H80  1  0.425800  0.822700  0.274900  1.0  0.0987
  H  H81  1  0.731800  0.427500  0.476100  1.0  0.0921
  H  H82  1  0.945600  0.301400  0.962400  1.0  0.1067
  H  H83  1  0.899900  0.524300  0.480200  1.0  0.1157
  H  H84  1  0.607700  0.390200  0.219200  1.0  0.0994
  H  H85  1  0.637900  0.376000  0.348900  1.0  0.1368
  H  H86  1  0.694300  0.486600  0.168300  1.0  0.0974
  H  H87  1  0.848400  0.558900  0.369400  1.0  0.084
  H  H88  1  0.230200  0.181800  0.071700  1.0  0.0922
  H  H89  1  0.009600  0.338100  0.095500  1.0  0.1217
  H  H90  1  0.132200  0.242700  0.963000  1.0  0.1207
  H  H91  1  0.211300  0.237600  0.274200  1.0  0.1063
  H  H92  1  0.074200  0.322700  0.225100  1.0  0.0983
  H  H93  1  0.231800  0.927500  0.476100  1.0  0.0921
  H  H94  1  0.445600  0.801400  0.962400  1.0  0.1067
  H  H95  1  0.399900  0.024300  0.480200  1.0  0.1157
  H  H96  1  0.107700  0.890200  0.219200  1.0  0.0994
  H  H97  1  0.137900  0.876000  0.348900  1.0  0.1368
  H  H98  1  0.194300  0.986600  0.168300  1.0  0.0974
  H  H99  1  0.348400  0.058900  0.369400  1.0  0.084
  H  H100  1  0.730200  0.681800  0.071700  1.0  0.0922
  H  H101  1  0.509600  0.838100  0.095500  1.0  0.1217
  H  H102  1  0.632200  0.742700  0.963000  1.0  0.1207
  H  H103  1  0.711300  0.737600  0.274200  1.0  0.1063
  H  H104  1  0.574200  0.822700  0.225100  1.0  0.0983
  H  H105  1  0.000000  0.490800  0.250000  1.0  0.3768
  H  H106  1  0.500000  0.990800  0.250000  1.0  0.3768
  H  H107  1  0.000000  0.509200  0.750000  1.0  0.3752
  H  H108  1  0.500000  0.009200  0.750000  1.0  0.3752
  C  C109  1  0.987500  0.705500  0.358500  1.0  0.6723
  C  C110  1  0.775800  0.541300  0.954600  1.0  -0.1315
  C  C111  1  0.999200  0.712700  0.442300  1.0  -0.2075
  C  C112  1  0.856300  0.508200  0.001200  1.0  -0.1559
  C  C113  1  0.883300  0.518700  0.085400  1.0  0.7044
  C  C114  1  0.657500  0.575300  0.751300  1.0  -0.121
  C  C115  1  0.675100  0.584500  0.827800  1.0  -0.0924
  C  C116  1  0.749200  0.533600  0.872600  1.0  0.0433
  C  C117  1  0.709700  0.518500  0.721200  1.0  0.1488
  C  C118  1  0.799200  0.476800  0.838200  1.0  0.1507
  C  C119  1  0.197000  0.789500  0.603400  1.0  0.1178
  C  C120  1  0.113500  0.742200  0.570200  1.0  0.0018
  C  C121  1  0.066000  0.697200  0.615800  1.0  -0.1182
  C  C122  1  0.084000  0.738600  0.487100  1.0  -0.0763
  C  C123  1  0.187600  0.756800  0.721400  1.0  0.151
  C  C124  1  0.105000  0.706400  0.692000  1.0  -0.0932
  C  C125  1  0.487500  0.205500  0.358500  1.0  0.6723
  C  C126  1  0.275800  0.041300  0.954600  1.0  -0.1315
  C  C127  1  0.499200  0.212700  0.442300  1.0  -0.2075
  C  C128  1  0.356300  0.008200  0.001200  1.0  -0.1559
  C  C129  1  0.383300  0.018700  0.085400  1.0  0.7044
  C  C130  1  0.157500  0.075300  0.751300  1.0  -0.121
  C  C131  1  0.175100  0.084500  0.827800  1.0  -0.0924
  C  C132  1  0.249200  0.033600  0.872600  1.0  0.0433
  C  C133  1  0.209700  0.018500  0.721200  1.0  0.1488
  C  C134  1  0.299200  0.976800  0.838200  1.0  0.1507
  C  C135  1  0.697000  0.289500  0.603400  1.0  0.1178
  C  C136  1  0.613500  0.242200  0.570200  1.0  0.0018
  C  C137  1  0.566000  0.197200  0.615800  1.0  -0.1182
  C  C138  1  0.584000  0.238600  0.487100  1.0  -0.0763
  C  C139  1  0.687600  0.256800  0.721400  1.0  0.151
  C  C140  1  0.605000  0.206400  0.692000  1.0  -0.0932
  C  C141  1  0.012500  0.705500  0.141500  1.0  0.6734
  C  C142  1  0.224200  0.541300  0.545400  1.0  -0.1336
  C  C143  1  0.000800  0.712700  0.057700  1.0  -0.2032
  C  C144  1  0.143700  0.508200  0.498800  1.0  -0.16
  C  C145  1  0.116700  0.518700  0.414600  1.0  0.7047
  C  C146  1  0.342500  0.575300  0.748700  1.0  -0.1192
  C  C147  1  0.324900  0.584500  0.672200  1.0  -0.094
  C  C148  1  0.250800  0.533600  0.627400  1.0  0.0438
  C  C149  1  0.290300  0.518500  0.778800  1.0  0.1492
  C  C150  1  0.200800  0.476800  0.661800  1.0  0.1514
  C  C151  1  0.803000  0.789500  0.896600  1.0  0.1182
  C  C152  1  0.886500  0.742200  0.929800  1.0  0.0013
  C  C153  1  0.934000  0.697200  0.884200  1.0  -0.1176
  C  C154  1  0.916000  0.738600  0.012900  1.0  -0.0735
  C  C155  1  0.812400  0.756800  0.778600  1.0  0.1519
  C  C156  1  0.895000  0.706400  0.808000  1.0  -0.0904
  C  C157  1  0.512500  0.205500  0.141500  1.0  0.6734
  C  C158  1  0.724200  0.041300  0.545400  1.0  -0.1336
  C  C159  1  0.500800  0.212700  0.057700  1.0  -0.2032
  C  C160  1  0.643700  0.008200  0.498800  1.0  -0.16
  C  C161  1  0.616700  0.018700  0.414600  1.0  0.7047
  C  C162  1  0.842500  0.075300  0.748700  1.0  -0.1192
  C  C163  1  0.824900  0.084500  0.672200  1.0  -0.094
  C  C164  1  0.750800  0.033600  0.627400  1.0  0.0438
  C  C165  1  0.790300  0.018500  0.778800  1.0  0.1492
  C  C166  1  0.700800  0.976800  0.661800  1.0  0.1514
  C  C167  1  0.303000  0.289500  0.896600  1.0  0.1182
  C  C168  1  0.386500  0.242200  0.929800  1.0  0.0013
  C  C169  1  0.434000  0.197200  0.884200  1.0  -0.1176
  C  C170  1  0.416000  0.238600  0.012900  1.0  -0.0735
  C  C171  1  0.312400  0.256800  0.778600  1.0  0.1519
  C  C172  1  0.395000  0.206400  0.808000  1.0  -0.0904
  C  C173  1  0.012500  0.294500  0.641500  1.0  0.6743
  C  C174  1  0.224200  0.458700  0.045400  1.0  -0.1335
  C  C175  1  0.000800  0.287300  0.557700  1.0  -0.2036
  C  C176  1  0.143700  0.491800  0.998800  1.0  -0.1601
  C  C177  1  0.116700  0.481300  0.914600  1.0  0.7064
  C  C178  1  0.342500  0.424700  0.248700  1.0  -0.1199
  C  C179  1  0.324900  0.415500  0.172200  1.0  -0.094
  C  C180  1  0.250800  0.466400  0.127400  1.0  0.0424
  C  C181  1  0.290300  0.481500  0.278800  1.0  0.1492
  C  C182  1  0.200800  0.523200  0.161800  1.0  0.1504
  C  C183  1  0.803000  0.210500  0.396600  1.0  0.1207
  C  C184  1  0.886500  0.257800  0.429800  1.0  0.0002
  C  C185  1  0.934000  0.302800  0.384200  1.0  -0.1178
  C  C186  1  0.916000  0.261400  0.512900  1.0  -0.0736
  C  C187  1  0.812400  0.243200  0.278600  1.0  0.152
  C  C188  1  0.895000  0.293600  0.308000  1.0  -0.0904
  C  C189  1  0.512500  0.794500  0.641500  1.0  0.6743
  C  C190  1  0.724200  0.958700  0.045400  1.0  -0.1335
  C  C191  1  0.500800  0.787300  0.557700  1.0  -0.2036
  C  C192  1  0.643700  0.991800  0.998800  1.0  -0.1601
  C  C193  1  0.616700  0.981300  0.914600  1.0  0.7064
  C  C194  1  0.842500  0.924700  0.248700  1.0  -0.1199
  C  C195  1  0.824900  0.915500  0.172200  1.0  -0.094
  C  C196  1  0.750800  0.966400  0.127400  1.0  0.0424
  C  C197  1  0.790300  0.981500  0.278800  1.0  0.1492
  C  C198  1  0.700800  0.023200  0.161800  1.0  0.1504
  C  C199  1  0.303000  0.710500  0.396600  1.0  0.1207
  C  C200  1  0.386500  0.757800  0.429800  1.0  0.0002
  C  C201  1  0.434000  0.802800  0.384200  1.0  -0.1178
  C  C202  1  0.416000  0.761400  0.512900  1.0  -0.0736
  C  C203  1  0.312400  0.743200  0.278600  1.0  0.152
  C  C204  1  0.395000  0.793600  0.308000  1.0  -0.0904
  C  C205  1  0.987500  0.294500  0.858500  1.0  0.6725
  C  C206  1  0.775800  0.458700  0.454600  1.0  -0.1317
  C  C207  1  0.999200  0.287300  0.942300  1.0  -0.2072
  C  C208  1  0.856300  0.491800  0.501200  1.0  -0.1569
  C  C209  1  0.883300  0.481300  0.585400  1.0  0.7052
  C  C210  1  0.657500  0.424700  0.251300  1.0  -0.1218
  C  C211  1  0.675100  0.415500  0.327800  1.0  -0.0929
  C  C212  1  0.749200  0.466400  0.372600  1.0  0.041
  C  C213  1  0.709700  0.481500  0.221200  1.0  0.1491
  C  C214  1  0.799200  0.523200  0.338200  1.0  0.1502
  C  C215  1  0.197000  0.210500  0.103400  1.0  0.1183
  C  C216  1  0.113500  0.257800  0.070200  1.0  0.001
  C  C217  1  0.066000  0.302800  0.115800  1.0  -0.1171
  C  C218  1  0.084000  0.261400  0.987100  1.0  -0.0747
  C  C219  1  0.187600  0.243200  0.221400  1.0  0.1506
  C  C220  1  0.105000  0.293600  0.192000  1.0  -0.0929
  C  C221  1  0.487500  0.794500  0.858500  1.0  0.6725
  C  C222  1  0.275800  0.958700  0.454600  1.0  -0.1317
  C  C223  1  0.499200  0.787300  0.942300  1.0  -0.2072
  C  C224  1  0.356300  0.991800  0.501200  1.0  -0.1569
  C  C225  1  0.383300  0.981300  0.585400  1.0  0.7052
  C  C226  1  0.157500  0.924700  0.251300  1.0  -0.1218
  C  C227  1  0.175100  0.915500  0.327800  1.0  -0.0929
  C  C228  1  0.249200  0.966400  0.372600  1.0  0.041
  C  C229  1  0.209700  0.981500  0.221200  1.0  0.1491
  C  C230  1  0.299200  0.023200  0.338200  1.0  0.1502
  C  C231  1  0.697000  0.710500  0.103400  1.0  0.1183
  C  C232  1  0.613500  0.757800  0.070200  1.0  0.001
  C  C233  1  0.566000  0.802800  0.115800  1.0  -0.1171
  C  C234  1  0.584000  0.761400  0.987100  1.0  -0.0747
  C  C235  1  0.687600  0.743200  0.221400  1.0  0.1506
  C  C236  1  0.605000  0.793600  0.192000  1.0  -0.0929
  N  N237  1  0.783900  0.468000  0.763800  1.0  -0.3302
  N  N238  1  0.234600  0.797600  0.678200  1.0  -0.317
  N  N239  1  0.283900  0.968000  0.763800  1.0  -0.3302
  N  N240  1  0.734600  0.297600  0.678200  1.0  -0.317
  N  N241  1  0.216100  0.468000  0.736200  1.0  -0.3307
  N  N242  1  0.765400  0.797600  0.821800  1.0  -0.3168
  N  N243  1  0.716100  0.968000  0.736200  1.0  -0.3307
  N  N244  1  0.265400  0.297600  0.821800  1.0  -0.3168
  N  N245  1  0.216100  0.532000  0.236200  1.0  -0.3317
  N  N246  1  0.765400  0.202400  0.321800  1.0  -0.3179
  N  N247  1  0.716100  0.032000  0.236200  1.0  -0.3317
  N  N248  1  0.265400  0.702400  0.321800  1.0  -0.3179
  N  N249  1  0.783900  0.532000  0.263800  1.0  -0.3296
  N  N250  1  0.234600  0.202400  0.178200  1.0  -0.3157
  N  N251  1  0.283900  0.032000  0.263800  1.0  -0.3296
  N  N252  1  0.734600  0.702400  0.178200  1.0  -0.3157
  O  O253  1  0.901200  0.687900  0.319500  1.0  -0.5867
  O  O254  1  0.826800  0.558700  0.115500  1.0  -0.5783
  O  O255  1  0.964000  0.485300  0.118900  1.0  -0.5438
  O  O256  1  0.062500  0.715500  0.335600  1.0  -0.5761
  O  O257  1  0.401200  0.187900  0.319500  1.0  -0.5867
  O  O258  1  0.326800  0.058700  0.115500  1.0  -0.5783
  O  O259  1  0.464000  0.985300  0.118900  1.0  -0.5438
  O  O260  1  0.562500  0.215500  0.335600  1.0  -0.5761
  O  O261  1  0.098800  0.687900  0.180500  1.0  -0.5877
  O  O262  1  0.173200  0.558700  0.384500  1.0  -0.5781
  O  O263  1  0.036000  0.485300  0.381100  1.0  -0.5454
  O  O264  1  0.937500  0.715500  0.164400  1.0  -0.5759
  O  O265  1  0.598800  0.187900  0.180500  1.0  -0.5877
  O  O266  1  0.673200  0.058700  0.384500  1.0  -0.5781
  O  O267  1  0.536000  0.985300  0.381100  1.0  -0.5454
  O  O268  1  0.437500  0.215500  0.164400  1.0  -0.5759
  O  O269  1  0.098800  0.312100  0.680500  1.0  -0.5875
  O  O270  1  0.173200  0.441300  0.884500  1.0  -0.5783
  O  O271  1  0.036000  0.514700  0.881100  1.0  -0.5451
  O  O272  1  0.937500  0.284500  0.664400  1.0  -0.5759
  O  O273  1  0.598800  0.812100  0.680500  1.0  -0.5875
  O  O274  1  0.673200  0.941300  0.884500  1.0  -0.5783
  O  O275  1  0.536000  0.014700  0.881100  1.0  -0.5451
  O  O276  1  0.437500  0.784500  0.664400  1.0  -0.5759
  O  O277  1  0.901200  0.312100  0.819500  1.0  -0.5865
  O  O278  1  0.826800  0.441300  0.615500  1.0  -0.5789
  O  O279  1  0.964000  0.514700  0.618900  1.0  -0.5444
  O  O280  1  0.062500  0.284500  0.835600  1.0  -0.5761
  O  O281  1  0.401200  0.812100  0.819500  1.0  -0.5865
  O  O282  1  0.326800  0.941300  0.615500  1.0  -0.5789
  O  O283  1  0.464000  0.014700  0.618900  1.0  -0.5444
  O  O284  1  0.562500  0.784500  0.835600  1.0  -0.5761
  O  O285  1  0.000000  0.553000  0.250000  1.0  -0.9174
  O  O286  1  0.500000  0.053000  0.250000  1.0  -0.9174
  O  O287  1  0.000000  0.447000  0.750000  1.0  -0.915
  O  O288  1  0.500000  0.947000  0.750000  1.0  -0.915
