# generated using pymatgen
data_Mn3H8(C6N11)2
_symmetry_space_group_name_H-M   'P 1'
_cell_length_a   13.47700000
_cell_length_b   15.23960000
_cell_length_c   26.22000000
_cell_angle_alpha   90.00000000
_cell_angle_beta   90.00000000
_cell_angle_gamma   90.00000000
_symmetry_Int_Tables_number   1
_chemical_formula_structural   Mn3H8(C6N11)2
_chemical_formula_sum   'Mn24 H64 C96 N176'
_cell_volume   5385.17081882
_cell_formula_units_Z   8
loop_
 _symmetry_equiv_pos_site_id
 _symmetry_equiv_pos_as_xyz
  1  'x, y, z'
loop_
 _atom_site_type_symbol
 _atom_site_label
 _atom_site_symmetry_multiplicity
 _atom_site_fract_x
 _atom_site_fract_y
 _atom_site_fract_z
 _atom_site_occupancy
 _atom_site_charge
  Mn  Mn1  1  0.303670  0.959280  0.639820  1.0  0.9724
  Mn  Mn2  1  0.310940  0.250260  0.307430  1.0  0.8653
  Mn  Mn3  1  0.578200  0.469760  0.825760  1.0  0.8072
  Mn  Mn4  1  0.696330  0.540720  0.139820  1.0  0.9739
  Mn  Mn5  1  0.689060  0.249740  0.807430  1.0  0.8658
  Mn  Mn6  1  0.421800  0.030240  0.325760  1.0  0.8084
  Mn  Mn7  1  0.803670  0.040720  0.860180  1.0  0.9718
  Mn  Mn8  1  0.810940  0.749740  0.192570  1.0  0.8656
  Mn  Mn9  1  0.078200  0.530240  0.674240  1.0  0.8086
  Mn  Mn10  1  0.196330  0.459280  0.360180  1.0  0.9713
  Mn  Mn11  1  0.189060  0.750260  0.692570  1.0  0.8658
  Mn  Mn12  1  0.921800  0.969760  0.174240  1.0  0.8088
  Mn  Mn13  1  0.696330  0.040720  0.360180  1.0  0.9722
  Mn  Mn14  1  0.689060  0.749740  0.692570  1.0  0.8658
  Mn  Mn15  1  0.421800  0.530240  0.174240  1.0  0.8094
  Mn  Mn16  1  0.303670  0.459280  0.860180  1.0  0.9701
  Mn  Mn17  1  0.310940  0.750260  0.192570  1.0  0.8654
  Mn  Mn18  1  0.578200  0.969760  0.674240  1.0  0.808
  Mn  Mn19  1  0.196330  0.959280  0.139820  1.0  0.9729
  Mn  Mn20  1  0.189060  0.250260  0.807430  1.0  0.8658
  Mn  Mn21  1  0.921800  0.469760  0.325760  1.0  0.8078
  Mn  Mn22  1  0.803670  0.540720  0.639820  1.0  0.9726
  Mn  Mn23  1  0.810940  0.249740  0.307430  1.0  0.8656
  Mn  Mn24  1  0.078200  0.030240  0.825760  1.0  0.8078
  H  H25  1  0.368700  0.578700  0.634900  1.0  0.1124
  H  H26  1  0.488000  0.387400  0.719000  1.0  0.0781
  H  H27  1  0.512100  0.628900  0.763800  1.0  0.0687
  H  H28  1  0.310800  0.029400  0.531900  1.0  0.0814
  H  H29  1  0.393800  0.430600  0.649400  1.0  0.1346
  H  H30  1  0.123400  0.222900  0.503600  1.0  0.1237
  H  H31  1  0.081400  0.223300  0.589500  1.0  0.1293
  H  H32  1  0.139700  0.114200  0.640100  1.0  0.0667
  H  H33  1  0.631300  0.921300  0.134900  1.0  0.1128
  H  H34  1  0.512000  0.112600  0.219000  1.0  0.0782
  H  H35  1  0.487900  0.871100  0.263800  1.0  0.0693
  H  H36  1  0.689200  0.470600  0.031900  1.0  0.0814
  H  H37  1  0.606200  0.069400  0.149400  1.0  0.1353
  H  H38  1  0.876600  0.277100  0.003600  1.0  0.1231
  H  H39  1  0.918600  0.276700  0.089500  1.0  0.13
  H  H40  1  0.860300  0.385800  0.140100  1.0  0.0675
  H  H41  1  0.868700  0.421300  0.865100  1.0  0.1124
  H  H42  1  0.988000  0.612600  0.781000  1.0  0.0781
  H  H43  1  0.012100  0.371100  0.736200  1.0  0.0692
  H  H44  1  0.810800  0.970600  0.968100  1.0  0.0817
  H  H45  1  0.893800  0.569400  0.850600  1.0  0.1357
  H  H46  1  0.623400  0.777100  0.996400  1.0  0.1234
  H  H47  1  0.581400  0.776700  0.910500  1.0  0.1303
  H  H48  1  0.639700  0.885800  0.859900  1.0  0.0672
  H  H49  1  0.131300  0.078700  0.365100  1.0  0.1128
  H  H50  1  0.012000  0.887400  0.281000  1.0  0.0783
  H  H51  1  0.987900  0.128900  0.236200  1.0  0.0689
  H  H52  1  0.189200  0.529400  0.468100  1.0  0.0815
  H  H53  1  0.106200  0.930600  0.350600  1.0  0.1352
  H  H54  1  0.376600  0.722900  0.496400  1.0  0.1233
  H  H55  1  0.418600  0.723300  0.410500  1.0  0.1308
  H  H56  1  0.360300  0.614200  0.359900  1.0  0.0673
  H  H57  1  0.631300  0.421300  0.365100  1.0  0.1125
  H  H58  1  0.512000  0.612600  0.281000  1.0  0.0782
  H  H59  1  0.487900  0.371100  0.236200  1.0  0.0692
  H  H60  1  0.689200  0.970600  0.468100  1.0  0.0816
  H  H61  1  0.606200  0.569400  0.350600  1.0  0.1358
  H  H62  1  0.876600  0.777100  0.496400  1.0  0.1234
  H  H63  1  0.918600  0.776700  0.410500  1.0  0.1308
  H  H64  1  0.860300  0.885800  0.359900  1.0  0.0674
  H  H65  1  0.368700  0.078700  0.865100  1.0  0.1126
  H  H66  1  0.488000  0.887400  0.781000  1.0  0.0784
  H  H67  1  0.512100  0.128900  0.736200  1.0  0.0689
  H  H68  1  0.310800  0.529400  0.968100  1.0  0.0819
  H  H69  1  0.393800  0.930600  0.850600  1.0  0.1354
  H  H70  1  0.123400  0.722900  0.996400  1.0  0.1234
  H  H71  1  0.081400  0.723300  0.910500  1.0  0.1308
  H  H72  1  0.139700  0.614200  0.859900  1.0  0.0671
  H  H73  1  0.131300  0.578700  0.134900  1.0  0.1126
  H  H74  1  0.012000  0.387400  0.219000  1.0  0.078
  H  H75  1  0.987900  0.628900  0.263800  1.0  0.0688
  H  H76  1  0.189200  0.029400  0.031900  1.0  0.0808
  H  H77  1  0.106200  0.430600  0.149400  1.0  0.1346
  H  H78  1  0.376600  0.222900  0.003600  1.0  0.1235
  H  H79  1  0.418600  0.223300  0.089500  1.0  0.1297
  H  H80  1  0.360300  0.114200  0.140100  1.0  0.067
  H  H81  1  0.868700  0.921300  0.634900  1.0  0.1126
  H  H82  1  0.988000  0.112600  0.719000  1.0  0.0781
  H  H83  1  0.012100  0.871100  0.763800  1.0  0.0692
  H  H84  1  0.810800  0.470600  0.531900  1.0  0.0816
  H  H85  1  0.893800  0.069400  0.649400  1.0  0.1355
  H  H86  1  0.623400  0.277100  0.503600  1.0  0.1232
  H  H87  1  0.581400  0.276700  0.589500  1.0  0.1292
  H  H88  1  0.639700  0.385800  0.640100  1.0  0.0672
  C  C89  1  0.404100  0.559700  0.663300  1.0  0.028
  C  C90  1  0.473700  0.446600  0.714500  1.0  0.1593
  C  C91  1  0.489700  0.588300  0.739900  1.0  0.1679
  C  C92  1  0.442200  0.619200  0.697600  1.0  -0.1246
  C  C93  1  0.322600  0.068900  0.436700  1.0  -0.48
  C  C94  1  0.263400  0.069200  0.543300  1.0  0.1364
  C  C95  1  0.437500  0.716400  0.690000  1.0  0.3603
  C  C96  1  0.419300  0.472300  0.671800  1.0  -0.1522
  C  C97  1  0.229700  0.131400  0.509400  1.0  0.0361
  C  C98  1  0.154700  0.184900  0.526200  1.0  -0.0306
  C  C99  1  0.125800  0.182200  0.576600  1.0  -0.1415
  C  C100  1  0.163400  0.118700  0.606900  1.0  0.1786
  C  C101  1  0.595900  0.940300  0.163300  1.0  0.0253
  C  C102  1  0.526300  0.053400  0.214500  1.0  0.1585
  C  C103  1  0.510300  0.911700  0.239900  1.0  0.1674
  C  C104  1  0.557800  0.880800  0.197600  1.0  -0.1279
  C  C105  1  0.677400  0.431100  0.936700  1.0  -0.4741
  C  C106  1  0.736600  0.430800  0.043300  1.0  0.1383
  C  C107  1  0.562500  0.783600  0.190000  1.0  0.3604
  C  C108  1  0.580700  0.027700  0.171800  1.0  -0.1501
  C  C109  1  0.770300  0.368600  0.009400  1.0  0.0356
  C  C110  1  0.845300  0.315100  0.026200  1.0  -0.0308
  C  C111  1  0.874200  0.317800  0.076600  1.0  -0.1369
  C  C112  1  0.836600  0.381300  0.106900  1.0  0.1784
  C  C113  1  0.904100  0.440300  0.836700  1.0  0.0283
  C  C114  1  0.973700  0.553400  0.785500  1.0  0.1594
  C  C115  1  0.989700  0.411700  0.760100  1.0  0.1681
  C  C116  1  0.942200  0.380800  0.802400  1.0  -0.1248
  C  C117  1  0.822600  0.931100  0.063300  1.0  -0.4769
  C  C118  1  0.763400  0.930800  0.956700  1.0  0.1359
  C  C119  1  0.937500  0.283600  0.810000  1.0  0.3585
  C  C120  1  0.919300  0.527700  0.828200  1.0  -0.1503
  C  C121  1  0.729700  0.868600  0.990600  1.0  0.0355
  C  C122  1  0.654700  0.815100  0.973800  1.0  -0.0299
  C  C123  1  0.625800  0.817800  0.923400  1.0  -0.1398
  C  C124  1  0.663400  0.881300  0.893100  1.0  0.1776
  C  C125  1  0.095900  0.059700  0.336700  1.0  0.0264
  C  C126  1  0.026300  0.946600  0.285500  1.0  0.1593
  C  C127  1  0.010300  0.088300  0.260100  1.0  0.1677
  C  C128  1  0.057800  0.119200  0.302400  1.0  -0.1265
  C  C129  1  0.177400  0.568900  0.563300  1.0  -0.4739
  C  C130  1  0.236600  0.569200  0.456700  1.0  0.1447
  C  C131  1  0.062500  0.216400  0.310000  1.0  0.3608
  C  C132  1  0.080700  0.972300  0.328200  1.0  -0.1465
  C  C133  1  0.270300  0.631400  0.490600  1.0  0.0346
  C  C134  1  0.345300  0.684900  0.473800  1.0  -0.0312
  C  C135  1  0.374200  0.682200  0.423400  1.0  -0.1373
  C  C136  1  0.336600  0.618700  0.393100  1.0  0.177
  C  C137  1  0.595900  0.440300  0.336700  1.0  0.0261
  C  C138  1  0.526300  0.553400  0.285500  1.0  0.1589
  C  C139  1  0.510300  0.411700  0.260100  1.0  0.1677
  C  C140  1  0.557800  0.380800  0.302400  1.0  -0.1278
  C  C141  1  0.677400  0.931100  0.563300  1.0  -0.4695
  C  C142  1  0.736600  0.930800  0.456700  1.0  0.1416
  C  C143  1  0.562500  0.283600  0.310000  1.0  0.3603
  C  C144  1  0.580700  0.527700  0.328200  1.0  -0.1479
  C  C145  1  0.770300  0.868600  0.490600  1.0  0.0351
  C  C146  1  0.845300  0.815100  0.473800  1.0  -0.0306
  C  C147  1  0.874200  0.817800  0.423400  1.0  -0.1362
  C  C148  1  0.836600  0.881300  0.393100  1.0  0.177
  C  C149  1  0.404100  0.059700  0.836700  1.0  0.0282
  C  C150  1  0.473700  0.946600  0.785500  1.0  0.1596
  C  C151  1  0.489700  0.088300  0.760100  1.0  0.1682
  C  C152  1  0.442200  0.119200  0.802400  1.0  -0.1235
  C  C153  1  0.322600  0.568900  0.063300  1.0  -0.4836
  C  C154  1  0.263400  0.569200  0.956700  1.0  0.139
  C  C155  1  0.437500  0.216400  0.810000  1.0  0.3603
  C  C156  1  0.419300  0.972300  0.828200  1.0  -0.1503
  C  C157  1  0.229700  0.631400  0.990600  1.0  0.0349
  C  C158  1  0.154700  0.684900  0.973800  1.0  -0.0316
  C  C159  1  0.125800  0.682200  0.923400  1.0  -0.1401
  C  C160  1  0.163400  0.618700  0.893100  1.0  0.1775
  C  C161  1  0.095900  0.559700  0.163300  1.0  0.0251
  C  C162  1  0.026300  0.446600  0.214500  1.0  0.1591
  C  C163  1  0.010300  0.588300  0.239900  1.0  0.1671
  C  C164  1  0.057800  0.619200  0.197600  1.0  -0.1265
  C  C165  1  0.177400  0.068900  0.936700  1.0  -0.4792
  C  C166  1  0.236600  0.069200  0.043300  1.0  0.1433
  C  C167  1  0.062500  0.716400  0.190000  1.0  0.3609
  C  C168  1  0.080700  0.472300  0.171800  1.0  -0.1488
  C  C169  1  0.270300  0.131400  0.009400  1.0  0.0359
  C  C170  1  0.345300  0.184900  0.026200  1.0  -0.031
  C  C171  1  0.374200  0.182200  0.076600  1.0  -0.1384
  C  C172  1  0.336600  0.118700  0.106900  1.0  0.1785
  C  C173  1  0.904100  0.940300  0.663300  1.0  0.0281
  C  C174  1  0.973700  0.053400  0.714500  1.0  0.1588
  C  C175  1  0.989700  0.911700  0.739900  1.0  0.168
  C  C176  1  0.942200  0.880800  0.697600  1.0  -0.125
  C  C177  1  0.822600  0.431100  0.436700  1.0  -0.4733
  C  C178  1  0.763400  0.430800  0.543300  1.0  0.1363
  C  C179  1  0.937500  0.783600  0.690000  1.0  0.3586
  C  C180  1  0.919300  0.027700  0.671800  1.0  -0.1513
  C  C181  1  0.729700  0.368600  0.509400  1.0  0.0361
  C  C182  1  0.654700  0.315100  0.526200  1.0  -0.0302
  C  C183  1  0.625800  0.317800  0.576600  1.0  -0.1408
  C  C184  1  0.663400  0.381300  0.606900  1.0  0.1788
  N  N185  1  0.307500  0.177300  0.383270  1.0  -0.0435
  N  N186  1  0.058400  0.870500  0.580000  1.0  -0.3766
  N  N187  1  0.173000  0.874600  0.650600  1.0  -0.6866
  N  N188  1  0.258200  0.201900  0.425600  1.0  -0.262
  N  N189  1  0.506000  0.503700  0.749100  1.0  -0.3375
  N  N190  1  0.229100  0.074000  0.743600  1.0  0.5529
  N  N191  1  0.344900  0.097900  0.390600  1.0  -0.074
  N  N192  1  0.114600  0.873300  0.614300  1.0  0.4916
  N  N193  1  0.447800  0.101700  0.627500  1.0  0.5196
  N  N194  1  0.291700  0.298700  0.231700  1.0  -0.5184
  N  N195  1  0.312500  0.358600  0.203300  1.0  0.491
  N  N196  1  0.268800  0.035000  0.710600  1.0  -0.49
  N  N197  1  0.355200  0.763200  0.682780  1.0  -0.2615
  N  N198  1  0.331200  0.416700  0.172600  1.0  -0.4939
  N  N199  1  0.519300  0.765100  0.689420  1.0  -0.2902
  N  N200  1  0.484900  0.847500  0.680940  1.0  -0.0079
  N  N201  1  0.188400  0.111900  0.777600  1.0  -0.591
  N  N202  1  0.450100  0.024200  0.634700  1.0  -0.6533
  N  N203  1  0.270800  0.132200  0.456800  1.0  0.3045
  N  N204  1  0.444400  0.180300  0.625200  1.0  -0.4216
  N  N205  1  0.232000  0.062600  0.591800  1.0  -0.3667
  N  N206  1  0.388500  0.845900  0.677040  1.0  -0.0688
  N  N207  1  0.692500  0.322700  0.883270  1.0  -0.0441
  N  N208  1  0.941600  0.629500  0.080000  1.0  -0.376
  N  N209  1  0.827000  0.625400  0.150600  1.0  -0.6878
  N  N210  1  0.741800  0.298100  0.925600  1.0  -0.2573
  N  N211  1  0.494000  0.996300  0.249100  1.0  -0.3385
  N  N212  1  0.770900  0.426000  0.243600  1.0  0.5529
  N  N213  1  0.655100  0.402100  0.890600  1.0  -0.0753
  N  N214  1  0.885400  0.626700  0.114300  1.0  0.4909
  N  N215  1  0.552200  0.398300  0.127500  1.0  0.5206
  N  N216  1  0.708300  0.201300  0.731700  1.0  -0.5186
  N  N217  1  0.687500  0.141400  0.703300  1.0  0.4909
  N  N218  1  0.731200  0.465000  0.210600  1.0  -0.4906
  N  N219  1  0.644800  0.736800  0.182780  1.0  -0.2622
  N  N220  1  0.668800  0.083300  0.672600  1.0  -0.4943
  N  N221  1  0.480700  0.734900  0.189420  1.0  -0.2907
  N  N222  1  0.515100  0.652500  0.180940  1.0  -0.0088
  N  N223  1  0.811600  0.388100  0.277600  1.0  -0.5929
  N  N224  1  0.549900  0.475800  0.134700  1.0  -0.6539
  N  N225  1  0.729200  0.367800  0.956800  1.0  0.3038
  N  N226  1  0.555600  0.319700  0.125200  1.0  -0.4209
  N  N227  1  0.768000  0.437400  0.091800  1.0  -0.3667
  N  N228  1  0.611500  0.654100  0.177040  1.0  -0.0679
  N  N229  1  0.807500  0.822700  0.116730  1.0  -0.0441
  N  N230  1  0.558400  0.129500  0.920000  1.0  -0.3764
  N  N231  1  0.673000  0.125400  0.849400  1.0  -0.6889
  N  N232  1  0.758200  0.798100  0.074400  1.0  -0.2626
  N  N233  1  0.006000  0.496300  0.750900  1.0  -0.342
  N  N234  1  0.729100  0.926000  0.756400  1.0  0.5527
  N  N235  1  0.844900  0.902100  0.109400  1.0  -0.0746
  N  N236  1  0.614600  0.126700  0.885700  1.0  0.4906
  N  N237  1  0.947800  0.898300  0.872500  1.0  0.521
  N  N238  1  0.791700  0.701300  0.268300  1.0  -0.5205
  N  N239  1  0.812500  0.641400  0.296700  1.0  0.4904
  N  N240  1  0.768800  0.965000  0.789400  1.0  -0.4897
  N  N241  1  0.855200  0.236800  0.817220  1.0  -0.2614
  N  N242  1  0.831200  0.583300  0.327400  1.0  -0.494
  N  N243  1  0.019300  0.234900  0.810580  1.0  -0.2905
  N  N244  1  0.984900  0.152500  0.819060  1.0  -0.0066
  N  N245  1  0.688400  0.888100  0.722400  1.0  -0.5925
  N  N246  1  0.950100  0.975800  0.865300  1.0  -0.6531
  N  N247  1  0.770800  0.867800  0.043200  1.0  0.3049
  N  N248  1  0.944400  0.819700  0.874800  1.0  -0.4197
  N  N249  1  0.732000  0.937400  0.908200  1.0  -0.3688
  N  N250  1  0.888500  0.154100  0.822960  1.0  -0.0688
  N  N251  1  0.192500  0.677300  0.616730  1.0  -0.0446
  N  N252  1  0.441600  0.370500  0.420000  1.0  -0.3762
  N  N253  1  0.327000  0.374600  0.349400  1.0  -0.6895
  N  N254  1  0.241800  0.701900  0.574400  1.0  -0.2541
  N  N255  1  0.994000  0.003700  0.250900  1.0  -0.342
  N  N256  1  0.270900  0.574000  0.256400  1.0  0.5526
  N  N257  1  0.155100  0.597900  0.609400  1.0  -0.0746
  N  N258  1  0.385400  0.373300  0.385700  1.0  0.4906
  N  N259  1  0.052200  0.601700  0.372500  1.0  0.5191
  N  N260  1  0.208300  0.798700  0.768300  1.0  -0.5186
  N  N261  1  0.187500  0.858600  0.796700  1.0  0.491
  N  N262  1  0.231200  0.535000  0.289400  1.0  -0.49
  N  N263  1  0.144800  0.263200  0.317220  1.0  -0.2623
  N  N264  1  0.168800  0.916700  0.827400  1.0  -0.492
  N  N265  1  0.980700  0.265100  0.310580  1.0  -0.2907
  N  N266  1  0.015100  0.347500  0.319060  1.0  -0.008
  N  N267  1  0.311600  0.611900  0.222400  1.0  -0.5929
  N  N268  1  0.049900  0.524200  0.365300  1.0  -0.6501
  N  N269  1  0.229200  0.632200  0.543200  1.0  0.3046
  N  N270  1  0.055600  0.680300  0.374800  1.0  -0.4212
  N  N271  1  0.268000  0.562600  0.408200  1.0  -0.3687
  N  N272  1  0.111500  0.345900  0.322960  1.0  -0.0695
  N  N273  1  0.692500  0.822700  0.616730  1.0  -0.0449
  N  N274  1  0.941600  0.129500  0.420000  1.0  -0.3762
  N  N275  1  0.827000  0.125400  0.349400  1.0  -0.6895
  N  N276  1  0.741800  0.798100  0.574400  1.0  -0.2555
  N  N277  1  0.494000  0.496300  0.250900  1.0  -0.3412
  N  N278  1  0.770900  0.926000  0.256400  1.0  0.5525
  N  N279  1  0.655100  0.902100  0.609400  1.0  -0.0744
  N  N280  1  0.885400  0.126700  0.385700  1.0  0.4907
  N  N281  1  0.552200  0.898300  0.372500  1.0  0.5205
  N  N282  1  0.708300  0.701300  0.768300  1.0  -0.5198
  N  N283  1  0.687500  0.641400  0.796700  1.0  0.4909
  N  N284  1  0.731200  0.965000  0.289400  1.0  -0.4901
  N  N285  1  0.644800  0.236800  0.317220  1.0  -0.2622
  N  N286  1  0.668800  0.583300  0.827400  1.0  -0.4933
  N  N287  1  0.480700  0.234900  0.310580  1.0  -0.2908
  N  N288  1  0.515100  0.152500  0.319060  1.0  -0.0075
  N  N289  1  0.811600  0.888100  0.222400  1.0  -0.5934
  N  N290  1  0.549900  0.975800  0.365300  1.0  -0.6538
  N  N291  1  0.729200  0.867800  0.543200  1.0  0.3046
  N  N292  1  0.555600  0.819700  0.374800  1.0  -0.4201
  N  N293  1  0.768000  0.937400  0.408200  1.0  -0.368
  N  N294  1  0.611500  0.154100  0.322960  1.0  -0.0677
  N  N295  1  0.307500  0.677300  0.116730  1.0  -0.044
  N  N296  1  0.058400  0.370500  0.920000  1.0  -0.3765
  N  N297  1  0.173000  0.374600  0.849400  1.0  -0.6885
  N  N298  1  0.258200  0.701900  0.074400  1.0  -0.2612
  N  N299  1  0.506000  0.003700  0.750900  1.0  -0.3419
  N  N300  1  0.229100  0.574000  0.756400  1.0  0.5526
  N  N301  1  0.344900  0.597900  0.109400  1.0  -0.0743
  N  N302  1  0.114600  0.373300  0.885700  1.0  0.4906
  N  N303  1  0.447800  0.601700  0.872500  1.0  0.5195
  N  N304  1  0.291700  0.798700  0.268300  1.0  -0.5192
  N  N305  1  0.312500  0.858600  0.296700  1.0  0.4906
  N  N306  1  0.268800  0.535000  0.789400  1.0  -0.4895
  N  N307  1  0.355200  0.263200  0.817220  1.0  -0.2614
  N  N308  1  0.331200  0.916700  0.327400  1.0  -0.493
  N  N309  1  0.519300  0.265100  0.810580  1.0  -0.2904
  N  N310  1  0.484900  0.347500  0.819060  1.0  -0.0077
  N  N311  1  0.188400  0.611900  0.722400  1.0  -0.5917
  N  N312  1  0.450100  0.524200  0.865300  1.0  -0.653
  N  N313  1  0.270800  0.632200  0.043200  1.0  0.3048
  N  N314  1  0.444400  0.680300  0.874800  1.0  -0.4207
  N  N315  1  0.232000  0.562600  0.908200  1.0  -0.3688
  N  N316  1  0.388500  0.345900  0.822960  1.0  -0.0699
  N  N317  1  0.192500  0.177300  0.883270  1.0  -0.0442
  N  N318  1  0.441600  0.870500  0.080000  1.0  -0.3761
  N  N319  1  0.327000  0.874600  0.150600  1.0  -0.6875
  N  N320  1  0.241800  0.201900  0.925600  1.0  -0.2544
  N  N321  1  0.994000  0.503700  0.249100  1.0  -0.338
  N  N322  1  0.270900  0.074000  0.243600  1.0  0.5529
  N  N323  1  0.155100  0.097900  0.890600  1.0  -0.0742
  N  N324  1  0.385400  0.873300  0.114300  1.0  0.4911
  N  N325  1  0.052200  0.101700  0.127500  1.0  0.5195
  N  N326  1  0.208300  0.298700  0.731700  1.0  -0.5178
  N  N327  1  0.187500  0.358600  0.703300  1.0  0.491
  N  N328  1  0.231200  0.035000  0.210600  1.0  -0.4902
  N  N329  1  0.144800  0.763200  0.182780  1.0  -0.2623
  N  N330  1  0.168800  0.416700  0.672600  1.0  -0.4939
  N  N331  1  0.980700  0.765100  0.189420  1.0  -0.2906
  N  N332  1  0.015100  0.847500  0.180940  1.0  -0.0082
  N  N333  1  0.311600  0.111900  0.277600  1.0  -0.5921
  N  N334  1  0.049900  0.024200  0.134700  1.0  -0.6507
  N  N335  1  0.229200  0.132200  0.956800  1.0  0.3039
  N  N336  1  0.055600  0.180300  0.125200  1.0  -0.4218
  N  N337  1  0.268000  0.062600  0.091800  1.0  -0.3673
  N  N338  1  0.111500  0.845900  0.177040  1.0  -0.0688
  N  N339  1  0.807500  0.322700  0.383270  1.0  -0.0433
  N  N340  1  0.558400  0.629500  0.580000  1.0  -0.3764
  N  N341  1  0.673000  0.625400  0.650600  1.0  -0.6879
  N  N342  1  0.758200  0.298100  0.425600  1.0  -0.2646
  N  N343  1  0.006000  0.996300  0.749100  1.0  -0.3392
  N  N344  1  0.729100  0.426000  0.743600  1.0  0.553
  N  N345  1  0.844900  0.402100  0.390600  1.0  -0.0756
  N  N346  1  0.614600  0.626700  0.614300  1.0  0.4913
  N  N347  1  0.947800  0.398300  0.627500  1.0  0.5209
  N  N348  1  0.791700  0.201300  0.231700  1.0  -0.5192
  N  N349  1  0.812500  0.141400  0.203300  1.0  0.4904
  N  N350  1  0.768800  0.465000  0.710600  1.0  -0.4904
  N  N351  1  0.855200  0.736800  0.682780  1.0  -0.2614
  N  N352  1  0.831200  0.083300  0.172600  1.0  -0.4943
  N  N353  1  0.019300  0.734900  0.689420  1.0  -0.2904
  N  N354  1  0.984900  0.652500  0.680940  1.0  -0.0079
  N  N355  1  0.688400  0.388100  0.777600  1.0  -0.592
  N  N356  1  0.950100  0.475800  0.634700  1.0  -0.6536
  N  N357  1  0.770800  0.367800  0.456800  1.0  0.3045
  N  N358  1  0.944400  0.319700  0.625200  1.0  -0.4208
  N  N359  1  0.732000  0.437400  0.591800  1.0  -0.3667
  N  N360  1  0.888500  0.654100  0.677040  1.0  -0.0688
