# generated using pymatgen
data_Nd2H24C42(SO6)3
_symmetry_space_group_name_H-M   'P 1'
_cell_length_a   14.88300000
_cell_length_b   16.79500000
_cell_length_c   17.49000000
_cell_angle_alpha   93.19200000
_cell_angle_beta   114.06300000
_cell_angle_gamma   103.78200000
_symmetry_Int_Tables_number   1
_chemical_formula_structural   Nd2H24C42(SO6)3
_chemical_formula_sum   'Nd4 H48 C84 S6 O36'
_cell_volume   3818.95374778
_cell_formula_units_Z   2
loop_
 _symmetry_equiv_pos_site_id
 _symmetry_equiv_pos_as_xyz
  1  'x, y, z'
loop_
 _atom_site_type_symbol
 _atom_site_label
 _atom_site_symmetry_multiplicity
 _atom_site_fract_x
 _atom_site_fract_y
 _atom_site_fract_z
 _atom_site_occupancy
 _atom_site_charge
  Nd  Nd1  1  0.124500  0.965450  0.579070  1.0  2.2527
  Nd  Nd2  1  0.126110  0.465110  0.003670  1.0  2.2363
  Nd  Nd3  1  0.875500  0.034550  0.420930  1.0  2.2516
  Nd  Nd4  1  0.873890  0.534890  0.996330  1.0  2.2356
  H  H5  1  0.253700  0.004200  0.377200  1.0  0.1132
  H  H6  1  0.305200  0.009700  0.268200  1.0  0.1095
  H  H7  1  0.037900  0.045600  0.114700  1.0  0.1012
  H  H8  1  0.989300  0.042900  0.222500  1.0  0.1172
  H  H9  1  0.335600  0.914300  0.110900  1.0  0.1228
  H  H10  1  0.306300  0.771700  0.084800  1.0  0.1124
  H  H11  1  0.001100  0.737200  0.994900  1.0  0.1126
  H  H12  1  0.031200  0.881200  0.017700  1.0  0.1111
  H  H13  1  0.006000  0.237700  0.530800  1.0  0.1064
  H  H14  1  0.034800  0.378600  0.520600  1.0  0.1184
  H  H15  1  0.338700  0.404200  0.605800  1.0  0.1221
  H  H16  1  0.306500  0.264100  0.615600  1.0  0.1066
  H  H17  1  0.301900  0.497200  0.439300  1.0  0.1167
  H  H18  1  0.244400  0.494300  0.292900  1.0  0.0939
  H  H19  1  0.970300  0.508800  0.270200  1.0  0.121
  H  H20  1  0.029200  0.515000  0.418600  1.0  0.1005
  H  H21  1  0.455300  0.944600  0.576700  1.0  0.1103
  H  H22  1  0.572100  0.878700  0.568400  1.0  0.1078
  H  H23  1  0.352300  0.661600  0.487800  1.0  0.0993
  H  H24  1  0.237600  0.729300  0.495900  1.0  0.1099
  H  H25  1  0.720500  0.788400  0.686900  1.0  0.0936
  H  H26  1  0.790900  0.748600  0.819900  1.0  0.1202
  H  H27  1  0.575400  0.524600  0.722800  1.0  0.1117
  H  H28  1  0.507900  0.566000  0.590700  1.0  0.1085
  H  H29  1  0.746300  0.995800  0.622800  1.0  0.1126
  H  H30  1  0.694800  0.990300  0.731800  1.0  0.1089
  H  H31  1  0.962100  0.954400  0.885300  1.0  0.1015
  H  H32  1  0.010700  0.957100  0.777500  1.0  0.1175
  H  H33  1  0.664400  0.085700  0.889100  1.0  0.1216
  H  H34  1  0.693700  0.228300  0.915200  1.0  0.112
  H  H35  1  0.998900  0.262800  0.005100  1.0  0.1123
  H  H36  1  0.968800  0.118800  0.982300  1.0  0.111
  H  H37  1  0.994000  0.762300  0.469200  1.0  0.1064
  H  H38  1  0.965200  0.621400  0.479400  1.0  0.1181
  H  H39  1  0.661300  0.595800  0.394200  1.0  0.1223
  H  H40  1  0.693500  0.735900  0.384400  1.0  0.1051
  H  H41  1  0.698100  0.502800  0.560700  1.0  0.1162
  H  H42  1  0.755600  0.505700  0.707100  1.0  0.0937
  H  H43  1  0.029700  0.491200  0.729800  1.0  0.1205
  H  H44  1  0.970800  0.485000  0.581400  1.0  0.1004
  H  H45  1  0.544700  0.055400  0.423300  1.0  0.1099
  H  H46  1  0.427900  0.121300  0.431600  1.0  0.1082
  H  H47  1  0.647700  0.338400  0.512200  1.0  0.1006
  H  H48  1  0.762400  0.270700  0.504100  1.0  0.1098
  H  H49  1  0.279500  0.211600  0.313100  1.0  0.0934
  H  H50  1  0.209100  0.251400  0.180100  1.0  0.12
  H  H51  1  0.424600  0.475400  0.277200  1.0  0.1115
  H  H52  1  0.492100  0.434000  0.409300  1.0  0.1088
  C  C53  1  0.078600  0.014400  0.379900  1.0  0.7831
  C  C54  1  0.116000  0.021900  0.309100  1.0  -0.1232
  C  C55  1  0.210600  0.012500  0.324000  1.0  -0.0289
  C  C56  1  0.241100  0.015500  0.258800  1.0  -0.0124
  C  C57  1  0.176500  0.027200  0.180100  1.0  -0.1895
  C  C58  1  0.081700  0.037400  0.167600  1.0  -0.0269
  C  C59  1  0.052500  0.035300  0.231300  1.0  -0.0304
  C  C60  1  0.186800  0.909800  0.069300  1.0  -0.1776
  C  C61  1  0.269100  0.878800  0.088200  1.0  -0.0507
  C  C62  1  0.251100  0.793600  0.072800  1.0  -0.0381
  C  C63  1  0.150800  0.739100  0.039400  1.0  -0.1338
  C  C64  1  0.067900  0.772200  0.018300  1.0  -0.0504
  C  C65  1  0.085900  0.858400  0.032600  1.0  -0.0532
  C  C66  1  0.134200  0.645500  0.029500  1.0  0.7481
  C  C67  1  0.136900  0.144100  0.575300  1.0  0.7679
  C  C68  1  0.153700  0.236900  0.572500  1.0  -0.138
  C  C69  1  0.072100  0.271100  0.545300  1.0  -0.0489
  C  C70  1  0.089100  0.355200  0.539700  1.0  -0.0544
  C  C71  1  0.189500  0.403400  0.563300  1.0  -0.1932
  C  C72  1  0.272400  0.371100  0.591100  1.0  -0.0813
  C  C73  1  0.252100  0.287300  0.595900  1.0  -0.0149
  C  C74  1  0.169600  0.506900  0.441700  1.0  -0.2017
  C  C75  1  0.236000  0.500300  0.405900  1.0  -0.0342
  C  C76  1  0.201100  0.498300  0.318100  1.0  -0.0181
  C  C77  1  0.103400  0.502200  0.269000  1.0  -0.1328
  C  C78  1  0.036800  0.507400  0.304000  1.0  -0.0428
  C  C79  1  0.072300  0.510500  0.393200  1.0  -0.0265
  C  C80  1  0.066800  0.499400  0.172800  1.0  0.7773
  C  C81  1  0.263600  0.884900  0.552400  1.0  0.6958
  C  C82  1  0.337000  0.843200  0.539900  1.0  -0.0969
  C  C83  1  0.434800  0.887300  0.559500  1.0  -0.0564
  C  C84  1  0.504900  0.848100  0.554300  1.0  -0.0454
  C  C85  1  0.473600  0.763200  0.527900  1.0  -0.1854
  C  C86  1  0.373800  0.718800  0.506200  1.0  -0.0134
  C  C87  1  0.305400  0.759300  0.511600  1.0  -0.0513
  C  C88  1  0.610100  0.680500  0.626000  1.0  -0.1923
  C  C89  1  0.692500  0.735300  0.694300  1.0  -0.0351
  C  C90  1  0.734500  0.712200  0.774600  1.0  -0.0827
  C  C91  1  0.688500  0.631900  0.784600  1.0  -0.1039
  C  C92  1  0.604700  0.577400  0.715800  1.0  -0.0656
  C  C93  1  0.564500  0.602000  0.636200  1.0  -0.029
  C  C94  1  0.737800  0.604200  0.866300  1.0  0.6845
  C  C95  1  0.921400  0.985600  0.620100  1.0  0.7832
  C  C96  1  0.884000  0.978100  0.690900  1.0  -0.1213
  C  C97  1  0.789400  0.987500  0.676000  1.0  -0.0274
  C  C98  1  0.758900  0.984500  0.741200  1.0  -0.0138
  C  C99  1  0.823500  0.972800  0.819900  1.0  -0.1894
  C  C100  1  0.918300  0.962600  0.832400  1.0  -0.0271
  C  C101  1  0.947500  0.964700  0.768700  1.0  -0.0314
  C  C102  1  0.813200  0.090200  0.930700  1.0  -0.1764
  C  C103  1  0.730900  0.121200  0.911800  1.0  -0.05
  C  C104  1  0.748900  0.206400  0.927200  1.0  -0.0373
  C  C105  1  0.849200  0.260900  0.960600  1.0  -0.1343
  C  C106  1  0.932100  0.227800  0.981700  1.0  -0.0503
  C  C107  1  0.914100  0.141600  0.967400  1.0  -0.0528
  C  C108  1  0.865800  0.354500  0.970500  1.0  0.7516
  C  C109  1  0.863100  0.855900  0.424700  1.0  0.7668
  C  C110  1  0.846300  0.763100  0.427500  1.0  -0.1373
  C  C111  1  0.927900  0.728900  0.454700  1.0  -0.05
  C  C112  1  0.910900  0.644800  0.460300  1.0  -0.0547
  C  C113  1  0.810500  0.596600  0.436700  1.0  -0.1938
  C  C114  1  0.727600  0.628900  0.408900  1.0  -0.0724
  C  C115  1  0.747900  0.712700  0.404100  1.0  -0.017
  C  C116  1  0.830400  0.493100  0.558300  1.0  -0.2027
  C  C117  1  0.764000  0.499700  0.594100  1.0  -0.0346
  C  C118  1  0.798900  0.501700  0.681900  1.0  -0.0191
  C  C119  1  0.896600  0.497800  0.731000  1.0  -0.1331
  C  C120  1  0.963200  0.492600  0.696000  1.0  -0.0419
  C  C121  1  0.927700  0.489500  0.606800  1.0  -0.029
  C  C122  1  0.933200  0.500600  0.827200  1.0  0.7781
  C  C123  1  0.736400  0.115100  0.447600  1.0  0.6969
  C  C124  1  0.663000  0.156800  0.460100  1.0  -0.0979
  C  C125  1  0.565200  0.112700  0.440500  1.0  -0.0544
  C  C126  1  0.495100  0.151900  0.445700  1.0  -0.0464
  C  C127  1  0.526400  0.236800  0.472100  1.0  -0.1845
  C  C128  1  0.626200  0.281200  0.493800  1.0  -0.0143
  C  C129  1  0.694600  0.240700  0.488400  1.0  -0.0511
  C  C130  1  0.389900  0.319500  0.374000  1.0  -0.1918
  C  C131  1  0.307500  0.264700  0.305700  1.0  -0.0349
  C  C132  1  0.265500  0.287800  0.225400  1.0  -0.0776
  C  C133  1  0.311500  0.368100  0.215400  1.0  -0.1048
  C  C134  1  0.395300  0.422600  0.284200  1.0  -0.057
  C  C135  1  0.435500  0.398000  0.363800  1.0  -0.0312
  C  C136  1  0.262200  0.395800  0.133700  1.0  0.6846
  S  S137  1  0.208300  0.019300  0.093180  1.0  1.0933
  S  S138  1  0.211000  0.510330  0.552800  1.0  1.1094
  S  S139  1  0.562900  0.710800  0.525740  1.0  1.1264
  S  S140  1  0.791700  0.980700  0.906820  1.0  1.094
  S  S141  1  0.789000  0.489670  0.447200  1.0  1.1092
  S  S142  1  0.437100  0.289200  0.474260  1.0  1.1267
  O  O143  1  0.137900  0.002500  0.449200  1.0  -0.6665
  O  O144  1  0.987600  0.018400  0.357300  1.0  -0.7849
  O  O145  1  0.134100  0.045400  0.022100  1.0  -0.5653
  O  O146  1  0.317600  0.058200  0.123500  1.0  -0.5548
  O  O147  1  0.208900  0.618100  0.036400  1.0  -0.6824
  O  O148  1  0.047000  0.598200  0.013300  1.0  -0.8082
  O  O149  1  0.047000  0.096200  0.534100  1.0  -0.8508
  O  O150  1  0.210400  0.119000  0.618600  1.0  -0.6714
  O  O151  1  0.320000  0.549800  0.595100  1.0  -0.558
  O  O152  1  0.143000  0.543100  0.576300  1.0  -0.5658
  O  O153  1  0.975100  0.503000  0.134100  1.0  -0.7517
  O  O154  1  0.128800  0.494500  0.143800  1.0  -0.6725
  O  O155  1  0.169100  0.849500  0.515900  1.0  -0.7082
  O  O156  1  0.297800  0.954300  0.600500  1.0  -0.7011
  O  O157  1  0.646100  0.770800  0.521700  1.0  -0.5527
  O  O158  1  0.507900  0.636000  0.462700  1.0  -0.5754
  O  O159  1  0.824900  0.651100  0.921500  1.0  -0.7022
  O  O160  1  0.698600  0.534300  0.879400  1.0  -0.6904
  O  O161  1  0.862100  0.997500  0.550800  1.0  -0.666
  O  O162  1  0.012400  0.981600  0.642700  1.0  -0.7874
  O  O163  1  0.865900  0.954600  0.977900  1.0  -0.5668
  O  O164  1  0.682400  0.941800  0.876500  1.0  -0.5536
  O  O165  1  0.791100  0.381900  0.963600  1.0  -0.6818
  O  O166  1  0.953000  0.401800  0.986700  1.0  -0.808
  O  O167  1  0.953000  0.903800  0.465900  1.0  -0.8513
  O  O168  1  0.789600  0.881000  0.381400  1.0  -0.6695
  O  O169  1  0.680000  0.450200  0.404900  1.0  -0.5585
  O  O170  1  0.857000  0.456900  0.423700  1.0  -0.5659
  O  O171  1  0.024900  0.497000  0.865900  1.0  -0.7635
  O  O172  1  0.871200  0.505500  0.856200  1.0  -0.6726
  O  O173  1  0.830900  0.150500  0.484100  1.0  -0.7086
  O  O174  1  0.702200  0.045700  0.399500  1.0  -0.7019
  O  O175  1  0.353900  0.229200  0.478300  1.0  -0.5531
  O  O176  1  0.492100  0.364000  0.537300  1.0  -0.5749
  O  O177  1  0.175100  0.348900  0.078500  1.0  -0.7021
  O  O178  1  0.301400  0.465700  0.120600  1.0  -0.6926
