# generated using pymatgen
data_LaC5O6
_symmetry_space_group_name_H-M   'P 1'
_cell_length_a   6.72400000
_cell_length_b   14.09600000
_cell_length_c   23.98400000
_cell_angle_alpha   90.00000000
_cell_angle_beta   90.00000000
_cell_angle_gamma   90.00000000
_symmetry_Int_Tables_number   1
_chemical_formula_structural   LaC5O6
_chemical_formula_sum   'La8 C40 O48'
_cell_volume   2273.23959194
_cell_formula_units_Z   8
loop_
 _symmetry_equiv_pos_site_id
 _symmetry_equiv_pos_as_xyz
  1  'x, y, z'
loop_
 _atom_site_type_symbol
 _atom_site_label
 _atom_site_symmetry_multiplicity
 _atom_site_fract_x
 _atom_site_fract_y
 _atom_site_fract_z
 _atom_site_occupancy
 _atom_site_charge
  La  La1  1  0.882310  0.205890  0.633990  1.0  2.1433
  La  La2  1  0.382310  0.294110  0.866010  1.0  2.144
  La  La3  1  0.617690  0.205890  0.366010  1.0  2.1439
  La  La4  1  0.117690  0.294110  0.133990  1.0  2.1439
  La  La5  1  0.117690  0.794110  0.366010  1.0  2.1445
  La  La6  1  0.617690  0.705890  0.133990  1.0  2.1435
  La  La7  1  0.382310  0.794110  0.633990  1.0  2.1435
  La  La8  1  0.882310  0.705890  0.866010  1.0  2.1435
  C  C9  1  0.024500  0.391100  0.732500  1.0  0.274
  C  C10  1  0.056600  0.433600  0.787600  1.0  0.1875
  C  C11  1  0.015200  0.526900  0.766200  1.0  0.2485
  C  C12  1  0.989400  0.487100  0.709500  1.0  0.1842
  C  C13  1  0.859600  0.203500  0.491400  1.0  0.5811
  C  C14  1  0.524500  0.108900  0.767500  1.0  0.2726
  C  C15  1  0.556600  0.066400  0.712400  1.0  0.1871
  C  C16  1  0.515200  0.973100  0.733800  1.0  0.2487
  C  C17  1  0.489400  0.012900  0.790500  1.0  0.1841
  C  C18  1  0.359600  0.296500  0.008600  1.0  0.582
  C  C19  1  0.475500  0.391100  0.267500  1.0  0.2751
  C  C20  1  0.443400  0.433600  0.212400  1.0  0.1873
  C  C21  1  0.484800  0.526900  0.233800  1.0  0.2491
  C  C22  1  0.510600  0.487100  0.290500  1.0  0.1839
  C  C23  1  0.640400  0.203500  0.508600  1.0  0.5805
  C  C24  1  0.975500  0.108900  0.232500  1.0  0.2727
  C  C25  1  0.943400  0.066400  0.287600  1.0  0.1868
  C  C26  1  0.984800  0.973100  0.266200  1.0  0.2491
  C  C27  1  0.010600  0.012900  0.209500  1.0  0.184
  C  C28  1  0.140400  0.296500  0.991400  1.0  0.5805
  C  C29  1  0.975500  0.608900  0.267500  1.0  0.2725
  C  C30  1  0.943400  0.566400  0.212400  1.0  0.1869
  C  C31  1  0.984800  0.473100  0.233800  1.0  0.2487
  C  C32  1  0.010600  0.512900  0.290500  1.0  0.1841
  C  C33  1  0.140400  0.796500  0.508600  1.0  0.5823
  C  C34  1  0.475500  0.891100  0.232500  1.0  0.2737
  C  C35  1  0.443400  0.933600  0.287600  1.0  0.1875
  C  C36  1  0.484800  0.026900  0.266200  1.0  0.2485
  C  C37  1  0.510600  0.987100  0.209500  1.0  0.184
  C  C38  1  0.640400  0.703500  0.991400  1.0  0.5816
  C  C39  1  0.524500  0.608900  0.732500  1.0  0.272
  C  C40  1  0.556600  0.566400  0.787600  1.0  0.1868
  C  C41  1  0.515200  0.473100  0.766200  1.0  0.249
  C  C42  1  0.489400  0.512900  0.709500  1.0  0.1842
  C  C43  1  0.359600  0.796500  0.491400  1.0  0.58
  C  C44  1  0.024500  0.891100  0.767500  1.0  0.2745
  C  C45  1  0.056600  0.933600  0.712400  1.0  0.1874
  C  C46  1  0.015200  0.026900  0.733800  1.0  0.249
  C  C47  1  0.989400  0.987100  0.790500  1.0  0.1838
  C  C48  1  0.859600  0.703500  0.008600  1.0  0.5799
  O  O49  1  0.024800  0.308600  0.713400  1.0  -0.6109
  O  O50  1  0.104800  0.403500  0.835300  1.0  -0.6425
  O  O51  1  0.005900  0.609400  0.785800  1.0  -0.6067
  O  O52  1  0.955100  0.520600  0.662600  1.0  -0.4643
  O  O53  1  0.987600  0.205900  0.529200  1.0  -0.6502
  O  O54  1  0.894300  0.199400  0.439750  1.0  -0.6435
  O  O55  1  0.524800  0.191400  0.786600  1.0  -0.6097
  O  O56  1  0.604800  0.096500  0.664700  1.0  -0.643
  O  O57  1  0.505900  0.890600  0.714200  1.0  -0.607
  O  O58  1  0.455100  0.979400  0.837400  1.0  -0.4632
  O  O59  1  0.487600  0.294100  0.970800  1.0  -0.6504
  O  O60  1  0.394300  0.300600  0.060250  1.0  -0.6433
  O  O61  1  0.475200  0.308600  0.286600  1.0  -0.6098
  O  O62  1  0.395200  0.403500  0.164700  1.0  -0.6421
  O  O63  1  0.494100  0.609400  0.214200  1.0  -0.6075
  O  O64  1  0.544900  0.520600  0.337400  1.0  -0.4631
  O  O65  1  0.512400  0.205900  0.470800  1.0  -0.6513
  O  O66  1  0.605700  0.199400  0.560250  1.0  -0.6445
  O  O67  1  0.975200  0.191400  0.213400  1.0  -0.6105
  O  O68  1  0.895200  0.096500  0.335300  1.0  -0.6426
  O  O69  1  0.994100  0.890600  0.285800  1.0  -0.6062
  O  O70  1  0.044900  0.979400  0.162600  1.0  -0.465
  O  O71  1  0.012400  0.294100  0.029200  1.0  -0.6503
  O  O72  1  0.105700  0.300600  0.939750  1.0  -0.6444
  O  O73  1  0.975200  0.691400  0.286600  1.0  -0.6101
  O  O74  1  0.895200  0.596500  0.164700  1.0  -0.6424
  O  O75  1  0.994100  0.390600  0.214200  1.0  -0.6075
  O  O76  1  0.044900  0.479400  0.337400  1.0  -0.4633
  O  O77  1  0.012400  0.794100  0.470800  1.0  -0.6505
  O  O78  1  0.105700  0.800600  0.560250  1.0  -0.6444
  O  O79  1  0.475200  0.808600  0.213400  1.0  -0.6114
  O  O80  1  0.395200  0.903500  0.335300  1.0  -0.6421
  O  O81  1  0.494100  0.109400  0.285800  1.0  -0.6074
  O  O82  1  0.544900  0.020600  0.162600  1.0  -0.4646
  O  O83  1  0.512400  0.705900  0.029200  1.0  -0.6501
  O  O84  1  0.605700  0.699400  0.939750  1.0  -0.6443
  O  O85  1  0.524800  0.691400  0.713400  1.0  -0.6102
  O  O86  1  0.604800  0.596500  0.835300  1.0  -0.6429
  O  O87  1  0.505900  0.390600  0.785800  1.0  -0.6057
  O  O88  1  0.455100  0.479400  0.662600  1.0  -0.4647
  O  O89  1  0.487600  0.794100  0.529200  1.0  -0.651
  O  O90  1  0.394300  0.800600  0.439750  1.0  -0.6435
  O  O91  1  0.024800  0.808600  0.786600  1.0  -0.6095
  O  O92  1  0.104800  0.903500  0.664700  1.0  -0.6428
  O  O93  1  0.005900  0.109400  0.714200  1.0  -0.6068
  O  O94  1  0.955100  0.020600  0.837400  1.0  -0.4631
  O  O95  1  0.987600  0.705900  0.970800  1.0  -0.6518
  O  O96  1  0.894300  0.699400  0.060250  1.0  -0.6435
