# generated using pymatgen
data_Cu3H58C68S2(N4O7)2
_symmetry_space_group_name_H-M   'P 1'
_cell_length_a   30.80200000
_cell_length_b   15.94500000
_cell_length_c   16.47380000
_cell_angle_alpha   90.00000000
_cell_angle_beta   90.00000000
_cell_angle_gamma   90.00000000
_symmetry_Int_Tables_number   1
_chemical_formula_structural   Cu3H58C68S2(N4O7)2
_chemical_formula_sum   'Cu12 H232 C272 S8 N32 O56'
_cell_volume   8090.90737228
_cell_formula_units_Z   4
loop_
 _symmetry_equiv_pos_site_id
 _symmetry_equiv_pos_as_xyz
  1  'x, y, z'
loop_
 _atom_site_type_symbol
 _atom_site_label
 _atom_site_symmetry_multiplicity
 _atom_site_fract_x
 _atom_site_fract_y
 _atom_site_fract_z
 _atom_site_occupancy
 _atom_site_charge
  Cu  Cu1  1  0.250000  0.000000  0.162740  1.0  0.7304
  Cu  Cu2  1  0.750000  0.000000  0.337260  1.0  0.7301
  Cu  Cu3  1  0.750000  0.000000  0.837260  1.0  0.7301
  Cu  Cu4  1  0.250000  0.000000  0.662740  1.0  0.7304
  Cu  Cu5  1  0.250000  0.500000  0.976360  1.0  0.8995
  Cu  Cu6  1  0.750000  0.500000  0.523640  1.0  0.8993
  Cu  Cu7  1  0.750000  0.500000  0.023640  1.0  0.8993
  Cu  Cu8  1  0.250000  0.500000  0.476360  1.0  0.8995
  Cu  Cu9  1  0.500000  0.000000  0.500000  1.0  0.6395
  Cu  Cu10  1  0.000000  0.000000  0.500000  1.0  0.6395
  Cu  Cu11  1  0.500000  0.000000  0.000000  1.0  0.6395
  Cu  Cu12  1  0.000000  0.000000  0.000000  1.0  0.6395
  H  H13  1  0.285200  0.763600  0.386700  1.0  0.1157
  H  H14  1  0.395300  0.813900  0.509600  1.0  0.1204
  H  H15  1  0.352200  0.977300  0.340100  1.0  0.1137
  H  H16  1  0.344100  0.971400  0.134000  1.0  0.0946
  H  H17  1  0.284900  0.833500  0.917000  1.0  0.1036
  H  H18  1  0.388700  0.898300  0.048500  1.0  0.1098
  H  H19  1  0.367600  0.743900  0.936200  1.0  0.1245
  H  H20  1  0.401100  0.820100  0.929700  1.0  0.1169
  H  H21  1  0.330300  0.823400  0.820800  1.0  0.1027
  H  H22  1  0.378400  0.857500  0.806200  1.0  0.1124
  H  H23  1  0.366400  0.740300  0.721900  1.0  0.1204
  H  H24  1  0.403300  0.716900  0.787000  1.0  0.0983
  H  H25  1  0.288000  0.697500  0.758400  1.0  0.126
  H  H26  1  0.243800  0.605800  0.826400  1.0  0.0897
  H  H27  1  0.344200  0.503500  0.936100  1.0  0.0848
  H  H28  1  0.303800  0.453200  0.119300  1.0  0.0786
  H  H29  1  0.272000  0.672500  0.031300  1.0  0.103
  H  H30  1  0.309200  0.736900  0.134600  1.0  0.1026
  H  H31  1  0.346400  0.512000  0.216500  1.0  0.1264
  H  H32  1  0.340300  0.701100  0.290000  1.0  0.0978
  H  H33  1  0.376700  0.630900  0.278400  1.0  0.0843
  H  H34  1  0.368400  0.781200  0.217400  1.0  0.0927
  H  H35  1  0.393100  0.711100  0.167000  1.0  0.077
  H  H36  1  0.446000  0.701600  0.267700  1.0  0.0863
  H  H37  1  0.420700  0.771200  0.320300  1.0  0.0861
  H  H38  1  0.429000  0.931700  0.248100  1.0  0.1162
  H  H39  1  0.464700  0.726300  0.131800  1.0  0.1437
  H  H40  1  0.459700  0.004900  0.156200  1.0  0.0453
  H  H41  1  0.505800  0.815200  0.040000  1.0  0.1237
  H  H42  1  0.214800  0.236400  0.386700  1.0  0.1164
  H  H43  1  0.104700  0.186100  0.509600  1.0  0.1213
  H  H44  1  0.147800  0.022700  0.340100  1.0  0.1143
  H  H45  1  0.155900  0.028600  0.134000  1.0  0.0941
  H  H46  1  0.215100  0.166500  0.917000  1.0  0.1038
  H  H47  1  0.111300  0.101700  0.048500  1.0  0.1095
  H  H48  1  0.132400  0.256100  0.936200  1.0  0.1239
  H  H49  1  0.098900  0.179900  0.929700  1.0  0.1181
  H  H50  1  0.169700  0.176600  0.820800  1.0  0.1019
  H  H51  1  0.121600  0.142500  0.806200  1.0  0.1127
  H  H52  1  0.133600  0.259700  0.721900  1.0  0.12
  H  H53  1  0.096700  0.283100  0.787000  1.0  0.0983
  H  H54  1  0.212000  0.302500  0.758400  1.0  0.1256
  H  H55  1  0.256200  0.394200  0.826400  1.0  0.0896
  H  H56  1  0.155800  0.496500  0.936100  1.0  0.0823
  H  H57  1  0.196200  0.546800  0.119300  1.0  0.0778
  H  H58  1  0.228000  0.327500  0.031300  1.0  0.1025
  H  H59  1  0.190800  0.263100  0.134600  1.0  0.1024
  H  H60  1  0.153600  0.488000  0.216500  1.0  0.1263
  H  H61  1  0.159700  0.298900  0.290000  1.0  0.0983
  H  H62  1  0.123300  0.369100  0.278400  1.0  0.0822
  H  H63  1  0.131600  0.218800  0.217400  1.0  0.09
  H  H64  1  0.106900  0.288900  0.167000  1.0  0.0784
  H  H65  1  0.054000  0.298400  0.267700  1.0  0.0868
  H  H66  1  0.079300  0.228800  0.320300  1.0  0.0862
  H  H67  1  0.071000  0.068300  0.248100  1.0  0.1158
  H  H68  1  0.035300  0.273700  0.131800  1.0  0.1441
  H  H69  1  0.040300  0.995100  0.156200  1.0  0.0493
  H  H70  1  0.994200  0.184800  0.040000  1.0  0.1243
  H  H71  1  0.714800  0.763600  0.113300  1.0  0.116
  H  H72  1  0.604700  0.813900  0.990400  1.0  0.1209
  H  H73  1  0.647800  0.977300  0.159900  1.0  0.114
  H  H74  1  0.655900  0.971400  0.366000  1.0  0.0949
  H  H75  1  0.715100  0.833500  0.583000  1.0  0.1036
  H  H76  1  0.611300  0.898300  0.451500  1.0  0.1096
  H  H77  1  0.632400  0.743900  0.563800  1.0  0.1253
  H  H78  1  0.598900  0.820100  0.570300  1.0  0.1173
  H  H79  1  0.669700  0.823400  0.679200  1.0  0.1019
  H  H80  1  0.621600  0.857500  0.693800  1.0  0.1125
  H  H81  1  0.633600  0.740300  0.778100  1.0  0.1196
  H  H82  1  0.596700  0.716900  0.713000  1.0  0.0986
  H  H83  1  0.712000  0.697500  0.741600  1.0  0.1254
  H  H84  1  0.756200  0.605800  0.673600  1.0  0.0895
  H  H85  1  0.655800  0.503500  0.563900  1.0  0.0847
  H  H86  1  0.696200  0.453200  0.380700  1.0  0.0776
  H  H87  1  0.728000  0.672500  0.468700  1.0  0.1029
  H  H88  1  0.690800  0.736900  0.365400  1.0  0.1024
  H  H89  1  0.653600  0.512000  0.283500  1.0  0.1255
  H  H90  1  0.659700  0.701100  0.210000  1.0  0.0997
  H  H91  1  0.623300  0.630900  0.221600  1.0  0.0838
  H  H92  1  0.631600  0.781200  0.282600  1.0  0.0923
  H  H93  1  0.606900  0.711100  0.333000  1.0  0.0779
  H  H94  1  0.554000  0.701600  0.232300  1.0  0.0862
  H  H95  1  0.579300  0.771200  0.179700  1.0  0.0861
  H  H96  1  0.571000  0.931700  0.251900  1.0  0.1158
  H  H97  1  0.535300  0.726300  0.368200  1.0  0.1441
  H  H98  1  0.540300  0.004900  0.343800  1.0  0.0452
  H  H99  1  0.494200  0.815200  0.460000  1.0  0.1241
  H  H100  1  0.785200  0.236400  0.113300  1.0  0.1174
  H  H101  1  0.895300  0.186100  0.990400  1.0  0.1214
  H  H102  1  0.852200  0.022700  0.159900  1.0  0.1142
  H  H103  1  0.844100  0.028600  0.366000  1.0  0.0945
  H  H104  1  0.784900  0.166500  0.583000  1.0  0.104
  H  H105  1  0.888700  0.101700  0.451500  1.0  0.11
  H  H106  1  0.867600  0.256100  0.563800  1.0  0.1243
  H  H107  1  0.901100  0.179900  0.570300  1.0  0.1168
  H  H108  1  0.830300  0.176600  0.679200  1.0  0.1008
  H  H109  1  0.878400  0.142500  0.693800  1.0  0.1132
  H  H110  1  0.866400  0.259700  0.778100  1.0  0.1181
  H  H111  1  0.903300  0.283100  0.713000  1.0  0.0987
  H  H112  1  0.788000  0.302500  0.741600  1.0  0.1261
  H  H113  1  0.743800  0.394200  0.673600  1.0  0.0899
  H  H114  1  0.844200  0.496500  0.563900  1.0  0.0821
  H  H115  1  0.803800  0.546800  0.380700  1.0  0.0783
  H  H116  1  0.772000  0.327500  0.468700  1.0  0.103
  H  H117  1  0.809200  0.263100  0.365400  1.0  0.1022
  H  H118  1  0.846400  0.488000  0.283500  1.0  0.1263
  H  H119  1  0.840300  0.298900  0.210000  1.0  0.0991
  H  H120  1  0.876700  0.369100  0.221600  1.0  0.0831
  H  H121  1  0.868400  0.218800  0.282600  1.0  0.0902
  H  H122  1  0.893100  0.288900  0.333000  1.0  0.0761
  H  H123  1  0.946000  0.298400  0.232300  1.0  0.0862
  H  H124  1  0.920700  0.228800  0.179700  1.0  0.0876
  H  H125  1  0.929000  0.068300  0.251900  1.0  0.1151
  H  H126  1  0.964700  0.273700  0.368200  1.0  0.1435
  H  H127  1  0.959700  0.995100  0.343800  1.0  0.0501
  H  H128  1  0.005800  0.184800  0.460000  1.0  0.1247
  H  H129  1  0.714800  0.236400  0.613300  1.0  0.117
  H  H130  1  0.604700  0.186100  0.490400  1.0  0.1213
  H  H131  1  0.647800  0.022700  0.659900  1.0  0.1146
  H  H132  1  0.655900  0.028600  0.866000  1.0  0.0943
  H  H133  1  0.715100  0.166500  0.083000  1.0  0.104
  H  H134  1  0.611300  0.101700  0.951500  1.0  0.1094
  H  H135  1  0.632400  0.256100  0.063800  1.0  0.1248
  H  H136  1  0.598900  0.179900  0.070300  1.0  0.1177
  H  H137  1  0.669700  0.176600  0.179200  1.0  0.1016
  H  H138  1  0.621600  0.142500  0.193800  1.0  0.1134
  H  H139  1  0.633600  0.259700  0.278100  1.0  0.1198
  H  H140  1  0.596700  0.283100  0.213000  1.0  0.0984
  H  H141  1  0.712000  0.302500  0.241600  1.0  0.126
  H  H142  1  0.756200  0.394200  0.173600  1.0  0.0895
  H  H143  1  0.655800  0.496500  0.063900  1.0  0.0831
  H  H144  1  0.696200  0.546800  0.880700  1.0  0.0777
  H  H145  1  0.728000  0.327500  0.968700  1.0  0.103
  H  H146  1  0.690800  0.263100  0.865400  1.0  0.1026
  H  H147  1  0.653600  0.488000  0.783500  1.0  0.1264
  H  H148  1  0.659700  0.298900  0.710000  1.0  0.0993
  H  H149  1  0.623300  0.369100  0.721600  1.0  0.0836
  H  H150  1  0.631600  0.218800  0.782600  1.0  0.0901
  H  H151  1  0.606900  0.288900  0.833000  1.0  0.0769
  H  H152  1  0.554000  0.298400  0.732300  1.0  0.0867
  H  H153  1  0.579300  0.228800  0.679700  1.0  0.0873
  H  H154  1  0.571000  0.068300  0.751900  1.0  0.1152
  H  H155  1  0.535300  0.273700  0.868200  1.0  0.1436
  H  H156  1  0.540300  0.995100  0.843800  1.0  0.0499
  H  H157  1  0.494200  0.184800  0.960000  1.0  0.1246
  H  H158  1  0.785200  0.763600  0.613300  1.0  0.116
  H  H159  1  0.895300  0.813900  0.490400  1.0  0.1212
  H  H160  1  0.852200  0.977300  0.659900  1.0  0.1139
  H  H161  1  0.844100  0.971400  0.866000  1.0  0.0948
  H  H162  1  0.784900  0.833500  0.083000  1.0  0.1036
  H  H163  1  0.888700  0.898300  0.951500  1.0  0.1099
  H  H164  1  0.867600  0.743900  0.063800  1.0  0.1255
  H  H165  1  0.901100  0.820100  0.070300  1.0  0.1169
  H  H166  1  0.830300  0.823400  0.179200  1.0  0.1015
  H  H167  1  0.878400  0.857500  0.193800  1.0  0.1114
  H  H168  1  0.866400  0.740300  0.278100  1.0  0.1181
  H  H169  1  0.903300  0.716900  0.213000  1.0  0.0981
  H  H170  1  0.788000  0.697500  0.241600  1.0  0.1257
  H  H171  1  0.743800  0.605800  0.173600  1.0  0.0898
  H  H172  1  0.844200  0.503500  0.063900  1.0  0.0849
  H  H173  1  0.803800  0.453200  0.880700  1.0  0.0784
  H  H174  1  0.772000  0.672500  0.968700  1.0  0.103
  H  H175  1  0.809200  0.736900  0.865400  1.0  0.1025
  H  H176  1  0.846400  0.512000  0.783500  1.0  0.1258
  H  H177  1  0.840300  0.701100  0.710000  1.0  0.0993
  H  H178  1  0.876700  0.630900  0.721600  1.0  0.0838
  H  H179  1  0.868400  0.781200  0.782600  1.0  0.0926
  H  H180  1  0.893100  0.711100  0.833000  1.0  0.0772
  H  H181  1  0.946000  0.701600  0.732300  1.0  0.0856
  H  H182  1  0.920700  0.771200  0.679700  1.0  0.0862
  H  H183  1  0.929000  0.931700  0.751900  1.0  0.1161
  H  H184  1  0.964700  0.726300  0.868200  1.0  0.1441
  H  H185  1  0.959700  0.004900  0.843800  1.0  0.0457
  H  H186  1  0.005800  0.815200  0.960000  1.0  0.1245
  H  H187  1  0.285200  0.236400  0.886700  1.0  0.1162
  H  H188  1  0.395300  0.186100  0.009600  1.0  0.1203
  H  H189  1  0.352200  0.022700  0.840100  1.0  0.114
  H  H190  1  0.344100  0.028600  0.634000  1.0  0.0944
  H  H191  1  0.284900  0.166500  0.417000  1.0  0.1037
  H  H192  1  0.388700  0.101700  0.548500  1.0  0.11
  H  H193  1  0.367600  0.256100  0.436200  1.0  0.1231
  H  H194  1  0.401100  0.179900  0.429700  1.0  0.1167
  H  H195  1  0.330300  0.176600  0.320800  1.0  0.1018
  H  H196  1  0.378400  0.142500  0.306200  1.0  0.1129
  H  H197  1  0.366400  0.259700  0.221900  1.0  0.1208
  H  H198  1  0.403300  0.283100  0.287000  1.0  0.0991
  H  H199  1  0.288000  0.302500  0.258400  1.0  0.1259
  H  H200  1  0.243800  0.394200  0.326400  1.0  0.0899
  H  H201  1  0.344200  0.496500  0.436100  1.0  0.0813
  H  H202  1  0.303800  0.546800  0.619300  1.0  0.0783
  H  H203  1  0.272000  0.327500  0.531300  1.0  0.1026
  H  H204  1  0.309200  0.263100  0.634600  1.0  0.102
  H  H205  1  0.346400  0.488000  0.716500  1.0  0.1262
  H  H206  1  0.340300  0.298900  0.790000  1.0  0.0975
  H  H207  1  0.376700  0.369100  0.778400  1.0  0.082
  H  H208  1  0.368400  0.218800  0.717400  1.0  0.09
  H  H209  1  0.393100  0.288900  0.667000  1.0  0.0784
  H  H210  1  0.446000  0.298400  0.767700  1.0  0.0856
  H  H211  1  0.420700  0.228800  0.820300  1.0  0.0866
  H  H212  1  0.429000  0.068300  0.748100  1.0  0.1158
  H  H213  1  0.464700  0.273700  0.631800  1.0  0.1444
  H  H214  1  0.459700  0.995100  0.656200  1.0  0.0507
  H  H215  1  0.505800  0.184800  0.540000  1.0  0.1245
  H  H216  1  0.214800  0.763600  0.886700  1.0  0.1158
  H  H217  1  0.104700  0.813900  0.009600  1.0  0.1213
  H  H218  1  0.147800  0.977300  0.840100  1.0  0.1142
  H  H219  1  0.155900  0.971400  0.634000  1.0  0.0947
  H  H220  1  0.215100  0.833500  0.417000  1.0  0.1036
  H  H221  1  0.111300  0.898300  0.548500  1.0  0.1094
  H  H222  1  0.132400  0.743900  0.436200  1.0  0.1252
  H  H223  1  0.098900  0.820100  0.429700  1.0  0.1174
  H  H224  1  0.169700  0.823400  0.320800  1.0  0.1024
  H  H225  1  0.121600  0.857500  0.306200  1.0  0.1133
  H  H226  1  0.133600  0.740300  0.221900  1.0  0.12
  H  H227  1  0.096700  0.716900  0.287000  1.0  0.0987
  H  H228  1  0.212000  0.697500  0.258400  1.0  0.1256
  H  H229  1  0.256200  0.605800  0.326400  1.0  0.0895
  H  H230  1  0.155800  0.503500  0.436100  1.0  0.0848
  H  H231  1  0.196200  0.453200  0.619300  1.0  0.0777
  H  H232  1  0.228000  0.672500  0.531300  1.0  0.1027
  H  H233  1  0.190800  0.736900  0.634600  1.0  0.1025
  H  H234  1  0.153600  0.512000  0.716500  1.0  0.1261
  H  H235  1  0.159700  0.701100  0.790000  1.0  0.0987
  H  H236  1  0.123300  0.630900  0.778400  1.0  0.0839
  H  H237  1  0.131600  0.781200  0.717400  1.0  0.0924
  H  H238  1  0.106900  0.711100  0.667000  1.0  0.0772
  H  H239  1  0.054000  0.701600  0.767700  1.0  0.0873
  H  H240  1  0.079300  0.771200  0.820300  1.0  0.0857
  H  H241  1  0.071000  0.931700  0.748100  1.0  0.116
  H  H242  1  0.035300  0.726300  0.631800  1.0  0.1434
  H  H243  1  0.040300  0.004900  0.656200  1.0  0.045
  H  H244  1  0.994200  0.815200  0.540000  1.0  0.1232
  C  C245  1  0.309100  0.799600  0.396800  1.0  -0.076
  C  C246  1  0.339400  0.778500  0.454800  1.0  -0.207
  C  C247  1  0.374400  0.829900  0.470200  1.0  -0.0543
  C  C248  1  0.379300  0.904900  0.428600  1.0  -0.1735
  C  C249  1  0.348900  0.926400  0.369400  1.0  -0.0403
  C  C250  1  0.313700  0.874000  0.352800  1.0  -0.1344
  C  C251  1  0.281500  0.894100  0.286700  1.0  0.6687
  C  C252  1  0.417700  0.960300  0.438900  1.0  0.6821
  C  C253  1  0.331500  0.942000  0.089700  1.0  0.1769
  C  C254  1  0.270600  0.902800  0.015400  1.0  0.097
  C  C255  1  0.341600  0.855800  0.972800  1.0  0.1373
  C  C256  1  0.297500  0.860600  0.962600  1.0  -0.0847
  C  C257  1  0.358300  0.898800  0.038700  1.0  -0.2235
  C  C258  1  0.370600  0.803300  0.919800  1.0  -0.2536
  C  C259  1  0.361400  0.810200  0.828500  1.0  -0.1066
  C  C260  1  0.372200  0.731100  0.780400  1.0  -0.2675
  C  C261  1  0.344600  0.661200  0.811600  1.0  0.113
  C  C262  1  0.300300  0.659900  0.796900  1.0  -0.2017
  C  C263  1  0.274100  0.604900  0.837500  1.0  0.1754
  C  C264  1  0.332400  0.545000  0.901000  1.0  0.1618
  C  C265  1  0.361300  0.598500  0.860600  1.0  0.0372
  C  C266  1  0.306000  0.512600  0.120800  1.0  0.1643
  C  C267  1  0.286700  0.639000  0.070300  1.0  0.1351
  C  C268  1  0.309300  0.677400  0.131400  1.0  -0.2065
  C  C269  1  0.330600  0.546900  0.180400  1.0  -0.2401
  C  C270  1  0.332300  0.632200  0.188100  1.0  0.1057
  C  C271  1  0.359600  0.674200  0.249600  1.0  -0.1341
  C  C272  1  0.385200  0.728600  0.222700  1.0  -0.1186
  C  C273  1  0.426500  0.750900  0.264600  1.0  -0.1697
  C  C274  1  0.448300  0.824300  0.210100  1.0  0.1173
  C  C275  1  0.444900  0.903400  0.207000  1.0  -0.1827
  C  C276  1  0.466600  0.785200  0.139800  1.0  -0.1551
  C  C277  1  0.462100  0.945800  0.150400  1.0  0.1182
  C  C278  1  0.488000  0.838400  0.081400  1.0  0.1523
  C  C279  1  0.190900  0.200400  0.396800  1.0  -0.0739
  C  C280  1  0.160600  0.221500  0.454800  1.0  -0.2092
  C  C281  1  0.125600  0.170100  0.470200  1.0  -0.0563
  C  C282  1  0.120700  0.095100  0.428600  1.0  -0.1724
  C  C283  1  0.151100  0.073600  0.369400  1.0  -0.04
  C  C284  1  0.186300  0.126000  0.352800  1.0  -0.1343
  C  C285  1  0.218500  0.105900  0.286700  1.0  0.6684
  C  C286  1  0.082300  0.039700  0.438900  1.0  0.6812
  C  C287  1  0.168500  0.058000  0.089700  1.0  0.1768
  C  C288  1  0.229400  0.097200  0.015400  1.0  0.1002
  C  C289  1  0.158400  0.144200  0.972800  1.0  0.1367
  C  C290  1  0.202500  0.139400  0.962600  1.0  -0.0862
  C  C291  1  0.141700  0.101200  0.038700  1.0  -0.2234
  C  C292  1  0.129400  0.196700  0.919800  1.0  -0.2532
  C  C293  1  0.138600  0.189800  0.828500  1.0  -0.1072
  C  C294  1  0.127800  0.268900  0.780400  1.0  -0.2644
  C  C295  1  0.155400  0.338800  0.811600  1.0  0.1129
  C  C296  1  0.199700  0.340100  0.796900  1.0  -0.2013
  C  C297  1  0.225900  0.395100  0.837500  1.0  0.1764
  C  C298  1  0.167600  0.455000  0.901000  1.0  0.1608
  C  C299  1  0.138700  0.401500  0.860600  1.0  0.0371
  C  C300  1  0.194000  0.487400  0.120800  1.0  0.1636
  C  C301  1  0.213300  0.361000  0.070300  1.0  0.1357
  C  C302  1  0.190700  0.322600  0.131400  1.0  -0.2054
  C  C303  1  0.169400  0.453100  0.180400  1.0  -0.2384
  C  C304  1  0.167700  0.367800  0.188100  1.0  0.1048
  C  C305  1  0.140400  0.325800  0.249600  1.0  -0.1347
  C  C306  1  0.114800  0.271400  0.222700  1.0  -0.1195
  C  C307  1  0.073500  0.249100  0.264600  1.0  -0.1704
  C  C308  1  0.051700  0.175700  0.210100  1.0  0.1168
  C  C309  1  0.055100  0.096600  0.207000  1.0  -0.1779
  C  C310  1  0.033400  0.214800  0.139800  1.0  -0.1571
  C  C311  1  0.037900  0.054200  0.150400  1.0  0.1216
  C  C312  1  0.012000  0.161600  0.081400  1.0  0.1533
  C  C313  1  0.690900  0.799600  0.103200  1.0  -0.0761
  C  C314  1  0.660600  0.778500  0.045200  1.0  -0.2115
  C  C315  1  0.625600  0.829900  0.029800  1.0  -0.0558
  C  C316  1  0.620700  0.904900  0.071400  1.0  -0.1737
  C  C317  1  0.651100  0.926400  0.130600  1.0  -0.0409
  C  C318  1  0.686300  0.874000  0.147200  1.0  -0.135
  C  C319  1  0.718500  0.894100  0.213300  1.0  0.6686
  C  C320  1  0.582300  0.960300  0.061100  1.0  0.6818
  C  C321  1  0.668500  0.942000  0.410300  1.0  0.1767
  C  C322  1  0.729400  0.902800  0.484600  1.0  0.0993
  C  C323  1  0.658400  0.855800  0.527200  1.0  0.1371
  C  C324  1  0.702500  0.860600  0.537400  1.0  -0.0861
  C  C325  1  0.641700  0.898800  0.461300  1.0  -0.2226
  C  C326  1  0.629400  0.803300  0.580200  1.0  -0.2583
  C  C327  1  0.638600  0.810200  0.671500  1.0  -0.1073
  C  C328  1  0.627800  0.731100  0.719600  1.0  -0.2651
  C  C329  1  0.655400  0.661200  0.688400  1.0  0.1086
  C  C330  1  0.699700  0.659900  0.703100  1.0  -0.2014
  C  C331  1  0.725900  0.604900  0.662500  1.0  0.1745
  C  C332  1  0.667600  0.545000  0.599000  1.0  0.1583
  C  C333  1  0.638700  0.598500  0.639400  1.0  0.038
  C  C334  1  0.694000  0.512600  0.379200  1.0  0.16
  C  C335  1  0.713300  0.639000  0.429700  1.0  0.1352
  C  C336  1  0.690700  0.677400  0.368600  1.0  -0.2061
  C  C337  1  0.669400  0.546900  0.319600  1.0  -0.2373
  C  C338  1  0.667700  0.632200  0.311900  1.0  0.1064
  C  C339  1  0.640400  0.674200  0.250400  1.0  -0.1339
  C  C340  1  0.614800  0.728600  0.277300  1.0  -0.1206
  C  C341  1  0.573500  0.750900  0.235400  1.0  -0.1681
  C  C342  1  0.551700  0.824300  0.289900  1.0  0.1135
  C  C343  1  0.555100  0.903400  0.293000  1.0  -0.1805
  C  C344  1  0.533400  0.785200  0.360200  1.0  -0.1558
  C  C345  1  0.537900  0.945800  0.349600  1.0  0.1203
  C  C346  1  0.512000  0.838400  0.418600  1.0  0.1525
  C  C347  1  0.809100  0.200400  0.103200  1.0  -0.0753
  C  C348  1  0.839400  0.221500  0.045200  1.0  -0.2111
  C  C349  1  0.874400  0.170100  0.029800  1.0  -0.0562
  C  C350  1  0.879300  0.095100  0.071400  1.0  -0.1749
  C  C351  1  0.848900  0.073600  0.130600  1.0  -0.0407
  C  C352  1  0.813700  0.126000  0.147200  1.0  -0.1346
  C  C353  1  0.781500  0.105900  0.213300  1.0  0.6682
  C  C354  1  0.917700  0.039700  0.061100  1.0  0.682
  C  C355  1  0.831500  0.058000  0.410300  1.0  0.176
  C  C356  1  0.770600  0.097200  0.484600  1.0  0.0963
  C  C357  1  0.841600  0.144200  0.527200  1.0  0.1375
  C  C358  1  0.797500  0.139400  0.537400  1.0  -0.0833
  C  C359  1  0.858300  0.101200  0.461300  1.0  -0.2165
  C  C360  1  0.870600  0.196700  0.580200  1.0  -0.2574
  C  C361  1  0.861400  0.189800  0.671500  1.0  -0.1066
  C  C362  1  0.872200  0.268900  0.719600  1.0  -0.2675
  C  C363  1  0.844600  0.338800  0.688400  1.0  0.1108
  C  C364  1  0.800300  0.340100  0.703100  1.0  -0.2016
  C  C365  1  0.774100  0.395100  0.662500  1.0  0.1789
  C  C366  1  0.832400  0.455000  0.599000  1.0  0.1587
  C  C367  1  0.861300  0.401500  0.639400  1.0  0.0363
  C  C368  1  0.806000  0.487400  0.379200  1.0  0.1649
  C  C369  1  0.786700  0.361000  0.429700  1.0  0.1357
  C  C370  1  0.809300  0.322600  0.368600  1.0  -0.2065
  C  C371  1  0.830600  0.453100  0.319600  1.0  -0.2392
  C  C372  1  0.832300  0.367800  0.311900  1.0  0.1052
  C  C373  1  0.859600  0.325800  0.250400  1.0  -0.1338
  C  C374  1  0.885200  0.271400  0.277300  1.0  -0.1199
  C  C375  1  0.926500  0.249100  0.235400  1.0  -0.1689
  C  C376  1  0.948300  0.175700  0.289900  1.0  0.1166
  C  C377  1  0.944900  0.096600  0.293000  1.0  -0.179
  C  C378  1  0.966600  0.214800  0.360200  1.0  -0.1559
  C  C379  1  0.962100  0.054200  0.349600  1.0  0.1184
  C  C380  1  0.988000  0.161600  0.418600  1.0  0.1517
  C  C381  1  0.690900  0.200400  0.603200  1.0  -0.0747
  C  C382  1  0.660600  0.221500  0.545200  1.0  -0.2116
  C  C383  1  0.625600  0.170100  0.529800  1.0  -0.056
  C  C384  1  0.620700  0.095100  0.571400  1.0  -0.1747
  C  C385  1  0.651100  0.073600  0.630600  1.0  -0.0402
  C  C386  1  0.686300  0.126000  0.647200  1.0  -0.1347
  C  C387  1  0.718500  0.105900  0.713300  1.0  0.6685
  C  C388  1  0.582300  0.039700  0.561100  1.0  0.6819
  C  C389  1  0.668500  0.058000  0.910300  1.0  0.1759
  C  C390  1  0.729400  0.097200  0.984600  1.0  0.0997
  C  C391  1  0.658400  0.144200  0.027200  1.0  0.1367
  C  C392  1  0.702500  0.139400  0.037400  1.0  -0.0856
  C  C393  1  0.641700  0.101200  0.961300  1.0  -0.2222
  C  C394  1  0.629400  0.196700  0.080200  1.0  -0.2578
  C  C395  1  0.638600  0.189800  0.171500  1.0  -0.1079
  C  C396  1  0.627800  0.268900  0.219600  1.0  -0.266
  C  C397  1  0.655400  0.338800  0.188400  1.0  0.1112
  C  C398  1  0.699700  0.340100  0.203100  1.0  -0.2013
  C  C399  1  0.725900  0.395100  0.162500  1.0  0.1765
  C  C400  1  0.667600  0.455000  0.099000  1.0  0.1588
  C  C401  1  0.638700  0.401500  0.139400  1.0  0.0385
  C  C402  1  0.694000  0.487400  0.879200  1.0  0.1641
  C  C403  1  0.713300  0.361000  0.929700  1.0  0.136
  C  C404  1  0.690700  0.322600  0.868600  1.0  -0.206
  C  C405  1  0.669400  0.453100  0.819600  1.0  -0.2382
  C  C406  1  0.667700  0.367800  0.811900  1.0  0.1051
  C  C407  1  0.640400  0.325800  0.750400  1.0  -0.1329
  C  C408  1  0.614800  0.271400  0.777300  1.0  -0.1204
  C  C409  1  0.573500  0.249100  0.735400  1.0  -0.1687
  C  C410  1  0.551700  0.175700  0.789900  1.0  0.1153
  C  C411  1  0.555100  0.096600  0.793000  1.0  -0.1782
  C  C412  1  0.533400  0.214800  0.860200  1.0  -0.1564
  C  C413  1  0.537900  0.054200  0.849600  1.0  0.1209
  C  C414  1  0.512000  0.161600  0.918600  1.0  0.1513
  C  C415  1  0.809100  0.799600  0.603200  1.0  -0.0765
  C  C416  1  0.839400  0.778500  0.545200  1.0  -0.2108
  C  C417  1  0.874400  0.829900  0.529800  1.0  -0.0564
  C  C418  1  0.879300  0.904900  0.571400  1.0  -0.174
  C  C419  1  0.848900  0.926400  0.630600  1.0  -0.0407
  C  C420  1  0.813700  0.874000  0.647200  1.0  -0.1345
  C  C421  1  0.781500  0.894100  0.713300  1.0  0.6678
  C  C422  1  0.917700  0.960300  0.561100  1.0  0.6827
  C  C423  1  0.831500  0.942000  0.910300  1.0  0.1774
  C  C424  1  0.770600  0.902800  0.984600  1.0  0.0963
  C  C425  1  0.841600  0.855800  0.027200  1.0  0.1378
  C  C426  1  0.797500  0.860600  0.037400  1.0  -0.0839
  C  C427  1  0.858300  0.898800  0.961300  1.0  -0.2168
  C  C428  1  0.870600  0.803300  0.080200  1.0  -0.2573
  C  C429  1  0.861400  0.810200  0.171500  1.0  -0.107
  C  C430  1  0.872200  0.731100  0.219600  1.0  -0.2673
  C  C431  1  0.844600  0.661200  0.188400  1.0  0.1093
  C  C432  1  0.800300  0.659900  0.203100  1.0  -0.2016
  C  C433  1  0.774100  0.604900  0.162500  1.0  0.1756
  C  C434  1  0.832400  0.545000  0.099000  1.0  0.1612
  C  C435  1  0.861300  0.598500  0.139400  1.0  0.0374
  C  C436  1  0.806000  0.512600  0.879200  1.0  0.1644
  C  C437  1  0.786700  0.639000  0.929700  1.0  0.135
  C  C438  1  0.809300  0.677400  0.868600  1.0  -0.206
  C  C439  1  0.830600  0.546900  0.819600  1.0  -0.2396
  C  C440  1  0.832300  0.632200  0.811900  1.0  0.1061
  C  C441  1  0.859600  0.674200  0.750400  1.0  -0.1341
  C  C442  1  0.885200  0.728600  0.777300  1.0  -0.1195
  C  C443  1  0.926500  0.750900  0.735400  1.0  -0.1673
  C  C444  1  0.948300  0.824300  0.789900  1.0  0.1149
  C  C445  1  0.944900  0.903400  0.793000  1.0  -0.1816
  C  C446  1  0.966600  0.785200  0.860200  1.0  -0.1551
  C  C447  1  0.962100  0.945800  0.849600  1.0  0.1173
  C  C448  1  0.988000  0.838400  0.918600  1.0  0.1535
  C  C449  1  0.309100  0.200400  0.896800  1.0  -0.0751
  C  C450  1  0.339400  0.221500  0.954800  1.0  -0.2076
  C  C451  1  0.374400  0.170100  0.970200  1.0  -0.0549
  C  C452  1  0.379300  0.095100  0.928600  1.0  -0.173
  C  C453  1  0.348900  0.073600  0.869400  1.0  -0.0405
  C  C454  1  0.313700  0.126000  0.852800  1.0  -0.1346
  C  C455  1  0.281500  0.105900  0.786700  1.0  0.6681
  C  C456  1  0.417700  0.039700  0.938900  1.0  0.6816
  C  C457  1  0.331500  0.058000  0.589700  1.0  0.1769
  C  C458  1  0.270600  0.097200  0.515400  1.0  0.097
  C  C459  1  0.341600  0.144200  0.472800  1.0  0.1373
  C  C460  1  0.297500  0.139400  0.462600  1.0  -0.0835
  C  C461  1  0.358300  0.101200  0.538700  1.0  -0.2231
  C  C462  1  0.370600  0.196700  0.419800  1.0  -0.2532
  C  C463  1  0.361400  0.189800  0.328500  1.0  -0.106
  C  C464  1  0.372200  0.268900  0.280400  1.0  -0.2671
  C  C465  1  0.344600  0.338800  0.311600  1.0  0.1132
  C  C466  1  0.300300  0.340100  0.296900  1.0  -0.2014
  C  C467  1  0.274100  0.395100  0.337500  1.0  0.1786
  C  C468  1  0.332400  0.455000  0.401000  1.0  0.162
  C  C469  1  0.361300  0.401500  0.360600  1.0  0.0366
  C  C470  1  0.306000  0.487400  0.620800  1.0  0.1649
  C  C471  1  0.286700  0.361000  0.570300  1.0  0.1354
  C  C472  1  0.309300  0.322600  0.631400  1.0  -0.206
  C  C473  1  0.330600  0.453100  0.680400  1.0  -0.2394
  C  C474  1  0.332300  0.367800  0.688100  1.0  0.1051
  C  C475  1  0.359600  0.325800  0.749600  1.0  -0.1346
  C  C476  1  0.385200  0.271400  0.722700  1.0  -0.1183
  C  C477  1  0.426500  0.249100  0.764600  1.0  -0.1713
  C  C478  1  0.448300  0.175700  0.710100  1.0  0.1185
  C  C479  1  0.444900  0.096600  0.707000  1.0  -0.18
  C  C480  1  0.466600  0.214800  0.639800  1.0  -0.1567
  C  C481  1  0.462100  0.054200  0.650400  1.0  0.1194
  C  C482  1  0.488000  0.161600  0.581400  1.0  0.1516
  C  C483  1  0.190900  0.799600  0.896800  1.0  -0.0751
  C  C484  1  0.160600  0.778500  0.954800  1.0  -0.208
  C  C485  1  0.125600  0.829900  0.970200  1.0  -0.0554
  C  C486  1  0.120700  0.904900  0.928600  1.0  -0.1727
  C  C487  1  0.151100  0.926400  0.869400  1.0  -0.0405
  C  C488  1  0.186300  0.874000  0.852800  1.0  -0.1345
  C  C489  1  0.218500  0.894100  0.786700  1.0  0.6688
  C  C490  1  0.082300  0.960300  0.938900  1.0  0.6812
  C  C491  1  0.168500  0.942000  0.589700  1.0  0.1764
  C  C492  1  0.229400  0.902800  0.515400  1.0  0.1
  C  C493  1  0.158400  0.855800  0.472800  1.0  0.1366
  C  C494  1  0.202500  0.860600  0.462600  1.0  -0.0868
  C  C495  1  0.141700  0.898800  0.538700  1.0  -0.224
  C  C496  1  0.129400  0.803300  0.419800  1.0  -0.2538
  C  C497  1  0.138600  0.810200  0.328500  1.0  -0.1081
  C  C498  1  0.127800  0.731100  0.280400  1.0  -0.2642
  C  C499  1  0.155400  0.661200  0.311600  1.0  0.1116
  C  C500  1  0.199700  0.659900  0.296900  1.0  -0.2017
  C  C501  1  0.225900  0.604900  0.337500  1.0  0.1745
  C  C502  1  0.167600  0.545000  0.401000  1.0  0.1597
  C  C503  1  0.138700  0.598500  0.360600  1.0  0.0375
  C  C504  1  0.194000  0.512600  0.620800  1.0  0.16
  C  C505  1  0.213300  0.639000  0.570300  1.0  0.1351
  C  C506  1  0.190700  0.677400  0.631400  1.0  -0.2065
  C  C507  1  0.169400  0.546900  0.680400  1.0  -0.2378
  C  C508  1  0.167700  0.632200  0.688100  1.0  0.1057
  C  C509  1  0.140400  0.674200  0.749600  1.0  -0.1347
  C  C510  1  0.114800  0.728600  0.722700  1.0  -0.1202
  C  C511  1  0.073500  0.750900  0.764600  1.0  -0.1699
  C  C512  1  0.051700  0.824300  0.710100  1.0  0.1155
  C  C513  1  0.055100  0.903400  0.707000  1.0  -0.18
  C  C514  1  0.033400  0.785200  0.639800  1.0  -0.156
  C  C515  1  0.037900  0.945800  0.650400  1.0  0.1209
  C  C516  1  0.012000  0.838400  0.581400  1.0  0.1531
  S  S517  1  0.332630  0.682680  0.510540  1.0  1.3789
  S  S518  1  0.167370  0.317320  0.510540  1.0  1.3784
  S  S519  1  0.667370  0.682680  0.989460  1.0  1.3769
  S  S520  1  0.832630  0.317320  0.989460  1.0  1.3767
  S  S521  1  0.667370  0.317320  0.489460  1.0  1.3774
  S  S522  1  0.832630  0.682680  0.489460  1.0  1.3769
  S  S523  1  0.332630  0.317320  0.010540  1.0  1.379
  S  S524  1  0.167370  0.682680  0.010540  1.0  1.3783
  N  N525  1  0.284700  0.555300  0.064300  1.0  -0.2995
  N  N526  1  0.289200  0.549000  0.893100  1.0  -0.313
  N  N527  1  0.287760  0.945000  0.080200  1.0  -0.3584
  N  N528  1  0.482100  0.921300  0.087200  1.0  -0.2872
  N  N529  1  0.215300  0.444700  0.064300  1.0  -0.2989
  N  N530  1  0.210800  0.451000  0.893100  1.0  -0.312
  N  N531  1  0.212240  0.055000  0.080200  1.0  -0.3577
  N  N532  1  0.017900  0.078700  0.087200  1.0  -0.2884
  N  N533  1  0.715300  0.555300  0.435700  1.0  -0.2982
  N  N534  1  0.710800  0.549000  0.606900  1.0  -0.312
  N  N535  1  0.712240  0.945000  0.419800  1.0  -0.3585
  N  N536  1  0.517900  0.921300  0.412800  1.0  -0.285
  N  N537  1  0.784700  0.444700  0.435700  1.0  -0.2994
  N  N538  1  0.789200  0.451000  0.606900  1.0  -0.3123
  N  N539  1  0.787760  0.055000  0.419800  1.0  -0.3577
  N  N540  1  0.982100  0.078700  0.412800  1.0  -0.2822
  N  N541  1  0.715300  0.444700  0.935700  1.0  -0.2986
  N  N542  1  0.710800  0.451000  0.106900  1.0  -0.3119
  N  N543  1  0.712240  0.055000  0.919800  1.0  -0.3564
  N  N544  1  0.517900  0.078700  0.912800  1.0  -0.2839
  N  N545  1  0.784700  0.555300  0.935700  1.0  -0.2992
  N  N546  1  0.789200  0.549000  0.106900  1.0  -0.3128
  N  N547  1  0.787760  0.945000  0.919800  1.0  -0.357
  N  N548  1  0.982100  0.921300  0.912800  1.0  -0.2835
  N  N549  1  0.284700  0.444700  0.564300  1.0  -0.2993
  N  N550  1  0.289200  0.451000  0.393100  1.0  -0.3124
  N  N551  1  0.287760  0.055000  0.580200  1.0  -0.357
  N  N552  1  0.482100  0.078700  0.587200  1.0  -0.2872
  N  N553  1  0.215300  0.555300  0.564300  1.0  -0.2991
  N  N554  1  0.210800  0.549000  0.393100  1.0  -0.3123
  N  N555  1  0.212240  0.945000  0.580200  1.0  -0.3618
  N  N556  1  0.017900  0.921300  0.587200  1.0  -0.2881
  O  O557  1  0.288870  0.961900  0.247800  1.0  -0.5834
  O  O558  1  0.250920  0.845000  0.274200  1.0  -0.546
  O  O559  1  0.425330  0.015200  0.387500  1.0  -0.5702
  O  O560  1  0.441790  0.945700  0.500500  1.0  -0.6003
  O  O561  1  0.374820  0.644200  0.513100  1.0  -0.6324
  O  O562  1  0.301560  0.632400  0.465700  1.0  -0.6725
  O  O563  1  0.316700  0.708100  0.589700  1.0  -0.6594
  O  O564  1  0.211130  0.038100  0.247800  1.0  -0.5825
  O  O565  1  0.249080  0.155000  0.274200  1.0  -0.5462
  O  O566  1  0.074670  0.984800  0.387500  1.0  -0.5726
  O  O567  1  0.058210  0.054300  0.500500  1.0  -0.6007
  O  O568  1  0.125180  0.355800  0.513100  1.0  -0.6294
  O  O569  1  0.198440  0.367600  0.465700  1.0  -0.6738
  O  O570  1  0.183300  0.291900  0.589700  1.0  -0.6589
  O  O571  1  0.711130  0.961900  0.252200  1.0  -0.5833
  O  O572  1  0.749080  0.845000  0.225800  1.0  -0.5461
  O  O573  1  0.574670  0.015200  0.112500  1.0  -0.5716
  O  O574  1  0.558210  0.945700  0.999500  1.0  -0.601
  O  O575  1  0.625180  0.644200  0.986900  1.0  -0.6294
  O  O576  1  0.698440  0.632400  0.034300  1.0  -0.6731
  O  O577  1  0.683300  0.708100  0.910300  1.0  -0.6607
  O  O578  1  0.788870  0.038100  0.252200  1.0  -0.5829
  O  O579  1  0.750920  0.155000  0.225800  1.0  -0.5444
  O  O580  1  0.925330  0.984800  0.112500  1.0  -0.5705
  O  O581  1  0.941790  0.054300  0.999500  1.0  -0.6006
  O  O582  1  0.874820  0.355800  0.986900  1.0  -0.632
  O  O583  1  0.801560  0.367600  0.034300  1.0  -0.6715
  O  O584  1  0.816700  0.291900  0.910300  1.0  -0.6608
  O  O585  1  0.711130  0.038100  0.752200  1.0  -0.5829
  O  O586  1  0.749080  0.155000  0.725800  1.0  -0.5456
  O  O587  1  0.574670  0.984800  0.612500  1.0  -0.5708
  O  O588  1  0.558210  0.054300  0.499500  1.0  -0.6006
  O  O589  1  0.625180  0.355800  0.486900  1.0  -0.6301
  O  O590  1  0.698440  0.367600  0.534300  1.0  -0.6725
  O  O591  1  0.683300  0.291900  0.410300  1.0  -0.6609
  O  O592  1  0.788870  0.961900  0.752200  1.0  -0.5836
  O  O593  1  0.750920  0.845000  0.725800  1.0  -0.5451
  O  O594  1  0.925330  0.015200  0.612500  1.0  -0.5706
  O  O595  1  0.941790  0.945700  0.499500  1.0  -0.601
  O  O596  1  0.874820  0.644200  0.486900  1.0  -0.6333
  O  O597  1  0.801560  0.632400  0.534300  1.0  -0.6716
  O  O598  1  0.816700  0.708100  0.410300  1.0  -0.6599
  O  O599  1  0.288870  0.038100  0.747800  1.0  -0.5828
  O  O600  1  0.250920  0.155000  0.774200  1.0  -0.5451
  O  O601  1  0.425330  0.984800  0.887500  1.0  -0.5719
  O  O602  1  0.441790  0.054300  0.000500  1.0  -0.6002
  O  O603  1  0.374820  0.355800  0.013100  1.0  -0.6318
  O  O604  1  0.301560  0.367600  0.965700  1.0  -0.6723
  O  O605  1  0.316700  0.291900  0.089700  1.0  -0.6591
  O  O606  1  0.211130  0.961900  0.747800  1.0  -0.5829
  O  O607  1  0.249080  0.845000  0.774200  1.0  -0.5472
  O  O608  1  0.074670  0.015200  0.887500  1.0  -0.5717
  O  O609  1  0.058210  0.945700  0.000500  1.0  -0.6006
  O  O610  1  0.125180  0.644200  0.013100  1.0  -0.6283
  O  O611  1  0.198440  0.632400  0.965700  1.0  -0.6743
  O  O612  1  0.183300  0.708100  0.089700  1.0  -0.6598
