# generated using pymatgen
data_Cu6H29C73O32
_symmetry_space_group_name_H-M   'P 1'
_cell_length_a   24.83190000
_cell_length_b   33.53200000
_cell_length_c   18.70990000
_cell_angle_alpha   90.00000000
_cell_angle_beta   90.00000000
_cell_angle_gamma   90.00000000
_symmetry_Int_Tables_number   1
_chemical_formula_structural   Cu6H29C73O32
_chemical_formula_sum   'Cu24 H116 C292 O128'
_cell_volume   15579.04653034
_cell_formula_units_Z   4
loop_
 _symmetry_equiv_pos_site_id
 _symmetry_equiv_pos_as_xyz
  1  'x, y, z'
loop_
 _atom_site_type_symbol
 _atom_site_label
 _atom_site_symmetry_multiplicity
 _atom_site_fract_x
 _atom_site_fract_y
 _atom_site_fract_z
 _atom_site_occupancy
 _atom_site_charge
  Cu  Cu1  1  0.790210  0.732360  0.534750  1.0  0.9039
  Cu  Cu2  1  0.290210  0.232360  0.534750  1.0  0.9039
  Cu  Cu3  1  0.209790  0.267640  0.034750  1.0  0.9046
  Cu  Cu4  1  0.709790  0.767640  0.034750  1.0  0.9046
  Cu  Cu5  1  0.209790  0.732360  0.965250  1.0  0.9044
  Cu  Cu6  1  0.709790  0.232360  0.965250  1.0  0.9044
  Cu  Cu7  1  0.790210  0.267640  0.465250  1.0  0.9055
  Cu  Cu8  1  0.290210  0.767640  0.465250  1.0  0.9055
  Cu  Cu9  1  0.209790  0.267640  0.465250  1.0  0.9049
  Cu  Cu10  1  0.709790  0.767640  0.465250  1.0  0.9049
  Cu  Cu11  1  0.790210  0.732360  0.965250  1.0  0.9038
  Cu  Cu12  1  0.290210  0.232360  0.965250  1.0  0.9038
  Cu  Cu13  1  0.790210  0.267640  0.034750  1.0  0.9052
  Cu  Cu14  1  0.290210  0.767640  0.034750  1.0  0.9052
  Cu  Cu15  1  0.209790  0.732360  0.534750  1.0  0.9048
  Cu  Cu16  1  0.709790  0.232360  0.534750  1.0  0.9048
  Cu  Cu17  1  0.000000  0.858950  0.750000  1.0  0.9002
  Cu  Cu18  1  0.000000  0.937960  0.750000  1.0  0.8933
  Cu  Cu19  1  0.500000  0.358950  0.750000  1.0  0.9002
  Cu  Cu20  1  0.500000  0.437960  0.750000  1.0  0.8984
  Cu  Cu21  1  0.000000  0.141050  0.250000  1.0  0.8987
  Cu  Cu22  1  0.000000  0.062040  0.250000  1.0  0.8964
  Cu  Cu23  1  0.500000  0.641050  0.250000  1.0  0.8987
  Cu  Cu24  1  0.500000  0.562040  0.250000  1.0  0.8996
  H  H25  1  0.892000  0.705200  0.355000  1.0  0.1027
  H  H26  1  0.918700  0.632700  0.318000  1.0  0.1164
  H  H27  1  0.761100  0.889300  0.488600  1.0  0.1117
  H  H28  1  0.866000  0.954900  0.597500  1.0  0.0997
  H  H29  1  0.878300  0.836300  0.598700  1.0  0.1096
  H  H30  1  0.702700  0.944000  0.533400  1.0  0.1079
  H  H31  1  0.392000  0.205200  0.355000  1.0  0.1027
  H  H32  1  0.418700  0.132700  0.318000  1.0  0.1164
  H  H33  1  0.261100  0.389300  0.488600  1.0  0.1117
  H  H34  1  0.366000  0.454900  0.597500  1.0  0.1012
  H  H35  1  0.378300  0.336300  0.598700  1.0  0.1096
  H  H36  1  0.202700  0.444000  0.533400  1.0  0.1079
  H  H37  1  0.108000  0.294800  0.855000  1.0  0.1027
  H  H38  1  0.081300  0.367300  0.818000  1.0  0.1156
  H  H39  1  0.238900  0.110700  0.988600  1.0  0.1114
  H  H40  1  0.134000  0.045100  0.097500  1.0  0.1018
  H  H41  1  0.121700  0.163700  0.098700  1.0  0.1096
  H  H42  1  0.297300  0.056000  0.033400  1.0  0.1073
  H  H43  1  0.608000  0.794800  0.855000  1.0  0.1027
  H  H44  1  0.581300  0.867300  0.818000  1.0  0.1156
  H  H45  1  0.738900  0.610700  0.988600  1.0  0.1114
  H  H46  1  0.634000  0.545100  0.097500  1.0  0.1018
  H  H47  1  0.621700  0.663700  0.098700  1.0  0.1096
  H  H48  1  0.797300  0.556000  0.033400  1.0  0.1073
  H  H49  1  0.108000  0.705200  0.145000  1.0  0.1023
  H  H50  1  0.081300  0.632700  0.182000  1.0  0.1157
  H  H51  1  0.238900  0.889300  0.011400  1.0  0.1113
  H  H52  1  0.134000  0.954900  0.902500  1.0  0.1
  H  H53  1  0.121700  0.836300  0.901300  1.0  0.1099
  H  H54  1  0.297300  0.944000  0.966600  1.0  0.1077
  H  H55  1  0.608000  0.205200  0.145000  1.0  0.1023
  H  H56  1  0.581300  0.132700  0.182000  1.0  0.1157
  H  H57  1  0.738900  0.389300  0.011400  1.0  0.1113
  H  H58  1  0.634000  0.454900  0.902500  1.0  0.1017
  H  H59  1  0.621700  0.336300  0.901300  1.0  0.1099
  H  H60  1  0.797300  0.444000  0.966600  1.0  0.1077
  H  H61  1  0.892000  0.294800  0.645000  1.0  0.1024
  H  H62  1  0.918700  0.367300  0.682000  1.0  0.1154
  H  H63  1  0.761100  0.110700  0.511400  1.0  0.1111
  H  H64  1  0.866000  0.045100  0.402500  1.0  0.1011
  H  H65  1  0.878300  0.163700  0.401300  1.0  0.1096
  H  H66  1  0.702700  0.056000  0.466600  1.0  0.1086
  H  H67  1  0.392000  0.794800  0.645000  1.0  0.1024
  H  H68  1  0.418700  0.867300  0.682000  1.0  0.1154
  H  H69  1  0.261100  0.610700  0.511400  1.0  0.1111
  H  H70  1  0.366000  0.545100  0.402500  1.0  0.1011
  H  H71  1  0.378300  0.663700  0.401300  1.0  0.1096
  H  H72  1  0.202700  0.556000  0.466600  1.0  0.1086
  H  H73  1  0.108000  0.294800  0.645000  1.0  0.1023
  H  H74  1  0.081300  0.367300  0.682000  1.0  0.1158
  H  H75  1  0.238900  0.110700  0.511400  1.0  0.1109
  H  H76  1  0.134000  0.045100  0.402500  1.0  0.1015
  H  H77  1  0.121700  0.163700  0.401300  1.0  0.1097
  H  H78  1  0.297300  0.056000  0.466600  1.0  0.1081
  H  H79  1  0.608000  0.794800  0.645000  1.0  0.1023
  H  H80  1  0.581300  0.867300  0.682000  1.0  0.1158
  H  H81  1  0.738900  0.610700  0.511400  1.0  0.1109
  H  H82  1  0.634000  0.545100  0.402500  1.0  0.1015
  H  H83  1  0.621700  0.663700  0.401300  1.0  0.1097
  H  H84  1  0.797300  0.556000  0.466600  1.0  0.1081
  H  H85  1  0.892000  0.705200  0.145000  1.0  0.1024
  H  H86  1  0.918700  0.632700  0.182000  1.0  0.1155
  H  H87  1  0.761100  0.889300  0.011400  1.0  0.1114
  H  H88  1  0.866000  0.954900  0.902500  1.0  0.0993
  H  H89  1  0.878300  0.836300  0.901300  1.0  0.1098
  H  H90  1  0.702700  0.944000  0.966600  1.0  0.1079
  H  H91  1  0.392000  0.205200  0.145000  1.0  0.1024
  H  H92  1  0.418700  0.132700  0.182000  1.0  0.1155
  H  H93  1  0.261100  0.389300  0.011400  1.0  0.1114
  H  H94  1  0.366000  0.454900  0.902500  1.0  0.101
  H  H95  1  0.378300  0.336300  0.901300  1.0  0.1098
  H  H96  1  0.202700  0.444000  0.966600  1.0  0.1079
  H  H97  1  0.892000  0.294800  0.855000  1.0  0.1027
  H  H98  1  0.918700  0.367300  0.818000  1.0  0.1159
  H  H99  1  0.761100  0.110700  0.988600  1.0  0.1117
  H  H100  1  0.866000  0.045100  0.097500  1.0  0.1016
  H  H101  1  0.878300  0.163700  0.098700  1.0  0.1093
  H  H102  1  0.702700  0.056000  0.033400  1.0  0.1081
  H  H103  1  0.392000  0.794800  0.855000  1.0  0.1027
  H  H104  1  0.418700  0.867300  0.818000  1.0  0.1159
  H  H105  1  0.261100  0.610700  0.988600  1.0  0.1117
  H  H106  1  0.366000  0.545100  0.097500  1.0  0.1016
  H  H107  1  0.378300  0.663700  0.098700  1.0  0.1093
  H  H108  1  0.202700  0.556000  0.033400  1.0  0.1081
  H  H109  1  0.108000  0.705200  0.355000  1.0  0.1026
  H  H110  1  0.081300  0.632700  0.318000  1.0  0.1158
  H  H111  1  0.238900  0.889300  0.488600  1.0  0.1115
  H  H112  1  0.134000  0.954900  0.597500  1.0  0.1002
  H  H113  1  0.121700  0.836300  0.598700  1.0  0.1098
  H  H114  1  0.297300  0.944000  0.533400  1.0  0.1072
  H  H115  1  0.608000  0.205200  0.355000  1.0  0.1026
  H  H116  1  0.581300  0.132700  0.318000  1.0  0.1158
  H  H117  1  0.738900  0.389300  0.488600  1.0  0.1115
  H  H118  1  0.634000  0.454900  0.597500  1.0  0.1017
  H  H119  1  0.621700  0.336300  0.598700  1.0  0.1098
  H  H120  1  0.797300  0.444000  0.533400  1.0  0.1072
  H  H121  1  0.769500  0.755000  0.250000  1.0  0.1056
  H  H122  1  0.269500  0.255000  0.250000  1.0  0.1056
  H  H123  1  0.230500  0.245000  0.750000  1.0  0.1054
  H  H124  1  0.730500  0.745000  0.750000  1.0  0.1054
  H  H125  1  0.230500  0.755000  0.250000  1.0  0.1056
  H  H126  1  0.730500  0.255000  0.250000  1.0  0.1056
  H  H127  1  0.769500  0.245000  0.750000  1.0  0.1056
  H  H128  1  0.269500  0.745000  0.750000  1.0  0.1056
  H  H129  1  0.000000  0.723500  0.250000  1.0  0.0501
  H  H130  1  0.500000  0.223500  0.250000  1.0  0.0501
  H  H131  1  0.000000  0.276500  0.750000  1.0  0.0541
  H  H132  1  0.500000  0.776500  0.750000  1.0  0.0541
  H  H133  1  0.843000  0.000000  0.500000  1.0  0.1103
  H  H134  1  0.343000  0.500000  0.500000  1.0  0.1103
  H  H135  1  0.157000  0.000000  0.000000  1.0  0.1103
  H  H136  1  0.657000  0.500000  0.000000  1.0  0.1103
  H  H137  1  0.157000  0.000000  0.500000  1.0  0.1103
  H  H138  1  0.657000  0.500000  0.500000  1.0  0.1103
  H  H139  1  0.843000  0.000000  0.000000  1.0  0.1103
  H  H140  1  0.343000  0.500000  0.000000  1.0  0.1103
  C  C141  1  0.798400  0.741110  0.383800  1.0  0.6805
  C  C142  1  0.825800  0.732230  0.314100  1.0  -0.1565
  C  C143  1  0.875600  0.711640  0.311800  1.0  -0.0828
  C  C144  1  0.951300  0.642400  0.300900  1.0  -0.1576
  C  C145  1  0.794300  0.816350  0.522300  1.0  0.6835
  C  C146  1  0.816500  0.856720  0.541200  1.0  -0.168
  C  C147  1  0.790900  0.891300  0.518600  1.0  -0.0401
  C  C148  1  0.808400  0.928500  0.539700  1.0  0.0379
  C  C149  1  0.853300  0.930110  0.583000  1.0  -0.0605
  C  C150  1  0.880000  0.896370  0.605800  1.0  -0.1783
  C  C151  1  0.860800  0.859430  0.584000  1.0  0.0229
  C  C152  1  0.926800  0.898560  0.656800  1.0  0.6826
  C  C153  1  0.778400  0.964980  0.518700  1.0  0.0289
  C  C154  1  0.722100  0.966370  0.519400  1.0  -0.0514
  C  C155  1  0.298400  0.241110  0.383800  1.0  0.6805
  C  C156  1  0.325800  0.232230  0.314100  1.0  -0.1565
  C  C157  1  0.375600  0.211640  0.311800  1.0  -0.0828
  C  C158  1  0.451300  0.142400  0.300900  1.0  -0.1576
  C  C159  1  0.294300  0.316350  0.522300  1.0  0.6835
  C  C160  1  0.316500  0.356720  0.541200  1.0  -0.168
  C  C161  1  0.290900  0.391300  0.518600  1.0  -0.0401
  C  C162  1  0.308400  0.428500  0.539700  1.0  0.0379
  C  C163  1  0.353300  0.430110  0.583000  1.0  -0.0605
  C  C164  1  0.380000  0.396370  0.605800  1.0  -0.1783
  C  C165  1  0.360800  0.359430  0.584000  1.0  0.0229
  C  C166  1  0.426800  0.398560  0.656800  1.0  0.6826
  C  C167  1  0.278400  0.464980  0.518700  1.0  0.0289
  C  C168  1  0.222100  0.466370  0.519400  1.0  -0.0514
  C  C169  1  0.201600  0.258890  0.883800  1.0  0.6805
  C  C170  1  0.174200  0.267770  0.814100  1.0  -0.1571
  C  C171  1  0.124400  0.288360  0.811800  1.0  -0.083
  C  C172  1  0.048700  0.357600  0.800900  1.0  -0.1561
  C  C173  1  0.205700  0.183650  0.022300  1.0  0.6839
  C  C174  1  0.183500  0.143280  0.041200  1.0  -0.1672
  C  C175  1  0.209100  0.108700  0.018600  1.0  -0.04
  C  C176  1  0.191600  0.071500  0.039700  1.0  0.0375
  C  C177  1  0.146700  0.069890  0.083000  1.0  -0.0609
  C  C178  1  0.120000  0.103630  0.105800  1.0  -0.1781
  C  C179  1  0.139200  0.140570  0.084000  1.0  0.0227
  C  C180  1  0.073200  0.101440  0.156800  1.0  0.6822
  C  C181  1  0.221600  0.035020  0.018700  1.0  0.029
  C  C182  1  0.277900  0.033630  0.019400  1.0  -0.0523
  C  C183  1  0.701600  0.758890  0.883800  1.0  0.6805
  C  C184  1  0.674200  0.767770  0.814100  1.0  -0.1571
  C  C185  1  0.624400  0.788360  0.811800  1.0  -0.083
  C  C186  1  0.548700  0.857600  0.800900  1.0  -0.1561
  C  C187  1  0.705700  0.683650  0.022300  1.0  0.6839
  C  C188  1  0.683500  0.643280  0.041200  1.0  -0.1672
  C  C189  1  0.709100  0.608700  0.018600  1.0  -0.04
  C  C190  1  0.691600  0.571500  0.039700  1.0  0.0375
  C  C191  1  0.646700  0.569890  0.083000  1.0  -0.0609
  C  C192  1  0.620000  0.603630  0.105800  1.0  -0.1781
  C  C193  1  0.639200  0.640570  0.084000  1.0  0.0227
  C  C194  1  0.573200  0.601440  0.156800  1.0  0.6822
  C  C195  1  0.721600  0.535020  0.018700  1.0  0.029
  C  C196  1  0.777900  0.533630  0.019400  1.0  -0.0523
  C  C197  1  0.201600  0.741110  0.116200  1.0  0.6805
  C  C198  1  0.174200  0.732230  0.185900  1.0  -0.156
  C  C199  1  0.124400  0.711640  0.188200  1.0  -0.0832
  C  C200  1  0.048700  0.642400  0.199100  1.0  -0.1573
  C  C201  1  0.205700  0.816350  0.977700  1.0  0.6836
  C  C202  1  0.183500  0.856720  0.958800  1.0  -0.1678
  C  C203  1  0.209100  0.891300  0.981400  1.0  -0.0409
  C  C204  1  0.191600  0.928500  0.960300  1.0  0.037
  C  C205  1  0.146700  0.930110  0.917000  1.0  -0.0608
  C  C206  1  0.120000  0.896370  0.894200  1.0  -0.1785
  C  C207  1  0.139200  0.859430  0.916000  1.0  0.023
  C  C208  1  0.073200  0.898560  0.843200  1.0  0.6819
  C  C209  1  0.221600  0.964980  0.981300  1.0  0.0293
  C  C210  1  0.277900  0.966370  0.980600  1.0  -0.0524
  C  C211  1  0.701600  0.241110  0.116200  1.0  0.6805
  C  C212  1  0.674200  0.232230  0.185900  1.0  -0.156
  C  C213  1  0.624400  0.211640  0.188200  1.0  -0.0832
  C  C214  1  0.548700  0.142400  0.199100  1.0  -0.1573
  C  C215  1  0.705700  0.316350  0.977700  1.0  0.6836
  C  C216  1  0.683500  0.356720  0.958800  1.0  -0.1678
  C  C217  1  0.709100  0.391300  0.981400  1.0  -0.0409
  C  C218  1  0.691600  0.428500  0.960300  1.0  0.037
  C  C219  1  0.646700  0.430110  0.917000  1.0  -0.0608
  C  C220  1  0.620000  0.396370  0.894200  1.0  -0.1785
  C  C221  1  0.639200  0.359430  0.916000  1.0  0.023
  C  C222  1  0.573200  0.398560  0.843200  1.0  0.6819
  C  C223  1  0.721600  0.464980  0.981300  1.0  0.0293
  C  C224  1  0.777900  0.466370  0.980600  1.0  -0.0524
  C  C225  1  0.798400  0.258890  0.616200  1.0  0.6803
  C  C226  1  0.825800  0.267770  0.685900  1.0  -0.1568
  C  C227  1  0.875600  0.288360  0.688200  1.0  -0.0841
  C  C228  1  0.951300  0.357600  0.699100  1.0  -0.1586
  C  C229  1  0.794300  0.183650  0.477700  1.0  0.6838
  C  C230  1  0.816500  0.143280  0.458800  1.0  -0.1685
  C  C231  1  0.790900  0.108700  0.481400  1.0  -0.0412
  C  C232  1  0.808400  0.071500  0.460300  1.0  0.0371
  C  C233  1  0.853300  0.069890  0.417000  1.0  -0.0597
  C  C234  1  0.880000  0.103630  0.394200  1.0  -0.178
  C  C235  1  0.860800  0.140570  0.416000  1.0  0.0223
  C  C236  1  0.926800  0.101440  0.343200  1.0  0.6824
  C  C237  1  0.778400  0.035020  0.481300  1.0  0.029
  C  C238  1  0.722100  0.033630  0.480600  1.0  -0.0524
  C  C239  1  0.298400  0.758890  0.616200  1.0  0.6803
  C  C240  1  0.325800  0.767770  0.685900  1.0  -0.1568
  C  C241  1  0.375600  0.788360  0.688200  1.0  -0.0841
  C  C242  1  0.451300  0.857600  0.699100  1.0  -0.1586
  C  C243  1  0.294300  0.683650  0.477700  1.0  0.6838
  C  C244  1  0.316500  0.643280  0.458800  1.0  -0.1685
  C  C245  1  0.290900  0.608700  0.481400  1.0  -0.0412
  C  C246  1  0.308400  0.571500  0.460300  1.0  0.0371
  C  C247  1  0.353300  0.569890  0.417000  1.0  -0.0597
  C  C248  1  0.380000  0.603630  0.394200  1.0  -0.178
  C  C249  1  0.360800  0.640570  0.416000  1.0  0.0223
  C  C250  1  0.426800  0.601440  0.343200  1.0  0.6824
  C  C251  1  0.278400  0.535020  0.481300  1.0  0.029
  C  C252  1  0.222100  0.533630  0.480600  1.0  -0.0524
  C  C253  1  0.201600  0.258890  0.616200  1.0  0.6804
  C  C254  1  0.174200  0.267770  0.685900  1.0  -0.1567
  C  C255  1  0.124400  0.288360  0.688200  1.0  -0.0837
  C  C256  1  0.048700  0.357600  0.699100  1.0  -0.1571
  C  C257  1  0.205700  0.183650  0.477700  1.0  0.6841
  C  C258  1  0.183500  0.143280  0.458800  1.0  -0.1677
  C  C259  1  0.209100  0.108700  0.481400  1.0  -0.041
  C  C260  1  0.191600  0.071500  0.460300  1.0  0.0369
  C  C261  1  0.146700  0.069890  0.417000  1.0  -0.0607
  C  C262  1  0.120000  0.103630  0.394200  1.0  -0.1784
  C  C263  1  0.139200  0.140570  0.416000  1.0  0.0229
  C  C264  1  0.073200  0.101440  0.343200  1.0  0.6819
  C  C265  1  0.221600  0.035020  0.481300  1.0  0.0293
  C  C266  1  0.277900  0.033630  0.480600  1.0  -0.0525
  C  C267  1  0.701600  0.758890  0.616200  1.0  0.6804
  C  C268  1  0.674200  0.767770  0.685900  1.0  -0.1567
  C  C269  1  0.624400  0.788360  0.688200  1.0  -0.0837
  C  C270  1  0.548700  0.857600  0.699100  1.0  -0.1571
  C  C271  1  0.705700  0.683650  0.477700  1.0  0.6841
  C  C272  1  0.683500  0.643280  0.458800  1.0  -0.1677
  C  C273  1  0.709100  0.608700  0.481400  1.0  -0.041
  C  C274  1  0.691600  0.571500  0.460300  1.0  0.0369
  C  C275  1  0.646700  0.569890  0.417000  1.0  -0.0607
  C  C276  1  0.620000  0.603630  0.394200  1.0  -0.1784
  C  C277  1  0.639200  0.640570  0.416000  1.0  0.0229
  C  C278  1  0.573200  0.601440  0.343200  1.0  0.6819
  C  C279  1  0.721600  0.535020  0.481300  1.0  0.0293
  C  C280  1  0.777900  0.533630  0.480600  1.0  -0.0525
  C  C281  1  0.798400  0.741110  0.116200  1.0  0.6804
  C  C282  1  0.825800  0.732230  0.185900  1.0  -0.156
  C  C283  1  0.875600  0.711640  0.188200  1.0  -0.0834
  C  C284  1  0.951300  0.642400  0.199100  1.0  -0.1589
  C  C285  1  0.794300  0.816350  0.977700  1.0  0.6836
  C  C286  1  0.816500  0.856720  0.958800  1.0  -0.1687
  C  C287  1  0.790900  0.891300  0.981400  1.0  -0.0411
  C  C288  1  0.808400  0.928500  0.960300  1.0  0.0373
  C  C289  1  0.853300  0.930110  0.917000  1.0  -0.0602
  C  C290  1  0.880000  0.896370  0.894200  1.0  -0.178
  C  C291  1  0.860800  0.859430  0.916000  1.0  0.0227
  C  C292  1  0.926800  0.898560  0.843200  1.0  0.6824
  C  C293  1  0.778400  0.964980  0.981300  1.0  0.0292
  C  C294  1  0.722100  0.966370  0.980600  1.0  -0.0522
  C  C295  1  0.298400  0.241110  0.116200  1.0  0.6804
  C  C296  1  0.325800  0.232230  0.185900  1.0  -0.156
  C  C297  1  0.375600  0.211640  0.188200  1.0  -0.0834
  C  C298  1  0.451300  0.142400  0.199100  1.0  -0.1589
  C  C299  1  0.294300  0.316350  0.977700  1.0  0.6836
  C  C300  1  0.316500  0.356720  0.958800  1.0  -0.1687
  C  C301  1  0.290900  0.391300  0.981400  1.0  -0.0411
  C  C302  1  0.308400  0.428500  0.960300  1.0  0.0373
  C  C303  1  0.353300  0.430110  0.917000  1.0  -0.0602
  C  C304  1  0.380000  0.396370  0.894200  1.0  -0.178
  C  C305  1  0.360800  0.359430  0.916000  1.0  0.0227
  C  C306  1  0.426800  0.398560  0.843200  1.0  0.6824
  C  C307  1  0.278400  0.464980  0.981300  1.0  0.0292
  C  C308  1  0.222100  0.466370  0.980600  1.0  -0.0522
  C  C309  1  0.798400  0.258890  0.883800  1.0  0.6805
  C  C310  1  0.825800  0.267770  0.814100  1.0  -0.1567
  C  C311  1  0.875600  0.288360  0.811800  1.0  -0.0833
  C  C312  1  0.951300  0.357600  0.800900  1.0  -0.158
  C  C313  1  0.794300  0.183650  0.022300  1.0  0.6838
  C  C314  1  0.816500  0.143280  0.041200  1.0  -0.1676
  C  C315  1  0.790900  0.108700  0.018600  1.0  -0.0397
  C  C316  1  0.808400  0.071500  0.039700  1.0  0.0377
  C  C317  1  0.853300  0.069890  0.083000  1.0  -0.0597
  C  C318  1  0.880000  0.103630  0.105800  1.0  -0.1783
  C  C319  1  0.860800  0.140570  0.084000  1.0  0.0221
  C  C320  1  0.926800  0.101440  0.156800  1.0  0.6826
  C  C321  1  0.778400  0.035020  0.018700  1.0  0.0289
  C  C322  1  0.722100  0.033630  0.019400  1.0  -0.052
  C  C323  1  0.298400  0.758890  0.883800  1.0  0.6805
  C  C324  1  0.325800  0.767770  0.814100  1.0  -0.1567
  C  C325  1  0.375600  0.788360  0.811800  1.0  -0.0833
  C  C326  1  0.451300  0.857600  0.800900  1.0  -0.158
  C  C327  1  0.294300  0.683650  0.022300  1.0  0.6838
  C  C328  1  0.316500  0.643280  0.041200  1.0  -0.1676
  C  C329  1  0.290900  0.608700  0.018600  1.0  -0.0397
  C  C330  1  0.308400  0.571500  0.039700  1.0  0.0377
  C  C331  1  0.353300  0.569890  0.083000  1.0  -0.0597
  C  C332  1  0.380000  0.603630  0.105800  1.0  -0.1783
  C  C333  1  0.360800  0.640570  0.084000  1.0  0.0221
  C  C334  1  0.426800  0.601440  0.156800  1.0  0.6826
  C  C335  1  0.278400  0.535020  0.018700  1.0  0.0289
  C  C336  1  0.222100  0.533630  0.019400  1.0  -0.052
  C  C337  1  0.201600  0.741110  0.383800  1.0  0.6807
  C  C338  1  0.174200  0.732230  0.314100  1.0  -0.1569
  C  C339  1  0.124400  0.711640  0.311800  1.0  -0.0826
  C  C340  1  0.048700  0.642400  0.300900  1.0  -0.1556
  C  C341  1  0.205700  0.816350  0.522300  1.0  0.6834
  C  C342  1  0.183500  0.856720  0.541200  1.0  -0.1676
  C  C343  1  0.209100  0.891300  0.518600  1.0  -0.0404
  C  C344  1  0.191600  0.928500  0.539700  1.0  0.0376
  C  C345  1  0.146700  0.930110  0.583000  1.0  -0.0614
  C  C346  1  0.120000  0.896370  0.605800  1.0  -0.1782
  C  C347  1  0.139200  0.859430  0.584000  1.0  0.0233
  C  C348  1  0.073200  0.898560  0.656800  1.0  0.6821
  C  C349  1  0.221600  0.964980  0.518700  1.0  0.029
  C  C350  1  0.277900  0.966370  0.519400  1.0  -0.0517
  C  C351  1  0.701600  0.241110  0.383800  1.0  0.6807
  C  C352  1  0.674200  0.232230  0.314100  1.0  -0.1569
  C  C353  1  0.624400  0.211640  0.311800  1.0  -0.0826
  C  C354  1  0.548700  0.142400  0.300900  1.0  -0.1556
  C  C355  1  0.705700  0.316350  0.522300  1.0  0.6834
  C  C356  1  0.683500  0.356720  0.541200  1.0  -0.1676
  C  C357  1  0.709100  0.391300  0.518600  1.0  -0.0404
  C  C358  1  0.691600  0.428500  0.539700  1.0  0.0376
  C  C359  1  0.646700  0.430110  0.583000  1.0  -0.0614
  C  C360  1  0.620000  0.396370  0.605800  1.0  -0.1782
  C  C361  1  0.639200  0.359430  0.584000  1.0  0.0233
  C  C362  1  0.573200  0.398560  0.656800  1.0  0.6821
  C  C363  1  0.721600  0.464980  0.518700  1.0  0.029
  C  C364  1  0.777900  0.466370  0.519400  1.0  -0.0517
  C  C365  1  0.802400  0.741700  0.250000  1.0  0.0416
  C  C366  1  0.901000  0.700700  0.250000  1.0  0.0759
  C  C367  1  0.951500  0.679100  0.250000  1.0  0.1456
  C  C368  1  0.302400  0.241700  0.250000  1.0  0.0416
  C  C369  1  0.401000  0.200700  0.250000  1.0  0.0759
  C  C370  1  0.451500  0.179100  0.250000  1.0  0.1456
  C  C371  1  0.197600  0.258300  0.750000  1.0  0.0417
  C  C372  1  0.099000  0.299300  0.750000  1.0  0.0753
  C  C373  1  0.048500  0.320900  0.750000  1.0  0.1431
  C  C374  1  0.697600  0.758300  0.750000  1.0  0.0417
  C  C375  1  0.599000  0.799300  0.750000  1.0  0.0753
  C  C376  1  0.548500  0.820900  0.750000  1.0  0.1431
  C  C377  1  0.197600  0.741700  0.250000  1.0  0.0421
  C  C378  1  0.099000  0.700700  0.250000  1.0  0.0752
  C  C379  1  0.048500  0.679100  0.250000  1.0  0.1439
  C  C380  1  0.697600  0.241700  0.250000  1.0  0.0421
  C  C381  1  0.599000  0.200700  0.250000  1.0  0.0752
  C  C382  1  0.548500  0.179100  0.250000  1.0  0.1439
  C  C383  1  0.802400  0.258300  0.750000  1.0  0.0413
  C  C384  1  0.901000  0.299300  0.750000  1.0  0.0759
  C  C385  1  0.951500  0.320900  0.750000  1.0  0.1446
  C  C386  1  0.302400  0.758300  0.750000  1.0  0.0413
  C  C387  1  0.401000  0.799300  0.750000  1.0  0.0759
  C  C388  1  0.451500  0.820900  0.750000  1.0  0.1446
  C  C389  1  0.000000  0.695800  0.250000  1.0  -0.0511
  C  C390  1  0.500000  0.195800  0.250000  1.0  -0.0511
  C  C391  1  0.000000  0.304200  0.750000  1.0  -0.0515
  C  C392  1  0.500000  0.804200  0.750000  1.0  -0.0515
  C  C393  1  0.000000  0.623500  0.322000  1.0  0.0375
  C  C394  1  0.000000  0.586500  0.366000  1.0  0.6958
  C  C395  1  0.500000  0.123500  0.322000  1.0  0.0375
  C  C396  1  0.500000  0.086500  0.366000  1.0  0.6958
  C  C397  1  0.000000  0.376500  0.822000  1.0  0.037
  C  C398  1  0.000000  0.413500  0.866000  1.0  0.6982
  C  C399  1  0.500000  0.876500  0.822000  1.0  0.037
  C  C400  1  0.500000  0.913500  0.866000  1.0  0.6982
  C  C401  1  0.000000  0.623500  0.178000  1.0  0.0357
  C  C402  1  0.000000  0.586500  0.134000  1.0  0.7026
  C  C403  1  0.500000  0.123500  0.178000  1.0  0.0357
  C  C404  1  0.500000  0.086500  0.134000  1.0  0.7026
  C  C405  1  0.000000  0.376500  0.678000  1.0  0.0376
  C  C406  1  0.000000  0.413500  0.634000  1.0  0.7047
  C  C407  1  0.500000  0.876500  0.678000  1.0  0.0376
  C  C408  1  0.500000  0.913500  0.634000  1.0  0.7047
  C  C409  1  0.805500  0.000000  0.500000  1.0  -0.0955
  C  C410  1  0.695400  0.000000  0.500000  1.0  -0.0999
  C  C411  1  0.634800  0.000000  0.500000  1.0  0.7328
  C  C412  1  0.305500  0.500000  0.500000  1.0  -0.0955
  C  C413  1  0.195400  0.500000  0.500000  1.0  -0.0999
  C  C414  1  0.134800  0.500000  0.500000  1.0  0.7328
  C  C415  1  0.194500  0.000000  0.000000  1.0  -0.0954
  C  C416  1  0.304600  0.000000  0.000000  1.0  -0.0992
  C  C417  1  0.365200  0.000000  0.000000  1.0  0.7301
  C  C418  1  0.694500  0.500000  0.000000  1.0  -0.0954
  C  C419  1  0.804600  0.500000  0.000000  1.0  -0.0992
  C  C420  1  0.865200  0.500000  0.000000  1.0  0.7301
  C  C421  1  0.194500  0.000000  0.500000  1.0  -0.0954
  C  C422  1  0.304600  0.000000  0.500000  1.0  -0.0992
  C  C423  1  0.365200  0.000000  0.500000  1.0  0.7301
  C  C424  1  0.694500  0.500000  0.500000  1.0  -0.0954
  C  C425  1  0.804600  0.500000  0.500000  1.0  -0.0992
  C  C426  1  0.865200  0.500000  0.500000  1.0  0.7301
  C  C427  1  0.805500  0.000000  0.000000  1.0  -0.0955
  C  C428  1  0.695400  0.000000  0.000000  1.0  -0.0999
  C  C429  1  0.634800  0.000000  0.000000  1.0  0.7328
  C  C430  1  0.305500  0.500000  0.000000  1.0  -0.0955
  C  C431  1  0.195400  0.500000  0.000000  1.0  -0.0999
  C  C432  1  0.134800  0.500000  0.000000  1.0  0.7328
  O  O433  1  0.822020  0.728960  0.439800  1.0  -0.5604
  O  O434  1  0.753360  0.757920  0.380400  1.0  -0.5559
  O  O435  1  0.958000  0.570600  0.370700  1.0  -0.3353
  O  O436  1  0.818470  0.786460  0.545300  1.0  -0.5667
  O  O437  1  0.750820  0.816410  0.486200  1.0  -0.5764
  O  O438  1  0.945090  0.865010  0.677600  1.0  -0.5764
  O  O439  1  0.943780  0.931680  0.676400  1.0  -0.5694
  O  O440  1  0.611400  0.970400  0.515700  1.0  -0.374
  O  O441  1  0.322020  0.228960  0.439800  1.0  -0.5604
  O  O442  1  0.253360  0.257920  0.380400  1.0  -0.5559
  O  O443  1  0.458000  0.070600  0.370700  1.0  -0.3353
  O  O444  1  0.318470  0.286460  0.545300  1.0  -0.5667
  O  O445  1  0.250820  0.316410  0.486200  1.0  -0.5764
  O  O446  1  0.445090  0.365010  0.677600  1.0  -0.5764
  O  O447  1  0.443780  0.431680  0.676400  1.0  -0.5694
  O  O448  1  0.111400  0.470400  0.515700  1.0  -0.374
  O  O449  1  0.177980  0.271040  0.939800  1.0  -0.5602
  O  O450  1  0.246640  0.242080  0.880400  1.0  -0.5573
  O  O451  1  0.042000  0.429400  0.870700  1.0  -0.333
  O  O452  1  0.181530  0.213540  0.045300  1.0  -0.5673
  O  O453  1  0.249180  0.183590  0.986200  1.0  -0.5767
  O  O454  1  0.054910  0.134990  0.177600  1.0  -0.5779
  O  O455  1  0.056220  0.068320  0.176400  1.0  -0.5696
  O  O456  1  0.388600  0.029600  0.015700  1.0  -0.3739
  O  O457  1  0.677980  0.771040  0.939800  1.0  -0.5602
  O  O458  1  0.746640  0.742080  0.880400  1.0  -0.5573
  O  O459  1  0.542000  0.929400  0.870700  1.0  -0.333
  O  O460  1  0.681530  0.713540  0.045300  1.0  -0.5673
  O  O461  1  0.749180  0.683590  0.986200  1.0  -0.5767
  O  O462  1  0.554910  0.634990  0.177600  1.0  -0.5779
  O  O463  1  0.556220  0.568320  0.176400  1.0  -0.5696
  O  O464  1  0.888600  0.529600  0.015700  1.0  -0.3739
  O  O465  1  0.177980  0.728960  0.060200  1.0  -0.561
  O  O466  1  0.246640  0.757920  0.119600  1.0  -0.5571
  O  O467  1  0.042000  0.570600  0.129300  1.0  -0.3335
  O  O468  1  0.181530  0.786460  0.954700  1.0  -0.5672
  O  O469  1  0.249180  0.816410  0.013800  1.0  -0.576
  O  O470  1  0.054910  0.865010  0.822400  1.0  -0.5766
  O  O471  1  0.056220  0.931680  0.823600  1.0  -0.5714
  O  O472  1  0.388600  0.970400  0.984300  1.0  -0.3736
  O  O473  1  0.677980  0.228960  0.060200  1.0  -0.561
  O  O474  1  0.746640  0.257920  0.119600  1.0  -0.5571
  O  O475  1  0.542000  0.070600  0.129300  1.0  -0.3335
  O  O476  1  0.681530  0.286460  0.954700  1.0  -0.5672
  O  O477  1  0.749180  0.316410  0.013800  1.0  -0.576
  O  O478  1  0.554910  0.365010  0.822400  1.0  -0.5766
  O  O479  1  0.556220  0.431680  0.823600  1.0  -0.5714
  O  O480  1  0.888600  0.470400  0.984300  1.0  -0.3736
  O  O481  1  0.822020  0.271040  0.560200  1.0  -0.5602
  O  O482  1  0.753360  0.242080  0.619600  1.0  -0.5566
  O  O483  1  0.958000  0.429400  0.629300  1.0  -0.3355
  O  O484  1  0.818470  0.213540  0.454700  1.0  -0.567
  O  O485  1  0.750820  0.183590  0.513800  1.0  -0.5763
  O  O486  1  0.945090  0.134990  0.322400  1.0  -0.5773
  O  O487  1  0.943780  0.068320  0.323600  1.0  -0.5711
  O  O488  1  0.611400  0.029600  0.484300  1.0  -0.3725
  O  O489  1  0.322020  0.771040  0.560200  1.0  -0.5602
  O  O490  1  0.253360  0.742080  0.619600  1.0  -0.5566
  O  O491  1  0.458000  0.929400  0.629300  1.0  -0.3355
  O  O492  1  0.318470  0.713540  0.454700  1.0  -0.567
  O  O493  1  0.250820  0.683590  0.513800  1.0  -0.5763
  O  O494  1  0.445090  0.634990  0.322400  1.0  -0.5773
  O  O495  1  0.443780  0.568320  0.323600  1.0  -0.5711
  O  O496  1  0.111400  0.529600  0.484300  1.0  -0.3725
  O  O497  1  0.177980  0.271040  0.560200  1.0  -0.56
  O  O498  1  0.246640  0.242080  0.619600  1.0  -0.5578
  O  O499  1  0.042000  0.429400  0.629300  1.0  -0.3333
  O  O500  1  0.181530  0.213540  0.454700  1.0  -0.5672
  O  O501  1  0.249180  0.183590  0.513800  1.0  -0.5761
  O  O502  1  0.054910  0.134990  0.322400  1.0  -0.5779
  O  O503  1  0.056220  0.068320  0.323600  1.0  -0.5714
  O  O504  1  0.388600  0.029600  0.484300  1.0  -0.3738
  O  O505  1  0.677980  0.771040  0.560200  1.0  -0.56
  O  O506  1  0.746640  0.742080  0.619600  1.0  -0.5578
  O  O507  1  0.542000  0.929400  0.629300  1.0  -0.3333
  O  O508  1  0.681530  0.713540  0.454700  1.0  -0.5672
  O  O509  1  0.749180  0.683590  0.513800  1.0  -0.5761
  O  O510  1  0.554910  0.634990  0.322400  1.0  -0.5779
  O  O511  1  0.556220  0.568320  0.323600  1.0  -0.5714
  O  O512  1  0.888600  0.529600  0.484300  1.0  -0.3738
  O  O513  1  0.822020  0.728960  0.060200  1.0  -0.5606
  O  O514  1  0.753360  0.757920  0.119600  1.0  -0.5563
  O  O515  1  0.958000  0.570600  0.129300  1.0  -0.3353
  O  O516  1  0.818470  0.786460  0.954700  1.0  -0.5671
  O  O517  1  0.750820  0.816410  0.013800  1.0  -0.5765
  O  O518  1  0.945090  0.865010  0.822400  1.0  -0.5763
  O  O519  1  0.943780  0.931680  0.823600  1.0  -0.5715
  O  O520  1  0.611400  0.970400  0.984300  1.0  -0.3744
  O  O521  1  0.322020  0.228960  0.060200  1.0  -0.5606
  O  O522  1  0.253360  0.257920  0.119600  1.0  -0.5563
  O  O523  1  0.458000  0.070600  0.129300  1.0  -0.3353
  O  O524  1  0.318470  0.286460  0.954700  1.0  -0.5671
  O  O525  1  0.250820  0.316410  0.013800  1.0  -0.5765
  O  O526  1  0.445090  0.365010  0.822400  1.0  -0.5763
  O  O527  1  0.443780  0.431680  0.823600  1.0  -0.5715
  O  O528  1  0.111400  0.470400  0.984300  1.0  -0.3744
  O  O529  1  0.822020  0.271040  0.939800  1.0  -0.5605
  O  O530  1  0.753360  0.242080  0.880400  1.0  -0.5563
  O  O531  1  0.958000  0.429400  0.870700  1.0  -0.3359
  O  O532  1  0.818470  0.213540  0.045300  1.0  -0.5674
  O  O533  1  0.750820  0.183590  0.986200  1.0  -0.5767
  O  O534  1  0.945090  0.134990  0.177600  1.0  -0.5773
  O  O535  1  0.943780  0.068320  0.176400  1.0  -0.5713
  O  O536  1  0.611400  0.029600  0.015700  1.0  -0.3744
  O  O537  1  0.322020  0.771040  0.939800  1.0  -0.5605
  O  O538  1  0.253360  0.742080  0.880400  1.0  -0.5563
  O  O539  1  0.458000  0.929400  0.870700  1.0  -0.3359
  O  O540  1  0.318470  0.713540  0.045300  1.0  -0.5674
  O  O541  1  0.250820  0.683590  0.986200  1.0  -0.5767
  O  O542  1  0.445090  0.634990  0.177600  1.0  -0.5773
  O  O543  1  0.443780  0.568320  0.176400  1.0  -0.5713
  O  O544  1  0.111400  0.529600  0.015700  1.0  -0.3744
  O  O545  1  0.177980  0.728960  0.439800  1.0  -0.5601
  O  O546  1  0.246640  0.757920  0.380400  1.0  -0.5567
  O  O547  1  0.042000  0.570600  0.370700  1.0  -0.3338
  O  O548  1  0.181530  0.786460  0.545300  1.0  -0.5664
  O  O549  1  0.249180  0.816410  0.486200  1.0  -0.5762
  O  O550  1  0.054910  0.865010  0.677600  1.0  -0.5769
  O  O551  1  0.056220  0.931680  0.676400  1.0  -0.5713
  O  O552  1  0.388600  0.970400  0.515700  1.0  -0.375
  O  O553  1  0.677980  0.228960  0.439800  1.0  -0.5601
  O  O554  1  0.746640  0.257920  0.380400  1.0  -0.5567
  O  O555  1  0.542000  0.070600  0.370700  1.0  -0.3338
  O  O556  1  0.681530  0.286460  0.545300  1.0  -0.5664
  O  O557  1  0.749180  0.316410  0.486200  1.0  -0.5762
  O  O558  1  0.554910  0.365010  0.677600  1.0  -0.5769
  O  O559  1  0.556220  0.431680  0.676400  1.0  -0.5713
  O  O560  1  0.888600  0.470400  0.515700  1.0  -0.375
