# generated using pymatgen
data_MgHC4O3
_symmetry_space_group_name_H-M   'P 1'
_cell_length_a   6.75880000
_cell_length_b   15.19410000
_cell_length_c   15.19410000
_cell_angle_alpha   62.15890000
_cell_angle_beta   81.47290000
_cell_angle_gamma   98.52710000
_symmetry_Int_Tables_number   1
_chemical_formula_structural   MgHC4O3
_chemical_formula_sum   'Mg6 H6 C24 O18'
_cell_volume   1321.58509890
_cell_formula_units_Z   6
loop_
 _symmetry_equiv_pos_site_id
 _symmetry_equiv_pos_as_xyz
  1  'x, y, z'
loop_
 _atom_site_type_symbol
 _atom_site_label
 _atom_site_symmetry_multiplicity
 _atom_site_fract_x
 _atom_site_fract_y
 _atom_site_fract_z
 _atom_site_occupancy
 _atom_site_charge
  Mg  Mg1  1  0.389980  0.420240  0.314160  1.0  1.458
  Mg  Mg2  1  0.704140  0.314160  0.265600  1.0  1.4577
  Mg  Mg3  1  0.969740  0.265600  0.420240  1.0  1.4572
  Mg  Mg4  1  0.610020  0.579760  0.685840  1.0  1.4582
  Mg  Mg5  1  0.295860  0.685840  0.734400  1.0  1.457
  Mg  Mg6  1  0.030260  0.734400  0.579760  1.0  1.4596
  H  H7  1  0.666030  0.561290  0.452350  1.0  0.1278
  H  H8  1  0.118380  0.452350  0.986360  1.0  0.1261
  H  H9  1  0.104750  0.986360  0.561290  1.0  0.1339
  H  H10  1  0.329570  0.430190  0.540370  1.0  0.0571
  H  H11  1  0.869940  0.540370  0.029450  1.0  0.0558
  H  H12  1  0.895250  0.013640  0.438710  1.0  0.1334
  C  C13  1  0.765250  0.438030  0.382680  1.0  0.6161
  C  C14  1  0.890680  0.462290  0.448850  1.0  -0.17
  C  C15  1  0.808880  0.535760  0.476420  1.0  -0.0781
  C  C16  1  0.064250  0.437930  0.467780  1.0  0.2196
  C  C17  1  0.147930  0.382680  0.179290  1.0  0.6162
  C  C18  1  0.339530  0.448850  0.088860  1.0  -0.1714
  C  C19  1  0.285300  0.476420  0.987820  1.0  -0.082
  C  C20  1  0.532030  0.467780  0.094290  1.0  0.2204
  C  C21  1  0.327220  0.179290  0.438030  1.0  0.6169
  C  C22  1  0.428390  0.088860  0.462290  1.0  -0.1709
  C  C23  1  0.273120  0.987820  0.535760  1.0  -0.087
  C  C24  1  0.626320  0.094290  0.437930  1.0  0.1789
  C  C25  1  0.234750  0.561970  0.617320  1.0  0.6338
  C  C26  1  0.109320  0.537710  0.551150  1.0  -0.1676
  C  C27  1  0.191120  0.464240  0.523580  1.0  -0.102
  C  C28  1  0.935750  0.562070  0.532220  1.0  0.1848
  C  C29  1  0.852070  0.617320  0.820710  1.0  0.6342
  C  C30  1  0.660470  0.551150  0.911140  1.0  -0.1673
  C  C31  1  0.714700  0.523580  0.012180  1.0  -0.1029
  C  C32  1  0.467970  0.532220  0.905710  1.0  0.1866
  C  C33  1  0.672780  0.820710  0.561970  1.0  0.6195
  C  C34  1  0.571610  0.911140  0.537710  1.0  -0.1684
  C  C35  1  0.726880  0.012180  0.464240  1.0  -0.0869
  C  C36  1  0.373680  0.905710  0.562070  1.0  0.1766
  O  O37  1  0.602830  0.475020  0.368730  1.0  -0.6425
  O  O38  1  0.820300  0.380600  0.352400  1.0  -0.7391
  O  O39  1  0.135010  0.371490  0.438660  1.0  -0.7401
  O  O40  1  0.971560  0.368730  0.156250  1.0  -0.6403
  O  O41  1  0.172700  0.352400  0.267000  1.0  -0.7295
  O  O42  1  0.573670  0.438660  0.189850  1.0  -0.7423
  O  O43  1  0.127810  0.156250  0.475020  1.0  -0.6433
  O  O44  1  0.439700  0.267000  0.380600  1.0  -0.7371
  O  O45  1  0.763520  0.189850  0.371490  1.0  -0.7455
  O  O46  1  0.397170  0.524980  0.631270  1.0  -0.6633
  O  O47  1  0.179700  0.619400  0.647600  1.0  -0.7231
  O  O48  1  0.864990  0.628510  0.561340  1.0  -0.7431
  O  O49  1  0.028440  0.631270  0.843750  1.0  -0.6633
  O  O50  1  0.827300  0.647600  0.733000  1.0  -0.7235
  O  O51  1  0.426330  0.561340  0.810150  1.0  -0.7447
  O  O52  1  0.872190  0.843750  0.524980  1.0  -0.6422
  O  O53  1  0.560300  0.733000  0.619400  1.0  -0.7247
  O  O54  1  0.236480  0.810150  0.628510  1.0  -0.7435
