# generated using pymatgen
data_Ga4P4H2O17F2
_symmetry_space_group_name_H-M   'P 1'
_cell_length_a   12.15700000
_cell_length_b   14.20200000
_cell_length_c   13.06500000
_cell_angle_alpha   90.00000000
_cell_angle_beta   91.84800000
_cell_angle_gamma   90.00000000
_symmetry_Int_Tables_number   1
_chemical_formula_structural   Ga4P4H2O17F2
_chemical_formula_sum   'Ga16 P16 H8 O68 F8'
_cell_volume   2254.54756177
_cell_formula_units_Z   4
loop_
 _symmetry_equiv_pos_site_id
 _symmetry_equiv_pos_as_xyz
  1  'x, y, z'
loop_
 _atom_site_type_symbol
 _atom_site_label
 _atom_site_symmetry_multiplicity
 _atom_site_fract_x
 _atom_site_fract_y
 _atom_site_fract_z
 _atom_site_occupancy
 _atom_site_charge
  Ga  Ga1  1  0.112640  0.773510  0.385300  1.0  1.552
  Ga  Ga2  1  0.855020  0.878950  0.763190  1.0  1.5518
  Ga  Ga3  1  0.962650  0.734070  0.158080  1.0  1.7139
  Ga  Ga4  1  0.364660  0.865220  0.206680  1.0  1.6125
  Ga  Ga5  1  0.387360  0.273510  0.114700  1.0  1.5505
  Ga  Ga6  1  0.644980  0.378950  0.736810  1.0  1.5514
  Ga  Ga7  1  0.537350  0.234070  0.341920  1.0  1.7158
  Ga  Ga8  1  0.135340  0.365220  0.293320  1.0  1.6155
  Ga  Ga9  1  0.887360  0.226490  0.614700  1.0  1.5514
  Ga  Ga10  1  0.144980  0.121050  0.236810  1.0  1.5511
  Ga  Ga11  1  0.037350  0.265930  0.841920  1.0  1.7151
  Ga  Ga12  1  0.635340  0.134780  0.793320  1.0  1.6179
  Ga  Ga13  1  0.612640  0.726490  0.885300  1.0  1.5526
  Ga  Ga14  1  0.355020  0.621050  0.263190  1.0  1.5517
  Ga  Ga15  1  0.462650  0.765930  0.658080  1.0  1.7131
  Ga  Ga16  1  0.864660  0.634780  0.706680  1.0  1.6147
  P  P17  1  0.109760  0.579100  0.271500  1.0  1.8356
  P  P18  1  0.121920  0.907330  0.193600  1.0  1.8653
  P  P19  1  0.372790  0.780090  0.425860  1.0  1.8882
  P  P20  1  0.016150  0.790970  0.611600  1.0  1.8808
  P  P21  1  0.390240  0.079100  0.228500  1.0  1.8369
  P  P22  1  0.378080  0.407330  0.306400  1.0  1.8664
  P  P23  1  0.127210  0.280090  0.074140  1.0  1.8843
  P  P24  1  0.483850  0.290970  0.888400  1.0  1.881
  P  P25  1  0.890240  0.420900  0.728500  1.0  1.8365
  P  P26  1  0.878080  0.092670  0.806400  1.0  1.8669
  P  P27  1  0.627210  0.219910  0.574140  1.0  1.8842
  P  P28  1  0.983850  0.209030  0.388400  1.0  1.8808
  P  P29  1  0.609760  0.920900  0.771500  1.0  1.8357
  P  P30  1  0.621920  0.592670  0.693600  1.0  1.8651
  P  P31  1  0.872790  0.719910  0.925860  1.0  1.8881
  P  P32  1  0.516150  0.709030  0.111600  1.0  1.8805
  H  H33  1  0.784300  0.712200  0.179400  1.0  0.354
  H  H34  1  0.169900  0.762400  0.658500  1.0  0.3847
  H  H35  1  0.715700  0.212200  0.320600  1.0  0.3542
  H  H36  1  0.330100  0.262400  0.841500  1.0  0.385
  H  H37  1  0.215700  0.287800  0.820600  1.0  0.3536
  H  H38  1  0.830100  0.237600  0.341500  1.0  0.3861
  H  H39  1  0.284300  0.787800  0.679400  1.0  0.3534
  H  H40  1  0.669900  0.737600  0.158500  1.0  0.385
  O  O41  1  0.136900  0.881100  0.308300  1.0  -0.8817
  O  O42  1  0.233800  0.902000  0.142600  1.0  -0.7722
  O  O43  1  0.944100  0.869300  0.651300  1.0  -0.7918
  O  O44  1  0.031300  0.621100  0.188700  1.0  -0.8777
  O  O45  1  0.818400  0.760900  0.168900  1.0  -0.7525
  O  O46  1  0.065000  0.484500  0.306100  1.0  -0.7564
  O  O47  1  0.125500  0.644500  0.364400  1.0  -0.8323
  O  O48  1  0.253700  0.780800  0.454400  1.0  -0.8242
  O  O49  1  0.222300  0.563300  0.223500  1.0  -0.8063
  O  O50  1  0.041400  0.843500  0.134800  1.0  -0.799
  O  O51  1  0.396800  0.857700  0.346100  1.0  -0.8337
  O  O52  1  0.448800  0.800900  0.518100  1.0  -0.779
  O  O53  1  0.034100  0.807400  0.498700  1.0  -0.9075
  O  O54  1  0.406100  0.682300  0.382000  1.0  -0.8318
  O  O55  1  0.077300  0.008000  0.184000  1.0  -0.744
  O  O56  1  0.968500  0.693400  0.627000  1.0  -0.8593
  O  O57  1  0.125400  0.801900  0.676500  1.0  -0.576
  O  O58  1  0.363100  0.381100  0.191700  1.0  -0.8809
  O  O59  1  0.266200  0.402000  0.357400  1.0  -0.7717
  O  O60  1  0.555900  0.369300  0.848700  1.0  -0.7908
  O  O61  1  0.468700  0.121100  0.311300  1.0  -0.8763
  O  O62  1  0.681600  0.260900  0.331100  1.0  -0.7518
  O  O63  1  0.435000  0.984500  0.193900  1.0  -0.7572
  O  O64  1  0.374500  0.144500  0.135600  1.0  -0.8308
  O  O65  1  0.246300  0.280800  0.045600  1.0  -0.8211
  O  O66  1  0.277700  0.063300  0.276500  1.0  -0.805
  O  O67  1  0.458600  0.343500  0.365200  1.0  -0.7983
  O  O68  1  0.103200  0.357700  0.153900  1.0  -0.8343
  O  O69  1  0.051200  0.300900  0.981900  1.0  -0.779
  O  O70  1  0.465900  0.307400  0.001300  1.0  -0.9074
  O  O71  1  0.093900  0.182300  0.118000  1.0  -0.8324
  O  O72  1  0.422700  0.508000  0.316000  1.0  -0.745
  O  O73  1  0.531500  0.193400  0.873000  1.0  -0.8589
  O  O74  1  0.374600  0.301900  0.823500  1.0  -0.5763
  O  O75  1  0.863100  0.118900  0.691700  1.0  -0.882
  O  O76  1  0.766200  0.098000  0.857400  1.0  -0.7718
  O  O77  1  0.055900  0.130700  0.348700  1.0  -0.7912
  O  O78  1  0.968700  0.378900  0.811300  1.0  -0.8773
  O  O79  1  0.181600  0.239100  0.831100  1.0  -0.7556
  O  O80  1  0.935000  0.515500  0.693900  1.0  -0.7564
  O  O81  1  0.874500  0.355500  0.635600  1.0  -0.8302
  O  O82  1  0.746300  0.219200  0.545600  1.0  -0.8211
  O  O83  1  0.777700  0.436700  0.776500  1.0  -0.8052
  O  O84  1  0.958600  0.156500  0.865200  1.0  -0.7984
  O  O85  1  0.603200  0.142300  0.653900  1.0  -0.833
  O  O86  1  0.551200  0.199100  0.481900  1.0  -0.7789
  O  O87  1  0.965900  0.192600  0.501300  1.0  -0.9087
  O  O88  1  0.593900  0.317700  0.618000  1.0  -0.8324
  O  O89  1  0.922700  0.992000  0.816000  1.0  -0.7445
  O  O90  1  0.031500  0.306600  0.373000  1.0  -0.86
  O  O91  1  0.874600  0.198100  0.323500  1.0  -0.577
  O  O92  1  0.636900  0.618900  0.808300  1.0  -0.8814
  O  O93  1  0.733800  0.598000  0.642600  1.0  -0.772
  O  O94  1  0.444100  0.630700  0.151300  1.0  -0.7924
  O  O95  1  0.531300  0.878900  0.688700  1.0  -0.8789
  O  O96  1  0.318400  0.739100  0.668900  1.0  -0.7551
  O  O97  1  0.565000  0.015500  0.806100  1.0  -0.7563
  O  O98  1  0.625500  0.855500  0.864400  1.0  -0.8325
  O  O99  1  0.753700  0.719200  0.954400  1.0  -0.824
  O  O100  1  0.722300  0.936700  0.723500  1.0  -0.8061
  O  O101  1  0.541400  0.656500  0.634800  1.0  -0.7992
  O  O102  1  0.896800  0.642300  0.846100  1.0  -0.8331
  O  O103  1  0.948800  0.699100  0.018100  1.0  -0.7795
  O  O104  1  0.534100  0.692600  0.998700  1.0  -0.909
  O  O105  1  0.906100  0.817700  0.882000  1.0  -0.8321
  O  O106  1  0.577300  0.492000  0.684000  1.0  -0.744
  O  O107  1  0.468500  0.806600  0.127000  1.0  -0.8594
  O  O108  1  0.625400  0.698100  0.176500  1.0  -0.5769
  F  F109  1  0.973100  0.763200  0.306000  1.0  -0.5158
  F  F110  1  0.786300  0.759300  0.723000  1.0  -0.5004
  F  F111  1  0.526900  0.263200  0.194000  1.0  -0.5157
  F  F112  1  0.713700  0.259300  0.777000  1.0  -0.5
  F  F113  1  0.026900  0.236800  0.694000  1.0  -0.5157
  F  F114  1  0.213700  0.240700  0.277000  1.0  -0.5002
  F  F115  1  0.473100  0.736800  0.806000  1.0  -0.5164
  F  F116  1  0.286300  0.740700  0.223000  1.0  -0.5005
