# generated using pymatgen
data_Ga3P3O12F
_symmetry_space_group_name_H-M   'P 1'
_cell_length_a   9.26500000
_cell_length_b   9.39700000
_cell_length_c   9.23800000
_cell_angle_alpha   94.36000000
_cell_angle_beta   90.64000000
_cell_angle_gamma   103.67000000
_symmetry_Int_Tables_number   1
_chemical_formula_structural   Ga3P3O12F
_chemical_formula_sum   'Ga6 P6 O24 F2'
_cell_volume   778.89269450
_cell_formula_units_Z   2
loop_
 _symmetry_equiv_pos_site_id
 _symmetry_equiv_pos_as_xyz
  1  'x, y, z'
loop_
 _atom_site_type_symbol
 _atom_site_label
 _atom_site_symmetry_multiplicity
 _atom_site_fract_x
 _atom_site_fract_y
 _atom_site_fract_z
 _atom_site_occupancy
 _atom_site_charge
  Ga  Ga1  1  0.139080  0.085990  0.435650  1.0  1.6124
  Ga  Ga2  1  0.608900  0.341380  0.392300  1.0  1.6827
  Ga  Ga3  1  0.625000  0.921410  0.157170  1.0  1.6888
  Ga  Ga4  1  0.860920  0.914010  0.564350  1.0  1.612
  Ga  Ga5  1  0.391100  0.658620  0.607700  1.0  1.684
  Ga  Ga6  1  0.375000  0.078590  0.842830  1.0  1.6906
  P  P7  1  0.377220  0.090210  0.185260  1.0  2.0276
  P  P8  1  0.379560  0.329510  0.626640  1.0  1.9871
  P  P9  1  0.167760  0.850140  0.643410  1.0  1.805
  P  P10  1  0.622780  0.909790  0.814740  1.0  2.0288
  P  P11  1  0.620440  0.670490  0.373360  1.0  1.985
  P  P12  1  0.832240  0.149860  0.356590  1.0  1.8071
  O  O13  1  0.439400  0.953100  0.177600  1.0  -0.8694
  O  O14  1  0.271200  0.266700  0.502300  1.0  -0.8235
  O  O15  1  0.539600  0.346200  0.574700  1.0  -0.8436
  O  O16  1  0.231400  0.911600  0.797500  1.0  -0.8237
  O  O17  1  0.210900  0.702500  0.608500  1.0  -0.8205
  O  O18  1  0.236700  0.959700  0.536100  1.0  -0.8116
  O  O19  1  0.227600  0.059700  0.255100  1.0  -0.813
  O  O20  1  0.357300  0.240500  0.758700  1.0  -0.9585
  O  O21  1  0.998400  0.811800  0.646700  1.0  -0.7417
  O  O22  1  0.487700  0.218500  0.262200  1.0  -1.0058
  O  O23  1  0.358900  0.481200  0.681900  1.0  -0.846
  O  O24  1  0.354300  0.132900  0.032000  1.0  -0.9088
  O  O25  1  0.560600  0.046900  0.822400  1.0  -0.8696
  O  O26  1  0.728800  0.733300  0.497700  1.0  -0.8233
  O  O27  1  0.460400  0.653800  0.425300  1.0  -0.8439
  O  O28  1  0.768600  0.088400  0.202500  1.0  -0.824
  O  O29  1  0.789100  0.297500  0.391500  1.0  -0.8188
  O  O30  1  0.763300  0.040300  0.463900  1.0  -0.8105
  O  O31  1  0.772400  0.940300  0.744900  1.0  -0.8127
  O  O32  1  0.642700  0.759500  0.241300  1.0  -0.9608
  O  O33  1  0.001600  0.188200  0.353300  1.0  -0.7417
  O  O34  1  0.512300  0.781500  0.737800  1.0  -1.0047
  O  O35  1  0.641100  0.518800  0.318100  1.0  -0.8462
  O  O36  1  0.645700  0.867100  0.968000  1.0  -0.9086
  F  F37  1  0.979900  0.909400  0.387500  1.0  -0.54
  F  F38  1  0.020100  0.090600  0.612500  1.0  -0.5401
