# generated using pymatgen
data_ZnH7C13NO4
_symmetry_space_group_name_H-M   'P 1'
_cell_length_a   11.87700000
_cell_length_b   13.85500000
_cell_length_c   13.92100000
_cell_angle_alpha   90.00000000
_cell_angle_beta   114.40300000
_cell_angle_gamma   90.00000000
_symmetry_Int_Tables_number   1
_chemical_formula_structural   ZnH7C13NO4
_chemical_formula_sum   'Zn4 H28 C52 N4 O16'
_cell_volume   2086.12798395
_cell_formula_units_Z   4
loop_
 _symmetry_equiv_pos_site_id
 _symmetry_equiv_pos_as_xyz
  1  'x, y, z'
loop_
 _atom_site_type_symbol
 _atom_site_label
 _atom_site_symmetry_multiplicity
 _atom_site_fract_x
 _atom_site_fract_y
 _atom_site_fract_z
 _atom_site_occupancy
 _atom_site_charge
  Zn  Zn1  1  0.615180  0.940250  0.049620  1.0  0.9251
  Zn  Zn2  1  0.384820  0.440250  0.450380  1.0  0.9251
  Zn  Zn3  1  0.384820  0.059750  0.950380  1.0  0.9255
  Zn  Zn4  1  0.615180  0.559750  0.549620  1.0  0.9254
  H  H5  1  0.500100  0.753200  0.260900  1.0  0.1079
  H  H6  1  0.178300  0.693100  0.278200  1.0  0.1047
  H  H7  1  0.198900  0.910400  0.096200  1.0  0.1019
  H  H8  1  0.965000  0.703600  0.156600  1.0  0.1195
  H  H9  1  0.766000  0.752400  0.109900  1.0  0.0781
  H  H10  1  0.859200  0.021500  0.105900  1.0  0.0821
  H  H11  1  0.059900  0.979400  0.151300  1.0  0.1171
  H  H12  1  0.499900  0.253200  0.239100  1.0  0.109
  H  H13  1  0.821700  0.193100  0.221800  1.0  0.1045
  H  H14  1  0.801100  0.410400  0.403800  1.0  0.101
  H  H15  1  0.035000  0.203600  0.343400  1.0  0.1196
  H  H16  1  0.234000  0.252400  0.390100  1.0  0.0781
  H  H17  1  0.140800  0.521500  0.394100  1.0  0.0817
  H  H18  1  0.940100  0.479400  0.348700  1.0  0.1174
  H  H19  1  0.499900  0.246800  0.739100  1.0  0.1091
  H  H20  1  0.821700  0.306900  0.721800  1.0  0.1047
  H  H21  1  0.801100  0.089600  0.903800  1.0  0.1012
  H  H22  1  0.035000  0.296400  0.843400  1.0  0.1201
  H  H23  1  0.234000  0.247600  0.890100  1.0  0.0787
  H  H24  1  0.140800  0.978500  0.894100  1.0  0.0813
  H  H25  1  0.940100  0.020600  0.848700  1.0  0.1168
  H  H26  1  0.500100  0.746800  0.760900  1.0  0.1081
  H  H27  1  0.178300  0.806900  0.778200  1.0  0.1045
  H  H28  1  0.198900  0.589600  0.596200  1.0  0.1017
  H  H29  1  0.965000  0.796400  0.656600  1.0  0.1199
  H  H30  1  0.766000  0.747600  0.609900  1.0  0.0784
  H  H31  1  0.859200  0.478500  0.605900  1.0  0.0819
  H  H32  1  0.059900  0.520600  0.651300  1.0  0.1173
  C  C33  1  0.428200  0.895650  0.117320  1.0  0.6921
  C  C34  1  0.359700  0.838930  0.168840  1.0  -0.1574
  C  C35  1  0.416400  0.765810  0.240370  1.0  0.0012
  C  C36  1  0.348900  0.711440  0.281410  1.0  -0.1117
  C  C37  1  0.224000  0.731200  0.252400  1.0  -0.0652
  C  C38  1  0.167600  0.807810  0.184920  1.0  0.018
  C  C39  1  0.236300  0.860130  0.142820  1.0  -0.0896
  C  C40  1  0.410000  0.632420  0.359570  1.0  0.7011
  C  C41  1  0.036900  0.835390  0.157710  1.0  0.1085
  C  C42  1  0.945500  0.768820  0.145800  1.0  -0.1881
  C  C43  1  0.825900  0.798720  0.117970  1.0  0.1526
  C  C44  1  0.880800  0.956540  0.115500  1.0  0.1639
  C  C45  1  0.001400  0.931760  0.142700  1.0  -0.188
  C  C46  1  0.571800  0.395650  0.382680  1.0  0.6927
  C  C47  1  0.640300  0.338930  0.331160  1.0  -0.1577
  C  C48  1  0.583600  0.265810  0.259630  1.0  -0.0008
  C  C49  1  0.651100  0.211440  0.218590  1.0  -0.111
  C  C50  1  0.776000  0.231200  0.247600  1.0  -0.0645
  C  C51  1  0.832400  0.307810  0.315080  1.0  0.018
  C  C52  1  0.763700  0.360130  0.357180  1.0  -0.0882
  C  C53  1  0.590000  0.132420  0.140430  1.0  0.6997
  C  C54  1  0.963100  0.335390  0.342290  1.0  0.1097
  C  C55  1  0.054500  0.268820  0.354200  1.0  -0.1893
  C  C56  1  0.174100  0.298720  0.382030  1.0  0.1514
  C  C57  1  0.119200  0.456540  0.384500  1.0  0.1639
  C  C58  1  0.998600  0.431760  0.357300  1.0  -0.1886
  C  C59  1  0.571800  0.104350  0.882680  1.0  0.6929
  C  C60  1  0.640300  0.161070  0.831160  1.0  -0.1578
  C  C61  1  0.583600  0.234190  0.759630  1.0  -0.0011
  C  C62  1  0.651100  0.288560  0.718590  1.0  -0.1106
  C  C63  1  0.776000  0.268800  0.747600  1.0  -0.064
  C  C64  1  0.832400  0.192190  0.815080  1.0  0.0179
  C  C65  1  0.763700  0.139870  0.857180  1.0  -0.0871
  C  C66  1  0.590000  0.367580  0.640430  1.0  0.7002
  C  C67  1  0.963100  0.164610  0.842290  1.0  0.1098
  C  C68  1  0.054500  0.231180  0.854200  1.0  -0.1901
  C  C69  1  0.174100  0.201280  0.882030  1.0  0.1512
  C  C70  1  0.119200  0.043460  0.884500  1.0  0.1645
  C  C71  1  0.998600  0.068240  0.857300  1.0  -0.187
  C  C72  1  0.428200  0.604350  0.617320  1.0  0.692
  C  C73  1  0.359700  0.661070  0.668840  1.0  -0.1573
  C  C74  1  0.416400  0.734190  0.740370  1.0  0.0008
  C  C75  1  0.348900  0.788560  0.781410  1.0  -0.1116
  C  C76  1  0.224000  0.768800  0.752400  1.0  -0.0648
  C  C77  1  0.167600  0.692190  0.684920  1.0  0.0179
  C  C78  1  0.236300  0.639870  0.642820  1.0  -0.0887
  C  C79  1  0.410000  0.867580  0.859570  1.0  0.7013
  C  C80  1  0.036900  0.664610  0.657710  1.0  0.1084
  C  C81  1  0.945500  0.731180  0.645800  1.0  -0.1894
  C  C82  1  0.825900  0.701280  0.617970  1.0  0.1513
  C  C83  1  0.880800  0.543460  0.615500  1.0  0.164
  C  C84  1  0.001400  0.568240  0.642700  1.0  -0.1865
  N  N85  1  0.791810  0.891060  0.102030  1.0  -0.3032
  N  N86  1  0.208190  0.391060  0.397970  1.0  -0.3043
  N  N87  1  0.208190  0.108940  0.897970  1.0  -0.3039
  N  N88  1  0.791810  0.608940  0.602030  1.0  -0.3028
  O  O89  1  0.370330  0.963930  0.058680  1.0  -0.5974
  O  O90  1  0.536490  0.870160  0.134810  1.0  -0.5815
  O  O91  1  0.518960  0.646980  0.424830  1.0  -0.585
  O  O92  1  0.346620  0.558090  0.353180  1.0  -0.6061
  O  O93  1  0.629670  0.463930  0.441320  1.0  -0.5978
  O  O94  1  0.463510  0.370160  0.365190  1.0  -0.582
  O  O95  1  0.481040  0.146980  0.075170  1.0  -0.5844
  O  O96  1  0.653380  0.058090  0.146820  1.0  -0.6071
  O  O97  1  0.629670  0.036070  0.941320  1.0  -0.5968
  O  O98  1  0.463510  0.129840  0.865190  1.0  -0.5819
  O  O99  1  0.481040  0.353020  0.575170  1.0  -0.585
  O  O100  1  0.653380  0.441910  0.646820  1.0  -0.6071
  O  O101  1  0.370330  0.536070  0.558680  1.0  -0.5965
  O  O102  1  0.536490  0.629840  0.634810  1.0  -0.5814
  O  O103  1  0.518960  0.853020  0.924830  1.0  -0.5857
  O  O104  1  0.346620  0.941910  0.853180  1.0  -0.6064
