# generated using pymatgen
data_Al3P3HO13
_symmetry_space_group_name_H-M   'P 1'
_cell_length_a   8.58310000
_cell_length_b   17.67700000
_cell_length_c   10.43530000
_cell_angle_alpha   90.00000000
_cell_angle_beta   123.88700000
_cell_angle_gamma   90.00000000
_symmetry_Int_Tables_number   1
_chemical_formula_structural   Al3P3HO13
_chemical_formula_sum   'Al12 P12 H4 O52'
_cell_volume   1314.34201948
_cell_formula_units_Z   4
loop_
 _symmetry_equiv_pos_site_id
 _symmetry_equiv_pos_as_xyz
  1  'x, y, z'
loop_
 _atom_site_type_symbol
 _atom_site_label
 _atom_site_symmetry_multiplicity
 _atom_site_fract_x
 _atom_site_fract_y
 _atom_site_fract_z
 _atom_site_occupancy
 _atom_site_charge
  Al  Al1  1  0.210900  0.703920  0.287200  1.0  1.8682
  Al  Al2  1  0.022700  0.609270  0.661560  1.0  1.8938
  Al  Al3  1  0.666667  0.676680  0.191420  1.0  1.9521
  Al  Al4  1  0.789100  0.203920  0.212800  1.0  1.8678
  Al  Al5  1  0.977300  0.109270  0.838440  1.0  1.8932
  Al  Al6  1  0.333400  0.176680  0.308580  1.0  1.9521
  Al  Al7  1  0.789100  0.296080  0.712800  1.0  1.8705
  Al  Al8  1  0.977300  0.390730  0.338440  1.0  1.8936
  Al  Al9  1  0.333400  0.323320  0.808580  1.0  1.9523
  Al  Al10  1  0.210900  0.796080  0.787200  1.0  1.8709
  Al  Al11  1  0.022700  0.890730  0.161560  1.0  1.8933
  Al  Al12  1  0.666667  0.823320  0.691420  1.0  1.9522
  P  P13  1  0.665270  0.706750  0.473530  1.0  2.0182
  P  P14  1  0.229870  0.830520  0.496180  1.0  1.9105
  P  P15  1  0.009520  0.572570  0.357900  1.0  2.0509
  P  P16  1  0.334730  0.206750  0.026470  1.0  2.0188
  P  P17  1  0.770130  0.330520  0.003820  1.0  1.9105
  P  P18  1  0.990480  0.072570  0.142100  1.0  2.0512
  P  P19  1  0.334730  0.293250  0.526470  1.0  2.0188
  P  P20  1  0.770130  0.169480  0.503820  1.0  1.9105
  P  P21  1  0.990480  0.427430  0.642100  1.0  2.0501
  P  P22  1  0.665270  0.793250  0.973530  1.0  2.0183
  P  P23  1  0.229870  0.669480  0.996180  1.0  1.9109
  P  P24  1  0.009520  0.927430  0.857900  1.0  2.0501
  H  H25  1  0.147800  0.785300  0.103200  1.0  0.3411
  H  H26  1  0.852200  0.285300  0.396800  1.0  0.3405
  H  H27  1  0.852200  0.214700  0.896800  1.0  0.3408
  H  H28  1  0.147800  0.714700  0.603200  1.0  0.3406
  O  O29  1  0.133300  0.794040  0.179600  1.0  -0.9096
  O  O30  1  0.193000  0.748980  0.438800  1.0  -0.8376
  O  O31  1  0.083800  0.587050  0.526000  1.0  -0.9381
  O  O32  1  0.436500  0.850600  0.570100  1.0  -1.0526
  O  O33  1  0.461500  0.690740  0.407000  1.0  -0.9869
  O  O34  1  0.780200  0.636520  0.555800  1.0  -0.9349
  O  O35  1  0.030800  0.490720  0.328800  1.0  -0.8877
  O  O36  1  0.801900  0.595250  0.258100  1.0  -0.9602
  O  O37  1  0.179900  0.841380  0.613100  1.0  -0.8382
  O  O38  1  0.692600  0.728650  0.344900  1.0  -0.8924
  O  O39  1  0.119200  0.617930  0.310200  1.0  -0.9341
  O  O40  1  0.114200  0.886060  0.364600  1.0  -0.8865
  O  O41  1  0.735600  0.772150  0.589000  1.0  -0.9729
  O  O42  1  0.866700  0.294040  0.320400  1.0  -0.912
  O  O43  1  0.807000  0.248980  0.061200  1.0  -0.8386
  O  O44  1  0.916200  0.087050  0.974000  1.0  -0.9377
  O  O45  1  0.563500  0.350600  0.929900  1.0  -1.0527
  O  O46  1  0.538500  0.190740  0.093000  1.0  -0.9887
  O  O47  1  0.219800  0.136520  0.944200  1.0  -0.9367
  O  O48  1  0.969200  0.990720  0.171200  1.0  -0.8882
  O  O49  1  0.198100  0.095250  0.241900  1.0  -0.961
  O  O50  1  0.820100  0.341380  0.886900  1.0  -0.8382
  O  O51  1  0.307400  0.228650  0.155100  1.0  -0.8917
  O  O52  1  0.880800  0.117930  0.189800  1.0  -0.9345
  O  O53  1  0.885800  0.386060  0.135400  1.0  -0.8862
  O  O54  1  0.264400  0.272150  0.911000  1.0  -0.9736
  O  O55  1  0.866700  0.205960  0.820400  1.0  -0.9121
  O  O56  1  0.807000  0.251020  0.561200  1.0  -0.8385
  O  O57  1  0.916200  0.412950  0.474000  1.0  -0.9377
  O  O58  1  0.563500  0.149400  0.429900  1.0  -1.051
  O  O59  1  0.538500  0.309260  0.593000  1.0  -0.9879
  O  O60  1  0.219800  0.363480  0.444200  1.0  -0.9325
  O  O61  1  0.969200  0.509280  0.671200  1.0  -0.8882
  O  O62  1  0.198100  0.404750  0.741900  1.0  -0.9627
  O  O63  1  0.820100  0.158620  0.386900  1.0  -0.838
  O  O64  1  0.307400  0.271350  0.655100  1.0  -0.8948
  O  O65  1  0.880800  0.382070  0.689800  1.0  -0.9357
  O  O66  1  0.885800  0.113940  0.635400  1.0  -0.884
  O  O67  1  0.264400  0.227850  0.411000  1.0  -0.9744
  O  O68  1  0.133300  0.705960  0.679600  1.0  -0.9094
  O  O69  1  0.193000  0.751020  0.938800  1.0  -0.8376
  O  O70  1  0.083800  0.912950  0.026000  1.0  -0.9391
  O  O71  1  0.436500  0.649400  0.070100  1.0  -1.0513
  O  O72  1  0.461500  0.809260  0.907000  1.0  -0.9865
  O  O73  1  0.780200  0.863480  0.055800  1.0  -0.9328
  O  O74  1  0.030800  0.009280  0.828800  1.0  -0.8879
  O  O75  1  0.801900  0.904750  0.758100  1.0  -0.9623
  O  O76  1  0.179900  0.658620  0.113100  1.0  -0.8384
  O  O77  1  0.692600  0.771350  0.844900  1.0  -0.8949
  O  O78  1  0.119200  0.882070  0.810200  1.0  -0.935
  O  O79  1  0.114200  0.613940  0.864600  1.0  -0.8838
  O  O80  1  0.735600  0.727850  0.089000  1.0  -0.974
