# generated using pymatgen
data_Zn7H16C48(SO4)8
_symmetry_space_group_name_H-M   'P 1'
_cell_length_a   15.51680000
_cell_length_b   16.77900000
_cell_length_c   18.73940000
_cell_angle_alpha   94.14200000
_cell_angle_beta   113.52700000
_cell_angle_gamma   110.21500000
_symmetry_Int_Tables_number   1
_chemical_formula_structural   Zn7H16C48(SO4)8
_chemical_formula_sum   'Zn7 H16 C48 S8 O32'
_cell_volume   4070.64498472
_cell_formula_units_Z   1
loop_
 _symmetry_equiv_pos_site_id
 _symmetry_equiv_pos_as_xyz
  1  'x, y, z'
loop_
 _atom_site_type_symbol
 _atom_site_label
 _atom_site_symmetry_multiplicity
 _atom_site_fract_x
 _atom_site_fract_y
 _atom_site_fract_z
 _atom_site_occupancy
 _atom_site_charge
  Zn  Zn1  1  0.429820  0.410570  0.288200  1.0  1.1113
  Zn  Zn2  1  0.191150  0.876930  0.466240  1.0  0.9089
  Zn  Zn3  1  0.008450  0.808400  0.275600  1.0  1.0464
  Zn  Zn4  1  0.570180  0.589430  0.711800  1.0  1.1116
  Zn  Zn5  1  0.808850  0.123070  0.533760  1.0  0.9066
  Zn  Zn6  1  0.991550  0.191600  0.724400  1.0  1.0467
  Zn  Zn7  1  0.500000  0.500000  0.500000  1.0  1.0498
  H  H8  1  0.116600  0.624100  0.193100  1.0  0.1154
  H  H9  1  0.203400  0.525900  0.199600  1.0  0.1163
  H  H10  1  0.682700  0.856500  0.088400  1.0  0.1239
  H  H11  1  0.566200  0.802400  0.946900  1.0  0.123
  H  H12  1  0.804300  0.615200  0.548200  1.0  0.1181
  H  H13  1  0.193200  0.082000  0.466100  1.0  0.1145
  H  H14  1  0.959900  0.717000  0.548900  1.0  0.1173
  H  H15  1  0.294700  0.238200  0.495700  1.0  0.1175
  H  H16  1  0.883400  0.375900  0.806900  1.0  0.1156
  H  H17  1  0.796600  0.474100  0.800400  1.0  0.1176
  H  H18  1  0.317300  0.143500  0.911600  1.0  0.1225
  H  H19  1  0.433800  0.197600  0.053100  1.0  0.1215
  H  H20  1  0.195700  0.384800  0.451800  1.0  0.1187
  H  H21  1  0.806800  0.918000  0.533900  1.0  0.1141
  H  H22  1  0.040100  0.283000  0.451100  1.0  0.1163
  H  H23  1  0.705300  0.761800  0.504300  1.0  0.118
  C  C24  1  0.167500  0.622600  0.240300  1.0  -0.0837
  C  C25  1  0.217900  0.565900  0.244200  1.0  -0.0783
  C  C26  1  0.688900  0.819400  0.053100  1.0  -0.0787
  C  C27  1  0.765300  0.790700  0.074900  1.0  -0.1477
  C  C28  1  0.639200  0.731000  0.930900  1.0  -0.1747
  C  C29  1  0.620900  0.786600  0.971500  1.0  -0.0412
  C  C30  1  0.852100  0.812900  0.155600  1.0  0.7275
  C  C31  1  0.809200  0.627400  0.502000  1.0  -0.0384
  C  C32  1  0.201200  0.673200  0.311400  1.0  -0.1423
  C  C33  1  0.287700  0.575500  0.317800  1.0  -0.1566
  C  C34  1  0.586600  0.683600  0.844600  1.0  0.7179
  C  C35  1  0.144100  0.968900  0.325800  1.0  0.6959
  C  C36  1  0.220800  0.108300  0.433600  1.0  -0.044
  C  C37  1  0.899000  0.686000  0.502200  1.0  -0.0216
  C  C38  1  0.357000  0.528700  0.340800  1.0  0.7263
  C  C39  1  0.208400  0.064200  0.365600  1.0  -0.1475
  C  C40  1  0.624300  0.525400  0.401300  1.0  0.7116
  C  C41  1  0.889300  0.693300  0.429400  1.0  -0.1792
  C  C42  1  0.160400  0.738100  0.328200  1.0  0.6803
  C  C43  1  0.373300  0.309300  0.390000  1.0  0.7339
  C  C44  1  0.731000  0.591000  0.427900  1.0  -0.2174
  C  C45  1  0.966200  0.746500  0.407000  1.0  0.7316
  C  C46  1  0.311300  0.219600  0.394600  1.0  -0.2089
  C  C47  1  0.279300  0.198000  0.450900  1.0  -0.0562
  C  C48  1  0.832500  0.377400  0.759700  1.0  -0.0835
  C  C49  1  0.782100  0.434100  0.755800  1.0  -0.0785
  C  C50  1  0.311100  0.180600  0.946900  1.0  -0.0783
  C  C51  1  0.234700  0.209300  0.925100  1.0  -0.1483
  C  C52  1  0.360800  0.269000  0.069100  1.0  -0.1756
  C  C53  1  0.379100  0.213400  0.028500  1.0  -0.0405
  C  C54  1  0.147900  0.187100  0.844400  1.0  0.727
  C  C55  1  0.190800  0.372600  0.498000  1.0  -0.0393
  C  C56  1  0.798800  0.326800  0.688600  1.0  -0.1437
  C  C57  1  0.712300  0.424500  0.682200  1.0  -0.1595
  C  C58  1  0.413400  0.316400  0.155400  1.0  0.7174
  C  C59  1  0.855900  0.031100  0.674200  1.0  0.6966
  C  C60  1  0.779200  0.891700  0.566400  1.0  -0.0456
  C  C61  1  0.101000  0.314000  0.497800  1.0  -0.024
  C  C62  1  0.643000  0.471300  0.659200  1.0  0.7264
  C  C63  1  0.791600  0.935800  0.634400  1.0  -0.1481
  C  C64  1  0.375700  0.474600  0.598700  1.0  0.7105
  C  C65  1  0.110700  0.306700  0.570600  1.0  -0.1794
  C  C66  1  0.839600  0.261900  0.671800  1.0  0.6791
  C  C67  1  0.626700  0.690700  0.610000  1.0  0.733
  C  C68  1  0.269000  0.409000  0.572100  1.0  -0.2178
  C  C69  1  0.033800  0.253500  0.593000  1.0  0.7309
  C  C70  1  0.688700  0.780400  0.605400  1.0  -0.2067
  C  C71  1  0.720700  0.802000  0.549100  1.0  -0.0563
  S  S72  1  0.268380  0.130980  0.319830  1.0  0.1922
  S  S73  1  0.767220  0.629360  0.358860  1.0  0.1787
  S  S74  1  0.293310  0.652180  0.383120  1.0  0.144
  S  S75  1  0.748450  0.722400  0.995910  1.0  0.1204
  S  S76  1  0.731620  0.869020  0.680170  1.0  0.1911
  S  S77  1  0.232780  0.370640  0.641140  1.0  0.1793
  S  S78  1  0.706690  0.347820  0.616880  1.0  0.1434
  S  S79  1  0.251550  0.277600  0.004090  1.0  0.1213
  O  O80  1  0.109500  0.918300  0.363700  1.0  -0.6136
  O  O81  1  0.125900  0.942500  0.254900  1.0  -0.5445
  O  O82  1  0.393700  0.370800  0.442400  1.0  -0.6104
  O  O83  1  0.394700  0.310500  0.332300  1.0  -0.5736
  O  O84  1  0.602400  0.495400  0.454600  1.0  -0.6435
  O  O85  1  0.568200  0.502100  0.327900  1.0  -0.5743
  O  O86  1  0.933300  0.745700  0.333600  1.0  -0.5922
  O  O87  1  0.056300  0.786800  0.458100  1.0  -0.6243
  O  O88  1  0.905600  0.771200  0.162500  1.0  -0.5267
  O  O89  1  0.867100  0.867700  0.209900  1.0  -0.4474
  O  O90  1  0.626900  0.639700  0.825100  1.0  -0.5288
  O  O91  1  0.508500  0.692400  0.800100  1.0  -0.4528
  O  O92  1  0.421900  0.551500  0.409500  1.0  -0.6018
  O  O93  1  0.339000  0.469300  0.285700  1.0  -0.5817
  O  O94  1  0.208900  0.784200  0.398000  1.0  -0.6138
  O  O95  1  0.087000  0.740200  0.270300  1.0  -0.5466
  O  O96  1  0.890500  0.081700  0.636300  1.0  -0.6113
  O  O97  1  0.874100  0.057500  0.745100  1.0  -0.5442
  O  O98  1  0.606300  0.629200  0.557600  1.0  -0.6096
  O  O99  1  0.605300  0.689500  0.667700  1.0  -0.5765
  O  O100  1  0.397600  0.504600  0.545400  1.0  -0.6425
  O  O101  1  0.431800  0.497900  0.672100  1.0  -0.5765
  O  O102  1  0.066700  0.254300  0.666400  1.0  -0.5914
  O  O103  1  0.943700  0.213200  0.541900  1.0  -0.6225
  O  O104  1  0.094400  0.228800  0.837500  1.0  -0.5255
  O  O105  1  0.132900  0.132300  0.790100  1.0  -0.4472
  O  O106  1  0.373100  0.360300  0.174900  1.0  -0.5287
  O  O107  1  0.491500  0.307600  0.199900  1.0  -0.4539
  O  O108  1  0.578100  0.448500  0.590500  1.0  -0.6001
  O  O109  1  0.661000  0.530700  0.714300  1.0  -0.5797
  O  O110  1  0.791100  0.215800  0.602000  1.0  -0.6147
  O  O111  1  0.913000  0.259800  0.729700  1.0  -0.546
