# generated using pymatgen
data_Zn4H30C54O13
_symmetry_space_group_name_H-M   'P 1'
_cell_length_a   19.37760000
_cell_length_b   19.37760000
_cell_length_c   31.61390000
_cell_angle_alpha   105.79600000
_cell_angle_beta   105.79600000
_cell_angle_gamma   94.18290000
_symmetry_Int_Tables_number   1
_chemical_formula_structural   Zn4H30C54O13
_chemical_formula_sum   'Zn16 H120 C216 O52'
_cell_volume   10851.64180873
_cell_formula_units_Z   4
loop_
 _symmetry_equiv_pos_site_id
 _symmetry_equiv_pos_as_xyz
  1  'x, y, z'
loop_
 _atom_site_type_symbol
 _atom_site_label
 _atom_site_symmetry_multiplicity
 _atom_site_fract_x
 _atom_site_fract_y
 _atom_site_fract_z
 _atom_site_occupancy
 _atom_site_charge
  Zn  Zn1  1  0.754960  0.531360  0.650200  1.0  1.1184
  Zn  Zn2  1  0.608790  0.446210  0.573140  1.0  1.0683
  Zn  Zn3  1  0.683870  0.379430  0.652150  1.0  1.0998
  Zn  Zn4  1  0.755930  0.388110  0.573510  1.0  1.0828
  Zn  Zn5  1  0.531360  0.754960  0.150200  1.0  1.1156
  Zn  Zn6  1  0.446210  0.608790  0.073140  1.0  1.0685
  Zn  Zn7  1  0.379430  0.683870  0.152150  1.0  1.0989
  Zn  Zn8  1  0.388110  0.755930  0.073510  1.0  1.0833
  Zn  Zn9  1  0.468640  0.245040  0.849800  1.0  1.1181
  Zn  Zn10  1  0.553790  0.391210  0.926860  1.0  1.0681
  Zn  Zn11  1  0.620570  0.316130  0.847850  1.0  1.0997
  Zn  Zn12  1  0.611890  0.244070  0.926490  1.0  1.0827
  Zn  Zn13  1  0.245040  0.468640  0.349800  1.0  1.1175
  Zn  Zn14  1  0.391210  0.553790  0.426860  1.0  1.0674
  Zn  Zn15  1  0.316130  0.620570  0.347850  1.0  1.0998
  Zn  Zn16  1  0.244070  0.611890  0.426490  1.0  1.0823
  H  H17  1  0.509800  0.383200  0.703400  1.0  0.1237
  H  H18  1  0.424000  0.425000  0.740400  1.0  0.1178
  H  H19  1  0.327700  0.501500  0.635900  1.0  0.1258
  H  H20  1  0.413600  0.461800  0.599700  1.0  0.1099
  H  H21  1  0.388600  0.523400  0.783100  1.0  0.1238
  H  H22  1  0.185100  0.561300  0.780900  1.0  0.1121
  H  H23  1  0.226200  0.475400  0.659700  1.0  0.1303
  H  H24  1  0.376800  0.493800  0.850000  1.0  0.1345
  H  H25  1  0.407700  0.530900  0.929700  1.0  0.0894
  H  H26  1  0.294700  0.697500  0.927500  1.0  0.1191
  H  H27  1  0.260300  0.660100  0.849400  1.0  0.113
  H  H28  1  0.105200  0.419000  0.639700  1.0  0.1138
  H  H29  1  0.981000  0.408400  0.603600  1.0  0.1189
  H  H30  1  0.978700  0.596900  0.698700  1.0  0.1116
  H  H31  1  0.101200  0.607000  0.734800  1.0  0.1263
  H  H32  1  0.553100  0.609700  0.525800  1.0  0.1116
  H  H33  1  0.542100  0.697300  0.488000  1.0  0.1155
  H  H34  1  0.731600  0.815800  0.583300  1.0  0.1174
  H  H35  1  0.737200  0.729400  0.621500  1.0  0.1165
  H  H36  1  0.586700  0.752100  0.442800  1.0  0.1027
  H  H37  1  0.626600  0.959000  0.442900  1.0  0.112
  H  H38  1  0.672900  0.909100  0.562700  1.0  0.1078
  H  H39  1  0.734400  0.052600  0.492500  1.0  0.1127
  H  H40  1  0.757100  0.176500  0.528300  1.0  0.1294
  H  H41  1  0.656200  0.146600  0.619600  1.0  0.1107
  H  H42  1  0.633200  0.025600  0.585400  1.0  0.1287
  H  H43  1  0.477900  0.774300  0.378100  1.0  0.1208
  H  H44  1  0.434200  0.736600  0.297600  1.0  0.1011
  H  H45  1  0.617600  0.836600  0.290900  1.0  0.119
  H  H46  1  0.662700  0.880100  0.373300  1.0  0.1237
  H  H47  1  0.383200  0.509800  0.203400  1.0  0.123
  H  H48  1  0.425000  0.424000  0.240400  1.0  0.1182
  H  H49  1  0.501500  0.327700  0.135900  1.0  0.1254
  H  H50  1  0.461800  0.413600  0.099700  1.0  0.1091
  H  H51  1  0.523400  0.388600  0.283100  1.0  0.1232
  H  H52  1  0.561300  0.185100  0.280900  1.0  0.1127
  H  H53  1  0.475400  0.226200  0.159700  1.0  0.1302
  H  H54  1  0.493800  0.376800  0.350000  1.0  0.1361
  H  H55  1  0.530900  0.407700  0.429700  1.0  0.0892
  H  H56  1  0.697500  0.294700  0.427500  1.0  0.1188
  H  H57  1  0.660100  0.260300  0.349400  1.0  0.1123
  H  H58  1  0.419000  0.105200  0.139700  1.0  0.1139
  H  H59  1  0.408400  0.981000  0.103600  1.0  0.1199
  H  H60  1  0.596900  0.978700  0.198700  1.0  0.1109
  H  H61  1  0.607000  0.101200  0.234800  1.0  0.1269
  H  H62  1  0.609700  0.553100  0.025800  1.0  0.1118
  H  H63  1  0.697300  0.542100  0.988000  1.0  0.1153
  H  H64  1  0.815800  0.731600  0.083300  1.0  0.119
  H  H65  1  0.729400  0.737200  0.121500  1.0  0.1172
  H  H66  1  0.752100  0.586700  0.942800  1.0  0.1022
  H  H67  1  0.959000  0.626600  0.942900  1.0  0.1132
  H  H68  1  0.909100  0.672900  0.062700  1.0  0.1077
  H  H69  1  0.052600  0.734400  0.992500  1.0  0.1118
  H  H70  1  0.176500  0.757100  0.028300  1.0  0.1297
  H  H71  1  0.146600  0.656200  0.119600  1.0  0.1102
  H  H72  1  0.025600  0.633200  0.085400  1.0  0.1287
  H  H73  1  0.774300  0.477900  0.878100  1.0  0.1203
  H  H74  1  0.736600  0.434200  0.797600  1.0  0.102
  H  H75  1  0.836600  0.617600  0.790900  1.0  0.1193
  H  H76  1  0.880100  0.662700  0.873300  1.0  0.1249
  H  H77  1  0.616800  0.490200  0.796600  1.0  0.1238
  H  H78  1  0.575000  0.576000  0.759600  1.0  0.1179
  H  H79  1  0.498500  0.672300  0.864100  1.0  0.1253
  H  H80  1  0.538200  0.586400  0.900300  1.0  0.1093
  H  H81  1  0.476600  0.611400  0.716900  1.0  0.1239
  H  H82  1  0.438700  0.814900  0.719100  1.0  0.1122
  H  H83  1  0.524600  0.773800  0.840300  1.0  0.1307
  H  H84  1  0.506200  0.623200  0.650000  1.0  0.135
  H  H85  1  0.469100  0.592300  0.570300  1.0  0.0892
  H  H86  1  0.302500  0.705300  0.572500  1.0  0.1191
  H  H87  1  0.339900  0.739700  0.650600  1.0  0.1128
  H  H88  1  0.581000  0.894800  0.860300  1.0  0.1133
  H  H89  1  0.591600  0.019000  0.896400  1.0  0.1201
  H  H90  1  0.403100  0.021300  0.801300  1.0  0.1117
  H  H91  1  0.393000  0.898800  0.765200  1.0  0.1274
  H  H92  1  0.390300  0.446900  0.974200  1.0  0.1109
  H  H93  1  0.302700  0.457900  0.012000  1.0  0.1152
  H  H94  1  0.184200  0.268400  0.916700  1.0  0.1186
  H  H95  1  0.270600  0.262800  0.878500  1.0  0.1165
  H  H96  1  0.247900  0.413300  0.057200  1.0  0.1019
  H  H97  1  0.041000  0.373400  0.057100  1.0  0.1137
  H  H98  1  0.090900  0.327100  0.937300  1.0  0.1089
  H  H99  1  0.947400  0.265600  0.007500  1.0  0.1117
  H  H100  1  0.823500  0.242900  0.971700  1.0  0.1295
  H  H101  1  0.853400  0.343800  0.880400  1.0  0.1105
  H  H102  1  0.974400  0.366800  0.914600  1.0  0.128
  H  H103  1  0.225700  0.522100  0.121900  1.0  0.1196
  H  H104  1  0.263400  0.565800  0.202400  1.0  0.1031
  H  H105  1  0.163400  0.382400  0.209100  1.0  0.1185
  H  H106  1  0.119900  0.337300  0.126700  1.0  0.1239
  H  H107  1  0.490200  0.616800  0.296600  1.0  0.1242
  H  H108  1  0.576000  0.575000  0.259600  1.0  0.1181
  H  H109  1  0.672300  0.498500  0.364100  1.0  0.1259
  H  H110  1  0.586400  0.538200  0.400300  1.0  0.1095
  H  H111  1  0.611400  0.476600  0.216900  1.0  0.1237
  H  H112  1  0.814900  0.438700  0.219100  1.0  0.1117
  H  H113  1  0.773800  0.524600  0.340300  1.0  0.1306
  H  H114  1  0.623200  0.506200  0.150000  1.0  0.1347
  H  H115  1  0.592300  0.469100  0.070300  1.0  0.0889
  H  H116  1  0.705300  0.302500  0.072500  1.0  0.1188
  H  H117  1  0.739700  0.339900  0.150600  1.0  0.1125
  H  H118  1  0.894800  0.581000  0.360300  1.0  0.1147
  H  H119  1  0.019000  0.591600  0.396400  1.0  0.1199
  H  H120  1  0.021300  0.403100  0.301300  1.0  0.1122
  H  H121  1  0.898800  0.393000  0.265200  1.0  0.1257
  H  H122  1  0.446900  0.390300  0.474200  1.0  0.1113
  H  H123  1  0.457900  0.302700  0.512000  1.0  0.1157
  H  H124  1  0.268400  0.184200  0.416700  1.0  0.1175
  H  H125  1  0.262800  0.270600  0.378500  1.0  0.1166
  H  H126  1  0.413300  0.247900  0.557200  1.0  0.1023
  H  H127  1  0.373400  0.041000  0.557100  1.0  0.113
  H  H128  1  0.327100  0.090900  0.437300  1.0  0.1089
  H  H129  1  0.265600  0.947400  0.507500  1.0  0.1129
  H  H130  1  0.242900  0.823500  0.471700  1.0  0.1289
  H  H131  1  0.343800  0.853400  0.380400  1.0  0.1108
  H  H132  1  0.366800  0.974400  0.414600  1.0  0.1277
  H  H133  1  0.522100  0.225700  0.621900  1.0  0.1201
  H  H134  1  0.565800  0.263400  0.702400  1.0  0.1004
  H  H135  1  0.382400  0.163400  0.709100  1.0  0.1177
  H  H136  1  0.337300  0.119900  0.626700  1.0  0.1235
  C  C137  1  0.531500  0.402100  0.630600  1.0  0.6746
  C  C138  1  0.470600  0.421000  0.649700  1.0  -0.0944
  C  C139  1  0.473800  0.408400  0.690200  1.0  -0.1095
  C  C140  1  0.422600  0.433200  0.711900  1.0  -0.1297
  C  C141  1  0.369300  0.469700  0.692500  1.0  0.0403
  C  C142  1  0.365300  0.478900  0.650100  1.0  -0.051
  C  C143  1  0.415900  0.455100  0.628700  1.0  -0.05
  C  C144  1  0.315400  0.496000  0.717400  1.0  0.0106
  C  C145  1  0.339600  0.522600  0.766300  1.0  -0.1562
  C  C146  1  0.289800  0.547200  0.789100  1.0  -0.0007
  C  C147  1  0.218600  0.544800  0.764700  1.0  -0.1235
  C  C148  1  0.194400  0.518600  0.716500  1.0  0.0264
  C  C149  1  0.242300  0.493700  0.692500  1.0  -0.1342
  C  C150  1  0.314100  0.573700  0.840600  1.0  0.077
  C  C151  1  0.359800  0.535000  0.865600  1.0  -0.1946
  C  C152  1  0.379000  0.558200  0.913100  1.0  -0.0332
  C  C153  1  0.358400  0.618800  0.937300  1.0  -0.1329
  C  C154  1  0.311600  0.656400  0.911800  1.0  -0.0686
  C  C155  1  0.291400  0.634000  0.865700  1.0  -0.1217
  C  C156  1  0.116300  0.514300  0.691700  1.0  0.0296
  C  C157  1  0.078800  0.454800  0.651800  1.0  -0.1209
  C  C158  1  0.004900  0.447900  0.630400  1.0  -0.099
  C  C159  1  0.967400  0.498200  0.648100  1.0  -0.1108
  C  C160  1  0.004800  0.560200  0.687400  1.0  -0.0751
  C  C161  1  0.077400  0.566600  0.708500  1.0  -0.1825
  C  C162  1  0.656900  0.603100  0.600000  1.0  0.7158
  C  C163  1  0.647100  0.661700  0.577400  1.0  -0.1237
  C  C164  1  0.588600  0.652200  0.537300  1.0  -0.0424
  C  C165  1  0.582300  0.704100  0.514700  1.0  -0.1345
  C  C166  1  0.635000  0.767200  0.530500  1.0  0.0179
  C  C167  1  0.694600  0.774400  0.571700  1.0  -0.1165
  C  C168  1  0.698500  0.722700  0.594100  1.0  -0.0727
  C  C169  1  0.630700  0.822300  0.506600  1.0  0.0103
  C  C170  1  0.604200  0.802000  0.459300  1.0  -0.1363
  C  C171  1  0.602200  0.852400  0.434700  1.0  0.0005
  C  C172  1  0.627400  0.924000  0.459000  1.0  -0.1116
  C  C173  1  0.654800  0.946600  0.508000  1.0  0.0392
  C  C174  1  0.655100  0.894500  0.529900  1.0  -0.1299
  C  C175  1  0.677700  0.025500  0.533200  1.0  0.0499
  C  C176  1  0.717500  0.072300  0.518100  1.0  -0.1065
  C  C177  1  0.732200  0.144800  0.539400  1.0  -0.0956
  C  C178  1  0.709100  0.172100  0.578900  1.0  -0.1407
  C  C179  1  0.672100  0.126900  0.593700  1.0  -0.0385
  C  C180  1  0.657500  0.056100  0.573200  1.0  -0.1689
  C  C181  1  0.576500  0.830700  0.383500  1.0  0.0709
  C  C182  1  0.506600  0.787600  0.360700  1.0  -0.16
  C  C183  1  0.480900  0.765100  0.312700  1.0  -0.0458
  C  C184  1  0.520900  0.783100  0.286900  1.0  -0.122
  C  C185  1  0.588900  0.824700  0.308800  1.0  -0.054
  C  C186  1  0.616700  0.850100  0.358400  1.0  -0.1397
  C  C187  1  0.499600  0.759200  0.235400  1.0  0.7022
  C  C188  1  0.722300  0.251500  0.596800  1.0  0.6936
  C  C189  1  0.884800  0.484400  0.626700  1.0  0.6537
  C  C190  1  0.378600  0.639400  0.988500  1.0  0.7094
  C  C191  1  0.402100  0.531500  0.130600  1.0  0.6784
  C  C192  1  0.421000  0.470600  0.149700  1.0  -0.0938
  C  C193  1  0.408400  0.473800  0.190200  1.0  -0.1118
  C  C194  1  0.433200  0.422600  0.211900  1.0  -0.1273
  C  C195  1  0.469700  0.369300  0.192500  1.0  0.0415
  C  C196  1  0.478900  0.365300  0.150100  1.0  -0.0525
  C  C197  1  0.455100  0.415900  0.128700  1.0  -0.0511
  C  C198  1  0.496000  0.315400  0.217400  1.0  0.0103
  C  C199  1  0.522600  0.339600  0.266300  1.0  -0.1584
  C  C200  1  0.547200  0.289800  0.289100  1.0  0.0023
  C  C201  1  0.544800  0.218600  0.264700  1.0  -0.1237
  C  C202  1  0.518600  0.194400  0.216500  1.0  0.0278
  C  C203  1  0.493700  0.242300  0.192500  1.0  -0.1344
  C  C204  1  0.573700  0.314100  0.340600  1.0  0.0758
  C  C205  1  0.535000  0.359800  0.365600  1.0  -0.1941
  C  C206  1  0.558200  0.379000  0.413100  1.0  -0.0316
  C  C207  1  0.618800  0.358400  0.437300  1.0  -0.1345
  C  C208  1  0.656400  0.311600  0.411800  1.0  -0.0685
  C  C209  1  0.634000  0.291400  0.365700  1.0  -0.1225
  C  C210  1  0.514300  0.116300  0.191700  1.0  0.0325
  C  C211  1  0.454800  0.078800  0.151800  1.0  -0.1196
  C  C212  1  0.447900  0.004900  0.130400  1.0  -0.097
  C  C213  1  0.498200  0.967400  0.148100  1.0  -0.1091
  C  C214  1  0.560200  0.004800  0.187400  1.0  -0.0769
  C  C215  1  0.566600  0.077400  0.208500  1.0  -0.1795
  C  C216  1  0.603100  0.656900  0.100000  1.0  0.7135
  C  C217  1  0.661700  0.647100  0.077400  1.0  -0.1227
  C  C218  1  0.652200  0.588600  0.037300  1.0  -0.0423
  C  C219  1  0.704100  0.582300  0.014700  1.0  -0.1364
  C  C220  1  0.767200  0.635000  0.030500  1.0  0.0177
  C  C221  1  0.774400  0.694600  0.071700  1.0  -0.1198
  C  C222  1  0.722700  0.698500  0.094100  1.0  -0.0761
  C  C223  1  0.822300  0.630700  0.006600  1.0  0.0126
  C  C224  1  0.802000  0.604200  0.959300  1.0  -0.1355
  C  C225  1  0.852400  0.602200  0.934700  1.0  0.0003
  C  C226  1  0.924000  0.627400  0.959000  1.0  -0.1109
  C  C227  1  0.946600  0.654800  0.008000  1.0  0.0378
  C  C228  1  0.894500  0.655100  0.029900  1.0  -0.129
  C  C229  1  0.025500  0.677700  0.033200  1.0  0.0515
  C  C230  1  0.072300  0.717500  0.018100  1.0  -0.1088
  C  C231  1  0.144800  0.732200  0.039400  1.0  -0.0972
  C  C232  1  0.172100  0.709100  0.078900  1.0  -0.1412
  C  C233  1  0.126900  0.672100  0.093700  1.0  -0.0377
  C  C234  1  0.056100  0.657500  0.073200  1.0  -0.1687
  C  C235  1  0.830700  0.576500  0.883500  1.0  0.0703
  C  C236  1  0.787600  0.506600  0.860700  1.0  -0.1584
  C  C237  1  0.765100  0.480900  0.812700  1.0  -0.0493
  C  C238  1  0.783100  0.520900  0.786900  1.0  -0.1246
  C  C239  1  0.824700  0.588900  0.808800  1.0  -0.0569
  C  C240  1  0.850100  0.616700  0.858400  1.0  -0.1407
  C  C241  1  0.759200  0.499600  0.735400  1.0  0.7023
  C  C242  1  0.251500  0.722300  0.096800  1.0  0.6932
  C  C243  1  0.484400  0.884800  0.126700  1.0  0.6546
  C  C244  1  0.639400  0.378600  0.488500  1.0  0.7109
  C  C245  1  0.597900  0.468500  0.869400  1.0  0.6791
  C  C246  1  0.579000  0.529400  0.850300  1.0  -0.0924
  C  C247  1  0.591600  0.526200  0.809800  1.0  -0.1124
  C  C248  1  0.566800  0.577400  0.788100  1.0  -0.1249
  C  C249  1  0.530300  0.630700  0.807500  1.0  0.0435
  C  C250  1  0.521100  0.634700  0.849900  1.0  -0.0529
  C  C251  1  0.544900  0.584100  0.871300  1.0  -0.0512
  C  C252  1  0.504000  0.684600  0.782600  1.0  0.0094
  C  C253  1  0.477400  0.660400  0.733700  1.0  -0.157
  C  C254  1  0.452800  0.710200  0.710900  1.0  0.002
  C  C255  1  0.455200  0.781400  0.735300  1.0  -0.1248
  C  C256  1  0.481400  0.805600  0.783500  1.0  0.0278
  C  C257  1  0.506300  0.757700  0.807500  1.0  -0.1326
  C  C258  1  0.426300  0.685900  0.659400  1.0  0.0754
  C  C259  1  0.465000  0.640200  0.634400  1.0  -0.1944
  C  C260  1  0.441800  0.621000  0.586900  1.0  -0.0322
  C  C261  1  0.381200  0.641600  0.562700  1.0  -0.1323
  C  C262  1  0.343600  0.688400  0.588200  1.0  -0.0679
  C  C263  1  0.366000  0.708600  0.634300  1.0  -0.1211
  C  C264  1  0.485700  0.883700  0.808300  1.0  0.032
  C  C265  1  0.545200  0.921200  0.848200  1.0  -0.1172
  C  C266  1  0.552100  0.995100  0.869600  1.0  -0.0964
  C  C267  1  0.501800  0.032600  0.851900  1.0  -0.1096
  C  C268  1  0.439800  0.995200  0.812600  1.0  -0.0776
  C  C269  1  0.433400  0.922600  0.791500  1.0  -0.1797
  C  C270  1  0.396900  0.343100  0.900000  1.0  0.7133
  C  C271  1  0.338300  0.352900  0.922600  1.0  -0.1239
  C  C272  1  0.347800  0.411400  0.962700  1.0  -0.041
  C  C273  1  0.295900  0.417700  0.985300  1.0  -0.1368
  C  C274  1  0.232800  0.365000  0.969500  1.0  0.0193
  C  C275  1  0.225600  0.305400  0.928300  1.0  -0.1191
  C  C276  1  0.277300  0.301500  0.905900  1.0  -0.0768
  C  C277  1  0.177700  0.369300  0.993400  1.0  0.0128
  C  C278  1  0.198000  0.395800  0.040700  1.0  -0.1349
  C  C279  1  0.147600  0.397800  0.065300  1.0  -0.0009
  C  C280  1  0.076000  0.372600  0.041000  1.0  -0.111
  C  C281  1  0.053400  0.345200  0.992000  1.0  0.0378
  C  C282  1  0.105500  0.344900  0.970100  1.0  -0.1284
  C  C283  1  0.974500  0.322300  0.966800  1.0  0.0511
  C  C284  1  0.927700  0.282500  0.981900  1.0  -0.1089
  C  C285  1  0.855200  0.267800  0.960600  1.0  -0.0982
  C  C286  1  0.827900  0.290900  0.921100  1.0  -0.1413
  C  C287  1  0.873100  0.327900  0.906300  1.0  -0.0368
  C  C288  1  0.943900  0.342500  0.926800  1.0  -0.1685
  C  C289  1  0.169300  0.423500  0.116500  1.0  0.0696
  C  C290  1  0.212400  0.493400  0.139300  1.0  -0.1595
  C  C291  1  0.234900  0.519100  0.187300  1.0  -0.0482
  C  C292  1  0.216900  0.479100  0.213100  1.0  -0.1244
  C  C293  1  0.175300  0.411100  0.191200  1.0  -0.0555
  C  C294  1  0.149900  0.383300  0.141600  1.0  -0.1423
  C  C295  1  0.240800  0.500400  0.264600  1.0  0.702
  C  C296  1  0.748500  0.277700  0.903200  1.0  0.6923
  C  C297  1  0.515600  0.115200  0.873300  1.0  0.6545
  C  C298  1  0.360600  0.621400  0.511500  1.0  0.7102
  C  C299  1  0.468500  0.597900  0.369400  1.0  0.6749
  C  C300  1  0.529400  0.579000  0.350300  1.0  -0.0926
  C  C301  1  0.526200  0.591600  0.309800  1.0  -0.1094
  C  C302  1  0.577400  0.566800  0.288100  1.0  -0.127
  C  C303  1  0.630700  0.530300  0.307500  1.0  0.0424
  C  C304  1  0.634700  0.521100  0.349900  1.0  -0.0486
  C  C305  1  0.584100  0.544900  0.371300  1.0  -0.0523
  C  C306  1  0.684600  0.504000  0.282600  1.0  0.01
  C  C307  1  0.660400  0.477400  0.233700  1.0  -0.1568
  C  C308  1  0.710200  0.452800  0.210900  1.0  -0.0005
  C  C309  1  0.781400  0.455200  0.235300  1.0  -0.1236
  C  C310  1  0.805600  0.481400  0.283500  1.0  0.0266
  C  C311  1  0.757700  0.506300  0.307500  1.0  -0.1333
  C  C312  1  0.685900  0.426300  0.159400  1.0  0.0761
  C  C313  1  0.640200  0.465000  0.134400  1.0  -0.1935
  C  C314  1  0.621000  0.441800  0.086900  1.0  -0.0309
  C  C315  1  0.641600  0.381200  0.062700  1.0  -0.1336
  C  C316  1  0.688400  0.343600  0.088200  1.0  -0.0681
  C  C317  1  0.708600  0.366000  0.134300  1.0  -0.1203
  C  C318  1  0.883700  0.485700  0.308300  1.0  0.0297
  C  C319  1  0.921200  0.545200  0.348200  1.0  -0.1208
  C  C320  1  0.995100  0.552100  0.369600  1.0  -0.0981
  C  C321  1  0.032600  0.501800  0.351900  1.0  -0.1089
  C  C322  1  0.995200  0.439800  0.312600  1.0  -0.0753
  C  C323  1  0.922600  0.433400  0.291500  1.0  -0.1827
  C  C324  1  0.343100  0.396900  0.400000  1.0  0.7172
  C  C325  1  0.352900  0.338300  0.422600  1.0  -0.1236
  C  C326  1  0.411400  0.347800  0.462700  1.0  -0.0407
  C  C327  1  0.417700  0.295900  0.485300  1.0  -0.1349
  C  C328  1  0.365000  0.232800  0.469500  1.0  0.0194
  C  C329  1  0.305400  0.225600  0.428300  1.0  -0.1176
  C  C330  1  0.301500  0.277300  0.405900  1.0  -0.0729
  C  C331  1  0.369300  0.177700  0.493400  1.0  0.0107
  C  C332  1  0.395800  0.198000  0.540700  1.0  -0.1362
  C  C333  1  0.397800  0.147600  0.565300  1.0  -0.0012
  C  C334  1  0.372600  0.076000  0.541000  1.0  -0.1106
  C  C335  1  0.345200  0.053400  0.492000  1.0  0.0388
  C  C336  1  0.344900  0.105500  0.470100  1.0  -0.13
  C  C337  1  0.322300  0.974500  0.466800  1.0  0.0498
  C  C338  1  0.282500  0.927700  0.481900  1.0  -0.1077
  C  C339  1  0.267800  0.855200  0.460600  1.0  -0.0971
  C  C340  1  0.290900  0.827900  0.421100  1.0  -0.141
  C  C341  1  0.327900  0.873100  0.406300  1.0  -0.0373
  C  C342  1  0.342500  0.943900  0.426800  1.0  -0.1682
  C  C343  1  0.423500  0.169300  0.616500  1.0  0.0707
  C  C344  1  0.493400  0.212400  0.639300  1.0  -0.1594
  C  C345  1  0.519100  0.234900  0.687300  1.0  -0.0439
  C  C346  1  0.479100  0.216900  0.713100  1.0  -0.1232
  C  C347  1  0.411100  0.175300  0.691200  1.0  -0.0543
  C  C348  1  0.383300  0.149900  0.641600  1.0  -0.1419
  C  C349  1  0.500400  0.240800  0.764600  1.0  0.7033
  C  C350  1  0.277700  0.748500  0.403200  1.0  0.6933
  C  C351  1  0.115200  0.515600  0.373300  1.0  0.654
  C  C352  1  0.621400  0.360600  0.011500  1.0  0.7077
  O  O353  1  0.700130  0.435950  0.612300  1.0  -1.2094
  O  O354  1  0.714870  0.609930  0.631540  1.0  -0.5629
  O  O355  1  0.604830  0.549170  0.583940  1.0  -0.5916
  O  O356  1  0.525740  0.412800  0.590910  1.0  -0.6015
  O  O357  1  0.583950  0.379250  0.652410  1.0  -0.6094
  O  O358  1  0.430850  0.733350  0.217230  1.0  -0.6228
  O  O359  1  0.544330  0.765870  0.215280  1.0  -0.5804
  O  O360  1  0.695810  0.280610  0.630070  1.0  -0.6135
  O  O361  1  0.758090  0.290110  0.580820  1.0  -0.6301
  O  O362  1  0.856170  0.429830  0.593650  1.0  -0.6053
  O  O363  1  0.853340  0.534540  0.647920  1.0  -0.6337
  O  O364  1  0.405130  0.596570  0.008060  1.0  -0.5714
  O  O365  1  0.367050  0.703950  0.008770  1.0  -0.6308
  O  O366  1  0.435950  0.700130  0.112300  1.0  -1.2089
  O  O367  1  0.609930  0.714870  0.131540  1.0  -0.5637
  O  O368  1  0.549170  0.604830  0.083940  1.0  -0.5918
  O  O369  1  0.412800  0.525740  0.090910  1.0  -0.6016
  O  O370  1  0.379250  0.583950  0.152410  1.0  -0.6108
  O  O371  1  0.733350  0.430850  0.717230  1.0  -0.626
  O  O372  1  0.765870  0.544330  0.715280  1.0  -0.5838
  O  O373  1  0.280610  0.695810  0.130070  1.0  -0.6141
  O  O374  1  0.290110  0.758090  0.080820  1.0  -0.6336
  O  O375  1  0.429830  0.856170  0.093650  1.0  -0.6027
  O  O376  1  0.534540  0.853340  0.147920  1.0  -0.6314
  O  O377  1  0.596570  0.405130  0.508060  1.0  -0.5712
  O  O378  1  0.703950  0.367050  0.508770  1.0  -0.6281
  O  O379  1  0.564050  0.299870  0.887700  1.0  -1.2087
  O  O380  1  0.390070  0.285130  0.868460  1.0  -0.5639
  O  O381  1  0.450830  0.395170  0.916060  1.0  -0.5922
  O  O382  1  0.587200  0.474260  0.909090  1.0  -0.6
  O  O383  1  0.620750  0.416050  0.847590  1.0  -0.6101
  O  O384  1  0.266650  0.569150  0.282770  1.0  -0.6281
  O  O385  1  0.234130  0.455670  0.284720  1.0  -0.5841
  O  O386  1  0.719390  0.304190  0.869930  1.0  -0.6132
  O  O387  1  0.709890  0.241910  0.919180  1.0  -0.6341
  O  O388  1  0.570170  0.143830  0.906350  1.0  -0.6008
  O  O389  1  0.465460  0.146660  0.852080  1.0  -0.6331
  O  O390  1  0.403430  0.594870  0.491940  1.0  -0.5715
  O  O391  1  0.296050  0.632950  0.491230  1.0  -0.6292
  O  O392  1  0.299870  0.564050  0.387700  1.0  -1.2091
  O  O393  1  0.285130  0.390070  0.368460  1.0  -0.5625
  O  O394  1  0.395170  0.450830  0.416060  1.0  -0.5921
  O  O395  1  0.474260  0.587200  0.409090  1.0  -0.6003
  O  O396  1  0.416050  0.620750  0.347590  1.0  -0.6091
  O  O397  1  0.569150  0.266650  0.782770  1.0  -0.6239
  O  O398  1  0.455670  0.234130  0.784720  1.0  -0.5794
  O  O399  1  0.304190  0.719390  0.369930  1.0  -0.6149
  O  O400  1  0.241910  0.709890  0.419180  1.0  -0.6342
  O  O401  1  0.143830  0.570170  0.406350  1.0  -0.6051
  O  O402  1  0.146660  0.465460  0.352080  1.0  -0.6347
  O  O403  1  0.594870  0.403430  0.991940  1.0  -0.57
  O  O404  1  0.632950  0.296050  0.991230  1.0  -0.6308
