# generated using pymatgen
data_ZnH18C24N3O5
_symmetry_space_group_name_H-M   'P 1'
_cell_length_a   16.44100000
_cell_length_b   17.30900000
_cell_length_c   18.12800000
_cell_angle_alpha   92.43900000
_cell_angle_beta   90.00000000
_cell_angle_gamma   90.00000000
_symmetry_Int_Tables_number   1
_chemical_formula_structural   ZnH18C24N3O5
_chemical_formula_sum   'Zn8 H144 C192 N24 O40'
_cell_volume   5154.14333347
_cell_formula_units_Z   8
loop_
 _symmetry_equiv_pos_site_id
 _symmetry_equiv_pos_as_xyz
  1  'x, y, z'
loop_
 _atom_site_type_symbol
 _atom_site_label
 _atom_site_symmetry_multiplicity
 _atom_site_fract_x
 _atom_site_fract_y
 _atom_site_fract_z
 _atom_site_occupancy
 _atom_site_charge
  Zn  Zn1  1  0.499070  0.724030  0.227560  1.0  0.8707
  Zn  Zn2  1  0.006250  0.708310  0.790860  1.0  0.8799
  Zn  Zn3  1  0.000930  0.224030  0.727560  1.0  0.8707
  Zn  Zn4  1  0.493750  0.208310  0.290860  1.0  0.8809
  Zn  Zn5  1  0.999070  0.775970  0.272440  1.0  0.8712
  Zn  Zn6  1  0.506250  0.791690  0.709140  1.0  0.8759
  Zn  Zn7  1  0.500930  0.275970  0.772440  1.0  0.8713
  Zn  Zn8  1  0.993750  0.291690  0.209140  1.0  0.877
  H  H9  1  0.827500  0.693600  0.524700  1.0  0.0781
  H  H10  1  0.821200  0.783500  0.538600  1.0  0.0813
  H  H11  1  0.698900  0.755700  0.610700  1.0  0.107
  H  H12  1  0.731200  0.670400  0.610000  1.0  0.0798
  H  H13  1  0.771500  0.847700  0.304200  1.0  0.1428
  H  H14  1  0.819000  0.755200  0.396100  1.0  0.1011
  H  H15  1  0.782700  0.671300  0.391400  1.0  0.0797
  H  H16  1  0.823600  0.586500  0.602500  1.0  0.1161
  H  H17  1  0.248700  0.021800  0.754200  1.0  0.133
  H  H18  1  0.521900  0.145000  0.538900  1.0  0.1026
  H  H19  1  0.686800  0.701700  0.478800  1.0  0.0751
  H  H20  1  0.703700  0.790600  0.474200  1.0  0.0842
  H  H21  1  0.863100  0.858700  0.794500  1.0  0.1033
  H  H22  1  0.147400  0.937200  0.784900  1.0  0.0938
  H  H23  1  0.484300  0.084500  0.645000  1.0  0.1244
  H  H24  1  0.156800  0.441000  0.720400  1.0  0.0977
  H  H25  1  0.264000  0.524100  0.744100  1.0  0.1239
  H  H26  1  0.317400  0.501100  0.962700  1.0  0.1116
  H  H27  1  0.296200  0.986900  0.536500  1.0  0.1169
  H  H28  1  0.998300  0.441500  0.662000  1.0  0.1273
  H  H29  1  0.683600  0.595000  0.400900  1.0  0.1154
  H  H30  1  0.225900  0.784100  0.629000  1.0  0.1081
  H  H31  1  0.236200  0.302300  0.875600  1.0  0.1059
  H  H32  1  0.045600  0.536400  0.744600  1.0  0.0806
  H  H33  1  0.750600  0.850200  0.705300  1.0  0.1384
  H  H34  1  0.331000  0.867300  0.600700  1.0  0.1329
  H  H35  1  0.609000  0.482500  0.414800  1.0  0.112
  H  H36  1  0.347500  0.382200  0.897000  1.0  0.1265
  H  H37  1  0.494500  0.604000  0.853100  1.0  0.1245
  H  H38  1  0.334700  0.048400  0.431200  1.0  0.0899
  H  H39  1  0.886700  0.467000  0.590300  1.0  0.1098
  H  H40  1  0.654000  0.860600  0.221200  1.0  0.1059
  H  H41  1  0.359600  0.564400  0.071000  1.0  0.0917
  H  H42  1  0.445200  0.560200  0.275000  1.0  0.0823
  H  H43  1  0.488300  0.465400  0.350000  1.0  0.128
  H  H44  1  0.534600  0.669000  0.960200  1.0  0.1032
  H  H45  1  0.672500  0.193600  0.024700  1.0  0.0783
  H  H46  1  0.678800  0.283500  0.038600  1.0  0.0814
  H  H47  1  0.801100  0.255700  0.110700  1.0  0.1058
  H  H48  1  0.768800  0.170400  0.110000  1.0  0.0808
  H  H49  1  0.728500  0.347700  0.804200  1.0  0.1428
  H  H50  1  0.681000  0.255200  0.896100  1.0  0.1006
  H  H51  1  0.717300  0.171300  0.891400  1.0  0.0795
  H  H52  1  0.676400  0.086500  0.102500  1.0  0.1159
  H  H53  1  0.251300  0.521800  0.254200  1.0  0.1329
  H  H54  1  0.978100  0.645000  0.038900  1.0  0.1025
  H  H55  1  0.813200  0.201700  0.978800  1.0  0.0743
  H  H56  1  0.796300  0.290600  0.974200  1.0  0.0837
  H  H57  1  0.636900  0.358700  0.294500  1.0  0.1034
  H  H58  1  0.352600  0.437200  0.284900  1.0  0.0936
  H  H59  1  0.015700  0.584500  0.145000  1.0  0.1243
  H  H60  1  0.343200  0.941000  0.220400  1.0  0.0974
  H  H61  1  0.236000  0.024100  0.244100  1.0  0.1237
  H  H62  1  0.182600  0.001100  0.462700  1.0  0.1122
  H  H63  1  0.203800  0.486900  0.036500  1.0  0.1166
  H  H64  1  0.501700  0.941500  0.162000  1.0  0.1271
  H  H65  1  0.816400  0.095000  0.900900  1.0  0.1152
  H  H66  1  0.274100  0.284100  0.129000  1.0  0.108
  H  H67  1  0.263800  0.802300  0.375600  1.0  0.106
  H  H68  1  0.454400  0.036400  0.244600  1.0  0.0806
  H  H69  1  0.749400  0.350200  0.205300  1.0  0.1382
  H  H70  1  0.169000  0.367300  0.100700  1.0  0.1325
  H  H71  1  0.891000  0.982500  0.914800  1.0  0.1115
  H  H72  1  0.152500  0.882200  0.397000  1.0  0.1263
  H  H73  1  0.005500  0.104000  0.353100  1.0  0.1248
  H  H74  1  0.165300  0.548400  0.931200  1.0  0.0901
  H  H75  1  0.613300  0.967000  0.090300  1.0  0.1101
  H  H76  1  0.846000  0.360600  0.721200  1.0  0.1058
  H  H77  1  0.140400  0.064400  0.571000  1.0  0.0918
  H  H78  1  0.054800  0.060200  0.775000  1.0  0.082
  H  H79  1  0.011700  0.965400  0.850000  1.0  0.1283
  H  H80  1  0.965400  0.169000  0.460200  1.0  0.103
  H  H81  1  0.327500  0.806400  0.975300  1.0  0.0782
  H  H82  1  0.321200  0.716500  0.961400  1.0  0.0821
  H  H83  1  0.198900  0.744300  0.889300  1.0  0.1064
  H  H84  1  0.231200  0.829600  0.890000  1.0  0.0796
  H  H85  1  0.271500  0.652300  0.195800  1.0  0.1428
  H  H86  1  0.319000  0.744800  0.103900  1.0  0.1007
  H  H87  1  0.282700  0.828700  0.108600  1.0  0.0782
  H  H88  1  0.323600  0.913500  0.897500  1.0  0.116
  H  H89  1  0.748700  0.478200  0.745800  1.0  0.1325
  H  H90  1  0.021900  0.355000  0.961100  1.0  0.1022
  H  H91  1  0.186800  0.798300  0.021200  1.0  0.0749
  H  H92  1  0.203700  0.709400  0.025800  1.0  0.0846
  H  H93  1  0.363100  0.641300  0.705500  1.0  0.1033
  H  H94  1  0.647400  0.562800  0.715100  1.0  0.0934
  H  H95  1  0.984300  0.415500  0.855000  1.0  0.1241
  H  H96  1  0.656800  0.059000  0.779600  1.0  0.0981
  H  H97  1  0.764000  0.975900  0.755900  1.0  0.1235
  H  H98  1  0.817400  0.998900  0.537300  1.0  0.1121
  H  H99  1  0.796200  0.513100  0.963500  1.0  0.1163
  H  H100  1  0.498300  0.058500  0.838000  1.0  0.1266
  H  H101  1  0.183600  0.905000  0.099100  1.0  0.1149
  H  H102  1  0.725900  0.715900  0.871000  1.0  0.1079
  H  H103  1  0.736200  0.197700  0.624400  1.0  0.1054
  H  H104  1  0.545600  0.963600  0.755400  1.0  0.0805
  H  H105  1  0.250600  0.649800  0.794700  1.0  0.1375
  H  H106  1  0.831000  0.632700  0.899300  1.0  0.1331
  H  H107  1  0.109000  0.017500  0.085200  1.0  0.1116
  H  H108  1  0.847500  0.117800  0.603000  1.0  0.1252
  H  H109  1  0.994500  0.896000  0.646900  1.0  0.125
  H  H110  1  0.834700  0.451600  0.068800  1.0  0.0896
  H  H111  1  0.386700  0.033000  0.909700  1.0  0.1104
  H  H112  1  0.154000  0.639400  0.278800  1.0  0.107
  H  H113  1  0.859600  0.935600  0.429000  1.0  0.0925
  H  H114  1  0.945200  0.939800  0.225000  1.0  0.0817
  H  H115  1  0.988300  0.034600  0.150000  1.0  0.1288
  H  H116  1  0.034600  0.831000  0.539800  1.0  0.1029
  H  H117  1  0.172500  0.306400  0.475300  1.0  0.0789
  H  H118  1  0.178800  0.216500  0.461400  1.0  0.0814
  H  H119  1  0.301100  0.244300  0.389300  1.0  0.1056
  H  H120  1  0.268800  0.329600  0.390000  1.0  0.0796
  H  H121  1  0.228500  0.152300  0.695800  1.0  0.1429
  H  H122  1  0.181000  0.244800  0.603900  1.0  0.1007
  H  H123  1  0.217300  0.328700  0.608600  1.0  0.0785
  H  H124  1  0.176400  0.413500  0.397500  1.0  0.1159
  H  H125  1  0.751300  0.978200  0.245800  1.0  0.1326
  H  H126  1  0.478100  0.855000  0.461100  1.0  0.1017
  H  H127  1  0.313200  0.298300  0.521200  1.0  0.0745
  H  H128  1  0.296300  0.209400  0.525800  1.0  0.0858
  H  H129  1  0.136900  0.141300  0.205500  1.0  0.1037
  H  H130  1  0.852600  0.062800  0.215100  1.0  0.0934
  H  H131  1  0.515700  0.915500  0.355000  1.0  0.1242
  H  H132  1  0.843200  0.559000  0.279600  1.0  0.0978
  H  H133  1  0.736000  0.475900  0.255900  1.0  0.1237
  H  H134  1  0.682600  0.498900  0.037300  1.0  0.1126
  H  H135  1  0.703800  0.013100  0.463500  1.0  0.1158
  H  H136  1  0.001700  0.558500  0.338000  1.0  0.1268
  H  H137  1  0.316400  0.405000  0.599100  1.0  0.1154
  H  H138  1  0.774100  0.215900  0.371000  1.0  0.1078
  H  H139  1  0.763800  0.697700  0.124400  1.0  0.1056
  H  H140  1  0.954400  0.463600  0.255400  1.0  0.0806
  H  H141  1  0.249400  0.149800  0.294700  1.0  0.1381
  H  H142  1  0.669000  0.132700  0.399300  1.0  0.133
  H  H143  1  0.391000  0.517500  0.585200  1.0  0.1111
  H  H144  1  0.652500  0.617800  0.103000  1.0  0.1254
  H  H145  1  0.505500  0.396000  0.146900  1.0  0.1251
  H  H146  1  0.665300  0.951600  0.568800  1.0  0.0897
  H  H147  1  0.113300  0.533000  0.409700  1.0  0.1103
  H  H148  1  0.346000  0.139400  0.778800  1.0  0.1067
  H  H149  1  0.640400  0.435600  0.929000  1.0  0.0923
  H  H150  1  0.554800  0.439800  0.725000  1.0  0.0818
  H  H151  1  0.511700  0.534600  0.650000  1.0  0.1284
  H  H152  1  0.465400  0.331000  0.039800  1.0  0.1026
  C  C153  1  0.644900  0.715700  0.312440  1.0  0.1628
  C  C154  1  0.453000  0.143900  0.405600  1.0  0.6463
  C  C155  1  0.790000  0.735900  0.535100  1.0  -0.1453
  C  C156  1  0.747700  0.724100  0.608010  1.0  -0.0204
  C  C157  1  0.865500  0.707800  0.699260  1.0  0.1688
  C  C158  1  0.727600  0.814000  0.299200  1.0  -0.1173
  C  C159  1  0.768900  0.725700  0.397790  1.0  -0.0211
  C  C160  1  0.899200  0.630800  0.681020  1.0  0.1809
  C  C161  1  0.112500  0.795800  0.734300  1.0  0.6558
  C  C162  1  0.175900  0.851300  0.710500  1.0  -0.1722
  C  C163  1  0.185000  0.363100  0.795200  1.0  -0.1817
  C  C164  1  0.402700  0.544900  0.898000  1.0  0.3004
  C  C165  1  0.473600  0.667400  0.097300  1.0  0.6521
  C  C166  1  0.300000  0.951200  0.675800  1.0  0.2769
  C  C167  1  0.385900  0.030600  0.601200  1.0  0.2963
  C  C168  1  0.868900  0.575800  0.631000  1.0  -0.1846
  C  C169  1  0.244800  0.973500  0.730000  1.0  -0.2382
  C  C170  1  0.476000  0.113400  0.538300  1.0  0.0062
  C  C171  1  0.729100  0.740000  0.472410  1.0  -0.1477
  C  C172  1  0.315200  0.461100  0.823400  1.0  0.2704
  C  C173  1  0.605000  0.643000  0.331190  1.0  0.1849
  C  C174  1  0.853200  0.817700  0.760900  1.0  0.0448
  C  C175  1  0.450700  0.624100  0.027300  1.0  -0.1919
  C  C176  1  0.183900  0.923100  0.747500  1.0  -0.0052
  C  C177  1  0.453700  0.077300  0.602100  1.0  -0.2321
  C  C178  1  0.194600  0.429500  0.756500  1.0  -0.0019
  C  C179  1  0.258700  0.479200  0.770200  1.0  -0.2366
  C  C180  1  0.361800  0.534300  0.962200  1.0  -0.255
  C  C181  1  0.341500  0.019100  0.537400  1.0  -0.2623
  C  C182  1  0.972600  0.489400  0.666100  1.0  -0.1682
  C  C183  1  0.634500  0.587500  0.376100  1.0  -0.1924
  C  C184  1  0.431400  0.103400  0.473900  1.0  -0.2053
  C  C185  1  0.231100  0.831400  0.654900  1.0  0.0012
  C  C186  1  0.242300  0.346500  0.848600  1.0  -0.0076
  C  C187  1  0.000900  0.546800  0.715200  1.0  0.1905
  C  C188  1  0.791000  0.813500  0.711400  1.0  -0.1103
  C  C189  1  0.293800  0.881100  0.637500  1.0  -0.233
  C  C190  1  0.590400  0.520300  0.384000  1.0  0.0009
  C  C191  1  0.308400  0.394500  0.862300  1.0  -0.2299
  C  C192  1  0.467200  0.596000  0.897100  1.0  -0.209
  C  C193  1  0.364900  0.056000  0.474300  1.0  0.0129
  C  C194  1  0.906500  0.504600  0.623900  1.0  -0.0019
  C  C195  1  0.662400  0.820700  0.253100  1.0  0.0558
  C  C196  1  0.386700  0.573100  0.027100  1.0  0.0139
  C  C197  1  0.493200  0.567500  0.301600  1.0  0.1923
  C  C198  1  0.518800  0.510300  0.345800  1.0  -0.1784
  C  C199  1  0.490900  0.634900  0.961200  1.0  0.0025
  C  C200  1  0.116200  0.308700  0.777100  1.0  0.6407
  C  C201  1  0.855100  0.215700  0.812440  1.0  0.1639
  C  C202  1  0.047000  0.643900  0.905600  1.0  0.6456
  C  C203  1  0.710000  0.235900  0.035100  1.0  -0.1453
  C  C204  1  0.752300  0.224100  0.108010  1.0  -0.0199
  C  C205  1  0.634500  0.207800  0.199260  1.0  0.1676
  C  C206  1  0.772400  0.314000  0.799200  1.0  -0.1167
  C  C207  1  0.731100  0.225700  0.897790  1.0  -0.0208
  C  C208  1  0.600800  0.130800  0.181020  1.0  0.1816
  C  C209  1  0.387500  0.295800  0.234300  1.0  0.6569
  C  C210  1  0.324100  0.351300  0.210500  1.0  -0.1718
  C  C211  1  0.315000  0.863100  0.295200  1.0  -0.1824
  C  C212  1  0.097300  0.044900  0.398000  1.0  0.3003
  C  C213  1  0.026400  0.167400  0.597300  1.0  0.6519
  C  C214  1  0.200000  0.451200  0.175800  1.0  0.2775
  C  C215  1  0.114100  0.530600  0.101200  1.0  0.2962
  C  C216  1  0.631100  0.075800  0.131000  1.0  -0.1853
  C  C217  1  0.255200  0.473500  0.230000  1.0  -0.2377
  C  C218  1  0.024000  0.613400  0.038300  1.0  0.0064
  C  C219  1  0.770900  0.240000  0.972410  1.0  -0.1477
  C  C220  1  0.184800  0.961100  0.323400  1.0  0.27
  C  C221  1  0.895000  0.143000  0.831190  1.0  0.1852
  C  C222  1  0.646800  0.317700  0.260900  1.0  0.0442
  C  C223  1  0.049300  0.124100  0.527300  1.0  -0.1916
  C  C224  1  0.316100  0.423100  0.247500  1.0  -0.0066
  C  C225  1  0.046300  0.577300  0.102100  1.0  -0.2317
  C  C226  1  0.305400  0.929500  0.256500  1.0  -0.0037
  C  C227  1  0.241300  0.979200  0.270200  1.0  -0.2372
  C  C228  1  0.138200  0.034300  0.462200  1.0  -0.2554
  C  C229  1  0.158500  0.519100  0.037400  1.0  -0.262
  C  C230  1  0.527400  0.989400  0.166100  1.0  -0.1691
  C  C231  1  0.865500  0.087500  0.876100  1.0  -0.1923
  C  C232  1  0.068600  0.603400  0.973900  1.0  -0.2056
  C  C233  1  0.268900  0.331400  0.154900  1.0  0.0003
  C  C234  1  0.257700  0.846500  0.348600  1.0  -0.0086
  C  C235  1  0.499100  0.046800  0.215200  1.0  0.1899
  C  C236  1  0.709000  0.313500  0.211400  1.0  -0.1104
  C  C237  1  0.206200  0.381100  0.137500  1.0  -0.2328
  C  C238  1  0.909600  0.020300  0.884000  1.0  -0.0006
  C  C239  1  0.191600  0.894500  0.362300  1.0  -0.23
  C  C240  1  0.032800  0.096000  0.397100  1.0  -0.2077
  C  C241  1  0.135100  0.556000  0.974300  1.0  0.0124
  C  C242  1  0.593500  0.004600  0.123900  1.0  -0.0019
  C  C243  1  0.837600  0.320700  0.753100  1.0  0.0556
  C  C244  1  0.113300  0.073100  0.527100  1.0  0.0128
  C  C245  1  0.006800  0.067500  0.801600  1.0  0.192
  C  C246  1  0.981200  0.010300  0.845800  1.0  -0.1772
  C  C247  1  0.009100  0.134900  0.461200  1.0  0.0028
  C  C248  1  0.383800  0.808700  0.277100  1.0  0.6412
  C  C249  1  0.144900  0.784300  0.187560  1.0  0.1628
  C  C250  1  0.953000  0.356100  0.094400  1.0  0.6469
  C  C251  1  0.290000  0.764100  0.964900  1.0  -0.1456
  C  C252  1  0.247700  0.775900  0.891990  1.0  -0.0209
  C  C253  1  0.365500  0.792200  0.800740  1.0  0.1686
  C  C254  1  0.227600  0.686000  0.200800  1.0  -0.1163
  C  C255  1  0.268900  0.774300  0.102210  1.0  -0.0222
  C  C256  1  0.399200  0.869200  0.818980  1.0  0.1804
  C  C257  1  0.612500  0.704200  0.765700  1.0  0.6555
  C  C258  1  0.675900  0.648700  0.789500  1.0  -0.1722
  C  C259  1  0.685000  0.136900  0.704800  1.0  -0.1816
  C  C260  1  0.902700  0.955100  0.602000  1.0  0.2994
  C  C261  1  0.973600  0.832600  0.402700  1.0  0.6514
  C  C262  1  0.800000  0.548800  0.824200  1.0  0.2771
  C  C263  1  0.885900  0.469400  0.898800  1.0  0.2963
  C  C264  1  0.368900  0.924200  0.869000  1.0  -0.1851
  C  C265  1  0.744800  0.526500  0.770000  1.0  -0.2382
  C  C266  1  0.976000  0.386600  0.961700  1.0  0.0058
  C  C267  1  0.229100  0.760000  0.027590  1.0  -0.147
  C  C268  1  0.815200  0.038900  0.676600  1.0  0.2703
  C  C269  1  0.105000  0.857000  0.168810  1.0  0.184
  C  C270  1  0.353200  0.682300  0.739100  1.0  0.044
  C  C271  1  0.950700  0.875900  0.472700  1.0  -0.1908
  C  C272  1  0.683900  0.576900  0.752500  1.0  -0.0058
  C  C273  1  0.953700  0.422700  0.897900  1.0  -0.2315
  C  C274  1  0.694600  0.070500  0.743500  1.0  -0.0017
  C  C275  1  0.758700  0.020800  0.729800  1.0  -0.2361
  C  C276  1  0.861800  0.965700  0.537800  1.0  -0.2545
  C  C277  1  0.841500  0.480900  0.962600  1.0  -0.262
  C  C278  1  0.472600  0.010600  0.833900  1.0  -0.1674
  C  C279  1  0.134500  0.912500  0.123900  1.0  -0.1935
  C  C280  1  0.931400  0.396600  0.026100  1.0  -0.2064
  C  C281  1  0.731100  0.668600  0.845100  1.0  0.0061
  C  C282  1  0.742300  0.153500  0.651400  1.0  -0.0021
  C  C283  1  0.500900  0.953200  0.784800  1.0  0.1888
  C  C284  1  0.291000  0.686500  0.788600  1.0  -0.1118
  C  C285  1  0.793800  0.618900  0.862500  1.0  -0.2376
  C  C286  1  0.090400  0.979700  0.116000  1.0  0.0049
  C  C287  1  0.808400  0.105500  0.637700  1.0  -0.2314
  C  C288  1  0.967200  0.904000  0.602900  1.0  -0.2118
  C  C289  1  0.864900  0.444000  0.025700  1.0  0.0147
  C  C290  1  0.406500  0.995400  0.876100  1.0  0.0
  C  C291  1  0.162400  0.679300  0.246900  1.0  0.0551
  C  C292  1  0.886700  0.926900  0.472900  1.0  0.0121
  C  C293  1  0.993200  0.932500  0.198400  1.0  0.1935
  C  C294  1  0.018800  0.989700  0.154200  1.0  -0.1779
  C  C295  1  0.990900  0.865100  0.538800  1.0  0.0025
  C  C296  1  0.616200  0.191300  0.722900  1.0  0.6393
  C  C297  1  0.355100  0.284300  0.687560  1.0  0.1637
  C  C298  1  0.547000  0.856100  0.594400  1.0  0.6465
  C  C299  1  0.210000  0.264100  0.464900  1.0  -0.1456
  C  C300  1  0.252300  0.275900  0.391990  1.0  -0.0201
  C  C301  1  0.134500  0.292200  0.300740  1.0  0.1676
  C  C302  1  0.272400  0.186000  0.700800  1.0  -0.1161
  C  C303  1  0.231100  0.274300  0.602210  1.0  -0.022
  C  C304  1  0.100800  0.369200  0.318980  1.0  0.1811
  C  C305  1  0.887500  0.204200  0.265700  1.0  0.6568
  C  C306  1  0.824100  0.148700  0.289500  1.0  -0.1722
  C  C307  1  0.815000  0.636900  0.204800  1.0  -0.1823
  C  C308  1  0.597300  0.455100  0.102000  1.0  0.2998
  C  C309  1  0.526400  0.332600  0.902700  1.0  0.6514
  C  C310  1  0.700000  0.048800  0.324200  1.0  0.2778
  C  C311  1  0.614100  0.969400  0.398800  1.0  0.2963
  C  C312  1  0.131100  0.424200  0.369000  1.0  -0.1857
  C  C313  1  0.755200  0.026500  0.270000  1.0  -0.2373
  C  C314  1  0.524000  0.886600  0.461700  1.0  0.0063
  C  C315  1  0.270900  0.260000  0.527590  1.0  -0.1477
  C  C316  1  0.684800  0.538900  0.176600  1.0  0.27
  C  C317  1  0.395000  0.357000  0.668810  1.0  0.1848
  C  C318  1  0.146800  0.182300  0.239100  1.0  0.0446
  C  C319  1  0.549300  0.375900  0.972700  1.0  -0.1927
  C  C320  1  0.816100  0.076900  0.252500  1.0  -0.0064
  C  C321  1  0.546300  0.922700  0.397900  1.0  -0.2309
  C  C322  1  0.805400  0.570500  0.243500  1.0  -0.0042
  C  C323  1  0.741300  0.520800  0.229800  1.0  -0.2363
  C  C324  1  0.638200  0.465700  0.037800  1.0  -0.2553
  C  C325  1  0.658500  0.980900  0.462600  1.0  -0.2616
  C  C326  1  0.027400  0.510600  0.333900  1.0  -0.1697
  C  C327  1  0.365500  0.412500  0.623900  1.0  -0.1928
  C  C328  1  0.568600  0.896600  0.526100  1.0  -0.2059
  C  C329  1  0.768900  0.168600  0.345100  1.0  0.0066
  C  C330  1  0.757700  0.653500  0.151400  1.0  -0.004
  C  C331  1  0.999100  0.453200  0.284800  1.0  0.1903
  C  C332  1  0.209000  0.186500  0.288600  1.0  -0.1127
  C  C333  1  0.706200  0.118900  0.362500  1.0  -0.2373
  C  C334  1  0.409600  0.479700  0.616000  1.0  0.0043
  C  C335  1  0.691600  0.605500  0.137700  1.0  -0.2311
  C  C336  1  0.532800  0.404000  0.102900  1.0  -0.211
  C  C337  1  0.635100  0.944000  0.525700  1.0  0.0135
  C  C338  1  0.093500  0.495400  0.376100  1.0  0.0009
  C  C339  1  0.337600  0.179300  0.746900  1.0  0.0555
  C  C340  1  0.613300  0.426900  0.972900  1.0  0.0108
  C  C341  1  0.506800  0.432500  0.698400  1.0  0.1932
  C  C342  1  0.481200  0.489700  0.654200  1.0  -0.178
  C  C343  1  0.509100  0.365100  0.038800  1.0  0.003
  C  C344  1  0.883800  0.691300  0.222900  1.0  0.6398
  N  N345  1  0.799820  0.744190  0.672170  1.0  0.0396
  N  N346  1  0.715380  0.747670  0.336740  1.0  0.0398
  N  N347  1  0.966360  0.615950  0.721730  1.0  -0.3029
  N  N348  1  0.533700  0.632850  0.294870  1.0  -0.3116
  N  N349  1  0.611700  0.759240  0.261470  1.0  -0.3803
  N  N350  1  0.898690  0.751760  0.753180  1.0  -0.3653
  N  N351  1  0.700180  0.244190  0.172170  1.0  0.0395
  N  N352  1  0.784620  0.247670  0.836740  1.0  0.0398
  N  N353  1  0.533640  0.115950  0.221730  1.0  -0.3032
  N  N354  1  0.966300  0.132850  0.794870  1.0  -0.3118
  N  N355  1  0.888300  0.259240  0.761470  1.0  -0.3811
  N  N356  1  0.601310  0.251760  0.253180  1.0  -0.3662
  N  N357  1  0.299820  0.755810  0.827830  1.0  0.0394
  N  N358  1  0.215380  0.752330  0.163260  1.0  0.0405
  N  N359  1  0.466360  0.884050  0.778270  1.0  -0.3026
  N  N360  1  0.033700  0.867150  0.205130  1.0  -0.311
  N  N361  1  0.111700  0.740760  0.238530  1.0  -0.3819
  N  N362  1  0.398690  0.748240  0.746820  1.0  -0.366
  N  N363  1  0.200180  0.255810  0.327830  1.0  0.0394
  N  N364  1  0.284620  0.252330  0.663260  1.0  0.0405
  N  N365  1  0.033640  0.384050  0.278270  1.0  -0.304
  N  N366  1  0.466300  0.367150  0.705130  1.0  -0.3116
  N  N367  1  0.388300  0.240760  0.738530  1.0  -0.3805
  N  N368  1  0.101310  0.248240  0.246820  1.0  -0.3659
  O  O369  1  0.516300  0.186370  0.404570  1.0  -0.5918
  O  O370  1  0.366440  0.000440  0.668210  1.0  -0.2648
  O  O371  1  0.408610  0.136140  0.349370  1.0  -0.5798
  O  O372  1  0.073970  0.810350  0.793540  1.0  -0.6086
  O  O373  1  0.382450  0.509750  0.830380  1.0  -0.2736
  O  O374  1  0.099100  0.735300  0.697370  1.0  -0.5956
  O  O375  1  0.527200  0.718100  0.098910  1.0  -0.5989
  O  O376  1  0.435000  0.651710  0.155440  1.0  -0.6043
  O  O377  1  0.068270  0.324000  0.725900  1.0  -0.5934
  O  O378  1  0.107000  0.249000  0.812100  1.0  -0.5936
  O  O379  1  0.983700  0.686370  0.904570  1.0  -0.5924
  O  O380  1  0.133560  0.500440  0.168210  1.0  -0.2654
  O  O381  1  0.091390  0.636140  0.849370  1.0  -0.5811
  O  O382  1  0.426030  0.310350  0.293540  1.0  -0.609
  O  O383  1  0.117550  0.009750  0.330380  1.0  -0.2731
  O  O384  1  0.400900  0.235300  0.197370  1.0  -0.5958
  O  O385  1  0.972800  0.218100  0.598910  1.0  -0.5998
  O  O386  1  0.065000  0.151710  0.655440  1.0  -0.606
  O  O387  1  0.431730  0.824000  0.225900  1.0  -0.593
  O  O388  1  0.393000  0.749000  0.312100  1.0  -0.5942
  O  O389  1  0.016300  0.313630  0.095430  1.0  -0.5923
  O  O390  1  0.866440  0.499560  0.831790  1.0  -0.2654
  O  O391  1  0.908610  0.363860  0.150630  1.0  -0.579
  O  O392  1  0.573970  0.689650  0.706460  1.0  -0.6091
  O  O393  1  0.882450  0.990250  0.669620  1.0  -0.2741
  O  O394  1  0.599100  0.764700  0.802630  1.0  -0.5936
  O  O395  1  0.027200  0.781900  0.401090  1.0  -0.5973
  O  O396  1  0.935000  0.848290  0.344560  1.0  -0.6031
  O  O397  1  0.568270  0.176000  0.774100  1.0  -0.5943
  O  O398  1  0.607000  0.251000  0.687900  1.0  -0.5923
  O  O399  1  0.483700  0.813630  0.595430  1.0  -0.593
  O  O400  1  0.633560  0.999560  0.331790  1.0  -0.2657
  O  O401  1  0.591390  0.863860  0.650630  1.0  -0.5799
  O  O402  1  0.926030  0.189650  0.206460  1.0  -0.6101
  O  O403  1  0.617550  0.490250  0.169620  1.0  -0.2731
  O  O404  1  0.900900  0.264700  0.302630  1.0  -0.5944
  O  O405  1  0.472800  0.281900  0.901090  1.0  -0.597
  O  O406  1  0.565000  0.348290  0.844560  1.0  -0.6048
  O  O407  1  0.931730  0.676000  0.274100  1.0  -0.5939
  O  O408  1  0.893000  0.751000  0.187900  1.0  -0.5932
