# generated using pymatgen
data_Zn3P4H22(C5O6)2
_symmetry_space_group_name_H-M   'P 1'
_cell_length_a   24.40800000
_cell_length_b   27.82700000
_cell_length_c   5.15090000
_cell_angle_alpha   90.00000000
_cell_angle_beta   90.00000000
_cell_angle_gamma   90.00000000
_symmetry_Int_Tables_number   1
_chemical_formula_structural   Zn3P4H22(C5O6)2
_chemical_formula_sum   'Zn12 P16 H88 C40 O48'
_cell_volume   3498.49857367
_cell_formula_units_Z   4
loop_
 _symmetry_equiv_pos_site_id
 _symmetry_equiv_pos_as_xyz
  1  'x, y, z'
loop_
 _atom_site_type_symbol
 _atom_site_label
 _atom_site_symmetry_multiplicity
 _atom_site_fract_x
 _atom_site_fract_y
 _atom_site_fract_z
 _atom_site_occupancy
 _atom_site_charge
  Zn  Zn1  1  0.464910  0.450700  0.287110  1.0  1.0148
  Zn  Zn2  1  0.035090  0.049300  0.287110  1.0  1.0163
  Zn  Zn3  1  0.535090  0.950700  0.712890  1.0  1.0166
  Zn  Zn4  1  0.964910  0.549300  0.712890  1.0  1.0144
  Zn  Zn5  1  0.535090  0.549300  0.712890  1.0  1.0161
  Zn  Zn6  1  0.964910  0.950700  0.712890  1.0  1.0146
  Zn  Zn7  1  0.464910  0.049300  0.287110  1.0  1.0145
  Zn  Zn8  1  0.035090  0.450700  0.287110  1.0  1.0169
  Zn  Zn9  1  0.461380  0.250000  0.306100  1.0  0.8127
  Zn  Zn10  1  0.038620  0.250000  0.306100  1.0  0.8126
  Zn  Zn11  1  0.538620  0.750000  0.693900  1.0  0.8137
  Zn  Zn12  1  0.961380  0.750000  0.693900  1.0  0.8146
  P  P13  1  0.581250  0.501630  0.224000  1.0  1.5655
  P  P14  1  0.416710  0.354130  0.076800  1.0  1.4951
  P  P15  1  0.918750  0.998370  0.224000  1.0  1.563
  P  P16  1  0.083290  0.145870  0.076800  1.0  1.4873
  P  P17  1  0.418750  0.001630  0.776000  1.0  1.5644
  P  P18  1  0.583290  0.854130  0.923200  1.0  1.4843
  P  P19  1  0.081250  0.498370  0.776000  1.0  1.5655
  P  P20  1  0.916710  0.645870  0.923200  1.0  1.4945
  P  P21  1  0.418750  0.498370  0.776000  1.0  1.5632
  P  P22  1  0.583290  0.645870  0.923200  1.0  1.4864
  P  P23  1  0.081250  0.001630  0.776000  1.0  1.5663
  P  P24  1  0.916710  0.854130  0.923200  1.0  1.4947
  P  P25  1  0.581250  0.998370  0.224000  1.0  1.5648
  P  P26  1  0.416710  0.145870  0.076800  1.0  1.4951
  P  P27  1  0.918750  0.501630  0.224000  1.0  1.5639
  P  P28  1  0.083290  0.354130  0.076800  1.0  1.485
  H  H29  1  0.413600  0.392600  0.746200  1.0  0.3986
  H  H30  1  0.649000  0.477500  0.505800  1.0  0.1488
  H  H31  1  0.652300  0.447400  0.242900  1.0  0.1304
  H  H32  1  0.301700  0.361400  0.883200  1.0  0.0771
  H  H33  1  0.303100  0.318600  0.090800  1.0  0.0718
  H  H34  1  0.350800  0.369900  0.385000  1.0  0.129
  H  H35  1  0.351200  0.411100  0.169400  1.0  0.1151
  H  H36  1  0.697100  0.512200  0.037600  1.0  0.0862
  H  H37  1  0.693400  0.542800  0.300300  1.0  0.0818
  H  H38  1  0.086400  0.107400  0.746200  1.0  0.3959
  H  H39  1  0.851000  0.022500  0.505800  1.0  0.1477
  H  H40  1  0.847700  0.052600  0.242900  1.0  0.134
  H  H41  1  0.198300  0.138600  0.883200  1.0  0.0777
  H  H42  1  0.196900  0.181400  0.090800  1.0  0.0736
  H  H43  1  0.149200  0.130100  0.385000  1.0  0.1289
  H  H44  1  0.148800  0.088900  0.169400  1.0  0.1155
  H  H45  1  0.802900  0.987800  0.037600  1.0  0.086
  H  H46  1  0.806600  0.957200  0.300300  1.0  0.0847
  H  H47  1  0.586400  0.892600  0.253800  1.0  0.3978
  H  H48  1  0.351000  0.977500  0.494200  1.0  0.1474
  H  H49  1  0.347700  0.947400  0.757100  1.0  0.1312
  H  H50  1  0.698300  0.861400  0.116800  1.0  0.0766
  H  H51  1  0.696900  0.818600  0.909200  1.0  0.0714
  H  H52  1  0.649200  0.869900  0.615000  1.0  0.1296
  H  H53  1  0.648800  0.911100  0.830600  1.0  0.1154
  H  H54  1  0.302900  0.012200  0.962400  1.0  0.0846
  H  H55  1  0.306600  0.042800  0.699700  1.0  0.0818
  H  H56  1  0.913600  0.607400  0.253800  1.0  0.3972
  H  H57  1  0.149000  0.522500  0.494200  1.0  0.1478
  H  H58  1  0.152300  0.552600  0.757100  1.0  0.1352
  H  H59  1  0.801700  0.638600  0.116800  1.0  0.0766
  H  H60  1  0.803100  0.681400  0.909200  1.0  0.0731
  H  H61  1  0.850800  0.630100  0.615000  1.0  0.1293
  H  H62  1  0.851200  0.588900  0.830600  1.0  0.116
  H  H63  1  0.197100  0.487800  0.962400  1.0  0.0844
  H  H64  1  0.193400  0.457200  0.699700  1.0  0.0843
  H  H65  1  0.586400  0.607400  0.253800  1.0  0.3965
  H  H66  1  0.351000  0.522500  0.494200  1.0  0.1483
  H  H67  1  0.347700  0.552600  0.757100  1.0  0.1343
  H  H68  1  0.698300  0.638600  0.116800  1.0  0.0766
  H  H69  1  0.696900  0.681400  0.909200  1.0  0.0734
  H  H70  1  0.649200  0.630100  0.615000  1.0  0.1291
  H  H71  1  0.648800  0.588900  0.830600  1.0  0.1156
  H  H72  1  0.302900  0.487800  0.962400  1.0  0.0843
  H  H73  1  0.306600  0.457200  0.699700  1.0  0.0853
  H  H74  1  0.913600  0.892600  0.253800  1.0  0.3986
  H  H75  1  0.149000  0.977500  0.494200  1.0  0.1473
  H  H76  1  0.152300  0.947400  0.757100  1.0  0.1318
  H  H77  1  0.801700  0.861400  0.116800  1.0  0.0767
  H  H78  1  0.803100  0.818600  0.909200  1.0  0.0711
  H  H79  1  0.850800  0.869900  0.615000  1.0  0.1297
  H  H80  1  0.851200  0.911100  0.830600  1.0  0.1151
  H  H81  1  0.197100  0.012200  0.962400  1.0  0.0849
  H  H82  1  0.193400  0.042800  0.699700  1.0  0.0817
  H  H83  1  0.413600  0.107400  0.746200  1.0  0.3974
  H  H84  1  0.649000  0.022500  0.505800  1.0  0.1477
  H  H85  1  0.652300  0.052600  0.242900  1.0  0.1342
  H  H86  1  0.301700  0.138600  0.883200  1.0  0.0777
  H  H87  1  0.303100  0.181400  0.090800  1.0  0.0733
  H  H88  1  0.350800  0.130100  0.385000  1.0  0.129
  H  H89  1  0.351200  0.088900  0.169400  1.0  0.1159
  H  H90  1  0.697100  0.987800  0.037600  1.0  0.0866
  H  H91  1  0.693400  0.957200  0.300300  1.0  0.0838
  H  H92  1  0.086400  0.392600  0.746200  1.0  0.3972
  H  H93  1  0.851000  0.477500  0.505800  1.0  0.1484
  H  H94  1  0.847700  0.447400  0.242900  1.0  0.1302
  H  H95  1  0.198300  0.361400  0.883200  1.0  0.0769
  H  H96  1  0.196900  0.318600  0.090800  1.0  0.0721
  H  H97  1  0.149200  0.369900  0.385000  1.0  0.1288
  H  H98  1  0.148800  0.411100  0.169400  1.0  0.1155
  H  H99  1  0.802900  0.512200  0.037600  1.0  0.0858
  H  H100  1  0.806600  0.542800  0.300300  1.0  0.082
  H  H101  1  0.750000  0.453700  0.268700  1.0  0.0681
  H  H102  1  0.750000  0.488700  0.513200  1.0  0.0875
  H  H103  1  0.750000  0.046300  0.268700  1.0  0.0742
  H  H104  1  0.750000  0.011300  0.513200  1.0  0.0875
  H  H105  1  0.250000  0.953700  0.731300  1.0  0.0688
  H  H106  1  0.250000  0.988700  0.486800  1.0  0.0876
  H  H107  1  0.250000  0.546300  0.731300  1.0  0.0741
  H  H108  1  0.250000  0.511300  0.486800  1.0  0.0899
  H  H109  1  0.250000  0.408100  0.178600  1.0  0.0716
  H  H110  1  0.250000  0.364100  0.377800  1.0  0.0774
  H  H111  1  0.250000  0.091900  0.178600  1.0  0.0691
  H  H112  1  0.250000  0.135900  0.377800  1.0  0.0772
  H  H113  1  0.750000  0.908100  0.821400  1.0  0.0719
  H  H114  1  0.750000  0.864100  0.622200  1.0  0.0796
  H  H115  1  0.750000  0.591900  0.821400  1.0  0.07
  H  H116  1  0.750000  0.635900  0.622200  1.0  0.0808
  C  C117  1  0.647900  0.480200  0.314200  1.0  -0.4785
  C  C118  1  0.301800  0.353900  0.071200  1.0  -0.0721
  C  C119  1  0.352400  0.375900  0.195700  1.0  -0.4334
  C  C120  1  0.696800  0.509800  0.229400  1.0  -0.06
  C  C121  1  0.852100  0.019800  0.314200  1.0  -0.4797
  C  C122  1  0.198200  0.146100  0.071200  1.0  -0.0736
  C  C123  1  0.147600  0.124100  0.195700  1.0  -0.4358
  C  C124  1  0.803200  0.990200  0.229400  1.0  -0.0618
  C  C125  1  0.352100  0.980200  0.685800  1.0  -0.4787
  C  C126  1  0.698200  0.853900  0.928800  1.0  -0.072
  C  C127  1  0.647600  0.875900  0.804300  1.0  -0.4355
  C  C128  1  0.303200  0.009800  0.770600  1.0  -0.0616
  C  C129  1  0.147900  0.519800  0.685800  1.0  -0.4794
  C  C130  1  0.801800  0.646100  0.928800  1.0  -0.0748
  C  C131  1  0.852400  0.624100  0.804300  1.0  -0.433
  C  C132  1  0.196800  0.490200  0.770600  1.0  -0.0609
  C  C133  1  0.352100  0.519800  0.685800  1.0  -0.4795
  C  C134  1  0.698200  0.646100  0.928800  1.0  -0.0749
  C  C135  1  0.647600  0.624100  0.804300  1.0  -0.4351
  C  C136  1  0.303200  0.490200  0.770600  1.0  -0.0619
  C  C137  1  0.147900  0.980200  0.685800  1.0  -0.4799
  C  C138  1  0.801800  0.853900  0.928800  1.0  -0.0727
  C  C139  1  0.852400  0.875900  0.804300  1.0  -0.4328
  C  C140  1  0.196800  0.009800  0.770600  1.0  -0.0598
  C  C141  1  0.647900  0.019800  0.314200  1.0  -0.479
  C  C142  1  0.301800  0.146100  0.071200  1.0  -0.0736
  C  C143  1  0.352400  0.124100  0.195700  1.0  -0.4342
  C  C144  1  0.696800  0.990200  0.229400  1.0  -0.0608
  C  C145  1  0.852100  0.480200  0.314200  1.0  -0.4777
  C  C146  1  0.198200  0.353900  0.071200  1.0  -0.0714
  C  C147  1  0.147600  0.375900  0.195700  1.0  -0.436
  C  C148  1  0.803200  0.509800  0.229400  1.0  -0.062
  C  C149  1  0.750000  0.487900  0.321000  1.0  -0.0955
  C  C150  1  0.750000  0.012100  0.321000  1.0  -0.0949
  C  C151  1  0.250000  0.987900  0.679000  1.0  -0.0943
  C  C152  1  0.250000  0.512100  0.679000  1.0  -0.0938
  C  C153  1  0.250000  0.372600  0.191000  1.0  -0.0919
  C  C154  1  0.250000  0.127400  0.191000  1.0  -0.0934
  C  C155  1  0.750000  0.872600  0.809000  1.0  -0.0918
  C  C156  1  0.750000  0.627400  0.809000  1.0  -0.0927
  O  O157  1  0.579570  0.509700  0.936000  1.0  -0.7956
  O  O158  1  0.541700  0.462700  0.318700  1.0  -0.8357
  O  O159  1  0.569700  0.548470  0.372200  1.0  -0.8502
  O  O160  1  0.463380  0.382500  0.199100  1.0  -0.7869
  O  O161  1  0.415900  0.363000  0.775700  1.0  -0.6147
  O  O162  1  0.421100  0.301200  0.105100  1.0  -0.8466
  O  O163  1  0.920430  0.990300  0.936000  1.0  -0.7936
  O  O164  1  0.958300  0.037300  0.318700  1.0  -0.8356
  O  O165  1  0.930300  0.951530  0.372200  1.0  -0.8523
  O  O166  1  0.036620  0.117500  0.199100  1.0  -0.7869
  O  O167  1  0.084100  0.137000  0.775700  1.0  -0.6164
  O  O168  1  0.078900  0.198800  0.105100  1.0  -0.8504
  O  O169  1  0.420430  0.009700  0.064000  1.0  -0.7936
  O  O170  1  0.458300  0.962700  0.681300  1.0  -0.8339
  O  O171  1  0.430300  0.048470  0.627800  1.0  -0.8518
  O  O172  1  0.536620  0.882500  0.800900  1.0  -0.7843
  O  O173  1  0.584100  0.863000  0.224300  1.0  -0.6149
  O  O174  1  0.578900  0.801200  0.894900  1.0  -0.8461
  O  O175  1  0.079570  0.490300  0.064000  1.0  -0.7941
  O  O176  1  0.041700  0.537300  0.681300  1.0  -0.8363
  O  O177  1  0.069700  0.451530  0.627800  1.0  -0.8499
  O  O178  1  0.963380  0.617500  0.800900  1.0  -0.7862
  O  O179  1  0.915900  0.637000  0.224300  1.0  -0.6147
  O  O180  1  0.921100  0.698800  0.894900  1.0  -0.8516
  O  O181  1  0.420430  0.490300  0.064000  1.0  -0.7935
  O  O182  1  0.458300  0.537300  0.681300  1.0  -0.8347
  O  O183  1  0.430300  0.451530  0.627800  1.0  -0.8527
  O  O184  1  0.536620  0.617500  0.800900  1.0  -0.7864
  O  O185  1  0.584100  0.637000  0.224300  1.0  -0.6161
  O  O186  1  0.578900  0.698800  0.894900  1.0  -0.8503
  O  O187  1  0.079570  0.009700  0.064000  1.0  -0.7937
  O  O188  1  0.041700  0.962700  0.681300  1.0  -0.8352
  O  O189  1  0.069700  0.048470  0.627800  1.0  -0.8505
  O  O190  1  0.963380  0.882500  0.800900  1.0  -0.7863
  O  O191  1  0.915900  0.863000  0.224300  1.0  -0.6145
  O  O192  1  0.921100  0.801200  0.894900  1.0  -0.8471
  O  O193  1  0.579570  0.990300  0.936000  1.0  -0.7945
  O  O194  1  0.541700  0.037300  0.318700  1.0  -0.8371
  O  O195  1  0.569700  0.951530  0.372200  1.0  -0.8512
  O  O196  1  0.463380  0.117500  0.199100  1.0  -0.7869
  O  O197  1  0.415900  0.137000  0.775700  1.0  -0.6146
  O  O198  1  0.421100  0.198800  0.105100  1.0  -0.8513
  O  O199  1  0.920430  0.509700  0.936000  1.0  -0.7947
  O  O200  1  0.958300  0.462700  0.318700  1.0  -0.8345
  O  O201  1  0.930300  0.548470  0.372200  1.0  -0.8528
  O  O202  1  0.036620  0.382500  0.199100  1.0  -0.785
  O  O203  1  0.084100  0.363000  0.775700  1.0  -0.6158
  O  O204  1  0.078900  0.301200  0.105100  1.0  -0.8456
