# generated using pymatgen
data_Zn3P4H14(CO2)6
_symmetry_space_group_name_H-M   'P 1'
_cell_length_a   19.39700000
_cell_length_b   27.62000000
_cell_length_c   5.16550000
_cell_angle_alpha   90.00000000
_cell_angle_beta   90.00000000
_cell_angle_gamma   90.00000000
_symmetry_Int_Tables_number   1
_chemical_formula_structural   Zn3P4H14(CO2)6
_chemical_formula_sum   'Zn12 P16 H56 C24 O48'
_cell_volume   2767.39152067
_cell_formula_units_Z   4
loop_
 _symmetry_equiv_pos_site_id
 _symmetry_equiv_pos_as_xyz
  1  'x, y, z'
loop_
 _atom_site_type_symbol
 _atom_site_label
 _atom_site_symmetry_multiplicity
 _atom_site_fract_x
 _atom_site_fract_y
 _atom_site_fract_z
 _atom_site_occupancy
 _atom_site_charge
  Zn  Zn1  1  0.546160  0.952020  0.779620  1.0  1.0416
  Zn  Zn2  1  0.953840  0.547980  0.779620  1.0  1.0396
  Zn  Zn3  1  0.453840  0.452020  0.220380  1.0  1.0399
  Zn  Zn4  1  0.046160  0.047980  0.220380  1.0  1.041
  Zn  Zn5  1  0.453840  0.047980  0.220380  1.0  1.0396
  Zn  Zn6  1  0.046160  0.452020  0.220380  1.0  1.0414
  Zn  Zn7  1  0.546160  0.547980  0.779620  1.0  1.0412
  Zn  Zn8  1  0.953840  0.952020  0.779620  1.0  1.0398
  Zn  Zn9  1  0.450090  0.250000  0.205590  1.0  0.8573
  Zn  Zn10  1  0.049910  0.250000  0.205590  1.0  0.8544
  Zn  Zn11  1  0.549910  0.750000  0.794410  1.0  0.8536
  Zn  Zn12  1  0.950090  0.750000  0.794410  1.0  0.8557
  P  P13  1  0.396650  0.999330  0.735350  1.0  1.5668
  P  P14  1  0.394720  0.145460  0.440690  1.0  1.5261
  P  P15  1  0.103350  0.500670  0.735350  1.0  1.5665
  P  P16  1  0.105280  0.354540  0.440690  1.0  1.5247
  P  P17  1  0.603350  0.499330  0.264650  1.0  1.5658
  P  P18  1  0.605280  0.645460  0.559310  1.0  1.5279
  P  P19  1  0.896650  0.000670  0.264650  1.0  1.5671
  P  P20  1  0.894720  0.854540  0.559310  1.0  1.5253
  P  P21  1  0.603350  0.000670  0.264650  1.0  1.5665
  P  P22  1  0.605280  0.854540  0.559310  1.0  1.5246
  P  P23  1  0.896650  0.499330  0.264650  1.0  1.5667
  P  P24  1  0.894720  0.645460  0.559310  1.0  1.5265
  P  P25  1  0.396650  0.500670  0.735350  1.0  1.5672
  P  P26  1  0.394720  0.354540  0.440690  1.0  1.5252
  P  P27  1  0.103350  0.999330  0.735350  1.0  1.5657
  P  P28  1  0.105280  0.145460  0.440690  1.0  1.5275
  H  H29  1  0.311800  0.941200  0.733900  1.0  0.1432
  H  H30  1  0.313200  0.968600  0.005400  1.0  0.1566
  H  H31  1  0.313100  0.129700  0.128200  1.0  0.141
  H  H32  1  0.312500  0.088200  0.343000  1.0  0.1394
  H  H33  1  0.395500  0.106500  0.770800  1.0  0.4173
  H  H34  1  0.188200  0.558800  0.733900  1.0  0.1478
  H  H35  1  0.186800  0.531400  0.005400  1.0  0.1588
  H  H36  1  0.186900  0.370300  0.128200  1.0  0.1417
  H  H37  1  0.187500  0.411800  0.343000  1.0  0.1394
  H  H38  1  0.104500  0.393500  0.770800  1.0  0.4184
  H  H39  1  0.688200  0.441200  0.266100  1.0  0.1443
  H  H40  1  0.686800  0.468600  0.994600  1.0  0.1573
  H  H41  1  0.686900  0.629700  0.871800  1.0  0.1411
  H  H42  1  0.687500  0.588200  0.657000  1.0  0.1396
  H  H43  1  0.604500  0.606500  0.229200  1.0  0.4167
  H  H44  1  0.811800  0.058800  0.266100  1.0  0.1472
  H  H45  1  0.813200  0.031400  0.994600  1.0  0.1596
  H  H46  1  0.813100  0.870300  0.871800  1.0  0.1409
  H  H47  1  0.812500  0.911800  0.657000  1.0  0.1392
  H  H48  1  0.895500  0.893500  0.229200  1.0  0.4185
  H  H49  1  0.688200  0.058800  0.266100  1.0  0.1474
  H  H50  1  0.686800  0.031400  0.994600  1.0  0.1593
  H  H51  1  0.686900  0.870300  0.871800  1.0  0.1418
  H  H52  1  0.687500  0.911800  0.657000  1.0  0.1395
  H  H53  1  0.604500  0.893500  0.229200  1.0  0.4181
  H  H54  1  0.811800  0.441200  0.266100  1.0  0.1442
  H  H55  1  0.813200  0.468600  0.994600  1.0  0.1578
  H  H56  1  0.813100  0.629700  0.871800  1.0  0.1405
  H  H57  1  0.812500  0.588200  0.657000  1.0  0.1396
  H  H58  1  0.895500  0.606500  0.229200  1.0  0.4177
  H  H59  1  0.311800  0.558800  0.733900  1.0  0.1474
  H  H60  1  0.313200  0.531400  0.005400  1.0  0.1585
  H  H61  1  0.313100  0.370300  0.128200  1.0  0.1413
  H  H62  1  0.312500  0.411800  0.343000  1.0  0.1392
  H  H63  1  0.395500  0.393500  0.770800  1.0  0.4184
  H  H64  1  0.188200  0.941200  0.733900  1.0  0.1434
  H  H65  1  0.186800  0.968600  0.005400  1.0  0.1568
  H  H66  1  0.186900  0.129700  0.128200  1.0  0.1415
  H  H67  1  0.187500  0.088200  0.343000  1.0  0.1393
  H  H68  1  0.104500  0.106500  0.770800  1.0  0.4169
  H  H69  1  0.250000  0.033900  0.825100  1.0  0.1079
  H  H70  1  0.250000  0.007500  0.548500  1.0  0.1178
  H  H71  1  0.250000  0.181400  0.408600  1.0  0.1185
  H  H72  1  0.250000  0.140100  0.626800  1.0  0.1017
  H  H73  1  0.250000  0.466100  0.825100  1.0  0.1089
  H  H74  1  0.250000  0.492500  0.548500  1.0  0.1188
  H  H75  1  0.250000  0.318600  0.408600  1.0  0.1156
  H  H76  1  0.250000  0.359900  0.626800  1.0  0.1024
  H  H77  1  0.750000  0.533900  0.174900  1.0  0.1082
  H  H78  1  0.750000  0.507500  0.451500  1.0  0.1158
  H  H79  1  0.750000  0.681400  0.591400  1.0  0.1183
  H  H80  1  0.750000  0.640100  0.373200  1.0  0.1037
  H  H81  1  0.750000  0.966100  0.174900  1.0  0.1095
  H  H82  1  0.750000  0.992500  0.451500  1.0  0.1161
  H  H83  1  0.750000  0.818600  0.591400  1.0  0.1165
  H  H84  1  0.750000  0.859900  0.373200  1.0  0.1039
  C  C85  1  0.314560  0.973540  0.815600  1.0  -0.4911
  C  C86  1  0.314310  0.123680  0.317000  1.0  -0.4492
  C  C87  1  0.185440  0.526460  0.815600  1.0  -0.4914
  C  C88  1  0.185690  0.376320  0.317000  1.0  -0.4506
  C  C89  1  0.685440  0.473540  0.184400  1.0  -0.4918
  C  C90  1  0.685690  0.623680  0.683000  1.0  -0.4473
  C  C91  1  0.814560  0.026460  0.184400  1.0  -0.4911
  C  C92  1  0.814310  0.876320  0.683000  1.0  -0.4477
  C  C93  1  0.685440  0.026460  0.184400  1.0  -0.4907
  C  C94  1  0.685690  0.876320  0.683000  1.0  -0.4483
  C  C95  1  0.814560  0.473540  0.184400  1.0  -0.4915
  C  C96  1  0.814310  0.623680  0.683000  1.0  -0.4477
  C  C97  1  0.314560  0.526460  0.815600  1.0  -0.4914
  C  C98  1  0.314310  0.376320  0.317000  1.0  -0.4496
  C  C99  1  0.185440  0.973540  0.815600  1.0  -0.4917
  C  C100  1  0.185690  0.123680  0.317000  1.0  -0.4496
  C  C101  1  0.250000  0.002020  0.737900  1.0  -0.0944
  C  C102  1  0.250000  0.145970  0.437700  1.0  -0.0914
  C  C103  1  0.250000  0.497980  0.737900  1.0  -0.0943
  C  C104  1  0.250000  0.354030  0.437700  1.0  -0.0906
  C  C105  1  0.750000  0.502020  0.262100  1.0  -0.0941
  C  C106  1  0.750000  0.645970  0.562300  1.0  -0.0907
  C  C107  1  0.750000  0.997980  0.262100  1.0  -0.0945
  C  C108  1  0.750000  0.854030  0.562300  1.0  -0.0907
  O  O109  1  0.547180  0.883690  0.680800  1.0  -0.7627
  O  O110  1  0.601090  0.991640  0.553800  1.0  -0.7975
  O  O111  1  0.594690  0.952750  0.113600  1.0  -0.8503
  O  O112  1  0.449190  0.962340  0.831400  1.0  -0.8159
  O  O113  1  0.400740  0.199150  0.410000  1.0  -0.8549
  O  O114  1  0.393180  0.136350  0.741600  1.0  -0.6708
  O  O115  1  0.952820  0.616310  0.680800  1.0  -0.7619
  O  O116  1  0.898910  0.508360  0.553800  1.0  -0.7969
  O  O117  1  0.905310  0.547250  0.113600  1.0  -0.8516
  O  O118  1  0.050810  0.537660  0.831400  1.0  -0.8152
  O  O119  1  0.099260  0.300850  0.410000  1.0  -0.8526
  O  O120  1  0.106820  0.363650  0.741600  1.0  -0.6742
  O  O121  1  0.452820  0.383690  0.319200  1.0  -0.7617
  O  O122  1  0.398910  0.491640  0.446200  1.0  -0.7968
  O  O123  1  0.405310  0.452750  0.886400  1.0  -0.8522
  O  O124  1  0.550810  0.462340  0.168600  1.0  -0.8147
  O  O125  1  0.599260  0.699150  0.590000  1.0  -0.8551
  O  O126  1  0.606820  0.636350  0.258400  1.0  -0.6732
  O  O127  1  0.047180  0.116310  0.319200  1.0  -0.7643
  O  O128  1  0.101090  0.008360  0.446200  1.0  -0.7987
  O  O129  1  0.094690  0.047250  0.886400  1.0  -0.8508
  O  O130  1  0.949190  0.037660  0.168600  1.0  -0.8142
  O  O131  1  0.900740  0.800850  0.590000  1.0  -0.8525
  O  O132  1  0.893180  0.863650  0.258400  1.0  -0.6734
  O  O133  1  0.452820  0.116310  0.319200  1.0  -0.7615
  O  O134  1  0.398910  0.008360  0.446200  1.0  -0.7977
  O  O135  1  0.405310  0.047250  0.886400  1.0  -0.852
  O  O136  1  0.550810  0.037660  0.168600  1.0  -0.8143
  O  O137  1  0.599260  0.800850  0.590000  1.0  -0.8525
  O  O138  1  0.606820  0.863650  0.258400  1.0  -0.675
  O  O139  1  0.047180  0.383690  0.319200  1.0  -0.7622
  O  O140  1  0.101090  0.491640  0.446200  1.0  -0.7981
  O  O141  1  0.094690  0.452750  0.886400  1.0  -0.851
  O  O142  1  0.949190  0.462340  0.168600  1.0  -0.8147
  O  O143  1  0.900740  0.699150  0.590000  1.0  -0.8546
  O  O144  1  0.893180  0.636350  0.258400  1.0  -0.671
  O  O145  1  0.547180  0.616310  0.680800  1.0  -0.7648
  O  O146  1  0.601090  0.508360  0.553800  1.0  -0.7977
  O  O147  1  0.594690  0.547250  0.113600  1.0  -0.8503
  O  O148  1  0.449190  0.537660  0.831400  1.0  -0.8151
  O  O149  1  0.400740  0.300850  0.410000  1.0  -0.853
  O  O150  1  0.393180  0.363650  0.741600  1.0  -0.6726
  O  O151  1  0.952820  0.883690  0.680800  1.0  -0.7619
  O  O152  1  0.898910  0.991640  0.553800  1.0  -0.7963
  O  O153  1  0.905310  0.952750  0.113600  1.0  -0.8518
  O  O154  1  0.050810  0.962340  0.831400  1.0  -0.816
  O  O155  1  0.099260  0.199150  0.410000  1.0  -0.855
  O  O156  1  0.106820  0.136350  0.741600  1.0  -0.673
