# generated using pymatgen
data_Zn2P3H13(C2O3)3
_symmetry_space_group_name_H-M   'P 1'
_cell_length_a   10.55360000
_cell_length_b   17.31300000
_cell_length_c   10.39370000
_cell_angle_alpha   90.00000000
_cell_angle_beta   99.50200000
_cell_angle_gamma   90.00000000
_symmetry_Int_Tables_number   1
_chemical_formula_structural   Zn2P3H13(C2O3)3
_chemical_formula_sum   'Zn8 P12 H52 C24 O36'
_cell_volume   1873.02378291
_cell_formula_units_Z   4
loop_
 _symmetry_equiv_pos_site_id
 _symmetry_equiv_pos_as_xyz
  1  'x, y, z'
loop_
 _atom_site_type_symbol
 _atom_site_label
 _atom_site_symmetry_multiplicity
 _atom_site_fract_x
 _atom_site_fract_y
 _atom_site_fract_z
 _atom_site_occupancy
 _atom_site_charge
  Zn  Zn1  1  0.151300  0.165190  0.822310  1.0  1.0805
  Zn  Zn2  1  0.949980  0.167240  0.116380  1.0  1.066
  Zn  Zn3  1  0.848700  0.665190  0.677690  1.0  1.0826
  Zn  Zn4  1  0.050020  0.667240  0.383620  1.0  1.0655
  Zn  Zn5  1  0.848700  0.834810  0.177690  1.0  1.0822
  Zn  Zn6  1  0.050020  0.832760  0.883620  1.0  1.0657
  Zn  Zn7  1  0.151300  0.334810  0.322310  1.0  1.0806
  Zn  Zn8  1  0.949980  0.332760  0.616380  1.0  1.066
  P  P9  1  0.870000  0.286250  0.326000  1.0  1.5563
  P  P10  1  0.225600  0.226700  0.100000  1.0  1.5775
  P  P11  1  0.789200  0.009000  0.063400  1.0  1.5443
  P  P12  1  0.130000  0.786250  0.174000  1.0  1.5552
  P  P13  1  0.774400  0.726700  0.400000  1.0  1.5809
  P  P14  1  0.210800  0.509000  0.436600  1.0  1.5391
  P  P15  1  0.130000  0.713750  0.674000  1.0  1.5555
  P  P16  1  0.774400  0.773300  0.900000  1.0  1.5813
  P  P17  1  0.210800  0.991000  0.936600  1.0  1.5394
  P  P18  1  0.870000  0.213750  0.826000  1.0  1.5561
  P  P19  1  0.225600  0.273300  0.600000  1.0  1.5776
  P  P20  1  0.789200  0.491000  0.563400  1.0  1.5446
  H  H21  1  0.501500  0.262900  0.074000  1.0  0.0862
  H  H22  1  0.455000  0.318900  0.179300  1.0  0.0957
  H  H23  1  0.377300  0.205100  0.279000  1.0  0.1496
  H  H24  1  0.408200  0.156200  0.157800  1.0  0.1364
  H  H25  1  0.640300  0.199900  0.244100  1.0  0.084
  H  H26  1  0.596500  0.259100  0.346400  1.0  0.0887
  H  H27  1  0.725100  0.308800  0.137600  1.0  0.1338
  H  H28  1  0.693400  0.362800  0.253200  1.0  0.123
  H  H29  1  0.818600  0.938100  0.918900  1.0  0.4199
  H  H30  1  0.546400  0.020700  0.880900  1.0  0.0916
  H  H31  1  0.459900  0.076500  0.953500  1.0  0.0927
  H  H32  1  0.629300  0.077600  0.139700  1.0  0.1298
  H  H33  1  0.667100  0.118900  0.014100  1.0  0.1318
  H  H34  1  0.498500  0.762900  0.426000  1.0  0.0854
  H  H35  1  0.545000  0.818900  0.320700  1.0  0.0952
  H  H36  1  0.622700  0.705100  0.221000  1.0  0.1503
  H  H37  1  0.591800  0.656200  0.342200  1.0  0.1346
  H  H38  1  0.359700  0.699900  0.255900  1.0  0.0836
  H  H39  1  0.403500  0.759100  0.153600  1.0  0.0913
  H  H40  1  0.274900  0.808800  0.362400  1.0  0.1329
  H  H41  1  0.306600  0.862800  0.246800  1.0  0.123
  H  H42  1  0.181400  0.438100  0.581100  1.0  0.4198
  H  H43  1  0.453600  0.520700  0.619100  1.0  0.0914
  H  H44  1  0.540100  0.576500  0.546500  1.0  0.0916
  H  H45  1  0.370700  0.577600  0.360300  1.0  0.1308
  H  H46  1  0.332900  0.618900  0.485900  1.0  0.1326
  H  H47  1  0.498500  0.737100  0.926000  1.0  0.0867
  H  H48  1  0.545000  0.681100  0.820700  1.0  0.0945
  H  H49  1  0.622700  0.794900  0.721000  1.0  0.1505
  H  H50  1  0.591800  0.843800  0.842200  1.0  0.1355
  H  H51  1  0.359700  0.800100  0.755900  1.0  0.0829
  H  H52  1  0.403500  0.740900  0.653600  1.0  0.0917
  H  H53  1  0.274900  0.691200  0.862400  1.0  0.1332
  H  H54  1  0.306600  0.637200  0.746800  1.0  0.122
  H  H55  1  0.181400  0.061900  0.081100  1.0  0.4199
  H  H56  1  0.453600  0.979300  0.119100  1.0  0.0908
  H  H57  1  0.540100  0.923500  0.046500  1.0  0.0918
  H  H58  1  0.370700  0.922400  0.860300  1.0  0.1311
  H  H59  1  0.332900  0.881100  0.985900  1.0  0.1318
  H  H60  1  0.501500  0.237100  0.574000  1.0  0.086
  H  H61  1  0.455000  0.181100  0.679300  1.0  0.0943
  H  H62  1  0.377300  0.294900  0.779000  1.0  0.1494
  H  H63  1  0.408200  0.343800  0.657800  1.0  0.1363
  H  H64  1  0.640300  0.300100  0.744100  1.0  0.0818
  H  H65  1  0.596500  0.240900  0.846400  1.0  0.0888
  H  H66  1  0.725100  0.191200  0.637600  1.0  0.1344
  H  H67  1  0.693400  0.137200  0.753200  1.0  0.1232
  H  H68  1  0.818600  0.561900  0.418900  1.0  0.4201
  H  H69  1  0.546400  0.479300  0.380900  1.0  0.0917
  H  H70  1  0.459900  0.423500  0.453500  1.0  0.0911
  H  H71  1  0.629300  0.422400  0.639700  1.0  0.1295
  H  H72  1  0.667100  0.381100  0.514100  1.0  0.131
  C  C73  1  0.486200  0.266100  0.165300  1.0  -0.0752
  C  C74  1  0.381500  0.207800  0.184700  1.0  -0.4693
  C  C75  1  0.611000  0.253400  0.255200  1.0  -0.0642
  C  C76  1  0.717600  0.309700  0.231300  1.0  -0.4211
  C  C77  1  0.526600  0.035800  0.967300  1.0  -0.0766
  C  C78  1  0.647800  0.068300  0.050700  1.0  -0.4094
  C  C79  1  0.513800  0.766100  0.334700  1.0  -0.0778
  C  C80  1  0.618500  0.707800  0.315300  1.0  -0.4682
  C  C81  1  0.389000  0.753400  0.244800  1.0  -0.0626
  C  C82  1  0.282400  0.809700  0.268700  1.0  -0.4222
  C  C83  1  0.473400  0.535800  0.532700  1.0  -0.0773
  C  C84  1  0.352200  0.568300  0.449300  1.0  -0.4132
  C  C85  1  0.513800  0.733900  0.834700  1.0  -0.0777
  C  C86  1  0.618500  0.792200  0.815300  1.0  -0.4665
  C  C87  1  0.389000  0.746600  0.744800  1.0  -0.0618
  C  C88  1  0.282400  0.690300  0.768700  1.0  -0.4222
  C  C89  1  0.473400  0.964200  0.032700  1.0  -0.077
  C  C90  1  0.352200  0.931700  0.949300  1.0  -0.4159
  C  C91  1  0.486200  0.233900  0.665300  1.0  -0.0764
  C  C92  1  0.381500  0.292200  0.684700  1.0  -0.4672
  C  C93  1  0.611000  0.246600  0.755200  1.0  -0.0637
  C  C94  1  0.717600  0.190300  0.731300  1.0  -0.4212
  C  C95  1  0.526600  0.464200  0.467300  1.0  -0.0757
  C  C96  1  0.647800  0.431700  0.550700  1.0  -0.4132
  O  O97  1  0.135900  0.159700  0.123400  1.0  -0.857
  O  O98  1  0.967200  0.350000  0.303200  1.0  -0.7796
  O  O99  1  0.909600  0.207200  0.279000  1.0  -0.8138
  O  O100  1  0.903700  0.057000  0.117700  1.0  -0.809
  O  O101  1  0.231800  0.236100  0.956000  1.0  -0.8019
  O  O102  1  0.854300  0.281700  0.468800  1.0  -0.8045
  O  O103  1  0.180100  0.303400  0.150400  1.0  -0.7837
  O  O104  1  0.776100  0.938900  0.148400  1.0  -0.8027
  O  O105  1  0.796100  0.984600  0.920200  1.0  -0.615
  O  O106  1  0.864100  0.659700  0.376600  1.0  -0.8583
  O  O107  1  0.032800  0.850000  0.196800  1.0  -0.7792
  O  O108  1  0.090400  0.707200  0.221000  1.0  -0.815
  O  O109  1  0.096300  0.557000  0.382300  1.0  -0.8064
  O  O110  1  0.768200  0.736100  0.544000  1.0  -0.8021
  O  O111  1  0.145700  0.781700  0.031200  1.0  -0.8055
  O  O112  1  0.819900  0.803400  0.349600  1.0  -0.784
  O  O113  1  0.223900  0.438900  0.351600  1.0  -0.8025
  O  O114  1  0.203900  0.484600  0.579800  1.0  -0.6149
  O  O115  1  0.864100  0.840300  0.876600  1.0  -0.8587
  O  O116  1  0.032800  0.650000  0.696800  1.0  -0.7787
  O  O117  1  0.090400  0.792800  0.721000  1.0  -0.8143
  O  O118  1  0.096300  0.943000  0.882300  1.0  -0.8072
  O  O119  1  0.768200  0.763900  0.044000  1.0  -0.8027
  O  O120  1  0.145700  0.718300  0.531200  1.0  -0.8053
  O  O121  1  0.819900  0.696600  0.849600  1.0  -0.7825
  O  O122  1  0.223900  0.061100  0.851600  1.0  -0.8029
  O  O123  1  0.203900  0.015400  0.079800  1.0  -0.6149
  O  O124  1  0.135900  0.340300  0.623400  1.0  -0.8577
  O  O125  1  0.967200  0.150000  0.803200  1.0  -0.7792
  O  O126  1  0.909600  0.292800  0.779000  1.0  -0.8128
  O  O127  1  0.903700  0.443000  0.617700  1.0  -0.8089
  O  O128  1  0.231800  0.263900  0.456000  1.0  -0.8022
  O  O129  1  0.854300  0.218300  0.968800  1.0  -0.8043
  O  O130  1  0.180100  0.196600  0.650400  1.0  -0.7818
  O  O131  1  0.776100  0.561100  0.648400  1.0  -0.8026
  O  O132  1  0.796100  0.515400  0.420200  1.0  -0.6147
