# generated using pymatgen
data_Ce2H19C36N6O13
_symmetry_space_group_name_H-M   'P 1'
_cell_length_a   16.91330000
_cell_length_b   28.74000000
_cell_length_c   29.94040000
_cell_angle_alpha   118.68200000
_cell_angle_beta   97.42620000
_cell_angle_gamma   90.00000000
_symmetry_Int_Tables_number   1
_chemical_formula_structural   Ce2H19C36N6O13
_chemical_formula_sum   'Ce16 H152 C288 N48 O104'
_cell_volume   12628.57217308
_cell_formula_units_Z   8
loop_
 _symmetry_equiv_pos_site_id
 _symmetry_equiv_pos_as_xyz
  1  'x, y, z'
loop_
 _atom_site_type_symbol
 _atom_site_label
 _atom_site_symmetry_multiplicity
 _atom_site_fract_x
 _atom_site_fract_y
 _atom_site_fract_z
 _atom_site_occupancy
 _atom_site_charge
  Ce  Ce1  1  0.881530  0.286060  0.005460  1.0  2.2301
  Ce  Ce2  1  0.118470  0.713940  0.994540  1.0  2.2314
  Ce  Ce3  1  0.540460  0.729160  0.500320  1.0  2.2219
  Ce  Ce4  1  0.040460  0.771160  0.500320  1.0  2.2199
  Ce  Ce5  1  0.619270  0.775930  0.999400  1.0  2.2239
  Ce  Ce6  1  0.762940  0.795790  0.501700  1.0  2.2391
  Ce  Ce7  1  0.381530  0.719400  0.005460  1.0  2.2312
  Ce  Ce8  1  0.459540  0.270840  0.499680  1.0  2.2213
  Ce  Ce9  1  0.262940  0.705910  0.501700  1.0  2.2419
  Ce  Ce10  1  0.119270  0.223470  0.999400  1.0  2.2254
  Ce  Ce11  1  0.959540  0.228840  0.499680  1.0  2.2221
  Ce  Ce12  1  0.380730  0.224070  0.000600  1.0  2.2239
  Ce  Ce13  1  0.737060  0.294090  0.498300  1.0  2.2398
  Ce  Ce14  1  0.880730  0.776530  0.000600  1.0  2.2232
  Ce  Ce15  1  0.237060  0.204210  0.498300  1.0  2.2407
  Ce  Ce16  1  0.618470  0.280600  0.994540  1.0  2.2307
  H  H17  1  0.815500  0.403000  0.618000  1.0  0.0796
  H  H18  1  0.643200  0.640400  0.878400  1.0  0.0988
  H  H19  1  0.804300  0.048700  0.764400  1.0  0.1139
  H  H20  1  0.756400  0.210200  0.025200  1.0  0.3275
  H  H21  1  0.046800  0.395100  0.657000  1.0  0.0995
  H  H22  1  0.382400  0.536400  0.790400  1.0  0.1009
  H  H23  1  0.467500  0.727700  0.124800  1.0  0.1051
  H  H24  1  0.877200  0.114600  0.389200  1.0  0.1138
  H  H25  1  0.465400  0.051200  0.870200  1.0  0.09
  H  H26  1  0.353400  0.019700  0.793600  1.0  0.1088
  H  H27  1  0.322000  0.741700  0.378800  1.0  0.1105
  H  H28  1  0.840900  0.557400  0.304200  1.0  0.102
  H  H29  1  0.100600  0.788200  0.364400  1.0  0.0947
  H  H30  1  0.123500  0.966400  0.685000  1.0  0.112
  H  H31  1  0.844700  0.780400  0.874200  1.0  0.1133
  H  H32  1  0.515100  0.803500  0.758800  1.0  0.1218
  H  H33  1  0.655300  0.906200  0.125800  1.0  0.1109
  H  H34  1  0.143200  0.238000  0.878400  1.0  0.0994
  H  H35  1  0.546800  0.261900  0.657000  1.0  0.0993
  H  H36  1  0.032500  0.602900  0.875200  1.0  0.1048
  H  H37  1  0.459200  0.731200  0.261800  1.0  0.114
  H  H38  1  0.972300  0.897400  0.110600  1.0  0.0984
  H  H39  1  0.621800  0.715400  0.820600  1.0  0.0759
  H  H40  1  0.959200  0.530600  0.261800  1.0  0.115
  H  H41  1  0.835100  0.772700  0.201400  1.0  0.1095
  H  H42  1  0.378200  0.284600  0.179400  1.0  0.0769
  H  H43  1  0.697500  0.778500  0.164200  1.0  0.0993
  H  H44  1  0.256400  0.815000  0.025200  1.0  0.3227
  H  H45  1  0.953200  0.604900  0.343000  1.0  0.0996
  H  H46  1  0.315500  0.215000  0.618000  1.0  0.08
  H  H47  1  0.869300  0.406100  0.181400  1.0  0.0846
  H  H48  1  0.751600  0.678400  0.979800  1.0  0.3095
  H  H49  1  0.648300  0.122200  0.341400  1.0  0.0659
  H  H50  1  0.804500  0.543300  0.754000  1.0  0.1173
  H  H51  1  0.344700  0.093800  0.874200  1.0  0.1112
  H  H52  1  0.139400  0.723700  0.868400  1.0  0.109
  H  H53  1  0.622800  0.725400  0.610800  1.0  0.113
  H  H54  1  0.015100  0.955300  0.758800  1.0  0.1219
  H  H55  1  0.503100  0.573600  0.266800  1.0  0.1116
  H  H56  1  0.302500  0.221500  0.835800  1.0  0.0992
  H  H57  1  0.989400  0.791500  0.722600  1.0  0.1039
  H  H58  1  0.484900  0.196500  0.241200  1.0  0.1212
  H  H59  1  0.040800  0.469400  0.738200  1.0  0.1151
  H  H60  1  0.882400  0.254000  0.790400  1.0  0.1005
  H  H61  1  0.878200  0.894800  0.179400  1.0  0.0775
  H  H62  1  0.991700  0.716700  0.352200  1.0  0.109
  H  H63  1  0.295700  0.550400  0.340600  1.0  0.0916
  H  H64  1  0.029200  0.665800  0.120600  1.0  0.1035
  H  H65  1  0.470800  0.545200  0.879400  1.0  0.1042
  H  H66  1  0.975600  0.115500  0.323400  1.0  0.0974
  H  H67  1  0.034600  0.181000  0.129800  1.0  0.0897
  H  H68  1  0.659100  0.253200  0.695800  1.0  0.1002
  H  H69  1  0.524400  0.792100  0.676600  1.0  0.0969
  H  H70  1  0.198000  0.696600  0.649600  1.0  0.0776
  H  H71  1  0.899400  0.211800  0.635600  1.0  0.0945
  H  H72  1  0.362500  0.602500  0.872200  1.0  0.1059
  H  H73  1  0.802000  0.303400  0.350400  1.0  0.078
  H  H74  1  0.637500  0.397500  0.127800  1.0  0.1057
  H  H75  1  0.251600  0.301400  0.979800  1.0  0.3055
  H  H76  1  0.965400  0.819000  0.870200  1.0  0.091
  H  H77  1  0.475600  0.207900  0.323400  1.0  0.0969
  H  H78  1  0.340900  0.746800  0.304200  1.0  0.1014
  H  H79  1  0.684500  0.785000  0.382000  1.0  0.08
  H  H80  1  0.510600  0.068900  0.277400  1.0  0.1045
  H  H81  1  0.494200  0.135600  0.360000  1.0  0.116
  H  H82  1  0.178000  0.362900  0.621200  1.0  0.1116
  H  H83  1  0.155300  0.219600  0.125800  1.0  0.1133
  H  H84  1  0.130700  0.593900  0.818600  1.0  0.0851
  H  H85  1  0.795700  0.790200  0.340600  1.0  0.0912
  H  H86  1  0.656300  0.077300  0.787000  1.0  0.1113
  H  H87  1  0.678000  0.258300  0.621200  1.0  0.1107
  H  H88  1  0.646600  0.980300  0.206400  1.0  0.1086
  H  H89  1  0.156300  0.709700  0.787000  1.0  0.111
  H  H90  1  0.195700  0.951300  0.235600  1.0  0.1144
  H  H91  1  0.360600  0.855300  0.131600  1.0  0.1085
  H  H92  1  0.308100  0.710300  0.839200  1.0  0.1026
  H  H93  1  0.673400  0.305500  0.379600  1.0  0.0877
  H  H94  1  0.472300  0.213200  0.110600  1.0  0.0993
  H  H95  1  0.137500  0.730300  0.127800  1.0  0.1046
  H  H96  1  0.617600  0.463600  0.209600  1.0  0.101
  H  H97  1  0.743600  0.185000  0.974800  1.0  0.3221
  H  H98  1  0.326600  0.694500  0.620400  1.0  0.0879
  H  H99  1  0.010600  0.208500  0.277400  1.0  0.1028
  H  H100  1  0.496900  0.426400  0.733200  1.0  0.1122
  H  H101  1  0.695700  0.284300  0.235600  1.0  0.1138
  H  H102  1  0.159100  0.442600  0.695800  1.0  0.101
  H  H103  1  0.377200  0.274600  0.389200  1.0  0.1128
  H  H104  1  0.630700  0.224700  0.818600  1.0  0.0847
  H  H105  1  0.243600  0.789800  0.974800  1.0  0.3244
  H  H106  1  0.534600  0.948800  0.129800  1.0  0.0898
  H  H107  1  0.376500  0.281400  0.315000  1.0  0.1116
  H  H108  1  0.862500  0.269700  0.872200  1.0  0.1056
  H  H109  1  0.343700  0.922700  0.213000  1.0  0.1116
  H  H110  1  0.122800  0.885400  0.610800  1.0  0.1138
  H  H111  1  0.967500  0.397100  0.124800  1.0  0.104
  H  H112  1  0.121800  0.105200  0.820600  1.0  0.0768
  H  H113  1  0.369300  0.775300  0.181400  1.0  0.0846
  H  H114  1  0.148300  0.219200  0.341400  1.0  0.0656
  H  H115  1  0.851700  0.780800  0.658600  1.0  0.0657
  H  H116  1  0.639400  0.144700  0.868400  1.0  0.1081
  H  H117  1  0.164900  0.227300  0.798600  1.0  0.1092
  H  H118  1  0.996900  0.306800  0.733200  1.0  0.1119
  H  H119  1  0.970800  0.334200  0.879400  1.0  0.105
  H  H120  1  0.802500  0.614300  0.835800  1.0  0.0998
  H  H121  1  0.698000  0.953000  0.649600  1.0  0.0767
  H  H122  1  0.748400  0.698600  0.020200  1.0  0.3089
  H  H123  1  0.822000  0.637100  0.378800  1.0  0.1117
  H  H124  1  0.356800  0.359600  0.121600  1.0  0.099
  H  H125  1  0.860600  0.276300  0.131600  1.0  0.1087
  H  H126  1  0.623500  0.718600  0.685000  1.0  0.1095
  H  H127  1  0.453200  0.738100  0.343000  1.0  0.1003
  H  H128  1  0.853400  0.773900  0.793600  1.0  0.1091
  H  H129  1  0.540800  0.268800  0.738200  1.0  0.1142
  H  H130  1  0.024400  0.884500  0.676600  1.0  0.0972
  H  H131  1  0.527700  0.786800  0.889400  1.0  0.0996
  H  H132  1  0.304500  0.210700  0.754000  1.0  0.1164
  H  H133  1  0.146600  0.226100  0.206400  1.0  0.1096
  H  H134  1  0.984900  0.044700  0.241200  1.0  0.1211
  H  H135  1  0.197500  0.385700  0.164200  1.0  0.0999
  H  H136  1  0.304300  0.715700  0.764400  1.0  0.1131
  H  H137  1  0.195500  0.456700  0.246000  1.0  0.1177
  H  H138  1  0.204300  0.209800  0.659400  1.0  0.0915
  H  H139  1  0.508300  0.364500  0.647800  1.0  0.1076
  H  H140  1  0.505800  0.864400  0.640000  1.0  0.1156
  H  H141  1  0.664900  0.571300  0.798600  1.0  0.11
  H  H142  1  0.351700  0.877800  0.658600  1.0  0.066
  H  H143  1  0.005800  0.775600  0.640000  1.0  0.1163
  H  H144  1  0.843700  0.290300  0.213000  1.0  0.1113
  H  H145  1  0.302000  0.047000  0.350400  1.0  0.0768
  H  H146  1  0.027700  0.102600  0.889400  1.0  0.0992
  H  H147  1  0.008300  0.283300  0.647800  1.0  0.1085
  H  H148  1  0.248400  0.321600  0.020200  1.0  0.3078
  H  H149  1  0.003100  0.693200  0.266800  1.0  0.1111
  H  H150  1  0.529200  0.454800  0.120600  1.0  0.1049
  H  H151  1  0.117600  0.746000  0.209600  1.0  0.1018
  H  H152  1  0.184500  0.597000  0.382000  1.0  0.0806
  H  H153  1  0.335100  0.428700  0.201400  1.0  0.1104
  H  H154  1  0.808100  0.128900  0.839200  1.0  0.1039
  H  H155  1  0.994200  0.224400  0.360000  1.0  0.1166
  H  H156  1  0.532500  0.272300  0.875200  1.0  0.1045
  H  H157  1  0.691900  0.289700  0.160800  1.0  0.1036
  H  H158  1  0.876500  0.033600  0.315000  1.0  0.1123
  H  H159  1  0.704300  0.449600  0.659400  1.0  0.0911
  H  H160  1  0.191900  0.871100  0.160800  1.0  0.1039
  H  H161  1  0.399400  0.423800  0.635600  1.0  0.0935
  H  H162  1  0.856800  0.762000  0.121600  1.0  0.0989
  H  H163  1  0.173400  0.074100  0.379600  1.0  0.0879
  H  H164  1  0.600600  0.576200  0.364400  1.0  0.0942
  H  H165  1  0.826600  0.925900  0.620400  1.0  0.0877
  H  H166  1  0.491700  0.635500  0.352200  1.0  0.1081
  H  H167  1  0.695500  0.789300  0.246000  1.0  0.1167
  H  H168  1  0.489400  0.931100  0.722600  1.0  0.1045
  C  C169  1  0.845700  0.283700  0.335800  1.0  0.2024
  C  C170  1  0.805100  0.763100  0.800000  1.0  -0.065
  C  C171  1  0.582300  0.248100  0.266000  1.0  0.2022
  C  C172  1  0.170500  0.947600  0.679000  1.0  -0.0371
  C  C173  1  0.986100  0.590600  0.850000  1.0  0.1563
  C  C174  1  0.611300  0.607700  0.863000  1.0  -0.0849
  C  C175  1  0.738900  0.744000  0.762800  1.0  0.1429
  C  C176  1  0.082800  0.752400  0.731600  1.0  0.1343
  C  C177  1  0.042000  0.762800  0.657800  1.0  -0.0941
  C  C178  1  0.243100  0.602860  0.852920  1.0  -0.1176
  C  C179  1  0.345700  0.052100  0.335800  1.0  0.2076
  C  C180  1  0.426800  0.976150  0.216500  1.0  0.1528
  C  C181  1  0.415500  0.752000  0.783200  1.0  0.1964
  C  C182  1  0.763000  0.128040  0.372080  1.0  -0.2012
  C  C183  1  0.111300  0.255300  0.863000  1.0  -0.0858
  C  C184  1  0.803800  0.768200  0.664000  1.0  0.188
  C  C185  1  0.074100  0.101700  0.359600  1.0  -0.1441
  C  C186  1  0.781300  0.850100  0.092600  1.0  0.7267
  C  C187  1  0.548300  0.105270  0.877140  1.0  -0.1187
  C  C188  1  0.417200  0.020800  0.268400  1.0  0.1337
  C  C189  1  0.270900  0.475900  0.709000  1.0  0.2726
  C  C190  1  0.106900  0.740300  0.852600  1.0  0.0016
  C  C191  1  0.577300  0.257670  0.082140  1.0  0.7108
  C  C192  1  0.917200  0.247600  0.268400  1.0  0.1344
  C  C193  1  0.800100  0.766600  0.847600  1.0  -0.0079
  C  C194  1  0.118100  0.732900  0.805000  1.0  -0.0626
  C  C195  1  0.739100  0.763130  0.581860  1.0  0.7198
  C  C196  1  0.169800  0.749500  0.202600  1.0  -0.0816
  C  C197  1  0.495500  0.255900  0.712200  1.0  -0.0703
  C  C198  1  0.169700  0.899500  0.635400  1.0  -0.0046
  C  C199  1  0.447700  0.398260  0.112720  1.0  -0.1069
  C  C200  1  0.281300  0.242500  0.092600  1.0  0.7338
  C  C201  1  0.273700  0.737850  0.094500  1.0  0.7284
  C  C202  1  0.578400  0.759200  0.230200  1.0  0.176
  C  C203  1  0.073800  0.519600  0.280800  1.0  0.2291
  C  C204  1  0.407400  0.524300  0.256600  1.0  0.1834
  C  C205  1  0.647500  0.273600  0.166000  1.0  -0.0008
  C  C206  1  0.756900  0.397140  0.147080  1.0  -0.1203
  C  C207  1  0.458000  0.105000  0.342200  1.0  -0.0955
  C  C208  1  0.388700  0.392300  0.137000  1.0  -0.0872
  C  C209  1  0.513900  0.740600  0.150000  1.0  0.1567
  C  C210  1  0.109400  0.246000  0.646000  1.0  -0.1126
  C  C211  1  0.209100  0.437400  0.683400  1.0  -0.1103
  C  C212  1  0.218700  0.149900  0.907400  1.0  0.7129
  C  C213  1  0.451700  0.894730  0.122860  1.0  -0.1194
  C  C214  1  0.330200  0.546900  0.797400  1.0  -0.08
  C  C215  1  0.350800  0.224200  0.779400  1.0  -0.0974
  C  C216  1  0.077300  0.824470  0.082140  1.0  0.6998
  C  C217  1  0.004500  0.543700  0.287800  1.0  -0.0695
  C  C218  1  0.486100  0.259400  0.850000  1.0  0.1621
  C  C219  1  0.418400  0.480500  0.204800  1.0  0.1441
  C  C220  1  0.888700  0.744700  0.137000  1.0  -0.0854
  C  C221  1  0.654300  0.947900  0.664200  1.0  0.2069
  C  C222  1  0.607600  0.901200  0.635400  1.0  -0.1253
  C  C223  1  0.329500  0.268600  0.321000  1.0  -0.0375
  C  C224  1  0.390600  0.600000  0.354000  1.0  -0.1117
  C  C225  1  0.350600  0.426400  0.649000  1.0  0.1939
  C  C226  1  0.578600  0.758360  0.089720  1.0  0.7273
  C  C227  1  0.930000  0.390200  0.629200  1.0  -0.1786
  C  C228  1  0.881900  0.267100  0.195000  1.0  -0.0614
  C  C229  1  0.719800  0.248700  0.639000  1.0  -0.0437
  C  C230  1  0.081000  0.381500  0.140000  1.0  -0.1436
  C  C231  1  0.738200  0.745000  0.713200  1.0  0.1633
  C  C232  1  0.425900  0.742100  0.640400  1.0  -0.1433
  C  C233  1  0.737000  0.755960  0.627920  1.0  -0.2034
  C  C234  1  0.421600  0.240800  0.769800  1.0  0.1751
  C  C235  1  0.461400  0.568700  0.282800  1.0  -0.0677
  C  C236  1  0.260900  0.236870  0.418140  1.0  0.7195
  C  C237  1  0.107600  0.734200  0.635400  1.0  -0.1241
  C  C238  1  0.426200  0.238800  0.719200  1.0  0.2293
  C  C239  1  0.818100  0.419700  0.187000  1.0  0.185
  C  C240  1  0.718700  0.757500  0.907400  1.0  0.7212
  C  C241  1  0.504500  0.744100  0.287800  1.0  -0.0695
  C  C242  1  0.893100  0.259700  0.147400  1.0  0.0022
  C  C243  1  0.538600  0.431300  0.717200  1.0  -0.0685
  C  C244  1  0.318100  0.767300  0.187000  1.0  0.1847
  C  C245  1  0.256900  0.749940  0.147080  1.0  -0.1196
  C  C246  1  0.780200  0.609700  0.361000  1.0  -0.0432
  C  C247  1  0.961400  0.714100  0.282800  1.0  -0.0682
  C  C248  1  0.852500  0.107600  0.834000  1.0  -0.0005
  C  C249  1  0.238200  0.968200  0.713200  1.0  0.1612
  C  C250  1  0.417700  0.751900  0.734000  1.0  0.2044
  C  C251  1  0.661200  0.445000  0.674600  1.0  0.2107
  C  C252  1  0.851100  0.598200  0.826400  1.0  -0.0528
  C  C253  1  0.118400  0.228100  0.590400  1.0  0.7546
  C  C254  1  0.154300  0.716300  0.664200  1.0  0.2087
  C  C255  1  0.290900  0.754000  0.316600  1.0  -0.1098
  C  C256  1  0.764800  0.237200  0.759600  1.0  0.1722
  C  C257  1  0.048300  0.771870  0.877140  1.0  -0.1192
  C  C258  1  0.925900  0.898300  0.640400  1.0  -0.1446
  C  C259  1  0.005700  0.796950  0.853300  1.0  0.2063
  C  C260  1  0.581600  0.519500  0.795200  1.0  0.1436
  C  C261  1  0.649700  0.270800  0.210000  1.0  -0.0733
  C  C262  1  0.625200  0.566500  0.816000  1.0  -0.0523
  C  C263  1  0.634300  0.283100  0.351200  1.0  0.189
  C  C264  1  0.850800  0.555200  0.779400  1.0  -0.1008
  C  C265  1  0.760900  0.181270  0.418140  1.0  0.7124
  C  C266  1  0.770900  0.233100  0.709000  1.0  0.2728
  C  C267  1  0.669800  0.453100  0.202600  1.0  -0.0811
  C  C268  1  0.570000  0.761000  0.370800  1.0  -0.1776
  C  C269  1  0.829500  0.052400  0.321000  1.0  -0.0365
  C  C270  1  0.433200  0.731160  0.587320  1.0  0.7182
  C  C271  1  0.694900  0.963100  0.200000  1.0  -0.0656
  C  C272  1  0.363200  0.225500  0.642200  1.0  0.1803
  C  C273  1  0.761100  0.981200  0.237200  1.0  0.1423
  C  C274  1  0.264800  0.522400  0.759600  1.0  0.1712
  C  C275  1  0.226300  0.643350  0.905500  1.0  0.7335
  C  C276  1  0.669300  0.728820  0.815640  1.0  0.194
  C  C277  1  0.147500  0.892400  0.166000  1.0  -1e-04
  C  C278  1  0.194900  0.236900  0.200000  1.0  -0.0662
  C  C279  1  0.552300  0.601740  0.887280  1.0  -0.1073
  C  C280  1  0.134300  0.068100  0.351200  1.0  0.191
  C  C281  1  0.573800  0.761200  0.280800  1.0  0.2302
  C  C282  1  0.031700  0.776830  0.927860  1.0  0.7148
  C  C283  1  0.933200  0.856160  0.587320  1.0  0.7198
  C  C284  1  0.419000  0.241500  0.860000  1.0  -0.1423
  C  C285  1  0.432900  0.238100  0.579200  1.0  0.7567
  C  C286  1  0.649400  0.573600  0.351000  1.0  0.2001
  C  C287  1  0.421400  0.241640  0.910280  1.0  0.7278
  C  C288  1  0.618100  0.072100  0.805000  1.0  -0.0635
  C  C289  1  0.982000  0.907400  0.681400  1.0  0.0044
  C  C290  1  0.681200  0.413300  0.154800  1.0  0.0117
  C  C291  1  0.681900  0.232700  0.813000  1.0  0.1851
  C  C292  1  0.994300  0.203050  0.146700  1.0  0.2058
  C  C293  1  0.161200  0.229600  0.674600  1.0  0.2049
  C  C294  1  0.011100  0.311770  0.862940  1.0  0.1547
  C  C295  1  0.352500  0.726400  0.834000  1.0  -0.0004
  C  C296  1  0.790900  0.562600  0.316600  1.0  -0.1111
  C  C297  1  0.918400  0.724300  0.204800  1.0  0.1441
  C  C298  1  0.191300  0.760750  0.425500  1.0  0.7369
  C  C299  1  0.181200  0.741500  0.154800  1.0  0.011
  C  C300  1  0.522400  0.219700  0.270200  1.0  -0.1267
  C  C301  1  0.953500  0.726800  0.332800  1.0  -0.0073
  C  C302  1  0.013900  0.409400  0.150000  1.0  0.1668
  C  C303  1  0.830300  0.100500  0.364600  1.0  -0.0004
  C  C304  1  0.032100  0.771700  0.706600  1.0  -0.0289
  C  C305  1  0.084500  0.968800  0.216800  1.0  0.1968
  C  C306  1  0.865700  0.931900  0.648800  1.0  0.1923
  C  C307  1  0.300100  0.081000  0.847600  1.0  -0.0084
  C  C308  1  0.792600  0.237000  0.622000  1.0  -0.2076
  C  C309  1  0.977600  0.949500  0.729800  1.0  -0.1232
  C  C310  1  0.149700  0.939200  0.210000  1.0  -0.0739
  C  C311  1  0.670500  0.731400  0.679000  1.0  -0.0376
  C  C312  1  0.542000  0.895000  0.657800  1.0  -0.0957
  C  C313  1  0.497800  0.253500  0.664800  1.0  -0.0627
  C  C314  1  0.830200  0.250500  0.797400  1.0  -0.08
  C  C315  1  0.730200  0.749690  0.855380  1.0  -0.13
  C  C316  1  0.381900  0.927900  0.195000  1.0  -0.0643
  C  C317  1  0.488900  0.448830  0.137060  1.0  0.1521
  C  C318  1  0.531700  0.151030  0.927860  1.0  0.7139
  C  C319  1  0.669700  0.735900  0.635400  1.0  -0.0043
  C  C320  1  0.261100  0.256000  0.237200  1.0  0.1436
  C  C321  1  0.947700  0.714460  0.112720  1.0  -0.1057
  C  C322  1  0.707400  0.615000  0.378000  1.0  -0.2086
  C  C323  1  0.582800  0.979200  0.731600  1.0  0.133
  C  C324  1  0.238900  0.018800  0.762800  1.0  0.1431
  C  C325  1  0.649200  0.775800  0.220600  1.0  -0.0974
  C  C326  1  0.239100  0.818730  0.581860  1.0  0.7101
  C  C327  1  0.995500  0.456300  0.712200  1.0  -0.0693
  C  C328  1  0.967900  0.228300  0.293400  1.0  -0.0306
  C  C329  1  0.532100  0.934900  0.706600  1.0  -0.0304
  C  C330  1  0.967000  0.711190  0.063780  1.0  0.7563
  C  C331  1  0.330300  0.264100  0.364600  1.0  -0.002
  C  C332  1  0.761800  0.031800  0.286800  1.0  0.1622
  C  C333  1  0.573200  0.023850  0.783500  1.0  0.1521
  C  C334  1  0.477600  0.780300  0.729800  1.0  -0.1261
  C  C335  1  0.169300  0.086820  0.815640  1.0  0.1921
  C  C336  1  0.618400  0.362300  0.590400  1.0  0.7581
  C  C337  1  0.918800  0.124160  0.870720  1.0  -0.1519
  C  C338  1  0.303800  0.895800  0.664000  1.0  0.1911
  C  C339  1  0.729100  0.524100  0.291000  1.0  0.2717
  C  C340  1  0.850300  0.060800  0.790000  1.0  -0.0736
  C  C341  1  0.818800  0.258500  0.845200  1.0  0.0125
  C  C342  1  0.148900  0.401800  0.173600  1.0  -0.0512
  C  C343  1  0.915500  0.031200  0.783200  1.0  0.197
  C  C344  1  0.374800  0.433500  0.184000  1.0  -0.0524
  C  C345  1  0.430000  0.239000  0.629200  1.0  -0.179
  C  C346  1  0.149400  0.777400  0.351000  1.0  0.1976
  C  C347  1  0.648900  0.771800  0.173600  1.0  -0.0495
  C  C348  1  0.229100  0.766900  0.291000  1.0  0.2733
  C  C349  1  0.467900  0.065100  0.293400  1.0  -0.0294
  C  C350  1  0.196200  0.231800  0.336000  1.0  0.1909
  C  C351  1  0.743100  0.250060  0.852920  1.0  -0.1189
  C  C352  1  0.881600  0.771900  0.409600  1.0  0.7553
  C  C353  1  0.418800  0.746560  0.870720  1.0  -0.1529
  C  C354  1  0.592600  0.475700  0.743400  1.0  0.1835
  C  C355  1  0.968300  0.223170  0.072140  1.0  0.7121
  C  C356  1  0.696200  0.104200  0.336000  1.0  0.1908
  C  C357  1  0.038600  0.285900  0.717200  1.0  -0.0651
  C  C358  1  0.002200  0.588700  0.335200  1.0  -0.0627
  C  C359  1  0.907400  0.732300  0.256600  1.0  0.1834
  C  C360  1  0.046500  0.273200  0.667200  1.0  -0.0069
  C  C361  1  0.136800  0.583300  0.357800  1.0  0.1808
  C  C362  1  0.636800  0.774500  0.357800  1.0  0.1823
  C  C363  1  0.951700  0.228130  0.122860  1.0  -0.1198
  C  C364  1  0.517700  0.227960  0.136520  1.0  0.2078
  C  C365  1  0.078400  0.471000  0.230200  1.0  0.1769
  C  C366  1  0.769800  0.894310  0.144620  1.0  -0.1321
  C  C367  1  0.066800  0.143840  0.412680  1.0  0.7218
  C  C368  1  0.280200  0.751300  0.361000  1.0  -0.0424
  C  C369  1  0.982300  0.091440  0.863480  1.0  0.209
  C  C370  1  0.078600  0.331360  0.089720  1.0  0.7201
  C  C371  1  0.305100  0.036900  0.800000  1.0  -0.0619
  C  C372  1  0.092600  0.267700  0.743400  1.0  0.1834
  C  C373  1  0.808700  0.239250  0.574500  1.0  0.7362
  C  C374  1  0.199900  0.233400  0.152400  1.0  -0.0086
  C  C375  1  0.453500  0.606000  0.332800  1.0  -0.0071
  C  C376  1  0.699900  0.919000  0.152400  1.0  -0.0087
  C  C377  1  0.609400  0.400000  0.646000  1.0  -0.1133
  C  C378  1  0.052300  0.285540  0.887280  1.0  -0.1052
  C  C379  1  0.926200  0.480400  0.719200  1.0  0.2287
  C  C380  1  0.919000  0.618500  0.860000  1.0  -0.1433
  C  C381  1  0.467000  0.352590  0.063780  1.0  0.756
  C  C382  1  0.018000  0.092600  0.318600  1.0  0.0046
  C  C383  1  0.988900  0.688230  0.137060  1.0  0.1548
  C  C384  1  0.494300  0.943650  0.146700  1.0  0.2094
  C  C385  1  0.838800  0.770400  0.325400  1.0  0.2119
  C  C386  1  0.392400  0.098800  0.364600  1.0  -0.1253
  C  C387  1  0.709100  0.246000  0.683400  1.0  -0.1098
  C  C388  1  0.081200  0.875840  0.129280  1.0  -0.1521
  C  C389  1  0.863200  0.416700  0.642200  1.0  0.1792
  C  C390  1  0.269800  0.250310  0.144620  1.0  -0.1306
  C  C391  1  0.922700  0.175530  0.917860  1.0  0.6999
  C  C392  1  0.482000  0.774000  0.681400  1.0  0.0037
  C  C393  1  0.067100  0.658900  0.420800  1.0  0.7619
  C  C394  1  0.874800  0.750500  0.184000  1.0  -0.0517
  C  C395  1  0.878600  0.276400  0.416400  1.0  0.7407
  C  C396  1  0.511100  0.551170  0.862940  1.0  0.151
  C  C397  1  0.566800  0.268840  0.412680  1.0  0.7041
  C  C398  1  0.318800  0.586700  0.845200  1.0  0.0112
  C  C399  1  0.207400  0.763000  0.378000  1.0  -0.2082
  C  C400  1  0.482300  0.772040  0.863480  1.0  0.2095
  C  C401  1  0.073200  0.759650  0.783500  1.0  0.1537
  C  C402  1  0.921600  0.529000  0.769800  1.0  0.1762
  C  C403  1  0.606900  0.112300  0.852600  1.0  -0.0
  C  C404  1  0.338800  0.555000  0.325400  1.0  0.214
  C  C405  1  0.581000  0.758500  0.140000  1.0  -0.1418
  C  C406  1  0.082300  0.017900  0.266000  1.0  0.2017
  C  C407  1  0.726300  0.262150  0.905500  1.0  0.7303
  C  C408  1  0.393100  0.887700  0.147400  1.0  -0.0003
  C  C409  1  0.567100  0.761900  0.420800  1.0  0.7662
  C  C410  1  0.958000  0.237200  0.342200  1.0  -0.0944
  C  C411  1  0.468300  0.848970  0.072140  1.0  0.7116
  C  C412  1  0.932900  0.341100  0.579200  1.0  0.7642
  C  C413  1  0.330700  0.271180  0.184360  1.0  0.1924
  C  C414  1  0.917700  0.982100  0.734000  1.0  0.2029
  C  C415  1  0.292600  0.385000  0.622000  1.0  -0.2092
  C  C416  1  0.890600  0.754000  0.354000  1.0  -0.1133
  C  C417  1  0.033000  0.288810  0.936220  1.0  0.7555
  C  C418  1  0.235200  0.762800  0.240400  1.0  0.172
  C  C419  1  0.502200  0.746500  0.335200  1.0  -0.0623
  C  C420  1  0.181900  0.580300  0.813000  1.0  0.1859
  C  C421  1  0.505700  0.056350  0.853300  1.0  0.2027
  C  C422  1  0.219800  0.390300  0.639000  1.0  -0.0451
  C  C423  1  0.850600  0.222600  0.649000  1.0  0.2002
  C  C424  1  0.230200  0.105690  0.855380  1.0  -0.1308
  C  C425  1  0.773700  0.356650  0.094500  1.0  0.7326
  C  C426  1  0.518000  0.226000  0.318600  1.0  0.0033
  C  C427  1  0.365700  0.716900  0.648800  1.0  0.1892
  C  C428  1  0.149200  0.444800  0.220600  1.0  -0.1001
  C  C429  1  0.261800  0.255000  0.286800  1.0  0.163
  C  C430  1  0.830700  0.913180  0.184360  1.0  0.1906
  C  C431  1  0.308700  0.335250  0.574500  1.0  0.7313
  C  C432  1  0.263000  0.244040  0.372080  1.0  -0.204
  C  C433  1  0.621400  0.860000  0.583600  1.0  0.7433
  C  C434  1  0.546500  0.394000  0.667200  1.0  -0.0068
  C  C435  1  0.574100  0.257900  0.359600  1.0  -0.1454
  C  C436  1  0.017700  0.908560  0.136520  1.0  0.2
  C  C437  1  0.378600  0.140000  0.416400  1.0  0.7434
  C  C438  1  0.735200  0.477600  0.240400  1.0  0.1714
  C  C439  1  0.351100  0.228200  0.826400  1.0  -0.0516
  C  C440  1  0.533000  0.647410  0.936220  1.0  0.7536
  C  C441  1  0.422700  0.742330  0.917860  1.0  0.7109
  C  C442  1  0.921400  0.668640  0.910280  1.0  0.7197
  C  C443  1  0.125200  0.249500  0.816000  1.0  -0.0538
  C  C444  1  0.584500  0.248000  0.216800  1.0  0.1967
  C  C445  1  0.022400  0.050500  0.270200  1.0  -0.1234
  C  C446  1  0.350300  0.729200  0.790000  1.0  -0.0729
  C  C447  1  0.081600  0.275700  0.795200  1.0  0.1436
  C  C448  1  0.121400  0.723600  0.583600  1.0  0.764
  C  C449  1  0.581200  0.253440  0.129280  1.0  -0.1517
  C  C450  1  0.237000  0.871960  0.627920  1.0  -0.2001
  C  C451  1  0.997800  0.411300  0.664800  1.0  -0.062
  C  C452  1  0.070000  0.609800  0.370800  1.0  -0.1754
  C  C453  1  0.892400  0.265800  0.364600  1.0  -0.1247
  C  C454  1  0.381600  0.637700  0.409600  1.0  0.759
  C  C455  1  0.691300  0.664750  0.425500  1.0  0.73
  C  C456  1  0.926800  0.240350  0.216500  1.0  0.1529
  N  N457  1  0.345600  0.517290  0.277180  1.0  -0.4013
  N  N458  1  0.017500  0.792150  0.807500  1.0  -0.4057
  N  N459  1  0.982500  0.207850  0.192500  1.0  -0.4066
  N  N460  1  0.520000  0.223900  0.179400  1.0  -0.4414
  N  N461  1  0.158200  0.777000  0.306200  1.0  -0.4016
  N  N462  1  0.144300  0.723970  0.710940  1.0  -0.4669
  N  N463  1  0.809900  0.460400  0.234000  1.0  -0.4062
  N  N464  1  0.525200  0.510920  0.817840  1.0  -0.4178
  N  N465  1  0.194800  0.236400  0.293800  1.0  -0.4432
  N  N466  1  0.658200  0.529200  0.306200  1.0  -0.4022
  N  N467  1  0.154400  0.240110  0.722820  1.0  -0.4013
  N  N468  1  0.355700  0.013030  0.289060  1.0  -0.4612
  N  N469  1  0.513300  0.741000  0.195200  1.0  -0.4394
  N  N470  1  0.359300  0.722000  0.694200  1.0  -0.3989
  N  N471  1  0.482500  0.984650  0.192500  1.0  -0.4055
  N  N472  1  0.654400  0.482710  0.722820  1.0  -0.4008
  N  N473  1  0.640700  0.278000  0.305800  1.0  -0.3999
  N  N474  1  0.671600  0.725910  0.769420  1.0  -0.4524
  N  N475  1  0.859300  0.972200  0.694200  1.0  -0.3959
  N  N476  1  0.980000  0.044500  0.820600  1.0  -0.4365
  N  N477  1  0.517500  0.015350  0.807500  1.0  -0.4034
  N  N478  1  0.845600  0.759890  0.277180  1.0  -0.4012
  N  N479  1  0.644300  0.986970  0.710940  1.0  -0.465
  N  N480  1  0.190100  0.539600  0.766000  1.0  -0.407
  N  N481  1  0.855700  0.276030  0.289060  1.0  -0.4682
  N  N482  1  0.013300  0.454200  0.195200  1.0  -0.4296
  N  N483  1  0.486700  0.259000  0.804800  1.0  -0.4422
  N  N484  1  0.020000  0.955500  0.179400  1.0  -0.4368
  N  N485  1  0.690100  0.226400  0.766000  1.0  -0.4079
  N  N486  1  0.025200  0.306920  0.817840  1.0  -0.4203
  N  N487  1  0.694800  0.057400  0.293800  1.0  -0.4427
  N  N488  1  0.974800  0.693080  0.182160  1.0  -0.4153
  N  N489  1  0.805200  0.763600  0.706200  1.0  -0.4451
  N  N490  1  0.140700  0.027800  0.305800  1.0  -0.3963
  N  N491  1  0.841800  0.223000  0.693800  1.0  -0.4027
  N  N492  1  0.986700  0.545800  0.804800  1.0  -0.4331
  N  N493  1  0.328400  0.274090  0.230580  1.0  -0.4546
  N  N494  1  0.341800  0.470800  0.693800  1.0  -0.3993
  N  N495  1  0.305200  0.942600  0.706200  1.0  -0.4441
  N  N496  1  0.474800  0.489080  0.182160  1.0  -0.4197
  N  N497  1  0.480000  0.776100  0.820600  1.0  -0.4447
  N  N498  1  0.360300  0.226100  0.686800  1.0  -0.4883
  N  N499  1  0.139700  0.539300  0.313200  1.0  -0.4815
  N  N500  1  0.171600  0.043510  0.769420  1.0  -0.4521
  N  N501  1  0.309900  0.773600  0.234000  1.0  -0.4077
  N  N502  1  0.828400  0.956490  0.230580  1.0  -0.4513
  N  N503  1  0.860300  0.460700  0.686800  1.0  -0.4887
  N  N504  1  0.639700  0.773900  0.313200  1.0  -0.4901
  O  O505  1  0.383200  0.700530  0.550660  1.0  -0.7441
  O  O506  1  0.462800  0.647310  0.946020  1.0  -0.6256
  O  O507  1  0.629200  0.774460  0.451920  1.0  -0.8181
  O  O508  1  0.803900  0.783270  0.578940  1.0  -0.6153
  O  O509  1  0.860000  0.200920  0.924640  1.0  -0.6287
  O  O510  1  0.436000  0.173210  0.444020  1.0  -0.7163
  O  O511  1  0.723300  0.348060  0.055320  1.0  -0.7649
  O  O512  1  0.961200  0.788950  0.939900  1.0  -0.6959
  O  O513  1  0.503600  0.745120  0.426240  1.0  -0.677
  O  O514  1  0.883200  0.850130  0.550660  1.0  -0.7453
  O  O515  1  0.486700  0.755980  0.950160  1.0  -0.8292
  O  O516  1  0.186800  0.222980  0.578360  1.0  -0.6911
  O  O517  1  0.493900  0.755000  0.583400  1.0  -0.6988
  O  O518  1  0.196100  0.216730  0.421060  1.0  -0.6149
  O  O519  1  0.223300  0.707260  0.055320  1.0  -0.7646
  O  O520  1  0.037200  0.701290  0.053980  1.0  -0.6283
  O  O521  1  0.858900  0.691930  0.919060  1.0  -0.6848
  O  O522  1  0.370800  0.225540  0.548080  1.0  -0.8176
  O  O523  1  0.993900  0.828400  0.583400  1.0  -0.697
  O  O524  1  0.844700  0.827410  0.089620  1.0  -0.6732
  O  O525  1  0.877900  0.229650  0.563500  1.0  -0.7295
  O  O526  1  0.962800  0.298710  0.946020  1.0  -0.6284
  O  O527  1  0.322100  0.249060  0.451320  1.0  -0.8223
  O  O528  1  0.641100  0.772870  0.080940  1.0  -0.6868
  O  O529  1  0.177900  0.797740  0.548680  1.0  -0.8197
  O  O530  1  0.360000  0.723720  0.924640  1.0  -0.63
  O  O531  1  0.377900  0.333850  0.563500  1.0  -0.7336
  O  O532  1  0.161200  0.664590  0.907980  1.0  -0.6792
  O  O533  1  0.227600  0.214370  0.055540  1.0  -0.7824
  O  O534  1  0.587200  0.184800  0.954800  1.0  -0.6861
  O  O535  1  0.813200  0.777020  0.421640  1.0  -0.6907
  O  O536  1  0.822100  0.202260  0.451320  1.0  -0.8208
  O  O537  1  0.116800  0.149870  0.449340  1.0  -0.745
  O  O538  1  0.461200  0.150950  0.939900  1.0  -0.6955
  O  O539  1  0.188800  0.708260  0.570520  1.0  -0.734
  O  O540  1  0.006100  0.171600  0.416600  1.0  -0.6955
  O  O541  1  0.588000  0.681340  0.962480  1.0  -0.6814
  O  O542  1  0.811200  0.291740  0.429480  1.0  -0.7325
  O  O543  1  0.412800  0.815200  0.045200  1.0  -0.6851
  O  O544  1  0.942200  0.779560  0.438920  1.0  -0.7608
  O  O545  1  0.772400  0.785630  0.944460  1.0  -0.7839
  O  O546  1  0.014200  0.314570  0.057740  1.0  -0.7805
  O  O547  1  0.514200  0.743170  0.057740  1.0  -0.7841
  O  O548  1  0.057800  0.220440  0.561080  1.0  -0.7617
  O  O549  1  0.344700  0.262210  0.089620  1.0  -0.6746
  O  O550  1  0.412000  0.318660  0.037520  1.0  -0.6818
  O  O551  1  0.513300  0.244020  0.049840  1.0  -0.8311
  O  O552  1  0.750000  0.724400  0.000000  1.0  -0.6066
  O  O553  1  0.496400  0.254880  0.573760  1.0  -0.6772
  O  O554  1  0.616800  0.299470  0.449340  1.0  -0.7442
  O  O555  1  0.838800  0.335410  0.092020  1.0  -0.6785
  O  O556  1  0.276700  0.651940  0.944680  1.0  -0.7627
  O  O557  1  0.247600  0.748000  0.447400  1.0  -0.6974
  O  O558  1  0.538800  0.849050  0.060100  1.0  -0.7012
  O  O559  1  0.013300  0.805820  0.049840  1.0  -0.8268
  O  O560  1  0.640000  0.276280  0.075360  1.0  -0.6297
  O  O561  1  0.250000  0.767700  0.000000  1.0  -0.6113
  O  O562  1  0.985800  0.685430  0.942260  1.0  -0.7824
  O  O563  1  0.996400  0.318880  0.573760  1.0  -0.6778
  O  O564  1  0.557800  0.340640  0.561080  1.0  -0.7621
  O  O565  1  0.485800  0.256830  0.942260  1.0  -0.7844
  O  O566  1  0.537200  0.352690  0.053980  1.0  -0.6287
  O  O567  1  0.599700  0.230510  0.496420  1.0  -0.491
  O  O568  1  0.750000  0.232300  0.000000  1.0  -0.6123
  O  O569  1  0.912000  0.718860  0.037520  1.0  -0.6812
  O  O570  1  0.140000  0.799080  0.075360  1.0  -0.6298
  O  O571  1  0.155300  0.172590  0.910380  1.0  -0.6729
  O  O572  1  0.252400  0.300600  0.552600  1.0  -0.7002
  O  O573  1  0.870800  0.322540  0.548080  1.0  -0.8187
  O  O574  1  0.688800  0.862260  0.570520  1.0  -0.7374
  O  O575  1  0.003600  0.681120  0.426240  1.0  -0.677
  O  O576  1  0.912800  0.230000  0.045200  1.0  -0.6839
  O  O577  1  0.338800  0.756610  0.092020  1.0  -0.6816
  O  O578  1  0.747600  0.699400  0.447400  1.0  -0.7016
  O  O579  1  0.141100  0.308070  0.080940  1.0  -0.6863
  O  O580  1  0.313200  0.644620  0.421640  1.0  -0.689
  O  O581  1  0.686800  0.355380  0.578360  1.0  -0.6908
  O  O582  1  0.122100  0.770350  0.436500  1.0  -0.7289
  O  O583  1  0.129200  0.677460  0.451920  1.0  -0.8169
  O  O584  1  0.088000  0.281140  0.962480  1.0  -0.6814
  O  O585  1  0.250000  0.275600  0.000000  1.0  -0.6064
  O  O586  1  0.936000  0.270810  0.444020  1.0  -0.7174
  O  O587  1  0.661200  0.243390  0.907980  1.0  -0.6803
  O  O588  1  0.099700  0.265910  0.496420  1.0  -0.4904
  O  O589  1  0.064000  0.729190  0.555980  1.0  -0.7165
  O  O590  1  0.776700  0.292740  0.944680  1.0  -0.7658
  O  O591  1  0.400300  0.769490  0.503580  1.0  -0.4902
  O  O592  1  0.727600  0.841170  0.055540  1.0  -0.7897
  O  O593  1  0.303900  0.795670  0.578940  1.0  -0.6147
  O  O594  1  0.622100  0.666150  0.436500  1.0  -0.7304
  O  O595  1  0.358900  0.227130  0.919060  1.0  -0.6863
  O  O596  1  0.677900  0.750940  0.548680  1.0  -0.8207
  O  O597  1  0.986700  0.194180  0.950160  1.0  -0.8283
  O  O598  1  0.564000  0.826790  0.555980  1.0  -0.7171
  O  O599  1  0.696100  0.204330  0.421060  1.0  -0.6137
  O  O600  1  0.655300  0.737790  0.910380  1.0  -0.6745
  O  O601  1  0.311200  0.137740  0.429480  1.0  -0.7347
  O  O602  1  0.442200  0.659360  0.438920  1.0  -0.7612
  O  O603  1  0.272400  0.158830  0.944460  1.0  -0.786
  O  O604  1  0.900300  0.734090  0.503580  1.0  -0.4911
  O  O605  1  0.087200  0.770000  0.954800  1.0  -0.6868
  O  O606  1  0.038800  0.211050  0.060100  1.0  -0.6974
  O  O607  1  0.752400  0.252000  0.552600  1.0  -0.698
  O  O608  1  0.506100  0.245000  0.416600  1.0  -0.6967
