# generated using pymatgen
data_Ce2H20C36N6O13
_symmetry_space_group_name_H-M   'P 1'
_cell_length_a   27.54100000
_cell_length_b   11.12600000
_cell_length_c   16.99100000
_cell_angle_alpha   90.00000000
_cell_angle_beta   99.01000000
_cell_angle_gamma   90.00000000
_symmetry_Int_Tables_number   1
_chemical_formula_structural   Ce2H20C36N6O13
_chemical_formula_sum   'Ce8 H80 C144 N24 O52'
_cell_volume   5142.16035444
_cell_formula_units_Z   4
loop_
 _symmetry_equiv_pos_site_id
 _symmetry_equiv_pos_as_xyz
  1  'x, y, z'
loop_
 _atom_site_type_symbol
 _atom_site_label
 _atom_site_symmetry_multiplicity
 _atom_site_fract_x
 _atom_site_fract_y
 _atom_site_fract_z
 _atom_site_occupancy
 _atom_site_charge
  Ce  Ce1  1  0.252160  0.632100  0.690400  1.0  2.2516
  Ce  Ce2  1  0.251190  0.673890  0.973350  1.0  2.2461
  Ce  Ce3  1  0.747840  0.132100  0.809600  1.0  2.2514
  Ce  Ce4  1  0.748810  0.173890  0.526650  1.0  2.2464
  Ce  Ce5  1  0.747840  0.367900  0.309600  1.0  2.249
  Ce  Ce6  1  0.748810  0.326110  0.026650  1.0  2.2434
  Ce  Ce7  1  0.252160  0.867900  0.190400  1.0  2.2495
  Ce  Ce8  1  0.251190  0.826110  0.473350  1.0  2.2427
  H  H9  1  0.126900  0.820400  0.741200  1.0  0.1142
  H  H10  1  0.049200  0.876100  0.758000  1.0  0.1071
  H  H11  1  0.111900  0.026500  0.548900  1.0  0.0882
  H  H12  1  0.964900  0.083500  0.558800  1.0  0.1208
  H  H13  1  0.908500  0.974900  0.785600  1.0  0.078
  H  H14  1  0.884200  0.109700  0.566900  1.0  0.1027
  H  H15  1  0.397400  0.432700  0.617800  1.0  0.096
  H  H16  1  0.458600  0.631700  0.419000  1.0  0.1247
  H  H17  1  0.380000  0.664900  0.439000  1.0  0.0956
  H  H18  1  0.011900  0.898900  0.891200  1.0  0.1133
  H  H19  1  0.092200  0.847000  0.884700  1.0  0.1075
  H  H20  1  0.130300  0.995400  0.100100  1.0  0.0941
  H  H21  1  0.420200  0.619800  0.964900  1.0  0.1031
  H  H22  1  0.501100  0.592400  0.951500  1.0  0.1241
  H  H23  1  0.383200  0.556000  0.733600  1.0  0.0798
  H  H24  1  0.527500  0.485300  0.709300  1.0  0.1176
  H  H25  1  0.600100  0.380500  0.707900  1.0  0.1087
  H  H26  1  0.639500  0.466500  0.938200  1.0  0.0931
  H  H27  1  0.279100  0.828100  0.837700  1.0  0.2595
  H  H28  1  0.221900  0.825800  0.822800  1.0  0.2545
  H  H29  1  0.873100  0.320400  0.758800  1.0  0.1137
  H  H30  1  0.950800  0.376100  0.742000  1.0  0.1067
  H  H31  1  0.888100  0.526500  0.951100  1.0  0.0874
  H  H32  1  0.035100  0.583500  0.941200  1.0  0.1207
  H  H33  1  0.091500  0.474900  0.714400  1.0  0.0786
  H  H34  1  0.115800  0.609700  0.933100  1.0  0.1026
  H  H35  1  0.602600  0.932700  0.882200  1.0  0.096
  H  H36  1  0.541400  0.131700  0.081000  1.0  0.1247
  H  H37  1  0.620000  0.164900  0.061000  1.0  0.0959
  H  H38  1  0.988100  0.398900  0.608800  1.0  0.1132
  H  H39  1  0.907800  0.347000  0.615300  1.0  0.1074
  H  H40  1  0.869700  0.495400  0.399900  1.0  0.0942
  H  H41  1  0.579800  0.119800  0.535100  1.0  0.103
  H  H42  1  0.498900  0.092400  0.548500  1.0  0.1243
  H  H43  1  0.616800  0.056000  0.766400  1.0  0.0798
  H  H44  1  0.472500  0.985300  0.790700  1.0  0.1174
  H  H45  1  0.399900  0.880500  0.792100  1.0  0.1089
  H  H46  1  0.360500  0.966500  0.561800  1.0  0.0939
  H  H47  1  0.720900  0.328100  0.662300  1.0  0.2592
  H  H48  1  0.778100  0.325800  0.677200  1.0  0.2545
  H  H49  1  0.873100  0.179600  0.258800  1.0  0.1133
  H  H50  1  0.950800  0.123900  0.242000  1.0  0.1067
  H  H51  1  0.888100  0.973500  0.451100  1.0  0.0881
  H  H52  1  0.035100  0.916500  0.441200  1.0  0.1208
  H  H53  1  0.091500  0.025100  0.214400  1.0  0.0783
  H  H54  1  0.115800  0.890300  0.433100  1.0  0.1026
  H  H55  1  0.602600  0.567300  0.382200  1.0  0.097
  H  H56  1  0.541400  0.368300  0.581000  1.0  0.1251
  H  H57  1  0.620000  0.335100  0.561000  1.0  0.0959
  H  H58  1  0.988100  0.101100  0.108800  1.0  0.1129
  H  H59  1  0.907800  0.153000  0.115300  1.0  0.1074
  H  H60  1  0.869700  0.004600  0.899900  1.0  0.0941
  H  H61  1  0.579800  0.380200  0.035100  1.0  0.103
  H  H62  1  0.498900  0.407600  0.048500  1.0  0.1242
  H  H63  1  0.616800  0.444000  0.266400  1.0  0.0801
  H  H64  1  0.472500  0.514700  0.290700  1.0  0.1176
  H  H65  1  0.399900  0.619500  0.292100  1.0  0.1088
  H  H66  1  0.360500  0.533500  0.061800  1.0  0.094
  H  H67  1  0.720900  0.171900  0.162300  1.0  0.2606
  H  H68  1  0.778100  0.174200  0.177200  1.0  0.255
  H  H69  1  0.126900  0.679600  0.241200  1.0  0.1139
  H  H70  1  0.049200  0.623900  0.258000  1.0  0.107
  H  H71  1  0.111900  0.473500  0.048900  1.0  0.0884
  H  H72  1  0.964900  0.416500  0.058800  1.0  0.121
  H  H73  1  0.908500  0.525100  0.285600  1.0  0.0772
  H  H74  1  0.884200  0.390300  0.066900  1.0  0.1032
  H  H75  1  0.397400  0.067300  0.117800  1.0  0.0964
  H  H76  1  0.458600  0.868300  0.919000  1.0  0.1252
  H  H77  1  0.380000  0.835100  0.939000  1.0  0.0957
  H  H78  1  0.011900  0.601100  0.391200  1.0  0.1134
  H  H79  1  0.092200  0.653000  0.384700  1.0  0.1073
  H  H80  1  0.130300  0.504600  0.600100  1.0  0.0946
  H  H81  1  0.420200  0.880200  0.464900  1.0  0.1027
  H  H82  1  0.501100  0.907600  0.451500  1.0  0.1245
  H  H83  1  0.383200  0.944000  0.233600  1.0  0.0806
  H  H84  1  0.527500  0.014700  0.209300  1.0  0.1172
  H  H85  1  0.600100  0.119500  0.207900  1.0  0.1084
  H  H86  1  0.639500  0.033500  0.438200  1.0  0.0937
  H  H87  1  0.279100  0.671900  0.337700  1.0  0.2617
  H  H88  1  0.221900  0.674200  0.322800  1.0  0.2548
  C  C89  1  0.176900  0.875000  0.625100  1.0  0.7596
  C  C90  1  0.128100  0.914000  0.639800  1.0  -0.1957
  C  C91  1  0.108600  0.872000  0.704600  1.0  -0.076
  C  C92  1  0.062400  0.905000  0.714500  1.0  -0.0671
  C  C93  1  0.034800  0.981000  0.661300  1.0  0.1392
  C  C94  1  0.098800  0.993300  0.591200  1.0  0.2033
  C  C95  1  0.983200  0.010000  0.666500  1.0  0.2104
  C  C96  1  0.952700  0.060600  0.604700  1.0  -0.0856
  C  C97  1  0.919700  0.996000  0.738500  1.0  0.2056
  C  C98  1  0.886400  0.046700  0.679600  1.0  -0.068
  C  C99  1  0.905100  0.077300  0.610000  1.0  -0.1047
  C  C100  1  0.834300  0.065500  0.688000  1.0  0.7577
  C  C101  1  0.329000  0.587900  0.548100  1.0  0.7456
  C  C102  1  0.380300  0.558000  0.533400  1.0  -0.1525
  C  C103  1  0.410000  0.473700  0.577700  1.0  0.2068
  C  C104  1  0.446200  0.591100  0.459400  1.0  -0.1687
  C  C105  1  0.474300  0.510800  0.505500  1.0  0.1571
  C  C106  1  0.399600  0.612000  0.472500  1.0  -0.0366
  C  C107  1  0.025400  0.980000  0.998100  1.0  0.19
  C  C108  1  0.036600  0.918000  0.933100  1.0  -0.0305
  C  C109  1  0.084100  0.884000  0.930100  1.0  0.002
  C  C110  1  0.120200  0.905000  0.996300  1.0  -0.1268
  C  C111  1  0.106100  0.973000  0.058200  1.0  0.2085
  C  C112  1  0.170600  0.864000  0.996700  1.0  0.7141
  C  C113  1  0.338100  0.587200  0.858300  1.0  0.7312
  C  C114  1  0.391400  0.578100  0.852300  1.0  -0.1368
  C  C115  1  0.428200  0.596700  0.916000  1.0  -0.0962
  C  C116  1  0.476500  0.581600  0.907900  1.0  -0.0861
  C  C117  1  0.488400  0.550500  0.835300  1.0  0.1584
  C  C118  1  0.406900  0.558800  0.779100  1.0  0.217
  C  C119  1  0.538900  0.514100  0.827300  1.0  0.2085
  C  C120  1  0.549500  0.473600  0.756100  1.0  -0.0928
  C  C121  1  0.593400  0.415000  0.754900  1.0  0.0131
  C  C122  1  0.627900  0.407600  0.824800  1.0  -0.1401
  C  C123  1  0.616100  0.464500  0.892400  1.0  0.2027
  C  C124  1  0.674100  0.335600  0.826500  1.0  0.7649
  C  C125  1  0.823100  0.375000  0.874900  1.0  0.7581
  C  C126  1  0.871900  0.414000  0.860200  1.0  -0.1969
  C  C127  1  0.891400  0.372000  0.795400  1.0  -0.0759
  C  C128  1  0.937600  0.405000  0.785500  1.0  -0.0676
  C  C129  1  0.965200  0.481000  0.838700  1.0  0.1387
  C  C130  1  0.901200  0.493300  0.908800  1.0  0.2039
  C  C131  1  0.016800  0.510000  0.833500  1.0  0.2104
  C  C132  1  0.047300  0.560600  0.895300  1.0  -0.0863
  C  C133  1  0.080300  0.496000  0.761500  1.0  0.205
  C  C134  1  0.113600  0.546700  0.820400  1.0  -0.0668
  C  C135  1  0.094900  0.577300  0.890000  1.0  -0.1044
  C  C136  1  0.165700  0.565500  0.812000  1.0  0.758
  C  C137  1  0.671000  0.087900  0.951900  1.0  0.7443
  C  C138  1  0.619700  0.058000  0.966600  1.0  -0.1515
  C  C139  1  0.590000  0.973700  0.922300  1.0  0.2066
  C  C140  1  0.553800  0.091100  0.040600  1.0  -0.1696
  C  C141  1  0.525700  0.010800  0.994500  1.0  0.1567
  C  C142  1  0.600400  0.112000  0.027500  1.0  -0.0358
  C  C143  1  0.974600  0.480000  0.501900  1.0  0.1893
  C  C144  1  0.963400  0.418000  0.566900  1.0  -0.0319
  C  C145  1  0.915900  0.384000  0.569900  1.0  0.0002
  C  C146  1  0.879800  0.405000  0.503700  1.0  -0.1265
  C  C147  1  0.893900  0.473000  0.441800  1.0  0.2103
  C  C148  1  0.829400  0.364000  0.503300  1.0  0.713
  C  C149  1  0.661900  0.087200  0.641700  1.0  0.7302
  C  C150  1  0.608600  0.078100  0.647700  1.0  -0.136
  C  C151  1  0.571800  0.096700  0.584000  1.0  -0.0947
  C  C152  1  0.523500  0.081600  0.592100  1.0  -0.0872
  C  C153  1  0.511600  0.050500  0.664700  1.0  0.1584
  C  C154  1  0.593100  0.058800  0.720900  1.0  0.2155
  C  C155  1  0.461100  0.014100  0.672700  1.0  0.2068
  C  C156  1  0.450500  0.973600  0.743900  1.0  -0.0937
  C  C157  1  0.406600  0.915000  0.745100  1.0  0.0133
  C  C158  1  0.372100  0.907600  0.675200  1.0  -0.1396
  C  C159  1  0.383900  0.964500  0.607600  1.0  0.2034
  C  C160  1  0.325900  0.835600  0.673500  1.0  0.7643
  C  C161  1  0.823100  0.125000  0.374900  1.0  0.7572
  C  C162  1  0.871900  0.086000  0.360200  1.0  -0.1985
  C  C163  1  0.891400  0.128000  0.295400  1.0  -0.0755
  C  C164  1  0.937600  0.095000  0.285500  1.0  -0.0681
  C  C165  1  0.965200  0.019000  0.338700  1.0  0.1388
  C  C166  1  0.901200  0.006700  0.408800  1.0  0.2053
  C  C167  1  0.016800  0.990000  0.333500  1.0  0.2102
  C  C168  1  0.047300  0.939400  0.395300  1.0  -0.0861
  C  C169  1  0.080300  0.004000  0.261500  1.0  0.206
  C  C170  1  0.113600  0.953300  0.320400  1.0  -0.0678
  C  C171  1  0.094900  0.922700  0.390000  1.0  -0.1032
  C  C172  1  0.165700  0.934500  0.312000  1.0  0.7561
  C  C173  1  0.671000  0.412100  0.451900  1.0  0.7478
  C  C174  1  0.619700  0.442000  0.466600  1.0  -0.151
  C  C175  1  0.590000  0.526300  0.422300  1.0  0.2067
  C  C176  1  0.553800  0.408900  0.540600  1.0  -0.1699
  C  C177  1  0.525700  0.489200  0.494500  1.0  0.157
  C  C178  1  0.600400  0.388000  0.527500  1.0  -0.0358
  C  C179  1  0.974600  0.020000  0.001900  1.0  0.1888
  C  C180  1  0.963400  0.082000  0.066900  1.0  -0.0326
  C  C181  1  0.915900  0.116000  0.069900  1.0  0.0011
  C  C182  1  0.879800  0.095000  0.003700  1.0  -0.1276
  C  C183  1  0.893900  0.027000  0.941800  1.0  0.2101
  C  C184  1  0.829400  0.136000  0.003300  1.0  0.7113
  C  C185  1  0.661900  0.412800  0.141700  1.0  0.7312
  C  C186  1  0.608600  0.421900  0.147700  1.0  -0.1359
  C  C187  1  0.571800  0.403300  0.084000  1.0  -0.0951
  C  C188  1  0.523500  0.418400  0.092100  1.0  -0.0871
  C  C189  1  0.511600  0.449500  0.164700  1.0  0.1585
  C  C190  1  0.593100  0.441200  0.220900  1.0  0.2163
  C  C191  1  0.461100  0.485900  0.172700  1.0  0.2071
  C  C192  1  0.450500  0.526400  0.243900  1.0  -0.0936
  C  C193  1  0.406600  0.585000  0.245100  1.0  0.0139
  C  C194  1  0.372100  0.592400  0.175200  1.0  -0.1409
  C  C195  1  0.383900  0.535500  0.107600  1.0  0.2035
  C  C196  1  0.325900  0.664400  0.173500  1.0  0.7646
  C  C197  1  0.176900  0.625000  0.125100  1.0  0.7592
  C  C198  1  0.128100  0.586000  0.139800  1.0  -0.1964
  C  C199  1  0.108600  0.628000  0.204600  1.0  -0.0757
  C  C200  1  0.062400  0.595000  0.214500  1.0  -0.0676
  C  C201  1  0.034800  0.519000  0.161300  1.0  0.1385
  C  C202  1  0.098800  0.506700  0.091200  1.0  0.2035
  C  C203  1  0.983200  0.490000  0.166500  1.0  0.2097
  C  C204  1  0.952700  0.439400  0.104700  1.0  -0.085
  C  C205  1  0.919700  0.504000  0.238500  1.0  0.2049
  C  C206  1  0.886400  0.453300  0.179600  1.0  -0.0692
  C  C207  1  0.905100  0.422700  0.110000  1.0  -0.1039
  C  C208  1  0.834300  0.434500  0.188000  1.0  0.7577
  C  C209  1  0.329000  0.912100  0.048100  1.0  0.7421
  C  C210  1  0.380300  0.942000  0.033400  1.0  -0.1513
  C  C211  1  0.410000  0.026300  0.077700  1.0  0.2057
  C  C212  1  0.446200  0.908900  0.959400  1.0  -0.1692
  C  C213  1  0.474300  0.989200  0.005500  1.0  0.1567
  C  C214  1  0.399600  0.888000  0.972500  1.0  -0.0368
  C  C215  1  0.025400  0.520000  0.498100  1.0  0.1892
  C  C216  1  0.036600  0.582000  0.433100  1.0  -0.0307
  C  C217  1  0.084100  0.616000  0.430100  1.0  0.0017
  C  C218  1  0.120200  0.595000  0.496300  1.0  -0.1272
  C  C219  1  0.106100  0.527000  0.558200  1.0  0.209
  C  C220  1  0.170600  0.636000  0.496700  1.0  0.7127
  C  C221  1  0.338100  0.912800  0.358300  1.0  0.7321
  C  C222  1  0.391400  0.921900  0.352300  1.0  -0.1368
  C  C223  1  0.428200  0.903300  0.416000  1.0  -0.0964
  C  C224  1  0.476500  0.918400  0.407900  1.0  -0.0859
  C  C225  1  0.488400  0.949500  0.335300  1.0  0.1587
  C  C226  1  0.406900  0.941200  0.279100  1.0  0.2177
  C  C227  1  0.538900  0.985900  0.327300  1.0  0.2085
  C  C228  1  0.549500  0.026400  0.256100  1.0  -0.0927
  C  C229  1  0.593400  0.085000  0.254900  1.0  0.0137
  C  C230  1  0.627900  0.092400  0.324800  1.0  -0.1409
  C  C231  1  0.616100  0.035500  0.392400  1.0  0.2037
  C  C232  1  0.674100  0.164400  0.326500  1.0  0.7647
  N  N233  1  0.053400  0.026500  0.599800  1.0  -0.4107
  N  N234  1  0.966800  0.973000  0.733900  1.0  -0.4574
  N  N235  1  0.456200  0.448000  0.565500  1.0  -0.413
  N  N236  1  0.060100  0.007000  0.060900  1.0  -0.4474
  N  N237  1  0.454100  0.544200  0.770600  1.0  -0.4332
  N  N238  1  0.572600  0.516200  0.894000  1.0  -0.4016
  N  N239  1  0.946600  0.526500  0.900200  1.0  -0.4092
  N  N240  1  0.033200  0.473000  0.766100  1.0  -0.458
  N  N241  1  0.543800  0.948000  0.934500  1.0  -0.4146
  N  N242  1  0.939900  0.507000  0.439100  1.0  -0.448
  N  N243  1  0.545900  0.044200  0.729400  1.0  -0.4326
  N  N244  1  0.427400  0.016200  0.606000  1.0  -0.4031
  N  N245  1  0.946600  0.973500  0.400200  1.0  -0.4074
  N  N246  1  0.033200  0.027000  0.266100  1.0  -0.4573
  N  N247  1  0.543800  0.552000  0.434500  1.0  -0.414
  N  N248  1  0.939900  0.993000  0.939100  1.0  -0.4439
  N  N249  1  0.545900  0.455800  0.229400  1.0  -0.4325
  N  N250  1  0.427400  0.483800  0.106000  1.0  -0.4011
  N  N251  1  0.053400  0.473500  0.099800  1.0  -0.4094
  N  N252  1  0.966800  0.527000  0.233900  1.0  -0.4577
  N  N253  1  0.456200  0.052000  0.065500  1.0  -0.4147
  N  N254  1  0.060100  0.493000  0.560900  1.0  -0.4461
  N  N255  1  0.454100  0.955800  0.270600  1.0  -0.4321
  N  N256  1  0.572600  0.983800  0.394000  1.0  -0.4006
  O  O257  1  0.204600  0.820700  0.681400  1.0  -0.6948
  O  O258  1  0.188000  0.895900  0.556000  1.0  -0.7023
  O  O259  1  0.823300  0.079900  0.754600  1.0  -0.7126
  O  O260  1  0.803200  0.062800  0.624100  1.0  -0.7693
  O  O261  1  0.317900  0.561100  0.613800  1.0  -0.7228
  O  O262  1  0.300900  0.642400  0.491700  1.0  -0.7167
  O  O263  1  0.180600  0.811700  0.934500  1.0  -0.6818
  O  O264  1  0.201200  0.867200  0.059000  1.0  -0.8192
  O  O265  1  0.307100  0.549300  0.801300  1.0  -0.7179
  O  O266  1  0.327100  0.626000  0.921600  1.0  -0.6902
  O  O267  1  0.701800  0.325300  0.891300  1.0  -0.8261
  O  O268  1  0.681600  0.286100  0.763100  1.0  -0.6343
  O  O269  1  0.250900  0.775100  0.832700  1.0  -0.7526
  O  O270  1  0.795400  0.320700  0.818600  1.0  -0.6943
  O  O271  1  0.812000  0.395900  0.944000  1.0  -0.7015
  O  O272  1  0.176700  0.579900  0.745400  1.0  -0.7132
  O  O273  1  0.196800  0.562800  0.875900  1.0  -0.7709
  O  O274  1  0.682100  0.061100  0.886200  1.0  -0.7227
  O  O275  1  0.699100  0.142400  0.008300  1.0  -0.7179
  O  O276  1  0.819400  0.311700  0.565500  1.0  -0.6829
  O  O277  1  0.798800  0.367200  0.441000  1.0  -0.8212
  O  O278  1  0.692900  0.049300  0.698700  1.0  -0.7172
  O  O279  1  0.672900  0.126000  0.578400  1.0  -0.6906
  O  O280  1  0.298200  0.825300  0.608700  1.0  -0.827
  O  O281  1  0.318400  0.786100  0.736900  1.0  -0.6354
  O  O282  1  0.749100  0.275100  0.667300  1.0  -0.7526
  O  O283  1  0.795400  0.179300  0.318600  1.0  -0.694
  O  O284  1  0.812000  0.104100  0.444000  1.0  -0.7013
  O  O285  1  0.176700  0.920100  0.245400  1.0  -0.7141
  O  O286  1  0.196800  0.937200  0.375900  1.0  -0.7719
  O  O287  1  0.682100  0.438900  0.386200  1.0  -0.7215
  O  O288  1  0.699100  0.357600  0.508300  1.0  -0.7184
  O  O289  1  0.819400  0.188300  0.065500  1.0  -0.6817
  O  O290  1  0.798800  0.132800  0.941000  1.0  -0.8207
  O  O291  1  0.692900  0.450700  0.198700  1.0  -0.717
  O  O292  1  0.672900  0.374000  0.078400  1.0  -0.6912
  O  O293  1  0.298200  0.674700  0.108700  1.0  -0.8281
  O  O294  1  0.318400  0.713900  0.236900  1.0  -0.6347
  O  O295  1  0.749100  0.224900  0.167300  1.0  -0.7496
  O  O296  1  0.204600  0.679300  0.181400  1.0  -0.6946
  O  O297  1  0.188000  0.604100  0.056000  1.0  -0.702
  O  O298  1  0.823300  0.420100  0.254600  1.0  -0.713
  O  O299  1  0.803200  0.437200  0.124100  1.0  -0.7693
  O  O300  1  0.317900  0.938900  0.113800  1.0  -0.7218
  O  O301  1  0.300900  0.857600  0.991700  1.0  -0.7191
  O  O302  1  0.180600  0.688300  0.434500  1.0  -0.6818
  O  O303  1  0.201200  0.632800  0.559000  1.0  -0.818
  O  O304  1  0.307100  0.950700  0.301300  1.0  -0.7173
  O  O305  1  0.327100  0.874000  0.421600  1.0  -0.6906
  O  O306  1  0.701800  0.174700  0.391300  1.0  -0.8269
  O  O307  1  0.681600  0.213900  0.263100  1.0  -0.6344
  O  O308  1  0.250900  0.724900  0.332700  1.0  -0.7496
