# generated using pymatgen
data_CoH18C22(N2O3)2
_symmetry_space_group_name_H-M   'P 1'
_cell_length_a   10.11120000
_cell_length_b   15.94300000
_cell_length_c   16.76400000
_cell_angle_alpha   111.32500000
_cell_angle_beta   103.68000000
_cell_angle_gamma   102.59800000
_symmetry_Int_Tables_number   1
_chemical_formula_structural   CoH18C22(N2O3)2
_chemical_formula_sum   'Co4 H72 C88 N16 O24'
_cell_volume   2303.76297906
_cell_formula_units_Z   4
loop_
 _symmetry_equiv_pos_site_id
 _symmetry_equiv_pos_as_xyz
  1  'x, y, z'
loop_
 _atom_site_type_symbol
 _atom_site_label
 _atom_site_symmetry_multiplicity
 _atom_site_fract_x
 _atom_site_fract_y
 _atom_site_fract_z
 _atom_site_occupancy
 _atom_site_charge
  Co  Co1  1  0.424360  0.376570  0.592350  1.0  0.9006
  Co  Co2  1  0.677890  0.206040  0.592810  1.0  0.9236
  Co  Co3  1  0.575640  0.623430  0.407650  1.0  0.9012
  Co  Co4  1  0.322110  0.793960  0.407190  1.0  0.9234
  H  H5  1  0.673600  0.543500  0.762600  1.0  0.0843
  H  H6  1  0.863500  0.644900  0.905000  1.0  0.2684
  H  H7  1  0.243700  0.941800  0.290500  1.0  0.3079
  H  H8  1  0.652800  0.528600  0.992600  1.0  0.112
  H  H9  1  0.447700  0.394000  0.903700  1.0  0.1085
  H  H10  1  0.358800  0.341600  0.749200  1.0  0.0764
  H  H11  1  0.585500  0.232300  0.903600  1.0  0.2935
  H  H12  1  0.528300  0.366800  0.291900  1.0  0.315
  H  H13  1  0.034200  0.773700  0.018000  1.0  0.0995
  H  H14  1  0.934100  0.836000  0.018100  1.0  0.1276
  H  H15  1  0.056900  0.812400  0.174000  1.0  0.0869
  H  H16  1  0.978300  0.886400  0.170900  1.0  0.1033
  H  H17  1  0.457100  0.051000  0.192300  1.0  0.119
  H  H18  1  0.681200  0.170000  0.281400  1.0  0.1055
  H  H19  1  0.760900  0.227500  0.435200  1.0  0.0831
  H  H20  1  0.414400  0.051000  0.423600  1.0  0.088
  H  H21  1  0.601700  0.213800  0.766500  1.0  0.0831
  H  H22  1  0.927200  0.408200  0.994600  1.0  0.1149
  H  H23  1  0.050500  0.441100  0.901800  1.0  0.11
  H  H24  1  0.944900  0.360100  0.746000  1.0  0.0716
  H  H25  1  0.473100  0.277000  0.017400  1.0  0.1031
  H  H26  1  0.557100  0.209800  0.033900  1.0  0.0959
  H  H27  1  0.586700  0.385700  0.168600  1.0  0.0883
  H  H28  1  0.671300  0.318700  0.185200  1.0  0.0969
  H  H29  1  0.205200  0.170200  0.190900  1.0  0.1259
  H  H30  1  0.077200  0.130500  0.279700  1.0  0.1037
  H  H31  1  0.164700  0.214300  0.433300  1.0  0.0802
  H  H32  1  0.503200  0.379100  0.424100  1.0  0.0879
  H  H33  1  0.964400  0.378400  0.600800  1.0  0.1065
  H  H34  1  0.218200  0.623400  0.622800  1.0  0.0856
  H  H35  1  0.033300  0.687000  0.628400  1.0  0.1042
  H  H36  1  0.811400  0.594100  0.616900  1.0  0.0847
  H  H37  1  0.319000  0.012400  0.620900  1.0  0.08
  H  H38  1  0.143800  0.208600  0.596100  1.0  0.1043
  H  H39  1  0.919100  0.987800  0.625300  1.0  0.0876
  H  H40  1  0.112100  0.930800  0.632500  1.0  0.1083
  H  H41  1  0.326400  0.456500  0.237400  1.0  0.0837
  H  H42  1  0.136500  0.355100  0.095000  1.0  0.2684
  H  H43  1  0.756300  0.058200  0.709500  1.0  0.3085
  H  H44  1  0.347200  0.471400  0.007400  1.0  0.112
  H  H45  1  0.552300  0.606000  0.096300  1.0  0.1077
  H  H46  1  0.641200  0.658400  0.250800  1.0  0.0766
  H  H47  1  0.414500  0.767700  0.096400  1.0  0.2922
  H  H48  1  0.471700  0.633200  0.708100  1.0  0.3137
  H  H49  1  0.965800  0.226300  0.982000  1.0  0.1002
  H  H50  1  0.065900  0.164000  0.981900  1.0  0.1272
  H  H51  1  0.943100  0.187600  0.826000  1.0  0.0879
  H  H52  1  0.021700  0.113600  0.829100  1.0  0.1018
  H  H53  1  0.542900  0.949000  0.807700  1.0  0.1191
  H  H54  1  0.318800  0.830000  0.718600  1.0  0.1056
  H  H55  1  0.239100  0.772500  0.564800  1.0  0.0829
  H  H56  1  0.585600  0.949000  0.576400  1.0  0.0882
  H  H57  1  0.398300  0.786200  0.233500  1.0  0.0836
  H  H58  1  0.072800  0.591800  0.005400  1.0  0.1145
  H  H59  1  0.949500  0.558900  0.098200  1.0  0.1099
  H  H60  1  0.055100  0.639900  0.254000  1.0  0.0715
  H  H61  1  0.526900  0.723000  0.982600  1.0  0.1028
  H  H62  1  0.442900  0.790200  0.966100  1.0  0.0973
  H  H63  1  0.413300  0.614300  0.831400  1.0  0.0866
  H  H64  1  0.328700  0.681300  0.814800  1.0  0.098
  H  H65  1  0.794800  0.829800  0.809100  1.0  0.1256
  H  H66  1  0.922800  0.869500  0.720300  1.0  0.1035
  H  H67  1  0.835300  0.785700  0.566700  1.0  0.0809
  H  H68  1  0.496800  0.620900  0.575900  1.0  0.0876
  H  H69  1  0.035600  0.621600  0.399200  1.0  0.1065
  H  H70  1  0.781800  0.376600  0.377200  1.0  0.0856
  H  H71  1  0.966700  0.313000  0.371600  1.0  0.1044
  H  H72  1  0.188600  0.405900  0.383100  1.0  0.0846
  H  H73  1  0.681000  0.987600  0.379100  1.0  0.0789
  H  H74  1  0.856200  0.791400  0.403900  1.0  0.1047
  H  H75  1  0.080900  0.012200  0.374700  1.0  0.0876
  H  H76  1  0.887900  0.069200  0.367500  1.0  0.1076
  C  C77  1  0.626700  0.513900  0.791800  1.0  0.1074
  C  C78  1  0.681500  0.553800  0.886300  1.0  0.2031
  C  C79  1  0.615900  0.506600  0.929600  1.0  -0.1288
  C  C80  1  0.494500  0.426300  0.876400  1.0  -0.1482
  C  C81  1  0.443200  0.394000  0.783500  1.0  0.1796
  C  C82  1  0.836000  0.709700  0.017400  1.0  0.5537
  C  C83  1  0.965300  0.795500  0.044300  1.0  -0.3102
  C  C84  1  0.040600  0.854500  0.145800  1.0  -0.2276
  C  C85  1  0.183900  0.928800  0.169700  1.0  0.5334
  C  C86  1  0.409800  0.037900  0.299900  1.0  0.197
  C  C87  1  0.491000  0.073900  0.255500  1.0  -0.1456
  C  C88  1  0.624200  0.145100  0.309100  1.0  -0.1131
  C  C89  1  0.672000  0.178900  0.401200  1.0  0.1628
  C  C90  1  0.467800  0.075500  0.394000  1.0  0.1003
  C  C91  1  0.692000  0.261300  0.794200  1.0  0.0799
  C  C92  1  0.748400  0.308800  0.888500  1.0  0.2222
  C  C93  1  0.885600  0.376600  0.931300  1.0  -0.1346
  C  C94  1  0.958600  0.395500  0.875800  1.0  -0.1128
  C  C95  1  0.894400  0.346700  0.782100  1.0  0.1724
  C  C96  1  0.682900  0.323500  0.026300  1.0  0.5197
  C  C97  1  0.564000  0.276200  0.052300  1.0  -0.1961
  C  C98  1  0.581000  0.319500  0.149700  1.0  -0.1618
  C  C99  1  0.458400  0.268400  0.170900  1.0  0.4993
  C  C100  1  0.371200  0.279200  0.299700  1.0  0.2203
  C  C101  1  0.240700  0.203900  0.254200  1.0  -0.1139
  C  C102  1  0.164500  0.180800  0.307700  1.0  -0.1322
  C  C103  1  0.217300  0.231500  0.399700  1.0  0.1654
  C  C104  1  0.416800  0.328000  0.394100  1.0  0.119
  C  C105  1  0.865700  0.477000  0.608000  1.0  -0.1711
  C  C106  1  0.977600  0.439800  0.605600  1.0  -0.0225
  C  C107  1  0.109800  0.494700  0.610400  1.0  -0.1378
  C  C108  1  0.129700  0.586700  0.619100  1.0  -0.04
  C  C109  1  0.019100  0.625000  0.622200  1.0  -0.0986
  C  C110  1  0.886600  0.569400  0.615900  1.0  -0.0137
  C  C111  1  0.227900  0.451700  0.604400  1.0  0.6579
  C  C112  1  0.720100  0.416000  0.598600  1.0  0.677
  C  C113  1  0.241700  0.035200  0.617900  1.0  -0.0363
  C  C114  1  0.252500  0.118700  0.606100  1.0  -0.1448
  C  C115  1  0.137600  0.152700  0.603100  1.0  -0.0433
  C  C116  1  0.011200  0.102900  0.610500  1.0  -0.1357
  C  C117  1  0.002900  0.020900  0.620900  1.0  -0.0269
  C  C118  1  0.118400  0.986400  0.625000  1.0  -0.103
  C  C119  1  0.386700  0.171200  0.596100  1.0  0.6621
  C  C120  1  0.885700  0.139200  0.602400  1.0  0.6424
  C  C121  1  0.373300  0.486100  0.208200  1.0  0.1068
  C  C122  1  0.318500  0.446200  0.113700  1.0  0.2023
  C  C123  1  0.384100  0.493400  0.070400  1.0  -0.1291
  C  C124  1  0.505500  0.573700  0.123600  1.0  -0.149
  C  C125  1  0.556800  0.606000  0.216500  1.0  0.1783
  C  C126  1  0.164000  0.290300  0.982600  1.0  0.5549
  C  C127  1  0.034700  0.204500  0.955700  1.0  -0.3109
  C  C128  1  0.959400  0.145500  0.854200  1.0  -0.228
  C  C129  1  0.816100  0.071200  0.830300  1.0  0.5348
  C  C130  1  0.590200  0.962100  0.700100  1.0  0.1971
  C  C131  1  0.509000  0.926100  0.744500  1.0  -0.1447
  C  C132  1  0.375800  0.854900  0.690900  1.0  -0.1138
  C  C133  1  0.328000  0.821100  0.598800  1.0  0.1645
  C  C134  1  0.532200  0.924500  0.606000  1.0  0.1017
  C  C135  1  0.308000  0.738700  0.205800  1.0  0.0808
  C  C136  1  0.251600  0.691200  0.111500  1.0  0.2218
  C  C137  1  0.114400  0.623400  0.068700  1.0  -0.1343
  C  C138  1  0.041400  0.604500  0.124200  1.0  -0.1145
  C  C139  1  0.105600  0.653300  0.217900  1.0  0.1743
  C  C140  1  0.317100  0.676500  0.973700  1.0  0.5196
  C  C141  1  0.436000  0.723800  0.947700  1.0  -0.1969
  C  C142  1  0.419000  0.680500  0.850300  1.0  -0.1621
  C  C143  1  0.541600  0.731600  0.829100  1.0  0.5018
  C  C144  1  0.628800  0.720800  0.700300  1.0  0.2208
  C  C145  1  0.759300  0.796100  0.745800  1.0  -0.1141
  C  C146  1  0.835500  0.819200  0.692300  1.0  -0.1316
  C  C147  1  0.782700  0.768500  0.600300  1.0  0.1682
  C  C148  1  0.583200  0.672000  0.605900  1.0  0.1193
  C  C149  1  0.134300  0.523000  0.392000  1.0  -0.1719
  C  C150  1  0.022400  0.560200  0.394400  1.0  -0.0231
  C  C151  1  0.890200  0.505300  0.389600  1.0  -0.1379
  C  C152  1  0.870300  0.413300  0.380900  1.0  -0.0389
  C  C153  1  0.980900  0.375000  0.377800  1.0  -0.0986
  C  C154  1  0.113400  0.430600  0.384100  1.0  -0.0142
  C  C155  1  0.772100  0.548300  0.395600  1.0  0.6561
  C  C156  1  0.279900  0.584000  0.401400  1.0  0.6762
  C  C157  1  0.758300  0.964800  0.382100  1.0  -0.0348
  C  C158  1  0.747500  0.881300  0.393900  1.0  -0.1457
  C  C159  1  0.862400  0.847300  0.396900  1.0  -0.0415
  C  C160  1  0.988800  0.897100  0.389500  1.0  -0.1362
  C  C161  1  0.997100  0.979100  0.379100  1.0  -0.0269
  C  C162  1  0.881600  0.013600  0.375000  1.0  -0.1041
  C  C163  1  0.613300  0.828800  0.403900  1.0  0.6631
  C  C164  1  0.114300  0.860800  0.397600  1.0  0.6437
  N  N165  1  0.510400  0.435600  0.740200  1.0  -0.3301
  N  N166  1  0.803500  0.638100  0.932800  1.0  -0.38
  N  N167  1  0.273600  0.965600  0.256900  1.0  -0.418
  N  N168  1  0.595900  0.144900  0.445400  1.0  -0.3438
  N  N169  1  0.762000  0.280800  0.741200  1.0  -0.3357
  N  N170  1  0.661800  0.281900  0.936400  1.0  -0.4039
  N  N171  1  0.461900  0.312000  0.258000  1.0  -0.3832
  N  N172  1  0.342400  0.305400  0.444800  1.0  -0.3477
  N  N173  1  0.489600  0.564400  0.259800  1.0  -0.329
  N  N174  1  0.196500  0.361900  0.067200  1.0  -0.3811
  N  N175  1  0.726400  0.034400  0.743100  1.0  -0.4193
  N  N176  1  0.404100  0.855100  0.554600  1.0  -0.3439
  N  N177  1  0.238000  0.719200  0.258800  1.0  -0.334
  N  N178  1  0.338200  0.718100  0.063600  1.0  -0.4055
  N  N179  1  0.538100  0.688000  0.742000  1.0  -0.3831
  N  N180  1  0.657600  0.694600  0.555200  1.0  -0.3491
  O  O181  1  0.766400  0.705000  0.067300  1.0  -0.5542
  O  O182  1  0.214500  0.953900  0.113800  1.0  -0.5251
  O  O183  1  0.788000  0.392200  0.081700  1.0  -0.522
  O  O184  1  0.365600  0.192100  0.113600  1.0  -0.5295
  O  O185  1  0.619900  0.450300  0.596400  1.0  -0.5817
  O  O186  1  0.707100  0.334600  0.592400  1.0  -0.6433
  O  O187  1  0.206400  0.366900  0.590100  1.0  -0.5794
  O  O188  1  0.349900  0.501700  0.611200  1.0  -0.6093
  O  O189  1  0.488200  0.136500  0.598700  1.0  -0.584
  O  O190  1  0.391800  0.244200  0.586400  1.0  -0.6291
  O  O191  1  0.891800  0.211100  0.587000  1.0  -0.5943
  O  O192  1  0.772300  0.097000  0.610500  1.0  -0.6107
  O  O193  1  0.233600  0.295000  0.932700  1.0  -0.5548
  O  O194  1  0.785500  0.046100  0.886200  1.0  -0.5276
  O  O195  1  0.212000  0.607800  0.918300  1.0  -0.5192
  O  O196  1  0.634400  0.807900  0.886400  1.0  -0.5269
  O  O197  1  0.380100  0.549700  0.403600  1.0  -0.5824
  O  O198  1  0.292900  0.665400  0.407600  1.0  -0.6447
  O  O199  1  0.793600  0.633100  0.409900  1.0  -0.5798
  O  O200  1  0.650100  0.498300  0.388800  1.0  -0.6079
  O  O201  1  0.511800  0.863500  0.401300  1.0  -0.5834
  O  O202  1  0.608200  0.755800  0.413600  1.0  -0.6263
  O  O203  1  0.108200  0.788900  0.413000  1.0  -0.5943
  O  O204  1  0.227700  0.903000  0.389500  1.0  -0.6106
