# generated using pymatgen
data_CdH26C42(N2O)4
_symmetry_space_group_name_H-M   'P 1'
_cell_length_a   18.22400000
_cell_length_b   18.23900000
_cell_length_c   20.80800000
_cell_angle_alpha   85.94200000
_cell_angle_beta   83.55800000
_cell_angle_gamma   63.39800000
_symmetry_Int_Tables_number   1
_chemical_formula_structural   CdH26C42(N2O)4
_chemical_formula_sum   'Cd6 H156 C252 N48 O24'
_cell_volume   6143.46156308
_cell_formula_units_Z   6
loop_
 _symmetry_equiv_pos_site_id
 _symmetry_equiv_pos_as_xyz
  1  'x, y, z'
loop_
 _atom_site_type_symbol
 _atom_site_label
 _atom_site_symmetry_multiplicity
 _atom_site_fract_x
 _atom_site_fract_y
 _atom_site_fract_z
 _atom_site_occupancy
 _atom_site_charge
  Cd  Cd1  1  0.423410  0.172570  0.715220  1.0  1.0177
  Cd  Cd2  1  0.618510  0.588060  0.723100  1.0  0.9709
  Cd  Cd3  1  0.973080  0.214220  0.259080  1.0  1.0067
  Cd  Cd4  1  0.576590  0.827430  0.284780  1.0  1.0177
  Cd  Cd5  1  0.381490  0.411940  0.276900  1.0  0.9705
  Cd  Cd6  1  0.026920  0.785780  0.740920  1.0  1.0059
  H  H7  1  0.711900  0.970000  0.731400  1.0  0.1057
  H  H8  1  0.806200  0.729800  0.693700  1.0  0.1067
  H  H9  1  0.561500  0.872600  0.701000  1.0  0.1004
  H  H10  1  0.485500  0.412300  0.746200  1.0  0.1021
  H  H11  1  0.318000  0.649000  0.739000  1.0  0.1091
  H  H12  1  0.247600  0.469700  0.735200  1.0  0.1067
  H  H13  1  0.248900  0.304200  0.663400  1.0  0.0849
  H  H14  1  0.360800  0.014300  0.689900  1.0  0.1147
  H  H15  1  0.282200  0.947100  0.682400  1.0  0.099
  H  H16  1  0.145500  0.018100  0.659000  1.0  0.0883
  H  H17  1  0.086700  0.158700  0.639500  1.0  0.1156
  H  H18  1  0.020700  0.285800  0.685700  1.0  0.1061
  H  H19  1  0.911500  0.511200  0.604600  1.0  0.1528
  H  H20  1  0.157200  0.385900  0.585100  1.0  0.1027
  H  H21  1  0.814600  0.527000  0.690100  1.0  0.0973
  H  H22  1  0.669200  0.368200  0.748500  1.0  0.1195
  H  H23  1  0.729700  0.230000  0.730400  1.0  0.1002
  H  H24  1  0.860600  0.164900  0.678400  1.0  0.1
  H  H25  1  0.938700  0.234900  0.649700  1.0  0.1186
  H  H26  1  0.165800  0.484700  0.537600  1.0  0.1029
  H  H27  1  0.016300  0.762200  0.483300  1.0  0.11
  H  H28  1  0.875000  0.830000  0.501100  1.0  0.1027
  H  H29  1  0.801200  0.762500  0.550800  1.0  0.0949
  H  H30  1  0.867700  0.623700  0.579900  1.0  0.1207
  H  H31  1  0.542000  0.256100  0.643500  1.0  0.0902
  H  H32  1  0.422500  0.099400  0.561900  1.0  0.1145
  H  H33  1  0.444000  0.071200  0.451800  1.0  0.0963
  H  H34  1  0.522200  0.117200  0.381300  1.0  0.0973
  H  H35  1  0.583600  0.192800  0.417100  1.0  0.1296
  H  H36  1  0.706600  0.167500  0.479600  1.0  0.1054
  H  H37  1  0.772200  0.350000  0.485400  1.0  0.1142
  H  H38  1  0.549800  0.378300  0.566200  1.0  0.1164
  H  H39  1  0.843500  0.292300  0.383300  1.0  0.0896
  H  H40  1  0.044000  0.017100  0.346300  1.0  0.1191
  H  H41  1  0.035200  0.909100  0.407500  1.0  0.0991
  H  H42  1  0.930100  0.933400  0.487900  1.0  0.0861
  H  H43  1  0.827500  0.064300  0.509800  1.0  0.1267
  H  H44  1  0.662600  0.729700  0.151400  1.0  0.0863
  H  H45  1  0.575000  0.007700  0.204500  1.0  0.1204
  H  H46  1  0.597200  0.098000  0.128100  1.0  0.1037
  H  H47  1  0.663800  0.049000  0.024600  1.0  0.0869
  H  H48  1  0.708600  0.919000  0.997700  1.0  0.1014
  H  H49  1  0.607100  0.452400  0.642900  1.0  0.079
  H  H50  1  0.634300  0.690300  0.562200  1.0  0.1138
  H  H51  1  0.670600  0.703900  0.453200  1.0  0.0933
  H  H52  1  0.692200  0.604100  0.381800  1.0  0.0828
  H  H53  1  0.679300  0.485600  0.415700  1.0  0.1153
  H  H54  1  0.689100  0.675200  0.819900  1.0  0.0753
  H  H55  1  0.582100  0.480600  0.861500  1.0  0.1195
  H  H56  1  0.576300  0.426600  0.967500  1.0  0.09
  H  H57  1  0.618100  0.467800  0.049100  1.0  0.0813
  H  H58  1  0.668300  0.561800  0.035200  1.0  0.128
  H  H59  1  0.637800  0.717800  0.020100  1.0  0.1246
  H  H60  1  0.830800  0.770500  0.019700  1.0  0.1215
  H  H61  1  0.821700  0.638700  0.875400  1.0  0.1181
  H  H62  1  0.089400  0.020900  0.209400  1.0  0.0883
  H  H63  1  0.800800  0.194300  0.227300  1.0  0.1109
  H  H64  1  0.712600  0.151800  0.186600  1.0  0.0907
  H  H65  1  0.761800  0.023900  0.143600  1.0  0.0792
  H  H66  1  0.899500  0.938600  0.130500  1.0  0.1233
  H  H67  1  0.004200  0.841100  0.193400  1.0  0.0949
  H  H68  1  0.210600  0.692800  0.087500  1.0  0.1087
  H  H69  1  0.162300  0.926600  0.110600  1.0  0.1264
  H  H70  1  0.194800  0.590800  0.154500  1.0  0.0849
  H  H71  1  0.962600  0.536000  0.197600  1.0  0.1213
  H  H72  1  0.828700  0.641700  0.201000  1.0  0.1069
  H  H73  1  0.806000  0.774700  0.181100  1.0  0.0804
  H  H74  1  0.913500  0.810100  0.157800  1.0  0.1221
  H  H75  1  0.326900  0.837900  0.117900  1.0  0.0743
  H  H76  1  0.481900  0.722800  0.921600  1.0  0.118
  H  H77  1  0.430500  0.674100  0.851200  1.0  0.0862
  H  H78  1  0.301600  0.684100  0.869100  1.0  0.093
  H  H79  1  0.221100  0.731100  0.965600  1.0  0.1148
  H  H80  1  0.875800  0.763500  0.829300  1.0  0.0806
  H  H81  1  0.156900  0.671100  0.866300  1.0  0.1109
  H  H82  1  0.204200  0.601400  0.960800  1.0  0.0836
  H  H83  1  0.121100  0.568800  0.035600  1.0  0.0821
  H  H84  1  0.982900  0.613000  0.023900  1.0  0.1139
  H  H85  1  0.288100  0.030000  0.268600  1.0  0.1048
  H  H86  1  0.193800  0.270200  0.306300  1.0  0.1065
  H  H87  1  0.438500  0.127400  0.299000  1.0  0.1008
  H  H88  1  0.514500  0.587700  0.253800  1.0  0.1017
  H  H89  1  0.682000  0.351000  0.261000  1.0  0.1093
  H  H90  1  0.752400  0.530300  0.264800  1.0  0.107
  H  H91  1  0.751100  0.695800  0.336600  1.0  0.0855
  H  H92  1  0.639200  0.985700  0.310100  1.0  0.1146
  H  H93  1  0.717800  0.052900  0.317600  1.0  0.0986
  H  H94  1  0.854500  0.981900  0.341000  1.0  0.089
  H  H95  1  0.913300  0.841300  0.360500  1.0  0.1158
  H  H96  1  0.979300  0.714200  0.314300  1.0  0.1063
  H  H97  1  0.088500  0.488800  0.395400  1.0  0.153
  H  H98  1  0.842800  0.614100  0.414900  1.0  0.1033
  H  H99  1  0.185400  0.473000  0.309900  1.0  0.0966
  H  H100  1  0.330800  0.631800  0.251500  1.0  0.1206
  H  H101  1  0.270300  0.770000  0.269600  1.0  0.1017
  H  H102  1  0.139400  0.835100  0.321600  1.0  0.0995
  H  H103  1  0.061300  0.765100  0.350300  1.0  0.1196
  H  H104  1  0.834200  0.515300  0.462400  1.0  0.1032
  H  H105  1  0.983700  0.237800  0.516700  1.0  0.1094
  H  H106  1  0.125000  0.170000  0.498900  1.0  0.1033
  H  H107  1  0.198800  0.237500  0.449200  1.0  0.0948
  H  H108  1  0.132300  0.376300  0.420100  1.0  0.1209
  H  H109  1  0.458000  0.743900  0.356500  1.0  0.0906
  H  H110  1  0.577500  0.900600  0.438100  1.0  0.1144
  H  H111  1  0.556000  0.928800  0.548200  1.0  0.0969
  H  H112  1  0.477800  0.882800  0.618700  1.0  0.0974
  H  H113  1  0.416400  0.807200  0.582900  1.0  0.1301
  H  H114  1  0.293400  0.832500  0.520400  1.0  0.1055
  H  H115  1  0.227800  0.650000  0.514600  1.0  0.1135
  H  H116  1  0.450200  0.621700  0.433800  1.0  0.117
  H  H117  1  0.156500  0.707700  0.616700  1.0  0.09
  H  H118  1  0.956000  0.982900  0.653700  1.0  0.1184
  H  H119  1  0.964800  0.090900  0.592500  1.0  0.0998
  H  H120  1  0.069900  0.066600  0.512100  1.0  0.0856
  H  H121  1  0.172500  0.935700  0.490200  1.0  0.1263
  H  H122  1  0.337400  0.270300  0.848600  1.0  0.087
  H  H123  1  0.425000  0.992300  0.795500  1.0  0.1198
  H  H124  1  0.402800  0.902000  0.871900  1.0  0.104
  H  H125  1  0.336200  0.951000  0.975400  1.0  0.0878
  H  H126  1  0.291400  0.081000  0.002300  1.0  0.1014
  H  H127  1  0.392900  0.547600  0.357100  1.0  0.0786
  H  H128  1  0.365700  0.309700  0.437800  1.0  0.114
  H  H129  1  0.329400  0.296100  0.546800  1.0  0.0929
  H  H130  1  0.307800  0.395900  0.618200  1.0  0.0823
  H  H131  1  0.320700  0.514400  0.584300  1.0  0.1158
  H  H132  1  0.310900  0.324800  0.180100  1.0  0.075
  H  H133  1  0.417900  0.519400  0.138500  1.0  0.1192
  H  H134  1  0.423700  0.573400  0.032500  1.0  0.0893
  H  H135  1  0.381900  0.532200  0.950900  1.0  0.0819
  H  H136  1  0.331700  0.438200  0.964800  1.0  0.1286
  H  H137  1  0.362200  0.282200  0.979900  1.0  0.1237
  H  H138  1  0.169200  0.229500  0.980300  1.0  0.1211
  H  H139  1  0.178300  0.361300  0.124600  1.0  0.1186
  H  H140  1  0.910600  0.979100  0.790600  1.0  0.0878
  H  H141  1  0.199200  0.805700  0.772700  1.0  0.1101
  H  H142  1  0.287400  0.848200  0.813400  1.0  0.0913
  H  H143  1  0.238200  0.976100  0.856400  1.0  0.0795
  H  H144  1  0.100500  0.061400  0.869500  1.0  0.1242
  H  H145  1  0.995800  0.158900  0.806600  1.0  0.0948
  H  H146  1  0.789400  0.307200  0.912500  1.0  0.109
  H  H147  1  0.837700  0.073400  0.889400  1.0  0.1268
  H  H148  1  0.805200  0.409200  0.845500  1.0  0.0844
  H  H149  1  0.037400  0.464000  0.802400  1.0  0.1207
  H  H150  1  0.171300  0.358300  0.799000  1.0  0.1053
  H  H151  1  0.194000  0.225300  0.818900  1.0  0.0806
  H  H152  1  0.086500  0.189900  0.842200  1.0  0.122
  H  H153  1  0.673100  0.162100  0.882100  1.0  0.075
  H  H154  1  0.518100  0.277200  0.078400  1.0  0.1178
  H  H155  1  0.569500  0.325900  0.148800  1.0  0.0863
  H  H156  1  0.698400  0.315900  0.130900  1.0  0.0925
  H  H157  1  0.778900  0.268900  0.034400  1.0  0.1134
  H  H158  1  0.124200  0.236500  0.170700  1.0  0.0808
  H  H159  1  0.843100  0.328900  0.133700  1.0  0.1107
  H  H160  1  0.795800  0.398600  0.039200  1.0  0.0838
  H  H161  1  0.878900  0.431200  0.964400  1.0  0.0818
  H  H162  1  0.017100  0.387000  0.976100  1.0  0.1141
  C  C163  1  0.554100  0.017200  0.717900  1.0  0.6962
  C  C164  1  0.625500  0.934700  0.714800  1.0  -0.1309
  C  C165  1  0.704700  0.924900  0.721500  1.0  0.0266
  C  C166  1  0.772900  0.849600  0.713600  1.0  -0.1503
  C  C167  1  0.857400  0.840500  0.719000  1.0  0.6394
  C  C168  1  0.761100  0.780600  0.700700  1.0  -0.074
  C  C169  1  0.681600  0.789500  0.698700  1.0  -0.1228
  C  C170  1  0.670000  0.715300  0.691200  1.0  0.6616
  C  C171  1  0.614300  0.866900  0.704300  1.0  -0.0481
  C  C172  1  0.391100  0.337700  0.739900  1.0  0.6541
  C  C173  1  0.370600  0.426500  0.740800  1.0  -0.1577
  C  C174  1  0.431300  0.451600  0.743300  1.0  0.0131
  C  C175  1  0.413200  0.534100  0.741700  1.0  -0.1398
  C  C176  1  0.480200  0.559800  0.740900  1.0  0.6575
  C  C177  1  0.331000  0.593500  0.739200  1.0  -0.0126
  C  C178  1  0.269400  0.568900  0.737200  1.0  -0.1399
  C  C179  1  0.182500  0.633700  0.733300  1.0  0.6569
  C  C180  1  0.289000  0.485900  0.737400  1.0  -0.0259
  C  C181  1  0.243800  0.255800  0.663300  1.0  0.2141
  C  C182  1  0.270500  0.127500  0.671700  1.0  0.1384
  C  C183  1  0.306100  0.043100  0.680700  1.0  -0.1197
  C  C184  1  0.259300  0.003700  0.675900  1.0  -0.0742
  C  C185  1  0.176400  0.046700  0.661200  1.0  -0.0903
  C  C186  1  0.140800  0.130400  0.650300  1.0  -0.137
  C  C187  1  0.188700  0.170700  0.655900  1.0  0.0673
  C  C188  1  0.100700  0.324900  0.636700  1.0  0.1705
  C  C189  1  0.024700  0.328700  0.661200  1.0  -0.2043
  C  C190  1  0.955500  0.399900  0.647300  1.0  0.1466
  C  C191  1  0.959600  0.465000  0.613400  1.0  -0.1995
  C  C192  1  0.035700  0.461900  0.592100  1.0  0.1093
  C  C193  1  0.106000  0.390200  0.601900  1.0  -0.1834
  C  C194  1  0.812000  0.477100  0.692500  1.0  0.2071
  C  C195  1  0.768900  0.386100  0.710600  1.0  0.1705
  C  C196  1  0.722700  0.342100  0.729100  1.0  -0.1109
  C  C197  1  0.758800  0.260200  0.717600  1.0  -0.0809
  C  C198  1  0.838700  0.220400  0.687000  1.0  -0.0755
  C  C199  1  0.885400  0.261500  0.669600  1.0  -0.1626
  C  C200  1  0.849500  0.345200  0.682800  1.0  0.0785
  C  C201  1  0.115300  0.530700  0.535200  1.0  0.2201
  C  C202  1  0.025600  0.653500  0.518300  1.0  0.1503
  C  C203  1  0.986500  0.734700  0.501900  1.0  -0.0442
  C  C204  1  0.902700  0.775000  0.513200  1.0  -0.0935
  C  C205  1  0.858100  0.733900  0.542900  1.0  -0.133
  C  C206  1  0.897400  0.651100  0.560700  1.0  -0.1007
  C  C207  1  0.981700  0.611400  0.548800  1.0  0.0469
  C  C208  1  0.532900  0.231400  0.609600  1.0  0.2323
  C  C209  1  0.491000  0.163500  0.554800  1.0  0.1186
  C  C210  1  0.454200  0.117800  0.533600  1.0  -0.124
  C  C211  1  0.467500  0.101400  0.467700  1.0  -0.1111
  C  C212  1  0.515100  0.129200  0.424900  1.0  -0.1097
  C  C213  1  0.552100  0.174100  0.445500  1.0  -0.1605
  C  C214  1  0.539300  0.189500  0.510800  1.0  0.0794
  C  C215  1  0.621000  0.266200  0.528100  1.0  0.1728
  C  C216  1  0.694600  0.219700  0.492600  1.0  -0.2075
  C  C217  1  0.750700  0.252200  0.476400  1.0  0.1665
  C  C218  1  0.733600  0.329600  0.495000  1.0  -0.2038
  C  C219  1  0.658400  0.376500  0.528100  1.0  0.1523
  C  C220  1  0.600800  0.346000  0.544600  1.0  -0.16
  C  C221  1  0.863700  0.236400  0.392800  1.0  0.2648
  C  C222  1  0.939400  0.106200  0.390200  1.0  0.1452
  C  C223  1  0.000800  0.026800  0.378200  1.0  -0.0954
  C  C224  1  0.995600  0.962700  0.415100  1.0  -0.1067
  C  C225  1  0.931400  0.977700  0.463600  1.0  -0.0971
  C  C226  1  0.869900  0.055000  0.477300  1.0  -0.1872
  C  C227  1  0.875600  0.118500  0.438800  1.0  0.0557
  C  C228  1  0.659600  0.781200  0.140500  1.0  0.2572
  C  C229  1  0.631600  0.910000  0.145800  1.0  -0.014
  C  C230  1  0.602100  0.990200  0.163900  1.0  -0.1005
  C  C231  1  0.614800  0.043400  0.118400  1.0  -0.127
  C  C232  1  0.656000  0.012600  0.055100  1.0  -0.0848
  C  C233  1  0.682900  0.935500  0.038900  1.0  -0.1045
  C  C234  1  0.672800  0.876600  0.084400  1.0  0.088
  C  C235  1  0.618900  0.482600  0.609000  1.0  0.219
  C  C236  1  0.638000  0.578000  0.554600  1.0  0.1623
  C  C237  1  0.644100  0.649400  0.533500  1.0  -0.1392
  C  C238  1  0.665100  0.657200  0.468500  1.0  -0.0953
  C  C239  1  0.678400  0.596500  0.425300  1.0  -0.0784
  C  C240  1  0.671800  0.525400  0.444700  1.0  -0.167
  C  C241  1  0.653400  0.517900  0.509800  1.0  0.0623
  C  C242  1  0.674000  0.641800  0.848500  1.0  0.2226
  C  C243  1  0.631300  0.554800  0.886600  1.0  0.1529
  C  C244  1  0.599800  0.497100  0.895600  1.0  -0.1268
  C  C245  1  0.596400  0.465400  0.959300  1.0  -0.1098
  C  C246  1  0.621500  0.490200  0.008000  1.0  -0.0632
  C  C247  1  0.651500  0.545700  0.000400  1.0  -0.1448
  C  C248  1  0.656200  0.578100  0.938900  1.0  0.097
  C  C249  1  0.724500  0.672000  0.943700  1.0  0.1556
  C  C250  1  0.687800  0.714400  0.000800  1.0  -0.1817
  C  C251  1  0.728800  0.751100  0.027400  1.0  0.2261
  C  C252  1  0.804000  0.745900  0.000500  1.0  -0.2154
  C  C253  1  0.838100  0.702800  0.943700  1.0  0.1721
  C  C254  1  0.798900  0.666200  0.914000  1.0  -0.2229
  C  C255  1  0.035700  0.031100  0.203700  1.0  0.2418
  C  C256  1  0.904100  0.090600  0.202300  1.0  0.107
  C  C257  1  0.820900  0.143500  0.208200  1.0  -0.1176
  C  C258  1  0.768900  0.117200  0.184500  1.0  -0.1071
  C  C259  1  0.799000  0.040100  0.157400  1.0  -0.0993
  C  C260  1  0.879800  0.988500  0.150700  1.0  -0.1523
  C  C261  1  0.932600  0.013300  0.175500  1.0  0.0811
  C  C262  1  0.073500  0.895500  0.155400  1.0  0.1546
  C  C263  1  0.052400  0.832700  0.167800  1.0  -0.1993
  C  C264  1  0.103000  0.756300  0.142400  1.0  0.1431
  C  C265  1  0.176600  0.743600  0.105500  1.0  -0.2085
  C  C266  1  0.197800  0.806800  0.096100  1.0  0.2247
  C  C267  1  0.147800  0.883800  0.118900  1.0  -0.2098
  C  C268  1  0.138000  0.609100  0.160100  1.0  0.2211
  C  C269  1  0.018500  0.611000  0.176900  1.0  0.1446
  C  C270  1  0.953200  0.590300  0.190100  1.0  -0.1049
  C  C271  1  0.873400  0.653600  0.191800  1.0  -0.113
  C  C272  1  0.860000  0.733800  0.179800  1.0  -0.0758
  C  C273  1  0.923600  0.755700  0.166100  1.0  -0.1708
  C  C274  1  0.004000  0.692400  0.165400  1.0  0.0782
  C  C275  1  0.333800  0.810500  0.080000  1.0  0.211
  C  C276  1  0.382100  0.755400  0.988200  1.0  0.1397
  C  C277  1  0.430100  0.724200  0.930500  1.0  -0.0927
  C  C278  1  0.399000  0.697100  0.889400  1.0  -0.0727
  C  C279  1  0.321700  0.701600  0.900900  1.0  -0.0768
  C  C280  1  0.272500  0.730800  0.957200  1.0  -0.1711
  C  C281  1  0.305000  0.759100  0.999500  1.0  0.1413
  C  C282  1  0.919500  0.736900  0.854900  1.0  0.2309
  C  C283  1  0.039200  0.687800  0.888700  1.0  0.148
  C  C284  1  0.121700  0.660700  0.897400  1.0  -0.1345
  C  C285  1  0.149500  0.618300  0.953300  1.0  -0.0946
  C  C286  1  0.098700  0.599600  0.999100  1.0  -0.0744
  C  C287  1  0.017100  0.624700  0.992700  1.0  -0.1559
  C  C288  1  0.988700  0.668900  0.936200  1.0  0.0887
  C  C289  1  0.445900  0.982800  0.282100  1.0  0.6986
  C  C290  1  0.374500  0.065300  0.285200  1.0  -0.1317
  C  C291  1  0.295300  0.075100  0.278500  1.0  0.0274
  C  C292  1  0.227100  0.150400  0.286400  1.0  -0.1505
  C  C293  1  0.142600  0.159500  0.281000  1.0  0.639
  C  C294  1  0.238900  0.219400  0.299300  1.0  -0.0749
  C  C295  1  0.318400  0.210500  0.301300  1.0  -0.123
  C  C296  1  0.330000  0.284700  0.308800  1.0  0.662
  C  C297  1  0.385700  0.133100  0.295700  1.0  -0.0476
  C  C298  1  0.608900  0.662300  0.260100  1.0  0.6541
  C  C299  1  0.629400  0.573500  0.259200  1.0  -0.1581
  C  C300  1  0.568700  0.548400  0.256700  1.0  0.013
  C  C301  1  0.586800  0.465900  0.258300  1.0  -0.14
  C  C302  1  0.519800  0.440200  0.259100  1.0  0.6577
  C  C303  1  0.669000  0.406500  0.260800  1.0  -0.0137
  C  C304  1  0.730600  0.431100  0.262800  1.0  -0.139
  C  C305  1  0.817500  0.366300  0.266700  1.0  0.6582
  C  C306  1  0.711000  0.514100  0.262600  1.0  -0.0253
  C  C307  1  0.756200  0.744200  0.336700  1.0  0.2145
  C  C308  1  0.729500  0.872500  0.328300  1.0  0.138
  C  C309  1  0.693900  0.956900  0.319300  1.0  -0.1195
  C  C310  1  0.740700  0.996300  0.324100  1.0  -0.0739
  C  C311  1  0.823600  0.953300  0.338800  1.0  -0.0922
  C  C312  1  0.859200  0.869600  0.349700  1.0  -0.136
  C  C313  1  0.811300  0.829300  0.344100  1.0  0.0673
  C  C314  1  0.899300  0.675100  0.363300  1.0  0.17
  C  C315  1  0.975300  0.671300  0.338800  1.0  -0.2042
  C  C316  1  0.044500  0.600100  0.352700  1.0  0.1466
  C  C317  1  0.040400  0.535000  0.386600  1.0  -0.1974
  C  C318  1  0.964300  0.538100  0.407900  1.0  0.108
  C  C319  1  0.894000  0.609800  0.398100  1.0  -0.1842
  C  C320  1  0.188000  0.522900  0.307500  1.0  0.208
  C  C321  1  0.231100  0.613900  0.289400  1.0  0.1705
  C  C322  1  0.277300  0.657900  0.270900  1.0  -0.1099
  C  C323  1  0.241200  0.739800  0.282400  1.0  -0.0798
  C  C324  1  0.161300  0.779600  0.313000  1.0  -0.0739
  C  C325  1  0.114600  0.738500  0.330400  1.0  -0.1628
  C  C326  1  0.150500  0.654800  0.317200  1.0  0.078
  C  C327  1  0.884700  0.469300  0.464800  1.0  0.2192
  C  C328  1  0.974400  0.346500  0.481700  1.0  0.152
  C  C329  1  0.013500  0.265300  0.498100  1.0  -0.0463
  C  C330  1  0.097300  0.225000  0.486800  1.0  -0.0966
  C  C331  1  0.141900  0.266100  0.457100  1.0  -0.1345
  C  C332  1  0.102600  0.348900  0.439300  1.0  -0.1008
  C  C333  1  0.018300  0.388600  0.451200  1.0  0.0469
  C  C334  1  0.467100  0.768600  0.390400  1.0  0.233
  C  C335  1  0.509000  0.836500  0.445200  1.0  0.1182
  C  C336  1  0.545800  0.882200  0.466400  1.0  -0.1242
  C  C337  1  0.532500  0.898600  0.532300  1.0  -0.1101
  C  C338  1  0.484900  0.870800  0.575100  1.0  -0.1099
  C  C339  1  0.447900  0.825900  0.554500  1.0  -0.1589
  C  C340  1  0.460700  0.810500  0.489200  1.0  0.0784
  C  C341  1  0.379000  0.733800  0.471900  1.0  0.1734
  C  C342  1  0.305400  0.780300  0.507400  1.0  -0.2055
  C  C343  1  0.249300  0.747800  0.523600  1.0  0.166
  C  C344  1  0.266400  0.670400  0.505000  1.0  -0.2045
  C  C345  1  0.341600  0.623500  0.471900  1.0  0.153
  C  C346  1  0.399200  0.654000  0.455400  1.0  -0.1579
  C  C347  1  0.136300  0.763600  0.607200  1.0  0.2659
  C  C348  1  0.060600  0.893800  0.609800  1.0  0.1457
  C  C349  1  0.999200  0.973200  0.621800  1.0  -0.095
  C  C350  1  0.004400  0.037300  0.584900  1.0  -0.1067
  C  C351  1  0.068600  0.022300  0.536400  1.0  -0.0986
  C  C352  1  0.130100  0.945000  0.522700  1.0  -0.1869
  C  C353  1  0.124400  0.881500  0.561200  1.0  0.0555
  C  C354  1  0.340400  0.218800  0.859500  1.0  0.2564
  C  C355  1  0.368400  0.090000  0.854200  1.0  -0.0161
  C  C356  1  0.397900  0.009800  0.836100  1.0  -0.0993
  C  C357  1  0.385200  0.956600  0.881600  1.0  -0.1276
  C  C358  1  0.344000  0.987400  0.944900  1.0  -0.0849
  C  C359  1  0.317100  0.064500  0.961100  1.0  -0.1063
  C  C360  1  0.327200  0.123400  0.915600  1.0  0.0867
  C  C361  1  0.381100  0.517400  0.391000  1.0  0.2189
  C  C362  1  0.362000  0.422000  0.445400  1.0  0.1632
  C  C363  1  0.355900  0.350600  0.466500  1.0  -0.1392
  C  C364  1  0.334900  0.342800  0.531500  1.0  -0.0955
  C  C365  1  0.321600  0.403500  0.574700  1.0  -0.0789
  C  C366  1  0.328200  0.474600  0.555300  1.0  -0.1658
  C  C367  1  0.346600  0.482100  0.490200  1.0  0.0608
  C  C368  1  0.326000  0.358200  0.151500  1.0  0.2238
  C  C369  1  0.368700  0.445200  0.113400  1.0  0.1546
  C  C370  1  0.400200  0.502900  0.104400  1.0  -0.1269
  C  C371  1  0.403600  0.534600  0.040700  1.0  -0.1095
  C  C372  1  0.378500  0.509800  0.992000  1.0  -0.0625
  C  C373  1  0.348500  0.454300  0.999600  1.0  -0.1434
  C  C374  1  0.343800  0.421900  0.061100  1.0  0.0983
  C  C375  1  0.275500  0.328000  0.056300  1.0  0.1558
  C  C376  1  0.312200  0.285600  0.999200  1.0  -0.1814
  C  C377  1  0.271200  0.248900  0.972600  1.0  0.2262
  C  C378  1  0.196000  0.254100  0.999500  1.0  -0.2174
  C  C379  1  0.161900  0.297200  0.056300  1.0  0.1723
  C  C380  1  0.201100  0.333800  0.086000  1.0  -0.2256
  C  C381  1  0.964300  0.968900  0.796300  1.0  0.2435
  C  C382  1  0.095900  0.909400  0.797700  1.0  0.1082
  C  C383  1  0.179100  0.856500  0.791800  1.0  -0.1179
  C  C384  1  0.231100  0.882800  0.815500  1.0  -0.1052
  C  C385  1  0.201000  0.959900  0.842600  1.0  -0.0987
  C  C386  1  0.120200  0.011500  0.849300  1.0  -0.1546
  C  C387  1  0.067400  0.986700  0.824500  1.0  0.0808
  C  C388  1  0.926500  0.104500  0.844600  1.0  0.1535
  C  C389  1  0.947600  0.167300  0.832200  1.0  -0.1981
  C  C390  1  0.897000  0.243700  0.857600  1.0  0.1432
  C  C391  1  0.823400  0.256400  0.894500  1.0  -0.2101
  C  C392  1  0.802200  0.193200  0.903900  1.0  0.2241
  C  C393  1  0.852200  0.116200  0.881100  1.0  -0.2117
  C  C394  1  0.862000  0.390900  0.839900  1.0  0.2216
  C  C395  1  0.981500  0.389000  0.823100  1.0  0.1427
  C  C396  1  0.046800  0.409700  0.809900  1.0  -0.1046
  C  C397  1  0.126600  0.346400  0.808200  1.0  -0.1099
  C  C398  1  0.140000  0.266200  0.820200  1.0  -0.0748
  C  C399  1  0.076400  0.244300  0.833900  1.0  -0.1712
  C  C400  1  0.996000  0.307600  0.834600  1.0  0.0782
  C  C401  1  0.666200  0.189500  0.920000  1.0  0.2091
  C  C402  1  0.617900  0.244600  0.011800  1.0  0.14
  C  C403  1  0.569900  0.275800  0.069500  1.0  -0.094
  C  C404  1  0.601000  0.302900  0.110600  1.0  -0.0719
  C  C405  1  0.678300  0.298400  0.099100  1.0  -0.0752
  C  C406  1  0.727500  0.269200  0.042800  1.0  -0.1727
  C  C407  1  0.695000  0.240900  0.000500  1.0  0.1415
  C  C408  1  0.080500  0.263100  0.145100  1.0  0.2311
  C  C409  1  0.960800  0.312200  0.111300  1.0  0.1472
  C  C410  1  0.878300  0.339300  0.102600  1.0  -0.134
  C  C411  1  0.850500  0.381700  0.046700  1.0  -0.095
  C  C412  1  0.901300  0.400400  0.000900  1.0  -0.0732
  C  C413  1  0.982900  0.375300  0.007300  1.0  -0.1575
  C  C414  1  0.011300  0.331100  0.063800  1.0  0.0886
  N  N415  1  0.303700  0.183500  0.676000  1.0  -0.4737
  N  N416  1  0.173800  0.253500  0.649900  1.0  -0.0463
  N  N417  1  0.745900  0.469300  0.716300  1.0  -0.5112
  N  N418  1  0.876100  0.406000  0.671700  1.0  -0.0293
  N  N419  1  0.109300  0.601000  0.509600  1.0  -0.4992
  N  N420  1  0.042600  0.530100  0.558000  1.0  -0.1314
  N  N421  1  0.487800  0.190200  0.617600  1.0  -0.4805
  N  N422  1  0.564400  0.234100  0.548200  1.0  -0.0042
  N  N423  1  0.930200  0.180800  0.362300  1.0  -0.41
  N  N424  1  0.826800  0.204500  0.440100  1.0  -0.121
  N  N425  1  0.625300  0.842300  0.180600  1.0  -0.4532
  N  N426  1  0.690400  0.797900  0.082200  1.0  -0.0337
  N  N427  1  0.616400  0.554500  0.616200  1.0  -0.4562
  N  N428  1  0.640300  0.456800  0.547000  1.0  -0.05
  N  N429  1  0.641300  0.597000  0.831100  1.0  -0.4125
  N  N430  1  0.684100  0.635300  0.912300  1.0  -0.0587
  N  N431  1  0.972100  0.100100  0.219500  1.0  -0.4711
  N  N432  1  0.017300  0.975500  0.178400  1.0  -0.0527
  N  N433  1  0.103600  0.559500  0.174300  1.0  -0.4238
  N  N434  1  0.082900  0.690400  0.154300  1.0  -0.0623
  N  N435  1  0.400900  0.785200  0.042500  1.0  -0.4286
  N  N436  1  0.273700  0.794600  0.060900  1.0  -0.0818
  N  N437  1  0.994800  0.730500  0.837900  1.0  -0.4571
  N  N438  1  0.912600  0.701100  0.912600  1.0  0.046
  N  N439  1  0.696300  0.816500  0.324000  1.0  -0.4747
  N  N440  1  0.826200  0.746500  0.350100  1.0  -0.0481
  N  N441  1  0.254100  0.530700  0.283700  1.0  -0.5096
  N  N442  1  0.123900  0.594000  0.328300  1.0  -0.0282
  N  N443  1  0.890700  0.399000  0.490400  1.0  -0.4997
  N  N444  1  0.957400  0.469900  0.442000  1.0  -0.1319
  N  N445  1  0.512200  0.809800  0.382400  1.0  -0.4817
  N  N446  1  0.435600  0.765900  0.451800  1.0  -0.003
  N  N447  1  0.069800  0.819200  0.637700  1.0  -0.4097
  N  N448  1  0.173200  0.795500  0.559900  1.0  -0.1219
  N  N449  1  0.374700  0.157700  0.819400  1.0  -0.4543
  N  N450  1  0.309600  0.202100  0.917800  1.0  -0.0331
  N  N451  1  0.383600  0.445500  0.383800  1.0  -0.457
  N  N452  1  0.359700  0.543200  0.453000  1.0  -0.0485
  N  N453  1  0.358700  0.403000  0.168900  1.0  -0.4131
  N  N454  1  0.315900  0.364700  0.087700  1.0  -0.0593
  N  N455  1  0.027900  0.899900  0.780500  1.0  -0.4686
  N  N456  1  0.982700  0.024500  0.821600  1.0  -0.0523
  N  N457  1  0.896400  0.440500  0.825700  1.0  -0.422
  N  N458  1  0.917100  0.309600  0.845700  1.0  -0.0613
  N  N459  1  0.599100  0.214800  0.957500  1.0  -0.4252
  N  N460  1  0.726300  0.205400  0.939100  1.0  -0.0843
  N  N461  1  0.005200  0.269500  0.162100  1.0  -0.4571
  N  N462  1  0.087400  0.298900  0.087400  1.0  0.0451
  O  O463  1  0.490100  0.028400  0.693000  1.0  -0.6135
  O  O464  1  0.558000  0.075100  0.746300  1.0  -0.6325
  O  O465  1  0.864400  0.899900  0.739700  1.0  -0.6713
  O  O466  1  0.919100  0.773300  0.705700  1.0  -0.6005
  O  O467  1  0.726300  0.651200  0.670000  1.0  -0.5828
  O  O468  1  0.597800  0.719800  0.711400  1.0  -0.6033
  O  O469  1  0.463000  0.284300  0.748300  1.0  -0.6247
  O  O470  1  0.335300  0.318400  0.728200  1.0  -0.6276
  O  O471  1  0.553300  0.503000  0.747200  1.0  -0.6184
  O  O472  1  0.465800  0.633400  0.734200  1.0  -0.6404
  O  O473  1  0.163000  0.705200  0.749600  1.0  -0.6198
  O  O474  1  0.131700  0.616300  0.710600  1.0  -0.6485
  O  O475  1  0.509900  0.971600  0.307000  1.0  -0.6156
  O  O476  1  0.442000  0.924900  0.253700  1.0  -0.6318
  O  O477  1  0.135600  0.100100  0.260300  1.0  -0.6692
  O  O478  1  0.080900  0.226700  0.294300  1.0  -0.6028
  O  O479  1  0.273700  0.348800  0.330000  1.0  -0.5816
  O  O480  1  0.402200  0.280200  0.288600  1.0  -0.6032
  O  O481  1  0.537000  0.715700  0.251700  1.0  -0.6229
  O  O482  1  0.664700  0.681600  0.271800  1.0  -0.6265
  O  O483  1  0.446700  0.497000  0.252800  1.0  -0.6182
  O  O484  1  0.534200  0.366600  0.265800  1.0  -0.6386
  O  O485  1  0.837000  0.294800  0.250400  1.0  -0.6186
  O  O486  1  0.868300  0.383700  0.289400  1.0  -0.6481
