# generated using pymatgen
data_LaH6C5O6
_symmetry_space_group_name_H-M   'P 1'
_cell_length_a   9.03800000
_cell_length_b   9.03800000
_cell_length_c   14.90340000
_cell_angle_alpha   105.97200000
_cell_angle_beta   105.97300000
_cell_angle_gamma   95.30630000
_symmetry_Int_Tables_number   1
_chemical_formula_structural   LaH6C5O6
_chemical_formula_sum   'La4 H24 C20 O24'
_cell_volume   1106.41896566
_cell_formula_units_Z   4
loop_
 _symmetry_equiv_pos_site_id
 _symmetry_equiv_pos_as_xyz
  1  'x, y, z'
loop_
 _atom_site_type_symbol
 _atom_site_label
 _atom_site_symmetry_multiplicity
 _atom_site_fract_x
 _atom_site_fract_y
 _atom_site_fract_z
 _atom_site_occupancy
 _atom_site_charge
  La  La1  1  0.253860  0.503860  0.007720  1.0  2.17
  La  La2  1  0.496140  0.746140  0.492280  1.0  2.17
  La  La3  1  0.746140  0.496140  0.992280  1.0  2.17
  La  La4  1  0.503860  0.253860  0.507720  1.0  2.17
  H  H5  1  0.619300  0.016900  0.150200  1.0  0.1499
  H  H6  1  0.741700  0.907900  0.125000  1.0  0.1354
  H  H7  1  0.639500  0.972900  0.043200  1.0  0.1356
  H  H8  1  0.030900  0.133300  0.150200  1.0  0.1487
  H  H9  1  0.883300  0.217100  0.125000  1.0  0.1396
  H  H10  1  0.903700  0.070300  0.043200  1.0  0.1359
  H  H11  1  0.983100  0.380700  0.349800  1.0  0.1478
  H  H12  1  0.092100  0.258300  0.375000  1.0  0.1402
  H  H13  1  0.027100  0.360500  0.456800  1.0  0.137
  H  H14  1  0.866700  0.969100  0.349800  1.0  0.1501
  H  H15  1  0.782900  0.116700  0.375000  1.0  0.1396
  H  H16  1  0.929700  0.096300  0.456800  1.0  0.1363
  H  H17  1  0.380700  0.983100  0.849800  1.0  0.1502
  H  H18  1  0.258300  0.092100  0.875000  1.0  0.1384
  H  H19  1  0.360500  0.027100  0.956800  1.0  0.1368
  H  H20  1  0.969100  0.866700  0.849800  1.0  0.1482
  H  H21  1  0.116700  0.782900  0.875000  1.0  0.1399
  H  H22  1  0.096300  0.929700  0.956800  1.0  0.1351
  H  H23  1  0.016900  0.619300  0.650200  1.0  0.1492
  H  H24  1  0.907900  0.741700  0.625000  1.0  0.1408
  H  H25  1  0.972900  0.639500  0.543200  1.0  0.1362
  H  H26  1  0.133300  0.030900  0.650200  1.0  0.1498
  H  H27  1  0.217100  0.883300  0.625000  1.0  0.1398
  H  H28  1  0.070300  0.903700  0.543200  1.0  0.1371
  C  C29  1  0.514490  0.792690  0.064780  1.0  0.7696
  C  C30  1  0.639540  0.934940  0.098680  1.0  -0.4496
  C  C31  1  0.050290  0.272090  0.064780  1.0  0.7725
  C  C32  1  0.959140  0.163740  0.098680  1.0  -0.45
  C  C33  1  0.207310  0.485510  0.435220  1.0  0.7672
  C  C34  1  0.065060  0.360460  0.401320  1.0  -0.4528
  C  C35  1  0.727910  0.949710  0.435220  1.0  0.7728
  C  C36  1  0.836260  0.040860  0.401320  1.0  -0.4495
  C  C37  1  0.485510  0.207310  0.935220  1.0  0.7681
  C  C38  1  0.360460  0.065060  0.901320  1.0  -0.452
  C  C39  1  0.949710  0.727910  0.935220  1.0  0.7723
  C  C40  1  0.040860  0.836260  0.901320  1.0  -0.4494
  C  C41  1  0.792690  0.514490  0.564780  1.0  0.7696
  C  C42  1  0.934940  0.639540  0.598680  1.0  -0.4506
  C  C43  1  0.272090  0.050290  0.564780  1.0  0.7734
  C  C44  1  0.163740  0.959140  0.598680  1.0  -0.4498
  C  C45  1  0.317400  0.682600  0.250000  1.0  0.5573
  C  C46  1  0.432600  0.567400  0.250000  1.0  0.5567
  C  C47  1  0.682600  0.317400  0.750000  1.0  0.5567
  C  C48  1  0.567400  0.432600  0.750000  1.0  0.5573
  O  O49  1  0.376750  0.805990  0.065140  1.0  -0.6618
  O  O50  1  0.547290  0.657750  0.034840  1.0  -0.8323
  O  O51  1  0.219620  0.668020  0.168640  1.0  -0.6146
  O  O52  1  0.188390  0.259150  0.065140  1.0  -0.6621
  O  O53  1  0.987550  0.377090  0.034840  1.0  -0.8358
  O  O54  1  0.449020  0.500620  0.168640  1.0  -0.6151
  O  O55  1  0.194010  0.623250  0.434860  1.0  -0.6611
  O  O56  1  0.342250  0.452710  0.465160  1.0  -0.8334
  O  O57  1  0.331980  0.780380  0.331360  1.0  -0.613
  O  O58  1  0.740850  0.811610  0.434860  1.0  -0.6611
  O  O59  1  0.622910  0.012450  0.465160  1.0  -0.8348
  O  O60  1  0.499380  0.550980  0.331360  1.0  -0.6138
  O  O61  1  0.623250  0.194010  0.934860  1.0  -0.662
  O  O62  1  0.452710  0.342250  0.965160  1.0  -0.8308
  O  O63  1  0.780380  0.331980  0.831360  1.0  -0.613
  O  O64  1  0.811610  0.740850  0.934860  1.0  -0.661
  O  O65  1  0.012450  0.622910  0.965160  1.0  -0.8306
  O  O66  1  0.550980  0.499380  0.831360  1.0  -0.6144
  O  O67  1  0.805990  0.376750  0.565140  1.0  -0.6611
  O  O68  1  0.657750  0.547290  0.534840  1.0  -0.8316
  O  O69  1  0.668020  0.219620  0.668640  1.0  -0.6128
  O  O70  1  0.259150  0.188390  0.565140  1.0  -0.6616
  O  O71  1  0.377090  0.987550  0.534840  1.0  -0.8334
  O  O72  1  0.500620  0.449020  0.668640  1.0  -0.6159
