# generated using pymatgen
data_CoH40(C28N3)2
_symmetry_space_group_name_H-M   'P 1'
_cell_length_a   20.76770000
_cell_length_b   11.75530000
_cell_length_c   28.50900000
_cell_angle_alpha   90.00000000
_cell_angle_beta   90.00000000
_cell_angle_gamma   90.00000000
_symmetry_Int_Tables_number   1
_chemical_formula_structural   CoH40(C28N3)2
_chemical_formula_sum   'Co4 H160 C224 N24'
_cell_volume   6959.91767348
_cell_formula_units_Z   4
loop_
 _symmetry_equiv_pos_site_id
 _symmetry_equiv_pos_as_xyz
  1  'x, y, z'
loop_
 _atom_site_type_symbol
 _atom_site_label
 _atom_site_symmetry_multiplicity
 _atom_site_fract_x
 _atom_site_fract_y
 _atom_site_fract_z
 _atom_site_occupancy
 _atom_site_charge
  Co  Co1  1  0.848070  0.745390  0.750000  1.0  0.6975
  Co  Co2  1  0.848070  0.754610  0.250000  1.0  0.6978
  Co  Co3  1  0.151930  0.254610  0.250000  1.0  0.6949
  Co  Co4  1  0.151930  0.245390  0.750000  1.0  0.6945
  H  H5  1  0.718200  0.744500  0.810200  1.0  0.0919
  H  H6  1  0.665000  0.628300  0.863300  1.0  0.1115
  H  H7  1  0.817000  0.415700  0.864000  1.0  0.0943
  H  H8  1  0.869600  0.531300  0.810900  1.0  0.0921
  H  H9  1  0.762900  0.442500  0.955700  1.0  0.0884
  H  H10  1  0.703300  0.336500  0.008500  1.0  0.12
  H  H11  1  0.558900  0.315000  0.914400  1.0  0.1052
  H  H12  1  0.619300  0.418600  0.861400  1.0  0.1024
  H  H13  1  0.506400  0.095500  0.969400  1.0  0.1069
  H  H14  1  0.394600  0.092000  0.973300  1.0  0.088
  H  H15  1  0.300600  0.283900  0.069000  1.0  0.0846
  H  H16  1  0.188800  0.285700  0.068800  1.0  0.087
  H  H17  1  0.004200  0.293100  0.948600  1.0  0.102
  H  H18  1  0.950100  0.178800  0.896700  1.0  0.106
  H  H19  1  0.074200  0.924700  0.919800  1.0  0.1059
  H  H20  1  0.130400  0.039600  0.971900  1.0  0.0972
  H  H21  1  0.840200  0.960700  0.806800  1.0  0.1069
  H  H22  1  0.895100  0.063100  0.864000  1.0  0.1031
  H  H23  1  0.037400  0.841500  0.863800  1.0  0.1089
  H  H24  1  0.984200  0.730300  0.809100  1.0  0.1086
  H  H25  1  0.718200  0.755500  0.189800  1.0  0.0908
  H  H26  1  0.665000  0.871700  0.136700  1.0  0.1092
  H  H27  1  0.817000  0.084300  0.136000  1.0  0.0938
  H  H28  1  0.869600  0.968700  0.189100  1.0  0.0929
  H  H29  1  0.762900  0.057500  0.044300  1.0  0.0883
  H  H30  1  0.703300  0.163500  0.991500  1.0  0.1214
  H  H31  1  0.558900  0.185000  0.085600  1.0  0.1041
  H  H32  1  0.619300  0.081400  0.138600  1.0  0.103
  H  H33  1  0.506400  0.404500  0.030600  1.0  0.107
  H  H34  1  0.394600  0.408000  0.026700  1.0  0.0879
  H  H35  1  0.300600  0.216100  0.931000  1.0  0.0838
  H  H36  1  0.188800  0.214300  0.931200  1.0  0.0881
  H  H37  1  0.004200  0.206900  0.051400  1.0  0.1018
  H  H38  1  0.950100  0.321200  0.103300  1.0  0.1061
  H  H39  1  0.074200  0.575300  0.080200  1.0  0.1059
  H  H40  1  0.130400  0.460400  0.028100  1.0  0.0973
  H  H41  1  0.840200  0.539300  0.193200  1.0  0.1068
  H  H42  1  0.895100  0.436900  0.136000  1.0  0.1028
  H  H43  1  0.037400  0.658500  0.136200  1.0  0.1093
  H  H44  1  0.984200  0.769700  0.190900  1.0  0.1087
  H  H45  1  0.718200  0.744500  0.689800  1.0  0.0918
  H  H46  1  0.665000  0.628300  0.636700  1.0  0.1107
  H  H47  1  0.817000  0.415700  0.636000  1.0  0.0942
  H  H48  1  0.869600  0.531300  0.689100  1.0  0.0929
  H  H49  1  0.762900  0.442500  0.544300  1.0  0.0884
  H  H50  1  0.703300  0.336500  0.491500  1.0  0.121
  H  H51  1  0.558900  0.315000  0.585600  1.0  0.1044
  H  H52  1  0.619300  0.418600  0.638600  1.0  0.1029
  H  H53  1  0.506400  0.095500  0.530600  1.0  0.1071
  H  H54  1  0.394600  0.092000  0.526700  1.0  0.0878
  H  H55  1  0.300600  0.283900  0.431000  1.0  0.0839
  H  H56  1  0.188800  0.285700  0.431200  1.0  0.0878
  H  H57  1  0.004200  0.293100  0.551400  1.0  0.1026
  H  H58  1  0.950100  0.178800  0.603300  1.0  0.1056
  H  H59  1  0.074200  0.924700  0.580200  1.0  0.1055
  H  H60  1  0.130400  0.039600  0.528100  1.0  0.0972
  H  H61  1  0.840200  0.960700  0.693200  1.0  0.1075
  H  H62  1  0.895100  0.063100  0.636000  1.0  0.1034
  H  H63  1  0.037400  0.841500  0.636200  1.0  0.1096
  H  H64  1  0.984200  0.730300  0.690900  1.0  0.109
  H  H65  1  0.718200  0.755500  0.310200  1.0  0.0904
  H  H66  1  0.665000  0.871700  0.363300  1.0  0.1101
  H  H67  1  0.817000  0.084300  0.364000  1.0  0.0939
  H  H68  1  0.869600  0.968700  0.310900  1.0  0.0923
  H  H69  1  0.762900  0.057500  0.455700  1.0  0.0883
  H  H70  1  0.703300  0.163500  0.508500  1.0  0.1212
  H  H71  1  0.558900  0.185000  0.414400  1.0  0.1055
  H  H72  1  0.619300  0.081400  0.361400  1.0  0.1028
  H  H73  1  0.506400  0.404500  0.469400  1.0  0.1071
  H  H74  1  0.394600  0.408000  0.473300  1.0  0.0882
  H  H75  1  0.300600  0.216100  0.569000  1.0  0.0846
  H  H76  1  0.188800  0.214300  0.568800  1.0  0.0871
  H  H77  1  0.004200  0.206900  0.448600  1.0  0.1019
  H  H78  1  0.950100  0.321200  0.396700  1.0  0.1064
  H  H79  1  0.074200  0.575300  0.419800  1.0  0.106
  H  H80  1  0.130400  0.460400  0.471900  1.0  0.0971
  H  H81  1  0.840200  0.539300  0.306800  1.0  0.1078
  H  H82  1  0.895100  0.436900  0.364000  1.0  0.1029
  H  H83  1  0.037400  0.658500  0.363800  1.0  0.1087
  H  H84  1  0.984200  0.769700  0.309100  1.0  0.1085
  H  H85  1  0.281800  0.255500  0.310200  1.0  0.0915
  H  H86  1  0.335000  0.371700  0.363300  1.0  0.1093
  H  H87  1  0.183000  0.584300  0.364000  1.0  0.0937
  H  H88  1  0.130400  0.468700  0.310900  1.0  0.0924
  H  H89  1  0.237100  0.557500  0.455700  1.0  0.0881
  H  H90  1  0.296700  0.663500  0.508500  1.0  0.1213
  H  H91  1  0.441100  0.685000  0.414400  1.0  0.1062
  H  H92  1  0.380700  0.581400  0.361400  1.0  0.1033
  H  H93  1  0.493600  0.904500  0.469400  1.0  0.1068
  H  H94  1  0.605400  0.908000  0.473300  1.0  0.0882
  H  H95  1  0.699400  0.716100  0.569000  1.0  0.0849
  H  H96  1  0.811200  0.714300  0.568800  1.0  0.0871
  H  H97  1  0.995800  0.706900  0.448600  1.0  0.1023
  H  H98  1  0.049900  0.821200  0.396700  1.0  0.1072
  H  H99  1  0.925800  0.075300  0.419800  1.0  0.1056
  H  H100  1  0.869600  0.960400  0.471900  1.0  0.0969
  H  H101  1  0.159800  0.039300  0.306800  1.0  0.1061
  H  H102  1  0.104900  0.936900  0.364000  1.0  0.1053
  H  H103  1  0.962600  0.158500  0.363800  1.0  0.1075
  H  H104  1  0.015800  0.269700  0.309100  1.0  0.1086
  H  H105  1  0.281800  0.244500  0.689800  1.0  0.0915
  H  H106  1  0.335000  0.128300  0.636700  1.0  0.1104
  H  H107  1  0.183000  0.915700  0.636000  1.0  0.0938
  H  H108  1  0.130400  0.031300  0.689100  1.0  0.0922
  H  H109  1  0.237100  0.942500  0.544300  1.0  0.0882
  H  H110  1  0.296700  0.836500  0.491500  1.0  0.1214
  H  H111  1  0.441100  0.815000  0.585600  1.0  0.104
  H  H112  1  0.380700  0.918600  0.638600  1.0  0.1015
  H  H113  1  0.493600  0.595500  0.530600  1.0  0.1071
  H  H114  1  0.605400  0.592000  0.526700  1.0  0.088
  H  H115  1  0.699400  0.783900  0.431000  1.0  0.084
  H  H116  1  0.811200  0.785700  0.431200  1.0  0.0878
  H  H117  1  0.995800  0.793100  0.551400  1.0  0.1025
  H  H118  1  0.049900  0.678800  0.603300  1.0  0.1061
  H  H119  1  0.925800  0.424700  0.580200  1.0  0.1046
  H  H120  1  0.869600  0.539600  0.528100  1.0  0.0972
  H  H121  1  0.159800  0.460700  0.693200  1.0  0.1062
  H  H122  1  0.104900  0.563100  0.636000  1.0  0.1055
  H  H123  1  0.962600  0.341500  0.636200  1.0  0.1082
  H  H124  1  0.015800  0.230300  0.690900  1.0  0.1093
  H  H125  1  0.281800  0.255500  0.189800  1.0  0.0916
  H  H126  1  0.335000  0.371700  0.136700  1.0  0.1097
  H  H127  1  0.183000  0.584300  0.136000  1.0  0.0939
  H  H128  1  0.130400  0.468700  0.189100  1.0  0.0923
  H  H129  1  0.237100  0.557500  0.044300  1.0  0.0881
  H  H130  1  0.296700  0.663500  0.991500  1.0  0.1216
  H  H131  1  0.441100  0.685000  0.085600  1.0  0.1042
  H  H132  1  0.380700  0.581400  0.138600  1.0  0.1016
  H  H133  1  0.493600  0.904500  0.030600  1.0  0.1068
  H  H134  1  0.605400  0.908000  0.026700  1.0  0.0879
  H  H135  1  0.699400  0.716100  0.931000  1.0  0.084
  H  H136  1  0.811200  0.714300  0.931200  1.0  0.0882
  H  H137  1  0.995800  0.706900  0.051400  1.0  0.1024
  H  H138  1  0.049900  0.821200  0.103300  1.0  0.1066
  H  H139  1  0.925800  0.075300  0.080200  1.0  0.1059
  H  H140  1  0.869600  0.960400  0.028100  1.0  0.0972
  H  H141  1  0.159800  0.039300  0.193200  1.0  0.107
  H  H142  1  0.104900  0.936900  0.136000  1.0  0.1056
  H  H143  1  0.962600  0.158500  0.136200  1.0  0.108
  H  H144  1  0.015800  0.269700  0.190900  1.0  0.1091
  H  H145  1  0.281800  0.244500  0.810200  1.0  0.0919
  H  H146  1  0.335000  0.128300  0.863300  1.0  0.1108
  H  H147  1  0.183000  0.915700  0.864000  1.0  0.0938
  H  H148  1  0.130400  0.031300  0.810900  1.0  0.0921
  H  H149  1  0.237100  0.942500  0.955700  1.0  0.0883
  H  H150  1  0.296700  0.836500  0.008500  1.0  0.1204
  H  H151  1  0.441100  0.815000  0.914400  1.0  0.1056
  H  H152  1  0.380700  0.918600  0.861400  1.0  0.1029
  H  H153  1  0.493600  0.595500  0.969400  1.0  0.1068
  H  H154  1  0.605400  0.592000  0.973300  1.0  0.0882
  H  H155  1  0.699400  0.783900  0.069000  1.0  0.0847
  H  H156  1  0.811200  0.785700  0.068800  1.0  0.0869
  H  H157  1  0.995800  0.793100  0.948600  1.0  0.102
  H  H158  1  0.049900  0.678800  0.896700  1.0  0.1068
  H  H159  1  0.925800  0.424700  0.919800  1.0  0.1049
  H  H160  1  0.869600  0.539600  0.971900  1.0  0.0971
  H  H161  1  0.159800  0.460700  0.806800  1.0  0.1073
  H  H162  1  0.104900  0.563100  0.864000  1.0  0.1052
  H  H163  1  0.962600  0.341500  0.863800  1.0  0.1076
  H  H164  1  0.015800  0.230300  0.809100  1.0  0.1086
  C  C165  1  0.737770  0.678350  0.821010  1.0  0.144
  C  C166  1  0.705970  0.609030  0.852760  1.0  -0.2118
  C  C167  1  0.735790  0.510230  0.868810  1.0  0.0316
  C  C168  1  0.797190  0.481540  0.853120  1.0  -0.15
  C  C169  1  0.828630  0.550580  0.821420  1.0  0.1497
  C  C170  1  0.696760  0.441750  0.903510  1.0  0.0715
  C  C171  1  0.722110  0.416710  0.947500  1.0  -0.1208
  C  C172  1  0.686520  0.353410  0.979030  1.0  -0.1422
  C  C173  1  0.625220  0.314790  0.966590  1.0  0.1214
  C  C174  1  0.599910  0.340130  0.922550  1.0  -0.1369
  C  C175  1  0.635770  0.402610  0.891040  1.0  -0.1287
  C  C176  1  0.484080  0.156740  0.982130  1.0  -0.1313
  C  C177  1  0.417040  0.155890  0.983470  1.0  -0.1312
  C  C178  1  0.278170  0.270530  0.041290  1.0  -0.1466
  C  C179  1  0.211270  0.271100  0.041370  1.0  -0.2027
  C  C180  1  0.073280  0.177480  0.965360  1.0  0.0782
  C  C181  1  0.018470  0.219450  0.942800  1.0  -0.1871
  C  C182  1  0.986180  0.150630  0.912060  1.0  -0.1336
  C  C183  1  0.005840  0.040070  0.903270  1.0  -0.0136
  C  C184  1  0.060240  0.998570  0.925630  1.0  -0.1334
  C  C185  1  0.093980  0.067450  0.956820  1.0  -0.1132
  C  C186  1  0.879560  0.935050  0.818300  1.0  0.1042
  C  C187  1  0.913340  0.996480  0.852460  1.0  -0.1605
  C  C188  1  0.971720  0.963350  0.869650  1.0  -0.0212
  C  C189  1  0.997390  0.864960  0.852720  1.0  -0.1532
  C  C190  1  0.965990  0.798060  0.819500  1.0  0.1198
  C  C191  1  0.737770  0.821650  0.178990  1.0  0.1439
  C  C192  1  0.705970  0.890970  0.147240  1.0  -0.2117
  C  C193  1  0.735790  0.989770  0.131190  1.0  0.0315
  C  C194  1  0.797190  0.018460  0.146880  1.0  -0.1504
  C  C195  1  0.828630  0.949420  0.178580  1.0  0.1491
  C  C196  1  0.696760  0.058250  0.096490  1.0  0.0725
  C  C197  1  0.722110  0.083290  0.052500  1.0  -0.1196
  C  C198  1  0.686520  0.146590  0.020970  1.0  -0.1426
  C  C199  1  0.625220  0.185210  0.033410  1.0  0.1216
  C  C200  1  0.599910  0.159870  0.077450  1.0  -0.1429
  C  C201  1  0.635770  0.097390  0.108960  1.0  -0.1344
  C  C202  1  0.484080  0.343260  0.017870  1.0  -0.1325
  C  C203  1  0.417040  0.344110  0.016530  1.0  -0.1328
  C  C204  1  0.278170  0.229470  0.958710  1.0  -0.1465
  C  C205  1  0.211270  0.228900  0.958630  1.0  -0.2069
  C  C206  1  0.073280  0.322520  0.034640  1.0  0.0782
  C  C207  1  0.018470  0.280550  0.057200  1.0  -0.1868
  C  C208  1  0.986180  0.349370  0.087940  1.0  -0.1338
  C  C209  1  0.005840  0.459930  0.096730  1.0  -0.0131
  C  C210  1  0.060240  0.501430  0.074370  1.0  -0.1339
  C  C211  1  0.093980  0.432550  0.043180  1.0  -0.1157
  C  C212  1  0.879560  0.564950  0.181700  1.0  0.1064
  C  C213  1  0.913340  0.503520  0.147540  1.0  -0.1597
  C  C214  1  0.971720  0.536650  0.130350  1.0  -0.0217
  C  C215  1  0.997390  0.635040  0.147280  1.0  -0.1525
  C  C216  1  0.965990  0.701940  0.180500  1.0  0.1205
  C  C217  1  0.737770  0.678350  0.678990  1.0  0.1432
  C  C218  1  0.705970  0.609030  0.647240  1.0  -0.2121
  C  C219  1  0.735790  0.510230  0.631190  1.0  0.0322
  C  C220  1  0.797190  0.481540  0.646880  1.0  -0.1496
  C  C221  1  0.828630  0.550580  0.678580  1.0  0.1498
  C  C222  1  0.696760  0.441750  0.596490  1.0  0.0716
  C  C223  1  0.722110  0.416710  0.552500  1.0  -0.12
  C  C224  1  0.686520  0.353410  0.520970  1.0  -0.1426
  C  C225  1  0.625220  0.314790  0.533410  1.0  0.1216
  C  C226  1  0.599910  0.340130  0.577450  1.0  -0.1419
  C  C227  1  0.635770  0.402610  0.608960  1.0  -0.1335
  C  C228  1  0.484080  0.156740  0.517870  1.0  -0.1307
  C  C229  1  0.417040  0.155890  0.516530  1.0  -0.1311
  C  C230  1  0.278170  0.270530  0.458710  1.0  -0.147
  C  C231  1  0.211270  0.271100  0.458630  1.0  -0.2042
  C  C232  1  0.073280  0.177480  0.534640  1.0  0.0781
  C  C233  1  0.018470  0.219450  0.557200  1.0  -0.187
  C  C234  1  0.986180  0.150630  0.587940  1.0  -0.1337
  C  C235  1  0.005840  0.040070  0.596730  1.0  -0.013
  C  C236  1  0.060240  0.998570  0.574370  1.0  -0.1343
  C  C237  1  0.093980  0.067450  0.543180  1.0  -0.1149
  C  C238  1  0.879560  0.935050  0.681700  1.0  0.1049
  C  C239  1  0.913340  0.996480  0.647540  1.0  -0.1607
  C  C240  1  0.971720  0.963350  0.630350  1.0  -0.0217
  C  C241  1  0.997390  0.864960  0.647280  1.0  -0.152
  C  C242  1  0.965990  0.798060  0.680500  1.0  0.1196
  C  C243  1  0.737770  0.821650  0.321010  1.0  0.1434
  C  C244  1  0.705970  0.890970  0.352760  1.0  -0.2111
  C  C245  1  0.735790  0.989770  0.368810  1.0  0.0317
  C  C246  1  0.797190  0.018460  0.353120  1.0  -0.1486
  C  C247  1  0.828630  0.949420  0.321420  1.0  0.1499
  C  C248  1  0.696760  0.058250  0.403510  1.0  0.0718
  C  C249  1  0.722110  0.083290  0.447500  1.0  -0.1206
  C  C250  1  0.686520  0.146590  0.479030  1.0  -0.1419
  C  C251  1  0.625220  0.185210  0.466590  1.0  0.1214
  C  C252  1  0.599910  0.159870  0.422550  1.0  -0.1373
  C  C253  1  0.635770  0.097390  0.391040  1.0  -0.1283
  C  C254  1  0.484080  0.343260  0.482130  1.0  -0.1324
  C  C255  1  0.417040  0.344110  0.483470  1.0  -0.1327
  C  C256  1  0.278170  0.229470  0.541290  1.0  -0.1458
  C  C257  1  0.211270  0.228900  0.541370  1.0  -0.2056
  C  C258  1  0.073280  0.322520  0.465360  1.0  0.0785
  C  C259  1  0.018470  0.280550  0.442800  1.0  -0.1867
  C  C260  1  0.986180  0.349370  0.412060  1.0  -0.1337
  C  C261  1  0.005840  0.459930  0.403270  1.0  -0.0136
  C  C262  1  0.060240  0.501430  0.425630  1.0  -0.1333
  C  C263  1  0.093980  0.432550  0.456820  1.0  -0.1141
  C  C264  1  0.879560  0.564950  0.318300  1.0  0.1052
  C  C265  1  0.913340  0.503520  0.352460  1.0  -0.1593
  C  C266  1  0.971720  0.536650  0.369650  1.0  -0.0216
  C  C267  1  0.997390  0.635040  0.352720  1.0  -0.1539
  C  C268  1  0.965990  0.701940  0.319500  1.0  0.1198
  C  C269  1  0.517450  0.250000  0.000000  1.0  0.1217
  C  C270  1  0.383450  0.250000  0.000000  1.0  0.0468
  C  C271  1  0.311700  0.250000  0.000000  1.0  0.0626
  C  C272  1  0.177560  0.250000  0.000000  1.0  0.1295
  C  C273  1  0.517450  0.250000  0.500000  1.0  0.1217
  C  C274  1  0.383450  0.250000  0.500000  1.0  0.0468
  C  C275  1  0.311700  0.250000  0.500000  1.0  0.0626
  C  C276  1  0.177560  0.250000  0.500000  1.0  0.1295
  C  C277  1  0.262230  0.321650  0.321010  1.0  0.1417
  C  C278  1  0.294030  0.390970  0.352760  1.0  -0.211
  C  C279  1  0.264210  0.489770  0.368810  1.0  0.0316
  C  C280  1  0.202810  0.518460  0.353120  1.0  -0.1496
  C  C281  1  0.171370  0.449420  0.321420  1.0  0.1497
  C  C282  1  0.303240  0.558250  0.403510  1.0  0.0726
  C  C283  1  0.277890  0.583290  0.447500  1.0  -0.1222
  C  C284  1  0.313480  0.646590  0.479030  1.0  -0.1431
  C  C285  1  0.374780  0.685210  0.466590  1.0  0.1214
  C  C286  1  0.400090  0.659870  0.422550  1.0  -0.1404
  C  C287  1  0.364230  0.597390  0.391040  1.0  -0.132
  C  C288  1  0.515920  0.843260  0.482130  1.0  -0.1329
  C  C289  1  0.582960  0.844110  0.483470  1.0  -0.1315
  C  C290  1  0.721830  0.729470  0.541290  1.0  -0.1462
  C  C291  1  0.788730  0.728900  0.541370  1.0  -0.2035
  C  C292  1  0.926720  0.822520  0.465360  1.0  0.0784
  C  C293  1  0.981530  0.780550  0.442800  1.0  -0.1872
  C  C294  1  0.013820  0.849370  0.412060  1.0  -0.1316
  C  C295  1  0.994160  0.959930  0.403270  1.0  -0.0121
  C  C296  1  0.939760  0.001430  0.425630  1.0  -0.1332
  C  C297  1  0.906020  0.932550  0.456820  1.0  -0.1154
  C  C298  1  0.120440  0.064950  0.318300  1.0  0.1027
  C  C299  1  0.086660  0.003520  0.352460  1.0  -0.1593
  C  C300  1  0.028280  0.036650  0.369650  1.0  -0.0231
  C  C301  1  0.002610  0.135040  0.352720  1.0  -0.1537
  C  C302  1  0.034010  0.201940  0.319500  1.0  0.1241
  C  C303  1  0.262230  0.178350  0.678990  1.0  0.1435
  C  C304  1  0.294030  0.109030  0.647240  1.0  -0.2125
  C  C305  1  0.264210  0.010230  0.631190  1.0  0.0331
  C  C306  1  0.202810  0.981540  0.646880  1.0  -0.1496
  C  C307  1  0.171370  0.050580  0.678580  1.0  0.149
  C  C308  1  0.303240  0.941750  0.596490  1.0  0.072
  C  C309  1  0.277890  0.916710  0.552500  1.0  -0.121
  C  C310  1  0.313480  0.853410  0.520970  1.0  -0.1429
  C  C311  1  0.374780  0.814790  0.533410  1.0  0.1219
  C  C312  1  0.400090  0.840130  0.577450  1.0  -0.1424
  C  C313  1  0.364230  0.902610  0.608960  1.0  -0.1351
  C  C314  1  0.515920  0.656740  0.517870  1.0  -0.1304
  C  C315  1  0.582960  0.655890  0.516530  1.0  -0.1336
  C  C316  1  0.721830  0.770530  0.458710  1.0  -0.147
  C  C317  1  0.788730  0.771100  0.458630  1.0  -0.2095
  C  C318  1  0.926720  0.677480  0.534640  1.0  0.078
  C  C319  1  0.981530  0.719450  0.557200  1.0  -0.1874
  C  C320  1  0.013820  0.650630  0.587940  1.0  -0.1315
  C  C321  1  0.994160  0.540070  0.596730  1.0  -0.0118
  C  C322  1  0.939760  0.498570  0.574370  1.0  -0.1342
  C  C323  1  0.906020  0.567450  0.543180  1.0  -0.1148
  C  C324  1  0.120440  0.435050  0.681700  1.0  0.105
  C  C325  1  0.086660  0.496480  0.647540  1.0  -0.1616
  C  C326  1  0.028280  0.463350  0.630350  1.0  -0.0231
  C  C327  1  0.002610  0.364960  0.647280  1.0  -0.1523
  C  C328  1  0.034010  0.298060  0.680500  1.0  0.1234
  C  C329  1  0.262230  0.321650  0.178990  1.0  0.1421
  C  C330  1  0.294030  0.390970  0.147240  1.0  -0.2115
  C  C331  1  0.264210  0.489770  0.131190  1.0  0.032
  C  C332  1  0.202810  0.518460  0.146880  1.0  -0.1504
  C  C333  1  0.171370  0.449420  0.178580  1.0  0.1486
  C  C334  1  0.303240  0.558250  0.096490  1.0  0.0731
  C  C335  1  0.277890  0.583290  0.052500  1.0  -0.1213
  C  C336  1  0.313480  0.646590  0.020970  1.0  -0.1438
  C  C337  1  0.374780  0.685210  0.033410  1.0  0.1216
  C  C338  1  0.400090  0.659870  0.077450  1.0  -0.1429
  C  C339  1  0.364230  0.597390  0.108960  1.0  -0.1355
  C  C340  1  0.515920  0.843260  0.017870  1.0  -0.1331
  C  C341  1  0.582960  0.844110  0.016530  1.0  -0.1318
  C  C342  1  0.721830  0.729470  0.958710  1.0  -0.1467
  C  C343  1  0.788730  0.728900  0.958630  1.0  -0.2046
  C  C344  1  0.926720  0.822520  0.034640  1.0  0.0781
  C  C345  1  0.981530  0.780550  0.057200  1.0  -0.1872
  C  C346  1  0.013820  0.849370  0.087940  1.0  -0.1311
  C  C347  1  0.994160  0.959930  0.096730  1.0  -0.0119
  C  C348  1  0.939760  0.001430  0.074370  1.0  -0.1339
  C  C349  1  0.906020  0.932550  0.043180  1.0  -0.1161
  C  C350  1  0.120440  0.064950  0.181700  1.0  0.1047
  C  C351  1  0.086660  0.003520  0.147540  1.0  -0.1604
  C  C352  1  0.028280  0.036650  0.130350  1.0  -0.0233
  C  C353  1  0.002610  0.135040  0.147280  1.0  -0.1525
  C  C354  1  0.034010  0.201940  0.180500  1.0  0.124
  C  C355  1  0.262230  0.178350  0.821010  1.0  0.1434
  C  C356  1  0.294030  0.109030  0.852760  1.0  -0.2124
  C  C357  1  0.264210  0.010230  0.868810  1.0  0.0315
  C  C358  1  0.202810  0.981540  0.853120  1.0  -0.1506
  C  C359  1  0.171370  0.050580  0.821420  1.0  0.1496
  C  C360  1  0.303240  0.941750  0.903510  1.0  0.0719
  C  C361  1  0.277890  0.916710  0.947500  1.0  -0.1217
  C  C362  1  0.313480  0.853410  0.979030  1.0  -0.1426
  C  C363  1  0.374780  0.814790  0.966590  1.0  0.1215
  C  C364  1  0.400090  0.840130  0.922550  1.0  -0.1403
  C  C365  1  0.364230  0.902610  0.891040  1.0  -0.1323
  C  C366  1  0.515920  0.656740  0.982130  1.0  -0.1308
  C  C367  1  0.582960  0.655890  0.983470  1.0  -0.1334
  C  C368  1  0.721830  0.770530  0.041290  1.0  -0.1469
  C  C369  1  0.788730  0.771100  0.041370  1.0  -0.2078
  C  C370  1  0.926720  0.677480  0.965360  1.0  0.0783
  C  C371  1  0.981530  0.719450  0.942800  1.0  -0.1874
  C  C372  1  0.013820  0.650630  0.912060  1.0  -0.1319
  C  C373  1  0.994160  0.540070  0.903270  1.0  -0.0121
  C  C374  1  0.939760  0.498570  0.925630  1.0  -0.1334
  C  C375  1  0.906020  0.567450  0.956820  1.0  -0.1133
  C  C376  1  0.120440  0.435050  0.818300  1.0  0.1035
  C  C377  1  0.086660  0.496480  0.852460  1.0  -0.1606
  C  C378  1  0.028280  0.463350  0.869650  1.0  -0.0224
  C  C379  1  0.002610  0.364960  0.852720  1.0  -0.153
  C  C380  1  0.034010  0.298060  0.819500  1.0  0.1243
  C  C381  1  0.482550  0.750000  0.500000  1.0  0.1211
  C  C382  1  0.616550  0.750000  0.500000  1.0  0.0472
  C  C383  1  0.688300  0.750000  0.500000  1.0  0.0613
  C  C384  1  0.822440  0.750000  0.500000  1.0  0.1281
  C  C385  1  0.482550  0.750000  0.000000  1.0  0.1211
  C  C386  1  0.616550  0.750000  0.000000  1.0  0.0472
  C  C387  1  0.688300  0.750000  0.000000  1.0  0.0613
  C  C388  1  0.822440  0.750000  0.000000  1.0  0.1281
  N  N389  1  0.798940  0.649030  0.805300  1.0  -0.3344
  N  N390  1  0.906870  0.834360  0.802100  1.0  -0.3381
  N  N391  1  0.798940  0.850970  0.194700  1.0  -0.3352
  N  N392  1  0.906870  0.665640  0.197900  1.0  -0.3375
  N  N393  1  0.798940  0.649030  0.694700  1.0  -0.3344
  N  N394  1  0.906870  0.834360  0.697900  1.0  -0.3375
  N  N395  1  0.798940  0.850970  0.305300  1.0  -0.3362
  N  N396  1  0.906870  0.665640  0.302100  1.0  -0.3374
  N  N397  1  0.588730  0.250000  0.000000  1.0  -0.2255
  N  N398  1  0.108310  0.250000  0.000000  1.0  -0.2907
  N  N399  1  0.588730  0.250000  0.500000  1.0  -0.2255
  N  N400  1  0.108310  0.250000  0.500000  1.0  -0.2907
  N  N401  1  0.201060  0.350970  0.305300  1.0  -0.3358
  N  N402  1  0.093130  0.165640  0.302100  1.0  -0.3378
  N  N403  1  0.201060  0.149030  0.694700  1.0  -0.3342
  N  N404  1  0.093130  0.334360  0.697900  1.0  -0.3381
  N  N405  1  0.201060  0.350970  0.194700  1.0  -0.3344
  N  N406  1  0.093130  0.165640  0.197900  1.0  -0.3381
  N  N407  1  0.201060  0.149030  0.805300  1.0  -0.3347
  N  N408  1  0.093130  0.334360  0.802100  1.0  -0.3385
  N  N409  1  0.411270  0.750000  0.500000  1.0  -0.2256
  N  N410  1  0.891690  0.750000  0.500000  1.0  -0.2917
  N  N411  1  0.411270  0.750000  0.000000  1.0  -0.2256
  N  N412  1  0.891690  0.750000  0.000000  1.0  -0.2917
