# generated using pymatgen
data_CdH8C13N5O2
_symmetry_space_group_name_H-M   'P 1'
_cell_length_a   23.98400000
_cell_length_b   13.12200000
_cell_length_c   11.91700000
_cell_angle_alpha   90.00000000
_cell_angle_beta   90.00000000
_cell_angle_gamma   90.00000000
_symmetry_Int_Tables_number   1
_chemical_formula_structural   CdH8C13N5O2
_chemical_formula_sum   'Cd8 H64 C104 N40 O16'
_cell_volume   3750.49497802
_cell_formula_units_Z   8
loop_
 _symmetry_equiv_pos_site_id
 _symmetry_equiv_pos_as_xyz
  1  'x, y, z'
loop_
 _atom_site_type_symbol
 _atom_site_label
 _atom_site_symmetry_multiplicity
 _atom_site_fract_x
 _atom_site_fract_y
 _atom_site_fract_z
 _atom_site_occupancy
 _atom_site_charge
  Cd  Cd1  1  0.250000  0.000000  0.051180  1.0  0.7316
  Cd  Cd2  1  0.250000  0.500000  0.448820  1.0  0.7313
  Cd  Cd3  1  0.750000  0.000000  0.948820  1.0  0.7313
  Cd  Cd4  1  0.750000  0.500000  0.551180  1.0  0.7316
  Cd  Cd5  1  0.457540  0.250000  0.250000  1.0  1.0214
  Cd  Cd6  1  0.042460  0.750000  0.250000  1.0  1.0204
  Cd  Cd7  1  0.542460  0.750000  0.750000  1.0  1.0204
  Cd  Cd8  1  0.957540  0.250000  0.750000  1.0  1.0214
  H  H9  1  0.386200  0.439900  0.112700  1.0  0.1126
  H  H10  1  0.428100  0.579900  0.028600  1.0  0.1068
  H  H11  1  0.449300  0.419900  0.747200  1.0  0.1109
  H  H12  1  0.408100  0.280000  0.831000  1.0  0.108
  H  H13  1  0.241900  0.147400  0.270900  1.0  0.0699
  H  H14  1  0.238600  0.151800  0.463100  1.0  0.1259
  H  H15  1  0.276600  0.144400  0.637000  1.0  0.1118
  H  H16  1  0.275900  0.140400  0.828300  1.0  0.0701
  H  H17  1  0.113800  0.560100  0.112700  1.0  0.1129
  H  H18  1  0.071900  0.420100  0.028600  1.0  0.1072
  H  H19  1  0.050700  0.580100  0.747200  1.0  0.1109
  H  H20  1  0.091900  0.720000  0.831000  1.0  0.1081
  H  H21  1  0.258100  0.852600  0.270900  1.0  0.0696
  H  H22  1  0.261400  0.848200  0.463100  1.0  0.1261
  H  H23  1  0.223400  0.855600  0.637000  1.0  0.1116
  H  H24  1  0.224100  0.859600  0.828300  1.0  0.0681
  H  H25  1  0.113800  0.939900  0.387300  1.0  0.1143
  H  H26  1  0.071900  0.079900  0.471400  1.0  0.1076
  H  H27  1  0.050700  0.919900  0.752800  1.0  0.111
  H  H28  1  0.091900  0.780000  0.669000  1.0  0.1089
  H  H29  1  0.258100  0.647400  0.229100  1.0  0.0699
  H  H30  1  0.261400  0.651800  0.036900  1.0  0.1259
  H  H31  1  0.223400  0.644400  0.863000  1.0  0.1116
  H  H32  1  0.224100  0.640400  0.671700  1.0  0.0698
  H  H33  1  0.386200  0.060100  0.387300  1.0  0.1136
  H  H34  1  0.428100  0.920100  0.471400  1.0  0.1067
  H  H35  1  0.449300  0.080100  0.752800  1.0  0.1106
  H  H36  1  0.408100  0.220000  0.669000  1.0  0.1078
  H  H37  1  0.241900  0.352600  0.229100  1.0  0.07
  H  H38  1  0.238600  0.348200  0.036900  1.0  0.1259
  H  H39  1  0.276600  0.355600  0.863000  1.0  0.1113
  H  H40  1  0.275900  0.359600  0.671700  1.0  0.0681
  H  H41  1  0.613800  0.560100  0.887300  1.0  0.114
  H  H42  1  0.571900  0.420100  0.971400  1.0  0.107
  H  H43  1  0.550700  0.580100  0.252800  1.0  0.1109
  H  H44  1  0.591900  0.720000  0.169000  1.0  0.1089
  H  H45  1  0.758100  0.852600  0.729100  1.0  0.0694
  H  H46  1  0.761400  0.848200  0.536900  1.0  0.1259
  H  H47  1  0.723400  0.855600  0.363000  1.0  0.1112
  H  H48  1  0.724100  0.859600  0.171700  1.0  0.0696
  H  H49  1  0.886200  0.439900  0.887300  1.0  0.1139
  H  H50  1  0.928100  0.579900  0.971400  1.0  0.1072
  H  H51  1  0.949300  0.419900  0.252800  1.0  0.1105
  H  H52  1  0.908100  0.280000  0.169000  1.0  0.1085
  H  H53  1  0.741900  0.147400  0.729100  1.0  0.0701
  H  H54  1  0.738600  0.151800  0.536900  1.0  0.1259
  H  H55  1  0.776600  0.144400  0.363000  1.0  0.1115
  H  H56  1  0.775900  0.140400  0.171700  1.0  0.0684
  H  H57  1  0.886200  0.060100  0.612700  1.0  0.1124
  H  H58  1  0.928100  0.920100  0.528600  1.0  0.107
  H  H59  1  0.949300  0.080100  0.247200  1.0  0.111
  H  H60  1  0.908100  0.220000  0.331000  1.0  0.1074
  H  H61  1  0.741900  0.352600  0.770900  1.0  0.0696
  H  H62  1  0.738600  0.348200  0.963100  1.0  0.1261
  H  H63  1  0.776600  0.355600  0.137000  1.0  0.1116
  H  H64  1  0.775900  0.359600  0.328300  1.0  0.0696
  H  H65  1  0.613800  0.939900  0.612700  1.0  0.1128
  H  H66  1  0.571900  0.079900  0.528600  1.0  0.1071
  H  H67  1  0.550700  0.919900  0.247200  1.0  0.1108
  H  H68  1  0.591900  0.780000  0.331000  1.0  0.1079
  H  H69  1  0.758100  0.647400  0.770900  1.0  0.07
  H  H70  1  0.761400  0.651800  0.963100  1.0  0.1259
  H  H71  1  0.723400  0.644400  0.137000  1.0  0.1121
  H  H72  1  0.724100  0.640400  0.328300  1.0  0.0684
  C  C73  1  0.368920  0.253700  0.032300  1.0  0.3519
  C  C74  1  0.392930  0.345400  0.980100  1.0  -0.0481
  C  C75  1  0.399110  0.435300  0.039300  1.0  -0.0871
  C  C76  1  0.424720  0.519100  0.988900  1.0  -0.0389
  C  C77  1  0.445060  0.512800  0.881000  1.0  -0.1446
  C  C78  1  0.437400  0.423900  0.821400  1.0  -0.0407
  C  C79  1  0.412100  0.340200  0.871400  1.0  -0.0856
  C  C80  1  0.478210  0.598900  0.830600  1.0  0.6662
  C  C81  1  0.244830  0.086400  0.310300  1.0  0.1765
  C  C82  1  0.243620  0.090000  0.426300  1.0  -0.186
  C  C83  1  0.265700  0.085200  0.673800  1.0  -0.1837
  C  C84  1  0.265200  0.082200  0.789400  1.0  0.1737
  C  C85  1  0.131080  0.746300  0.032300  1.0  0.3512
  C  C86  1  0.107070  0.654600  0.980100  1.0  -0.0486
  C  C87  1  0.100890  0.564700  0.039300  1.0  -0.0876
  C  C88  1  0.075280  0.480900  0.988900  1.0  -0.0394
  C  C89  1  0.054940  0.487200  0.881000  1.0  -0.1443
  C  C90  1  0.062600  0.576100  0.821400  1.0  -0.0396
  C  C91  1  0.087900  0.659800  0.871400  1.0  -0.0849
  C  C92  1  0.021790  0.401100  0.830600  1.0  0.6654
  C  C93  1  0.255170  0.913600  0.310300  1.0  0.1757
  C  C94  1  0.256380  0.910000  0.426300  1.0  -0.1856
  C  C95  1  0.234300  0.914800  0.673800  1.0  -0.1846
  C  C96  1  0.234800  0.917800  0.789400  1.0  0.1734
  C  C97  1  0.131080  0.753700  0.467700  1.0  0.3514
  C  C98  1  0.107070  0.845400  0.519900  1.0  -0.0492
  C  C99  1  0.100890  0.935300  0.460700  1.0  -0.0886
  C  C100  1  0.075280  0.019100  0.511100  1.0  -0.0396
  C  C101  1  0.054940  0.012800  0.619000  1.0  -0.145
  C  C102  1  0.062600  0.923900  0.678600  1.0  -0.0421
  C  C103  1  0.087900  0.840200  0.628600  1.0  -0.0854
  C  C104  1  0.021790  0.098900  0.669400  1.0  0.6639
  C  C105  1  0.255170  0.586400  0.189700  1.0  0.1759
  C  C106  1  0.256380  0.590000  0.073700  1.0  -0.1877
  C  C107  1  0.234300  0.585200  0.826200  1.0  -0.1841
  C  C108  1  0.234800  0.582200  0.710600  1.0  0.1735
  C  C109  1  0.368920  0.246300  0.467700  1.0  0.3523
  C  C110  1  0.392930  0.154600  0.519900  1.0  -0.0478
  C  C111  1  0.399110  0.064700  0.460700  1.0  -0.0876
  C  C112  1  0.424720  0.980900  0.511100  1.0  -0.0396
  C  C113  1  0.445060  0.987200  0.619000  1.0  -0.1442
  C  C114  1  0.437400  0.076100  0.678600  1.0  -0.0416
  C  C115  1  0.412100  0.159800  0.628600  1.0  -0.0849
  C  C116  1  0.478210  0.901100  0.669400  1.0  0.6667
  C  C117  1  0.244830  0.413600  0.189700  1.0  0.1767
  C  C118  1  0.243620  0.410000  0.073700  1.0  -0.1849
  C  C119  1  0.265700  0.414800  0.826200  1.0  -0.1832
  C  C120  1  0.265200  0.417800  0.710600  1.0  0.1744
  C  C121  1  0.631080  0.746300  0.967700  1.0  0.3515
  C  C122  1  0.607070  0.654600  0.019900  1.0  -0.0486
  C  C123  1  0.600890  0.564700  0.960700  1.0  -0.0884
  C  C124  1  0.575280  0.480900  0.011100  1.0  -0.0395
  C  C125  1  0.554940  0.487200  0.119000  1.0  -0.1441
  C  C126  1  0.562600  0.576100  0.178600  1.0  -0.0426
  C  C127  1  0.587900  0.659800  0.128600  1.0  -0.0846
  C  C128  1  0.521790  0.401100  0.169400  1.0  0.6663
  C  C129  1  0.755170  0.913600  0.689700  1.0  0.1763
  C  C130  1  0.756380  0.910000  0.573700  1.0  -0.1856
  C  C131  1  0.734300  0.914800  0.326200  1.0  -0.1843
  C  C132  1  0.734800  0.917800  0.210600  1.0  0.1744
  C  C133  1  0.868920  0.253700  0.967700  1.0  0.3518
  C  C134  1  0.892930  0.345400  0.019900  1.0  -0.0482
  C  C135  1  0.899110  0.435300  0.960700  1.0  -0.0877
  C  C136  1  0.924720  0.519100  0.011100  1.0  -0.0395
  C  C137  1  0.945060  0.512800  0.119000  1.0  -0.1453
  C  C138  1  0.937400  0.423900  0.178600  1.0  -0.0411
  C  C139  1  0.912100  0.340200  0.128600  1.0  -0.0855
  C  C140  1  0.978210  0.598900  0.169400  1.0  0.6646
  C  C141  1  0.744830  0.086400  0.689700  1.0  0.1761
  C  C142  1  0.743620  0.090000  0.573700  1.0  -0.1864
  C  C143  1  0.765700  0.085200  0.326200  1.0  -0.1827
  C  C144  1  0.765200  0.082200  0.210600  1.0  0.1733
  C  C145  1  0.868920  0.246300  0.532300  1.0  0.3521
  C  C146  1  0.892930  0.154600  0.480100  1.0  -0.048
  C  C147  1  0.899110  0.064700  0.539300  1.0  -0.0871
  C  C148  1  0.924720  0.980900  0.488900  1.0  -0.0391
  C  C149  1  0.945060  0.987200  0.381000  1.0  -0.1443
  C  C150  1  0.937400  0.076100  0.321400  1.0  -0.0414
  C  C151  1  0.912100  0.159800  0.371400  1.0  -0.0853
  C  C152  1  0.978210  0.901100  0.330600  1.0  0.6659
  C  C153  1  0.744830  0.413600  0.810300  1.0  0.1766
  C  C154  1  0.743620  0.410000  0.926300  1.0  -0.1846
  C  C155  1  0.765700  0.414800  0.173800  1.0  -0.1842
  C  C156  1  0.765200  0.417800  0.289400  1.0  0.1738
  C  C157  1  0.631080  0.753700  0.532300  1.0  0.3512
  C  C158  1  0.607070  0.845400  0.480100  1.0  -0.0493
  C  C159  1  0.600890  0.935300  0.539300  1.0  -0.0877
  C  C160  1  0.575280  0.019100  0.488900  1.0  -0.0391
  C  C161  1  0.554940  0.012800  0.381000  1.0  -0.1442
  C  C162  1  0.562600  0.923900  0.321400  1.0  -0.0388
  C  C163  1  0.587900  0.840200  0.371400  1.0  -0.0854
  C  C164  1  0.521790  0.098900  0.330600  1.0  0.6651
  C  C165  1  0.755170  0.586400  0.810300  1.0  0.1758
  C  C166  1  0.756380  0.590000  0.926300  1.0  -0.1876
  C  C167  1  0.734300  0.585200  0.173800  1.0  -0.1842
  C  C168  1  0.734800  0.582200  0.289400  1.0  0.1738
  C  C169  1  0.250000  0.000000  0.487400  1.0  0.0853
  C  C170  1  0.250000  0.000000  0.612200  1.0  0.0912
  C  C171  1  0.250000  0.500000  0.012600  1.0  0.0862
  C  C172  1  0.250000  0.500000  0.887800  1.0  0.0914
  C  C173  1  0.750000  0.000000  0.512600  1.0  0.0862
  C  C174  1  0.750000  0.000000  0.387800  1.0  0.0914
  C  C175  1  0.750000  0.500000  0.987400  1.0  0.0853
  C  C176  1  0.750000  0.500000  0.112200  1.0  0.0912
  N  N177  1  0.326690  0.200100  0.988300  1.0  -0.3282
  N  N178  1  0.319810  0.122600  0.061100  1.0  -0.0618
  N  N179  1  0.355180  0.128600  0.144000  1.0  -0.1278
  N  N180  1  0.387400  0.210800  0.126000  1.0  -0.2263
  N  N181  1  0.173310  0.799900  0.988300  1.0  -0.3291
  N  N182  1  0.180190  0.877400  0.061100  1.0  -0.0611
  N  N183  1  0.144820  0.871400  0.144000  1.0  -0.1294
  N  N184  1  0.112600  0.789200  0.126000  1.0  -0.2248
  N  N185  1  0.173310  0.700100  0.511700  1.0  -0.3277
  N  N186  1  0.180190  0.622600  0.438900  1.0  -0.0612
  N  N187  1  0.144820  0.628600  0.356000  1.0  -0.1285
  N  N188  1  0.112600  0.710800  0.374000  1.0  -0.2261
  N  N189  1  0.326690  0.299900  0.511700  1.0  -0.3289
  N  N190  1  0.319810  0.377400  0.438900  1.0  -0.0609
  N  N191  1  0.355180  0.371400  0.356000  1.0  -0.1299
  N  N192  1  0.387400  0.289200  0.374000  1.0  -0.2256
  N  N193  1  0.673310  0.799900  0.011700  1.0  -0.3287
  N  N194  1  0.680190  0.877400  0.938900  1.0  -0.0612
  N  N195  1  0.644820  0.871400  0.856000  1.0  -0.1297
  N  N196  1  0.612600  0.789200  0.874000  1.0  -0.2249
  N  N197  1  0.826690  0.200100  0.011700  1.0  -0.3288
  N  N198  1  0.819810  0.122600  0.938900  1.0  -0.0621
  N  N199  1  0.855180  0.128600  0.856000  1.0  -0.1286
  N  N200  1  0.887400  0.210800  0.874000  1.0  -0.2269
  N  N201  1  0.826690  0.299900  0.488300  1.0  -0.3288
  N  N202  1  0.819810  0.377400  0.561100  1.0  -0.0608
  N  N203  1  0.855180  0.371400  0.644000  1.0  -0.1296
  N  N204  1  0.887400  0.289200  0.626000  1.0  -0.225
  N  N205  1  0.673310  0.700100  0.488300  1.0  -0.3276
  N  N206  1  0.680190  0.622600  0.561100  1.0  -0.0611
  N  N207  1  0.644820  0.628600  0.644000  1.0  -0.1277
  N  N208  1  0.612600  0.710800  0.626000  1.0  -0.2266
  N  N209  1  0.250000  0.000000  0.251600  1.0  -0.3721
  N  N210  1  0.250000  0.000000  0.848700  1.0  -0.3728
  N  N211  1  0.250000  0.500000  0.248400  1.0  -0.3753
  N  N212  1  0.250000  0.500000  0.651300  1.0  -0.37
  N  N213  1  0.750000  0.000000  0.748400  1.0  -0.3753
  N  N214  1  0.750000  0.000000  0.151300  1.0  -0.37
  N  N215  1  0.750000  0.500000  0.751600  1.0  -0.3721
  N  N216  1  0.750000  0.500000  0.348700  1.0  -0.3728
  O  O217  1  0.480750  0.681700  0.883300  1.0  -0.6153
  O  O218  1  0.503030  0.584800  0.739500  1.0  -0.6004
  O  O219  1  0.019250  0.318300  0.883300  1.0  -0.6118
  O  O220  1  0.996970  0.415200  0.739500  1.0  -0.5995
  O  O221  1  0.019250  0.181700  0.616700  1.0  -0.6127
  O  O222  1  0.996970  0.084800  0.760500  1.0  -0.6018
  O  O223  1  0.480750  0.818300  0.616700  1.0  -0.6128
  O  O224  1  0.503030  0.915200  0.760500  1.0  -0.6036
  O  O225  1  0.519250  0.318300  0.116700  1.0  -0.6121
  O  O226  1  0.496970  0.415200  0.260500  1.0  -0.6018
  O  O227  1  0.980750  0.681700  0.116700  1.0  -0.6157
  O  O228  1  0.003030  0.584800  0.260500  1.0  -0.6038
  O  O229  1  0.980750  0.818300  0.383300  1.0  -0.6115
  O  O230  1  0.003030  0.915200  0.239500  1.0  -0.6007
  O  O231  1  0.519250  0.181700  0.383300  1.0  -0.6135
  O  O232  1  0.496970  0.084800  0.239500  1.0  -0.5991
