# generated using pymatgen
data_SrCaH12C10(NO4)2
_symmetry_space_group_name_H-M   'P 1'
_cell_length_a   11.35740000
_cell_length_b   11.35740000
_cell_length_c   16.02800000
_cell_angle_alpha   85.20790000
_cell_angle_beta   85.20790000
_cell_angle_gamma   61.03720000
_symmetry_Int_Tables_number   1
_chemical_formula_structural   SrCaH12C10(NO4)2
_chemical_formula_sum   'Sr4 Ca4 H48 C40 N8 O32'
_cell_volume   1800.36627992
_cell_formula_units_Z   4
loop_
 _symmetry_equiv_pos_site_id
 _symmetry_equiv_pos_as_xyz
  1  'x, y, z'
loop_
 _atom_site_type_symbol
 _atom_site_label
 _atom_site_symmetry_multiplicity
 _atom_site_fract_x
 _atom_site_fract_y
 _atom_site_fract_z
 _atom_site_occupancy
 _atom_site_charge
  Sr  Sr1  1  0.057850  0.660770  0.986880  1.0  1.6803
  Sr  Sr2  1  0.339230  0.942150  0.513120  1.0  1.6805
  Sr  Sr3  1  0.942150  0.339230  0.013120  1.0  1.6806
  Sr  Sr4  1  0.660770  0.057850  0.486880  1.0  1.6814
  Ca  Ca5  1  0.880440  0.312240  0.748270  1.0  1.4426
  Ca  Ca6  1  0.687760  0.119560  0.751730  1.0  1.4403
  Ca  Ca7  1  0.119560  0.687760  0.251730  1.0  1.4417
  Ca  Ca8  1  0.312240  0.880440  0.248270  1.0  1.4365
  H  H9  1  0.761900  0.636900  0.554300  1.0  0.0742
  H  H10  1  0.753200  0.654600  0.660700  1.0  0.083
  H  H11  1  0.975100  0.597900  0.608600  1.0  0.0803
  H  H12  1  0.983900  0.461900  0.562500  1.0  0.057
  H  H13  1  0.701800  0.463000  0.518100  1.0  0.1279
  H  H14  1  0.847000  0.375800  0.521100  1.0  0.107
  H  H15  1  0.560100  0.500100  0.659300  1.0  0.1238
  H  H16  1  0.547300  0.646500  0.633900  1.0  0.0739
  H  H17  1  0.201700  0.388700  0.652800  1.0  0.1206
  H  H18  1  0.181600  0.293000  0.730900  1.0  0.1081
  H  H19  1  0.069200  0.561000  0.751800  1.0  0.1188
  H  H20  1  0.901700  0.600500  0.779600  1.0  0.1224
  H  H21  1  0.363100  0.238100  0.945700  1.0  0.0742
  H  H22  1  0.345400  0.246800  0.839300  1.0  0.0839
  H  H23  1  0.402100  0.024900  0.891400  1.0  0.0808
  H  H24  1  0.538100  0.016100  0.937500  1.0  0.0574
  H  H25  1  0.537000  0.298200  0.981900  1.0  0.126
  H  H26  1  0.624200  0.153000  0.978900  1.0  0.1131
  H  H27  1  0.499900  0.439900  0.840700  1.0  0.1231
  H  H28  1  0.353500  0.452700  0.866100  1.0  0.0734
  H  H29  1  0.611300  0.798300  0.847200  1.0  0.1218
  H  H30  1  0.707000  0.818400  0.769100  1.0  0.1081
  H  H31  1  0.439000  0.930800  0.748200  1.0  0.116
  H  H32  1  0.399500  0.098300  0.720400  1.0  0.1238
  H  H33  1  0.238100  0.363100  0.445700  1.0  0.0749
  H  H34  1  0.246800  0.345400  0.339300  1.0  0.0829
  H  H35  1  0.024900  0.402100  0.391400  1.0  0.0813
  H  H36  1  0.016100  0.538100  0.437500  1.0  0.0574
  H  H37  1  0.298200  0.537000  0.481900  1.0  0.1254
  H  H38  1  0.153000  0.624200  0.478900  1.0  0.113
  H  H39  1  0.439900  0.499900  0.340700  1.0  0.1233
  H  H40  1  0.452700  0.353500  0.366100  1.0  0.0757
  H  H41  1  0.798300  0.611300  0.347200  1.0  0.1229
  H  H42  1  0.818400  0.707000  0.269100  1.0  0.1086
  H  H43  1  0.930800  0.439000  0.248200  1.0  0.1117
  H  H44  1  0.098300  0.399500  0.220400  1.0  0.1227
  H  H45  1  0.636900  0.761900  0.054300  1.0  0.0748
  H  H46  1  0.654600  0.753200  0.160700  1.0  0.0839
  H  H47  1  0.597900  0.975100  0.108600  1.0  0.079
  H  H48  1  0.461900  0.983900  0.062500  1.0  0.058
  H  H49  1  0.463000  0.701800  0.018100  1.0  0.1266
  H  H50  1  0.375800  0.847000  0.021100  1.0  0.1124
  H  H51  1  0.500100  0.560100  0.159300  1.0  0.1237
  H  H52  1  0.646500  0.547300  0.133900  1.0  0.0732
  H  H53  1  0.388700  0.201700  0.152800  1.0  0.1212
  H  H54  1  0.293000  0.181600  0.230900  1.0  0.1078
  H  H55  1  0.561000  0.069200  0.251800  1.0  0.1186
  H  H56  1  0.600500  0.901700  0.279600  1.0  0.1237
  C  C57  1  0.795400  0.592000  0.618800  1.0  -0.0404
  C  C58  1  0.944300  0.532100  0.618600  1.0  -0.0197
  C  C59  1  0.748700  0.290500  0.582900  1.0  0.8035
  C  C60  1  0.759100  0.418100  0.559800  1.0  -0.2261
  C  C61  1  0.609800  0.566800  0.662900  1.0  -0.2281
  C  C62  1  0.589900  0.599300  0.754400  1.0  0.6962
  C  C63  1  0.142300  0.343500  0.674700  1.0  -0.2455
  C  C64  1  0.143500  0.239300  0.620400  1.0  0.7313
  C  C65  1  0.000400  0.522400  0.765500  1.0  -0.2646
  C  C66  1  0.021000  0.441400  0.848300  1.0  0.7784
  C  C67  1  0.408000  0.204600  0.881200  1.0  -0.0399
  C  C68  1  0.467900  0.055700  0.881400  1.0  -0.0204
  C  C69  1  0.709500  0.251300  0.917100  1.0  0.8005
  C  C70  1  0.581900  0.240900  0.940200  1.0  -0.2234
  C  C71  1  0.433200  0.390200  0.837100  1.0  -0.2265
  C  C72  1  0.400700  0.410100  0.745600  1.0  0.6959
  C  C73  1  0.656500  0.857700  0.825300  1.0  -0.2452
  C  C74  1  0.760700  0.856500  0.879600  1.0  0.7264
  C  C75  1  0.477600  0.999600  0.734500  1.0  -0.2677
  C  C76  1  0.558600  0.979000  0.651700  1.0  0.7791
  C  C77  1  0.204600  0.408000  0.381200  1.0  -0.0399
  C  C78  1  0.055700  0.467900  0.381400  1.0  -0.019
  C  C79  1  0.251300  0.709500  0.417100  1.0  0.7935
  C  C80  1  0.240900  0.581900  0.440200  1.0  -0.22
  C  C81  1  0.390200  0.433200  0.337100  1.0  -0.2266
  C  C82  1  0.410100  0.400700  0.245600  1.0  0.6972
  C  C83  1  0.857700  0.656500  0.325300  1.0  -0.2444
  C  C84  1  0.856500  0.760700  0.379600  1.0  0.7293
  C  C85  1  0.999600  0.477600  0.234500  1.0  -0.2654
  C  C86  1  0.979000  0.558600  0.151700  1.0  0.7767
  C  C87  1  0.592000  0.795400  0.118800  1.0  -0.0408
  C  C88  1  0.532100  0.944300  0.118600  1.0  -0.0196
  C  C89  1  0.290500  0.748700  0.082900  1.0  0.8028
  C  C90  1  0.418100  0.759100  0.059800  1.0  -0.2273
  C  C91  1  0.566800  0.609800  0.162900  1.0  -0.2269
  C  C92  1  0.599300  0.589900  0.254400  1.0  0.6964
  C  C93  1  0.343500  0.142300  0.174700  1.0  -0.2487
  C  C94  1  0.239300  0.143500  0.120400  1.0  0.7248
  C  C95  1  0.522400  0.000400  0.265500  1.0  -0.2629
  C  C96  1  0.441400  0.021000  0.348300  1.0  0.7758
  N  N97  1  0.746000  0.492200  0.633300  1.0  -0.2107
  N  N98  1  0.003300  0.446100  0.695300  1.0  -0.225
  N  N99  1  0.507800  0.254000  0.866700  1.0  -0.2111
  N  N100  1  0.553900  0.996700  0.804700  1.0  -0.2233
  N  N101  1  0.254000  0.507800  0.366700  1.0  -0.2104
  N  N102  1  0.996700  0.553900  0.304700  1.0  -0.2226
  N  N103  1  0.492200  0.746000  0.133300  1.0  -0.2103
  N  N104  1  0.446100  0.003300  0.195300  1.0  -0.2249
  O  O105  1  0.764300  0.246100  0.658500  1.0  -0.7704
  O  O106  1  0.727300  0.237100  0.525400  1.0  -0.7651
  O  O107  1  0.686600  0.526800  0.799500  1.0  -0.6966
  O  O108  1  0.480700  0.697300  0.776600  1.0  -0.6625
  O  O109  1  0.042300  0.221900  0.626200  1.0  -0.6958
  O  O110  1  0.247000  0.174600  0.574500  1.0  -0.7395
  O  O111  1  0.992600  0.348000  0.854200  1.0  -0.7722
  O  O112  1  0.059700  0.475100  0.907900  1.0  -0.7723
  O  O113  1  0.753900  0.235700  0.841500  1.0  -0.7674
  O  O114  1  0.762900  0.272700  0.974600  1.0  -0.7709
  O  O115  1  0.473200  0.313400  0.700500  1.0  -0.6808
  O  O116  1  0.302700  0.519300  0.723400  1.0  -0.6634
  O  O117  1  0.778100  0.957700  0.873800  1.0  -0.6863
  O  O118  1  0.825400  0.753000  0.925500  1.0  -0.7423
  O  O119  1  0.652000  0.007400  0.645800  1.0  -0.7694
  O  O120  1  0.524900  0.940300  0.592100  1.0  -0.7774
  O  O121  1  0.235700  0.753900  0.341500  1.0  -0.7715
  O  O122  1  0.272700  0.762900  0.474600  1.0  -0.7624
  O  O123  1  0.313400  0.473200  0.200500  1.0  -0.6797
  O  O124  1  0.519300  0.302700  0.223400  1.0  -0.6637
  O  O125  1  0.957700  0.778100  0.373800  1.0  -0.6928
  O  O126  1  0.753000  0.825400  0.425500  1.0  -0.7427
  O  O127  1  0.007400  0.652000  0.145800  1.0  -0.7717
  O  O128  1  0.940300  0.524900  0.092100  1.0  -0.7776
  O  O129  1  0.246100  0.764300  0.158500  1.0  -0.7692
  O  O130  1  0.237100  0.727300  0.025400  1.0  -0.7709
  O  O131  1  0.526800  0.686600  0.299500  1.0  -0.6926
  O  O132  1  0.697300  0.480700  0.276600  1.0  -0.6667
  O  O133  1  0.221900  0.042300  0.126200  1.0  -0.6869
  O  O134  1  0.174600  0.247000  0.074500  1.0  -0.7426
  O  O135  1  0.348000  0.992600  0.354200  1.0  -0.7708
  O  O136  1  0.475100  0.059700  0.407900  1.0  -0.7721
