# generated using pymatgen
data_U3HC5O8
_symmetry_space_group_name_H-M   'P 1'
_cell_length_a   12.64700000
_cell_length_b   13.28400000
_cell_length_c   24.92600000
_cell_angle_alpha   90.00000000
_cell_angle_beta   90.00000000
_cell_angle_gamma   90.00000000
_symmetry_Int_Tables_number   1
_chemical_formula_structural   U3HC5O8
_chemical_formula_sum   'U24 H8 C40 O64'
_cell_volume   4187.63649665
_cell_formula_units_Z   8
loop_
 _symmetry_equiv_pos_site_id
 _symmetry_equiv_pos_as_xyz
  1  'x, y, z'
loop_
 _atom_site_type_symbol
 _atom_site_label
 _atom_site_symmetry_multiplicity
 _atom_site_fract_x
 _atom_site_fract_y
 _atom_site_fract_z
 _atom_site_occupancy
 _atom_site_charge
  U  U1  1  0.611110  0.211920  0.802530  1.0  1.6813
  U  U2  1  0.761060  0.307270  0.677980  1.0  1.7544
  U  U3  1  0.905640  0.171510  0.794090  1.0  1.7305
  U  U4  1  0.388890  0.788080  0.802530  1.0  1.6827
  U  U5  1  0.238940  0.692730  0.677980  1.0  1.7511
  U  U6  1  0.094360  0.828490  0.794090  1.0  1.7306
  U  U7  1  0.888890  0.711920  0.697470  1.0  1.6798
  U  U8  1  0.738940  0.807270  0.822020  1.0  1.7565
  U  U9  1  0.594360  0.671510  0.705910  1.0  1.7084
  U  U10  1  0.111110  0.288080  0.697470  1.0  1.6814
  U  U11  1  0.261060  0.192730  0.822020  1.0  1.7547
  U  U12  1  0.405640  0.328490  0.705910  1.0  1.71
  U  U13  1  0.388890  0.788080  0.197470  1.0  1.6812
  U  U14  1  0.238940  0.692730  0.322020  1.0  1.754
  U  U15  1  0.094360  0.828490  0.205910  1.0  1.7303
  U  U16  1  0.611110  0.211920  0.197470  1.0  1.6797
  U  U17  1  0.761060  0.307270  0.322020  1.0  1.7572
  U  U18  1  0.905640  0.171510  0.205910  1.0  1.7303
  U  U19  1  0.111110  0.288080  0.302530  1.0  1.6828
  U  U20  1  0.261060  0.192730  0.177980  1.0  1.7518
  U  U21  1  0.405640  0.328490  0.294090  1.0  1.7104
  U  U22  1  0.888890  0.711920  0.302530  1.0  1.6814
  U  U23  1  0.738940  0.807270  0.177980  1.0  1.7537
  U  U24  1  0.594360  0.671510  0.294090  1.0  1.7087
  H  H25  1  0.621600  0.368900  0.500000  1.0  0.092
  H  H26  1  0.913800  0.347100  0.500000  1.0  0.076
  H  H27  1  0.378400  0.631100  0.500000  1.0  0.0921
  H  H28  1  0.086200  0.652900  0.500000  1.0  0.076
  H  H29  1  0.878400  0.868900  0.000000  1.0  0.094
  H  H30  1  0.586200  0.847100  0.000000  1.0  0.0767
  H  H31  1  0.121600  0.131100  0.000000  1.0  0.0948
  H  H32  1  0.413800  0.152900  0.000000  1.0  0.0759
  C  C33  1  0.563100  0.414200  0.600200  1.0  0.6716
  C  C34  1  0.535700  0.460700  0.547800  1.0  -0.1097
  C  C35  1  0.957200  0.393200  0.599000  1.0  0.6756
  C  C36  1  0.974000  0.453100  0.548800  1.0  -0.1382
  C  C37  1  0.436900  0.585800  0.600200  1.0  0.6877
  C  C38  1  0.464300  0.539300  0.547800  1.0  -0.11
  C  C39  1  0.042800  0.606800  0.599000  1.0  0.6759
  C  C40  1  0.026000  0.546900  0.548800  1.0  -0.1388
  C  C41  1  0.936900  0.914200  0.899800  1.0  0.6709
  C  C42  1  0.964300  0.960700  0.952200  1.0  -0.1098
  C  C43  1  0.542800  0.893200  0.901000  1.0  0.6745
  C  C44  1  0.526000  0.953100  0.951200  1.0  -0.1378
  C  C45  1  0.063100  0.085800  0.899800  1.0  0.6898
  C  C46  1  0.035700  0.039300  0.952200  1.0  -0.1102
  C  C47  1  0.457200  0.106800  0.901000  1.0  0.6756
  C  C48  1  0.474000  0.046900  0.951200  1.0  -0.1382
  C  C49  1  0.436900  0.585800  0.399800  1.0  0.6728
  C  C50  1  0.464300  0.539300  0.452200  1.0  -0.1101
  C  C51  1  0.042800  0.606800  0.401000  1.0  0.6756
  C  C52  1  0.026000  0.546900  0.451200  1.0  -0.1385
  C  C53  1  0.563100  0.414200  0.399800  1.0  0.6883
  C  C54  1  0.535700  0.460700  0.452200  1.0  -0.1097
  C  C55  1  0.957200  0.393200  0.401000  1.0  0.6742
  C  C56  1  0.974000  0.453100  0.451200  1.0  -0.1383
  C  C57  1  0.063100  0.085800  0.100200  1.0  0.6712
  C  C58  1  0.035700  0.039300  0.047800  1.0  -0.1102
  C  C59  1  0.457200  0.106800  0.099000  1.0  0.6757
  C  C60  1  0.474000  0.046900  0.048800  1.0  -0.1386
  C  C61  1  0.936900  0.914200  0.100200  1.0  0.688
  C  C62  1  0.964300  0.960700  0.047800  1.0  -0.1097
  C  C63  1  0.542800  0.893200  0.099000  1.0  0.6761
  C  C64  1  0.526000  0.953100  0.048800  1.0  -0.139
  C  C65  1  0.573000  0.421000  0.500000  1.0  -0.044
  C  C66  1  0.949000  0.409000  0.500000  1.0  -0.0266
  C  C67  1  0.427000  0.579000  0.500000  1.0  -0.0457
  C  C68  1  0.051000  0.591000  0.500000  1.0  -0.0247
  C  C69  1  0.927000  0.921000  0.000000  1.0  -0.0449
  C  C70  1  0.551000  0.909000  0.000000  1.0  -0.0261
  C  C71  1  0.073000  0.079000  0.000000  1.0  -0.0446
  C  C72  1  0.449000  0.091000  0.000000  1.0  -0.0254
  O  O73  1  0.592500  0.335800  0.727200  1.0  -0.9369
  O  O74  1  0.756500  0.127900  0.847200  1.0  -0.5912
  O  O75  1  0.933100  0.228300  0.700500  1.0  -0.9157
  O  O76  1  0.758200  0.237100  0.756900  1.0  -0.9054
  O  O77  1  0.658100  0.396500  0.612000  1.0  -0.7683
  O  O78  1  0.484800  0.393500  0.629900  1.0  -0.7522
  O  O79  1  0.873800  0.341800  0.603000  1.0  -0.6998
  O  O80  1  0.032600  0.391300  0.630800  1.0  -0.7353
  O  O81  1  0.407500  0.664200  0.727200  1.0  -0.9376
  O  O82  1  0.243500  0.872100  0.847200  1.0  -0.5902
  O  O83  1  0.066900  0.771700  0.700500  1.0  -0.9154
  O  O84  1  0.241800  0.762900  0.756900  1.0  -0.9058
  O  O85  1  0.341900  0.603500  0.612000  1.0  -0.7696
  O  O86  1  0.515200  0.606500  0.629900  1.0  -0.7533
  O  O87  1  0.126200  0.658200  0.603000  1.0  -0.7024
  O  O88  1  0.967400  0.608700  0.630800  1.0  -0.7373
  O  O89  1  0.907500  0.835800  0.772800  1.0  -0.9369
  O  O90  1  0.743500  0.627900  0.652800  1.0  -0.5942
  O  O91  1  0.566900  0.728300  0.799500  1.0  -0.9149
  O  O92  1  0.741800  0.737100  0.743100  1.0  -0.9059
  O  O93  1  0.841900  0.896500  0.888000  1.0  -0.7705
  O  O94  1  0.015200  0.893500  0.870100  1.0  -0.7554
  O  O95  1  0.626200  0.841800  0.897000  1.0  -0.7013
  O  O96  1  0.467400  0.891300  0.869200  1.0  -0.7379
  O  O97  1  0.092500  0.164200  0.772800  1.0  -0.9367
  O  O98  1  0.256500  0.372100  0.652800  1.0  -0.5944
  O  O99  1  0.433100  0.271700  0.799500  1.0  -0.916
  O  O100  1  0.258200  0.262900  0.743100  1.0  -0.9054
  O  O101  1  0.158100  0.103500  0.888000  1.0  -0.7691
  O  O102  1  0.984800  0.106500  0.870100  1.0  -0.7564
  O  O103  1  0.373800  0.158200  0.897000  1.0  -0.7006
  O  O104  1  0.532600  0.108700  0.869200  1.0  -0.7359
  O  O105  1  0.407500  0.664200  0.272800  1.0  -0.9371
  O  O106  1  0.243500  0.872100  0.152800  1.0  -0.5912
  O  O107  1  0.066900  0.771700  0.299500  1.0  -0.9152
  O  O108  1  0.241800  0.762900  0.243100  1.0  -0.9058
  O  O109  1  0.341900  0.603500  0.388000  1.0  -0.7701
  O  O110  1  0.515200  0.606500  0.370100  1.0  -0.7543
  O  O111  1  0.126200  0.658200  0.397000  1.0  -0.7024
  O  O112  1  0.967400  0.608700  0.369200  1.0  -0.7375
  O  O113  1  0.592500  0.335800  0.272800  1.0  -0.9366
  O  O114  1  0.756500  0.127900  0.152800  1.0  -0.5919
  O  O115  1  0.933100  0.228300  0.299500  1.0  -0.9157
  O  O116  1  0.758200  0.237100  0.243100  1.0  -0.9054
  O  O117  1  0.658100  0.396500  0.388000  1.0  -0.7695
  O  O118  1  0.484800  0.393500  0.370100  1.0  -0.7536
  O  O119  1  0.873800  0.341800  0.397000  1.0  -0.7001
  O  O120  1  0.032600  0.391300  0.369200  1.0  -0.7366
  O  O121  1  0.092500  0.164200  0.227200  1.0  -0.9372
  O  O122  1  0.256500  0.372100  0.347200  1.0  -0.5934
  O  O123  1  0.433100  0.271700  0.200500  1.0  -0.9162
  O  O124  1  0.258200  0.262900  0.256900  1.0  -0.9054
  O  O125  1  0.158100  0.103500  0.112000  1.0  -0.7686
  O  O126  1  0.984800  0.106500  0.129900  1.0  -0.7557
  O  O127  1  0.373800  0.158200  0.103000  1.0  -0.7006
  O  O128  1  0.532600  0.108700  0.130800  1.0  -0.7351
  O  O129  1  0.907500  0.835800  0.227200  1.0  -0.9373
  O  O130  1  0.743500  0.627900  0.347200  1.0  -0.5935
  O  O131  1  0.566900  0.728300  0.200500  1.0  -0.915
  O  O132  1  0.741800  0.737100  0.256900  1.0  -0.9058
  O  O133  1  0.841900  0.896500  0.112000  1.0  -0.7691
  O  O134  1  0.015200  0.893500  0.129900  1.0  -0.7535
  O  O135  1  0.626200  0.841800  0.103000  1.0  -0.701
  O  O136  1  0.467400  0.891300  0.130800  1.0  -0.7372
