# generated using pymatgen
data_U3H4(C5O4)4
_symmetry_space_group_name_H-M   'P 1'
_cell_length_a   11.68300000
_cell_length_b   16.58300000
_cell_length_c   22.83200000
_cell_angle_alpha   90.00000000
_cell_angle_beta   90.00000000
_cell_angle_gamma   90.00000000
_symmetry_Int_Tables_number   1
_chemical_formula_structural   U3H4(C5O4)4
_chemical_formula_sum   'U12 H16 C80 O64'
_cell_volume   4423.45316325
_cell_formula_units_Z   4
loop_
 _symmetry_equiv_pos_site_id
 _symmetry_equiv_pos_as_xyz
  1  'x, y, z'
loop_
 _atom_site_type_symbol
 _atom_site_label
 _atom_site_symmetry_multiplicity
 _atom_site_fract_x
 _atom_site_fract_y
 _atom_site_fract_z
 _atom_site_occupancy
 _atom_site_charge
  U  U1  1  0.204970  0.034350  0.099310  1.0  1.8391
  U  U2  1  0.295030  0.965650  0.599310  1.0  1.8389
  U  U3  1  0.795030  0.534350  0.900690  1.0  1.8397
  U  U4  1  0.704970  0.465650  0.400690  1.0  1.8396
  U  U5  1  0.795030  0.965650  0.900690  1.0  1.8395
  U  U6  1  0.704970  0.034350  0.400690  1.0  1.8398
  U  U7  1  0.204970  0.465650  0.099310  1.0  1.8389
  U  U8  1  0.295030  0.534350  0.599310  1.0  1.8391
  U  U9  1  0.492140  0.250000  0.227670  1.0  1.7059
  U  U10  1  0.007860  0.750000  0.727670  1.0  1.7057
  U  U11  1  0.507860  0.750000  0.772330  1.0  1.7078
  U  U12  1  0.992140  0.250000  0.272330  1.0  1.7079
  H  H13  1  0.556100  0.022500  0.071000  1.0  0.1108
  H  H14  1  0.844200  0.043400  0.208300  1.0  0.1146
  H  H15  1  0.943900  0.977500  0.571000  1.0  0.1105
  H  H16  1  0.655800  0.956600  0.708300  1.0  0.1142
  H  H17  1  0.443900  0.522500  0.929000  1.0  0.1101
  H  H18  1  0.155800  0.543400  0.791700  1.0  0.1143
  H  H19  1  0.056100  0.477500  0.429000  1.0  0.11
  H  H20  1  0.344200  0.456600  0.291700  1.0  0.115
  H  H21  1  0.443900  0.977500  0.929000  1.0  0.1098
  H  H22  1  0.155800  0.956600  0.791700  1.0  0.1142
  H  H23  1  0.056100  0.022500  0.429000  1.0  0.1102
  H  H24  1  0.344200  0.043400  0.291700  1.0  0.1147
  H  H25  1  0.556100  0.477500  0.071000  1.0  0.1108
  H  H26  1  0.844200  0.456600  0.208300  1.0  0.114
  H  H27  1  0.943900  0.522500  0.571000  1.0  0.1104
  H  H28  1  0.655800  0.543400  0.708300  1.0  0.1138
  C  C29  1  0.463800  0.069000  0.168500  1.0  0.7504
  C  C30  1  0.585400  0.053200  0.154300  1.0  -0.1199
  C  C31  1  0.614100  0.027100  0.098700  1.0  -0.0235
  C  C32  1  0.723300  0.007700  0.082400  1.0  -0.1462
  C  C33  1  0.748400  0.985500  0.021400  1.0  0.6294
  C  C34  1  0.812400  0.012400  0.124700  1.0  -0.038
  C  C35  1  0.931600  0.983600  0.114000  1.0  0.7114
  C  C36  1  0.786400  0.039800  0.180400  1.0  -0.0707
  C  C37  1  0.674900  0.062300  0.195600  1.0  -0.091
  C  C38  1  0.657800  0.089600  0.258600  1.0  0.7544
  C  C39  1  0.036200  0.931000  0.668500  1.0  0.7491
  C  C40  1  0.914600  0.946800  0.654300  1.0  -0.1203
  C  C41  1  0.885900  0.972900  0.598700  1.0  -0.0231
  C  C42  1  0.776700  0.992300  0.582400  1.0  -0.1464
  C  C43  1  0.751600  0.014500  0.521400  1.0  0.6292
  C  C44  1  0.687600  0.987600  0.624700  1.0  -0.0386
  C  C45  1  0.568400  0.016400  0.614000  1.0  0.7123
  C  C46  1  0.713600  0.960200  0.680400  1.0  -0.0719
  C  C47  1  0.825100  0.937700  0.695600  1.0  -0.0913
  C  C48  1  0.842200  0.910400  0.758600  1.0  0.7561
  C  C49  1  0.536200  0.569000  0.831500  1.0  0.7493
  C  C50  1  0.414600  0.553200  0.845700  1.0  -0.1208
  C  C51  1  0.385900  0.527100  0.901300  1.0  -0.0224
  C  C52  1  0.276700  0.507700  0.917600  1.0  -0.1443
  C  C53  1  0.251600  0.485500  0.978600  1.0  0.6312
  C  C54  1  0.187600  0.512400  0.875300  1.0  -0.0376
  C  C55  1  0.068400  0.483600  0.886000  1.0  0.712
  C  C56  1  0.213600  0.539800  0.819600  1.0  -0.0716
  C  C57  1  0.325100  0.562300  0.804400  1.0  -0.0909
  C  C58  1  0.342200  0.589600  0.741400  1.0  0.7567
  C  C59  1  0.963800  0.431000  0.331500  1.0  0.75
  C  C60  1  0.085400  0.446800  0.345700  1.0  -0.1207
  C  C61  1  0.114100  0.472900  0.401300  1.0  -0.0233
  C  C62  1  0.223300  0.492300  0.417600  1.0  -0.1439
  C  C63  1  0.248400  0.514500  0.478600  1.0  0.6307
  C  C64  1  0.312400  0.487600  0.375300  1.0  -0.0388
  C  C65  1  0.431600  0.516400  0.386000  1.0  0.7115
  C  C66  1  0.286400  0.460200  0.319600  1.0  -0.0711
  C  C67  1  0.174900  0.437700  0.304400  1.0  -0.0914
  C  C68  1  0.157800  0.410400  0.241400  1.0  0.7573
  C  C69  1  0.536200  0.931000  0.831500  1.0  0.7491
  C  C70  1  0.414600  0.946800  0.845700  1.0  -0.1209
  C  C71  1  0.385900  0.972900  0.901300  1.0  -0.0226
  C  C72  1  0.276700  0.992300  0.917600  1.0  -0.1441
  C  C73  1  0.251600  0.014500  0.978600  1.0  0.6304
  C  C74  1  0.187600  0.987600  0.875300  1.0  -0.0382
  C  C75  1  0.068400  0.016400  0.886000  1.0  0.7122
  C  C76  1  0.213600  0.960200  0.819600  1.0  -0.072
  C  C77  1  0.325100  0.937700  0.804400  1.0  -0.0912
  C  C78  1  0.342200  0.910400  0.741400  1.0  0.7574
  C  C79  1  0.963800  0.069000  0.331500  1.0  0.7504
  C  C80  1  0.085400  0.053200  0.345700  1.0  -0.1206
  C  C81  1  0.114100  0.027100  0.401300  1.0  -0.0232
  C  C82  1  0.223300  0.007700  0.417600  1.0  -0.1439
  C  C83  1  0.248400  0.985500  0.478600  1.0  0.6315
  C  C84  1  0.312400  0.012400  0.375300  1.0  -0.0378
  C  C85  1  0.431600  0.983600  0.386000  1.0  0.7112
  C  C86  1  0.286400  0.039800  0.319600  1.0  -0.0709
  C  C87  1  0.174900  0.062300  0.304400  1.0  -0.091
  C  C88  1  0.157800  0.089600  0.241400  1.0  0.7566
  C  C89  1  0.463800  0.431000  0.168500  1.0  0.7501
  C  C90  1  0.585400  0.446800  0.154300  1.0  -0.1201
  C  C91  1  0.614100  0.472900  0.098700  1.0  -0.0234
  C  C92  1  0.723300  0.492300  0.082400  1.0  -0.1458
  C  C93  1  0.748400  0.514500  0.021400  1.0  0.6293
  C  C94  1  0.812400  0.487600  0.124700  1.0  -0.039
  C  C95  1  0.931600  0.516400  0.114000  1.0  0.7115
  C  C96  1  0.786400  0.460200  0.180400  1.0  -0.0709
  C  C97  1  0.674900  0.437700  0.195600  1.0  -0.0914
  C  C98  1  0.657800  0.410400  0.258600  1.0  0.7556
  C  C99  1  0.036200  0.569000  0.668500  1.0  0.7493
  C  C100  1  0.914600  0.553200  0.654300  1.0  -0.1203
  C  C101  1  0.885900  0.527100  0.598700  1.0  -0.023
  C  C102  1  0.776700  0.507700  0.582400  1.0  -0.147
  C  C103  1  0.751600  0.485500  0.521400  1.0  0.6294
  C  C104  1  0.687600  0.512400  0.624700  1.0  -0.038
  C  C105  1  0.568400  0.483600  0.614000  1.0  0.7123
  C  C106  1  0.713600  0.539800  0.680400  1.0  -0.0715
  C  C107  1  0.825100  0.562300  0.695600  1.0  -0.091
  C  C108  1  0.842200  0.589600  0.758600  1.0  0.755
  O  O109  1  0.635000  0.161600  0.269100  1.0  -0.6462
  O  O110  1  0.675300  0.036900  0.296800  1.0  -0.7468
  O  O111  1  0.438400  0.114200  0.211100  1.0  -0.692
  O  O112  1  0.391300  0.034900  0.136400  1.0  -0.7667
  O  O113  1  0.666300  0.978500  0.984600  1.0  -0.6685
  O  O114  1  0.850600  0.977100  0.003100  1.0  -0.6069
  O  O115  1  0.008900  0.037000  0.105600  1.0  -0.6593
  O  O116  1  0.949400  0.910500  0.118000  1.0  -0.4883
  O  O117  1  0.865000  0.838400  0.769100  1.0  -0.647
  O  O118  1  0.824700  0.963100  0.796800  1.0  -0.7477
  O  O119  1  0.061600  0.885800  0.711100  1.0  -0.6916
  O  O120  1  0.108700  0.965100  0.636400  1.0  -0.7667
  O  O121  1  0.833700  0.021500  0.484600  1.0  -0.668
  O  O122  1  0.649400  0.022900  0.503100  1.0  -0.6079
  O  O123  1  0.491100  0.963000  0.605600  1.0  -0.6588
  O  O124  1  0.550600  0.089500  0.618000  1.0  -0.4899
  O  O125  1  0.365000  0.661600  0.730900  1.0  -0.6471
  O  O126  1  0.324700  0.536900  0.703200  1.0  -0.7483
  O  O127  1  0.561600  0.614200  0.788900  1.0  -0.6914
  O  O128  1  0.608700  0.534900  0.863600  1.0  -0.7663
  O  O129  1  0.333700  0.478500  0.015400  1.0  -0.6678
  O  O130  1  0.149400  0.477100  0.996900  1.0  -0.6078
  O  O131  1  0.991100  0.537000  0.894400  1.0  -0.6583
  O  O132  1  0.050600  0.410500  0.882000  1.0  -0.49
  O  O133  1  0.135000  0.338400  0.230900  1.0  -0.6475
  O  O134  1  0.175300  0.463100  0.203200  1.0  -0.7476
  O  O135  1  0.938400  0.385800  0.288900  1.0  -0.6924
  O  O136  1  0.891300  0.465100  0.363600  1.0  -0.7672
  O  O137  1  0.166300  0.521500  0.515400  1.0  -0.6683
  O  O138  1  0.350600  0.522900  0.496900  1.0  -0.6072
  O  O139  1  0.508900  0.463000  0.394400  1.0  -0.6576
  O  O140  1  0.449400  0.589500  0.382000  1.0  -0.4878
  O  O141  1  0.365000  0.838400  0.730900  1.0  -0.6476
  O  O142  1  0.324700  0.963100  0.703200  1.0  -0.7469
  O  O143  1  0.561600  0.885800  0.788900  1.0  -0.6923
  O  O144  1  0.608700  0.965100  0.863600  1.0  -0.7673
  O  O145  1  0.333700  0.021500  0.015400  1.0  -0.6681
  O  O146  1  0.149400  0.022900  0.996900  1.0  -0.6081
  O  O147  1  0.991100  0.963000  0.894400  1.0  -0.6575
  O  O148  1  0.050600  0.089500  0.882000  1.0  -0.4893
  O  O149  1  0.135000  0.161600  0.230900  1.0  -0.6466
  O  O150  1  0.175300  0.036900  0.203200  1.0  -0.7472
  O  O151  1  0.938400  0.114200  0.288900  1.0  -0.6917
  O  O152  1  0.891300  0.034900  0.363600  1.0  -0.7665
  O  O153  1  0.166300  0.978500  0.515400  1.0  -0.6679
  O  O154  1  0.350600  0.977100  0.496900  1.0  -0.6069
  O  O155  1  0.508900  0.037000  0.394400  1.0  -0.6586
  O  O156  1  0.449400  0.910500  0.382000  1.0  -0.4887
  O  O157  1  0.635000  0.338400  0.269100  1.0  -0.6467
  O  O158  1  0.675300  0.463100  0.296800  1.0  -0.7465
  O  O159  1  0.438400  0.385800  0.211100  1.0  -0.6917
  O  O160  1  0.391300  0.465100  0.136400  1.0  -0.7671
  O  O161  1  0.666300  0.521500  0.984600  1.0  -0.6683
  O  O162  1  0.850600  0.522900  0.003100  1.0  -0.6065
  O  O163  1  0.008900  0.463000  0.105600  1.0  -0.6588
  O  O164  1  0.949400  0.589500  0.118000  1.0  -0.4885
  O  O165  1  0.865000  0.661600  0.769100  1.0  -0.6464
  O  O166  1  0.824700  0.536900  0.796800  1.0  -0.7458
  O  O167  1  0.061600  0.614200  0.711100  1.0  -0.6916
  O  O168  1  0.108700  0.534900  0.636400  1.0  -0.7667
  O  O169  1  0.833700  0.478500  0.484600  1.0  -0.6682
  O  O170  1  0.649400  0.477100  0.503100  1.0  -0.6083
  O  O171  1  0.491100  0.537000  0.605600  1.0  -0.6594
  O  O172  1  0.550600  0.410500  0.618000  1.0  -0.4893
