# generated using pymatgen
data_TbH6(C2O)6
_symmetry_space_group_name_H-M   'P 1'
_cell_length_a   23.75440000
_cell_length_b   10.53860000
_cell_length_c   19.75840000
_cell_angle_alpha   90.00000000
_cell_angle_beta   125.80500000
_cell_angle_gamma   90.00000000
_symmetry_Int_Tables_number   1
_chemical_formula_structural   TbH6(C2O)6
_chemical_formula_sum   'Tb8 H48 C96 O48'
_cell_volume   4011.49681106
_cell_formula_units_Z   8
loop_
 _symmetry_equiv_pos_site_id
 _symmetry_equiv_pos_as_xyz
  1  'x, y, z'
loop_
 _atom_site_type_symbol
 _atom_site_label
 _atom_site_symmetry_multiplicity
 _atom_site_fract_x
 _atom_site_fract_y
 _atom_site_fract_z
 _atom_site_occupancy
 _atom_site_charge
  Tb  Tb1  1  0.498680  0.046590  0.126470  1.0  2.2478
  Tb  Tb2  1  0.998680  0.546590  0.126470  1.0  2.2478
  Tb  Tb3  1  0.501320  0.046590  0.373530  1.0  2.2474
  Tb  Tb4  1  0.001320  0.546590  0.373530  1.0  2.2474
  Tb  Tb5  1  0.501320  0.953410  0.873530  1.0  2.2502
  Tb  Tb6  1  0.001320  0.453410  0.873530  1.0  2.2502
  Tb  Tb7  1  0.498680  0.953410  0.626470  1.0  2.2516
  Tb  Tb8  1  0.998680  0.453410  0.626470  1.0  2.2516
  H  H9  1  0.515700  0.658200  0.160900  1.0  0.0991
  H  H10  1  0.342400  0.282900  0.964400  1.0  0.1005
  H  H11  1  0.512400  0.437900  0.157600  1.0  0.1018
  H  H12  1  0.231000  0.365200  0.881900  1.0  0.1027
  H  H13  1  0.194600  0.172900  0.685700  1.0  0.1062
  H  H14  1  0.304000  0.090000  0.764000  1.0  0.0952
  H  H15  1  0.015700  0.158200  0.160900  1.0  0.0991
  H  H16  1  0.842400  0.782900  0.964400  1.0  0.1005
  H  H17  1  0.012400  0.937900  0.157600  1.0  0.1018
  H  H18  1  0.731000  0.865200  0.881900  1.0  0.1027
  H  H19  1  0.694600  0.672900  0.685700  1.0  0.1062
  H  H20  1  0.804000  0.590000  0.764000  1.0  0.0952
  H  H21  1  0.484300  0.658200  0.339100  1.0  0.0992
  H  H22  1  0.657600  0.282900  0.535600  1.0  0.1007
  H  H23  1  0.487600  0.437900  0.342400  1.0  0.1018
  H  H24  1  0.769000  0.365200  0.618100  1.0  0.1022
  H  H25  1  0.805400  0.172900  0.814300  1.0  0.1064
  H  H26  1  0.696000  0.090000  0.736000  1.0  0.0959
  H  H27  1  0.984300  0.158200  0.339100  1.0  0.0992
  H  H28  1  0.157600  0.782900  0.535600  1.0  0.1007
  H  H29  1  0.987600  0.937900  0.342400  1.0  0.1018
  H  H30  1  0.269000  0.865200  0.618100  1.0  0.1022
  H  H31  1  0.305400  0.672900  0.814300  1.0  0.1064
  H  H32  1  0.196000  0.590000  0.736000  1.0  0.0959
  H  H33  1  0.484300  0.341800  0.839100  1.0  0.0991
  H  H34  1  0.657600  0.717100  0.035600  1.0  0.1008
  H  H35  1  0.487600  0.562100  0.842400  1.0  0.1016
  H  H36  1  0.769000  0.634800  0.118100  1.0  0.1023
  H  H37  1  0.805400  0.827100  0.314300  1.0  0.106
  H  H38  1  0.696000  0.910000  0.236000  1.0  0.0957
  H  H39  1  0.984300  0.841800  0.839100  1.0  0.0991
  H  H40  1  0.157600  0.217100  0.035600  1.0  0.1008
  H  H41  1  0.987600  0.062100  0.842400  1.0  0.1016
  H  H42  1  0.269000  0.134800  0.118100  1.0  0.1023
  H  H43  1  0.305400  0.327100  0.314300  1.0  0.106
  H  H44  1  0.196000  0.410000  0.236000  1.0  0.0957
  H  H45  1  0.515700  0.341800  0.660900  1.0  0.0991
  H  H46  1  0.342400  0.717100  0.464400  1.0  0.1008
  H  H47  1  0.512400  0.562100  0.657600  1.0  0.1016
  H  H48  1  0.231000  0.634800  0.381900  1.0  0.1027
  H  H49  1  0.194600  0.827100  0.185700  1.0  0.1063
  H  H50  1  0.304000  0.910000  0.264000  1.0  0.0949
  H  H51  1  0.015700  0.841800  0.660900  1.0  0.0991
  H  H52  1  0.842400  0.217100  0.464400  1.0  0.1008
  H  H53  1  0.012400  0.062100  0.657600  1.0  0.1016
  H  H54  1  0.731000  0.134800  0.381900  1.0  0.1027
  H  H55  1  0.694600  0.327100  0.185700  1.0  0.1063
  H  H56  1  0.804000  0.410000  0.264000  1.0  0.0949
  C  C57  1  0.408320  0.127100  0.927000  1.0  0.7511
  C  C58  1  0.509000  0.613900  0.196300  1.0  -0.0598
  C  C59  1  0.336040  0.180600  0.873600  1.0  -0.1169
  C  C60  1  0.313000  0.261400  0.908200  1.0  -0.0627
  C  C61  1  0.291400  0.149700  0.789600  1.0  -0.1031
  C  C62  1  0.507900  0.481600  0.195100  1.0  -0.066
  C  C63  1  0.201550  0.277800  0.775800  1.0  -0.1361
  C  C64  1  0.245900  0.310100  0.858600  1.0  -0.0556
  C  C65  1  0.224600  0.196300  0.741500  1.0  -0.1188
  C  C66  1  0.129570  0.329700  0.724100  1.0  0.6564
  C  C67  1  0.908320  0.627100  0.927000  1.0  0.7511
  C  C68  1  0.009000  0.113900  0.196300  1.0  -0.0598
  C  C69  1  0.836040  0.680600  0.873600  1.0  -0.1169
  C  C70  1  0.813000  0.761400  0.908200  1.0  -0.0627
  C  C71  1  0.791400  0.649700  0.789600  1.0  -0.1031
  C  C72  1  0.007900  0.981600  0.195100  1.0  -0.066
  C  C73  1  0.701550  0.777800  0.775800  1.0  -0.1361
  C  C74  1  0.745900  0.810100  0.858600  1.0  -0.0556
  C  C75  1  0.724600  0.696300  0.741500  1.0  -0.1188
  C  C76  1  0.629570  0.829700  0.724100  1.0  0.6564
  C  C77  1  0.591680  0.127100  0.573000  1.0  0.7511
  C  C78  1  0.491000  0.613900  0.303700  1.0  -0.0592
  C  C79  1  0.663960  0.180600  0.626400  1.0  -0.1147
  C  C80  1  0.687000  0.261400  0.591800  1.0  -0.0623
  C  C81  1  0.708600  0.149700  0.710400  1.0  -0.105
  C  C82  1  0.492100  0.481600  0.304900  1.0  -0.0698
  C  C83  1  0.798450  0.277800  0.724200  1.0  -0.1368
  C  C84  1  0.754100  0.310100  0.641400  1.0  -0.0544
  C  C85  1  0.775400  0.196300  0.758500  1.0  -0.1175
  C  C86  1  0.870430  0.329700  0.775900  1.0  0.6567
  C  C87  1  0.091680  0.627100  0.573000  1.0  0.7511
  C  C88  1  0.991000  0.113900  0.303700  1.0  -0.0592
  C  C89  1  0.163960  0.680600  0.626400  1.0  -0.1147
  C  C90  1  0.187000  0.761400  0.591800  1.0  -0.0623
  C  C91  1  0.208600  0.649700  0.710400  1.0  -0.105
  C  C92  1  0.992100  0.981600  0.304900  1.0  -0.0698
  C  C93  1  0.298450  0.777800  0.724200  1.0  -0.1368
  C  C94  1  0.254100  0.810100  0.641400  1.0  -0.0544
  C  C95  1  0.275400  0.696300  0.758500  1.0  -0.1175
  C  C96  1  0.370430  0.829700  0.775900  1.0  0.6567
  C  C97  1  0.591680  0.872900  0.073000  1.0  0.7513
  C  C98  1  0.491000  0.386100  0.803700  1.0  -0.0591
  C  C99  1  0.663960  0.819400  0.126400  1.0  -0.1148
  C  C100  1  0.687000  0.738600  0.091800  1.0  -0.0619
  C  C101  1  0.708600  0.850300  0.210400  1.0  -0.1044
  C  C102  1  0.492100  0.518400  0.804900  1.0  -0.0678
  C  C103  1  0.798450  0.722200  0.224200  1.0  -0.1368
  C  C104  1  0.754100  0.689900  0.141400  1.0  -0.0542
  C  C105  1  0.775400  0.803700  0.258500  1.0  -0.118
  C  C106  1  0.870430  0.670300  0.275900  1.0  0.6568
  C  C107  1  0.091680  0.372900  0.073000  1.0  0.7513
  C  C108  1  0.991000  0.886100  0.803700  1.0  -0.0591
  C  C109  1  0.163960  0.319400  0.126400  1.0  -0.1148
  C  C110  1  0.187000  0.238600  0.091800  1.0  -0.0619
  C  C111  1  0.208600  0.350300  0.210400  1.0  -0.1044
  C  C112  1  0.992100  0.018400  0.804900  1.0  -0.0678
  C  C113  1  0.298450  0.222200  0.224200  1.0  -0.1368
  C  C114  1  0.254100  0.189900  0.141400  1.0  -0.0542
  C  C115  1  0.275400  0.303700  0.258500  1.0  -0.118
  C  C116  1  0.370430  0.170300  0.275900  1.0  0.6568
  C  C117  1  0.408320  0.872900  0.427000  1.0  0.7515
  C  C118  1  0.509000  0.386100  0.696300  1.0  -0.0594
  C  C119  1  0.336040  0.819400  0.373600  1.0  -0.1168
  C  C120  1  0.313000  0.738600  0.408200  1.0  -0.0624
  C  C121  1  0.291400  0.850300  0.289600  1.0  -0.1032
  C  C122  1  0.507900  0.518400  0.695100  1.0  -0.069
  C  C123  1  0.201550  0.722200  0.275800  1.0  -0.1358
  C  C124  1  0.245900  0.689900  0.358600  1.0  -0.0556
  C  C125  1  0.224600  0.803700  0.241500  1.0  -0.1193
  C  C126  1  0.129570  0.670300  0.224100  1.0  0.6562
  C  C127  1  0.908320  0.372900  0.427000  1.0  0.7515
  C  C128  1  0.009000  0.886100  0.696300  1.0  -0.0594
  C  C129  1  0.836040  0.319400  0.373600  1.0  -0.1168
  C  C130  1  0.813000  0.238600  0.408200  1.0  -0.0624
  C  C131  1  0.791400  0.350300  0.289600  1.0  -0.1032
  C  C132  1  0.007900  0.018400  0.695100  1.0  -0.069
  C  C133  1  0.701550  0.222200  0.275800  1.0  -0.1358
  C  C134  1  0.745900  0.189900  0.358600  1.0  -0.0556
  C  C135  1  0.724600  0.303700  0.241500  1.0  -0.1193
  C  C136  1  0.629570  0.170300  0.224100  1.0  0.6562
  C  C137  1  0.500000  0.821900  0.250000  1.0  0.7188
  C  C138  1  0.500000  0.272600  0.250000  1.0  0.7332
  C  C139  1  0.500000  0.414600  0.250000  1.0  -0.1208
  C  C140  1  0.500000  0.679400  0.250000  1.0  -0.1301
  C  C141  1  0.000000  0.321900  0.250000  1.0  0.7188
  C  C142  1  0.000000  0.772600  0.250000  1.0  0.7332
  C  C143  1  0.000000  0.914600  0.250000  1.0  -0.1208
  C  C144  1  0.000000  0.179400  0.250000  1.0  -0.1301
  C  C145  1  0.500000  0.178100  0.750000  1.0  0.7184
  C  C146  1  0.500000  0.727400  0.750000  1.0  0.7341
  C  C147  1  0.500000  0.585400  0.750000  1.0  -0.1211
  C  C148  1  0.500000  0.320600  0.750000  1.0  -0.1297
  C  C149  1  0.000000  0.678100  0.750000  1.0  0.7184
  C  C150  1  0.000000  0.227400  0.750000  1.0  0.7341
  C  C151  1  0.000000  0.085400  0.750000  1.0  -0.1211
  C  C152  1  0.000000  0.820600  0.750000  1.0  -0.1297
  O  O153  1  0.112140  0.411100  0.756230  1.0  -0.6207
  O  O154  1  0.086630  0.295300  0.649160  1.0  -0.6912
  O  O155  1  0.445640  0.153300  0.003560  1.0  -0.6977
  O  O156  1  0.426830  0.058800  0.891900  1.0  -0.7206
  O  O157  1  0.481120  0.218700  0.183500  1.0  -0.6878
  O  O158  1  0.517220  0.877600  0.209100  1.0  -0.7252
  O  O159  1  0.612140  0.911100  0.756230  1.0  -0.6207
  O  O160  1  0.586630  0.795300  0.649160  1.0  -0.6912
  O  O161  1  0.945640  0.653300  0.003560  1.0  -0.6977
  O  O162  1  0.926830  0.558800  0.891900  1.0  -0.7206
  O  O163  1  0.981120  0.718700  0.183500  1.0  -0.6878
  O  O164  1  0.017220  0.377600  0.209100  1.0  -0.7252
  O  O165  1  0.887860  0.411100  0.743770  1.0  -0.6209
  O  O166  1  0.913370  0.295300  0.850840  1.0  -0.6916
  O  O167  1  0.554360  0.153300  0.496440  1.0  -0.6982
  O  O168  1  0.573170  0.058800  0.608100  1.0  -0.72
  O  O169  1  0.518880  0.218700  0.316500  1.0  -0.688
  O  O170  1  0.482780  0.877600  0.290900  1.0  -0.7246
  O  O171  1  0.387860  0.911100  0.743770  1.0  -0.6209
  O  O172  1  0.413370  0.795300  0.850840  1.0  -0.6916
  O  O173  1  0.054360  0.653300  0.496440  1.0  -0.6982
  O  O174  1  0.073170  0.558800  0.608100  1.0  -0.72
  O  O175  1  0.018880  0.718700  0.316500  1.0  -0.688
  O  O176  1  0.982780  0.377600  0.290900  1.0  -0.7246
  O  O177  1  0.887860  0.588900  0.243770  1.0  -0.6215
  O  O178  1  0.913370  0.704700  0.350840  1.0  -0.6918
  O  O179  1  0.554360  0.846700  0.996440  1.0  -0.699
  O  O180  1  0.573170  0.941200  0.108100  1.0  -0.72
  O  O181  1  0.518880  0.781300  0.816500  1.0  -0.688
  O  O182  1  0.482780  0.122400  0.790900  1.0  -0.7251
  O  O183  1  0.387860  0.088900  0.243770  1.0  -0.6215
  O  O184  1  0.413370  0.204700  0.350840  1.0  -0.6918
  O  O185  1  0.054360  0.346700  0.996440  1.0  -0.699
  O  O186  1  0.073170  0.441200  0.108100  1.0  -0.72
  O  O187  1  0.018880  0.281300  0.816500  1.0  -0.688
  O  O188  1  0.982780  0.622400  0.790900  1.0  -0.7251
  O  O189  1  0.112140  0.588900  0.256230  1.0  -0.621
  O  O190  1  0.086630  0.704700  0.149160  1.0  -0.6913
  O  O191  1  0.445640  0.846700  0.503560  1.0  -0.6983
  O  O192  1  0.426830  0.941200  0.391900  1.0  -0.7205
  O  O193  1  0.481120  0.781300  0.683500  1.0  -0.6877
  O  O194  1  0.517220  0.122400  0.709100  1.0  -0.7255
  O  O195  1  0.612140  0.088900  0.256230  1.0  -0.621
  O  O196  1  0.586630  0.204700  0.149160  1.0  -0.6913
  O  O197  1  0.945640  0.346700  0.503560  1.0  -0.6983
  O  O198  1  0.926830  0.441200  0.391900  1.0  -0.7205
  O  O199  1  0.981120  0.281300  0.683500  1.0  -0.6877
  O  O200  1  0.017220  0.622400  0.709100  1.0  -0.7255
