# generated using pymatgen
data_Zn3H18C20(N4O)4
_symmetry_space_group_name_H-M   'P 1'
_cell_length_a   12.53820000
_cell_length_b   16.20520000
_cell_length_c   20.08290000
_cell_angle_alpha   90.00000000
_cell_angle_beta   94.73200000
_cell_angle_gamma   90.00000000
_symmetry_Int_Tables_number   1
_chemical_formula_structural   Zn3H18C20(N4O)4
_chemical_formula_sum   'Zn12 H72 C80 N64 O16'
_cell_volume   4066.61613165
_cell_formula_units_Z   4
loop_
 _symmetry_equiv_pos_site_id
 _symmetry_equiv_pos_as_xyz
  1  'x, y, z'
loop_
 _atom_site_type_symbol
 _atom_site_label
 _atom_site_symmetry_multiplicity
 _atom_site_fract_x
 _atom_site_fract_y
 _atom_site_fract_z
 _atom_site_occupancy
 _atom_site_charge
  Zn  Zn1  1  0.288470  0.409810  0.412050  1.0  0.9063
  Zn  Zn2  1  0.788470  0.909810  0.412050  1.0  0.9063
  Zn  Zn3  1  0.711530  0.409810  0.087950  1.0  0.9077
  Zn  Zn4  1  0.211530  0.909810  0.087950  1.0  0.9077
  Zn  Zn5  1  0.711530  0.590190  0.587950  1.0  0.9078
  Zn  Zn6  1  0.211530  0.090190  0.587950  1.0  0.9078
  Zn  Zn7  1  0.288470  0.590190  0.912050  1.0  0.9066
  Zn  Zn8  1  0.788470  0.090190  0.912050  1.0  0.9066
  Zn  Zn9  1  0.500000  0.668480  0.250000  1.0  0.7875
  Zn  Zn10  1  0.000000  0.168480  0.250000  1.0  0.7875
  Zn  Zn11  1  0.500000  0.331520  0.750000  1.0  0.7875
  Zn  Zn12  1  0.000000  0.831520  0.750000  1.0  0.7875
  H  H13  1  0.510800  0.489900  0.417500  1.0  0.1464
  H  H14  1  0.538400  0.582800  0.405600  1.0  0.1478
  H  H15  1  0.572500  0.515000  0.355800  1.0  0.1459
  H  H16  1  0.190000  0.272100  0.219400  1.0  0.1321
  H  H17  1  0.292300  0.294200  0.266200  1.0  0.1462
  H  H18  1  0.212800  0.364000  0.240300  1.0  0.1552
  H  H19  1  0.599300  0.230800  0.350900  1.0  0.1126
  H  H20  1  0.766500  0.182700  0.381900  1.0  0.0964
  H  H21  1  0.919200  0.166300  0.468900  1.0  0.0938
  H  H22  1  0.010800  0.989900  0.417500  1.0  0.1464
  H  H23  1  0.038400  0.082800  0.405600  1.0  0.1478
  H  H24  1  0.072500  0.015000  0.355800  1.0  0.1459
  H  H25  1  0.690000  0.772100  0.219400  1.0  0.1321
  H  H26  1  0.792300  0.794200  0.266200  1.0  0.1462
  H  H27  1  0.712800  0.864000  0.240300  1.0  0.1552
  H  H28  1  0.099300  0.730800  0.350900  1.0  0.1126
  H  H29  1  0.266500  0.682700  0.381900  1.0  0.0964
  H  H30  1  0.419200  0.666300  0.468900  1.0  0.0938
  H  H31  1  0.489200  0.489900  0.082500  1.0  0.145
  H  H32  1  0.461600  0.582800  0.094400  1.0  0.149
  H  H33  1  0.427500  0.515000  0.144200  1.0  0.145
  H  H34  1  0.810000  0.272100  0.280600  1.0  0.1324
  H  H35  1  0.707700  0.294200  0.233800  1.0  0.1507
  H  H36  1  0.787200  0.364000  0.259700  1.0  0.1546
  H  H37  1  0.400700  0.230800  0.149100  1.0  0.1109
  H  H38  1  0.233500  0.182700  0.118100  1.0  0.0957
  H  H39  1  0.080800  0.166300  0.031100  1.0  0.0949
  H  H40  1  0.989200  0.989900  0.082500  1.0  0.145
  H  H41  1  0.961600  0.082800  0.094400  1.0  0.1489
  H  H42  1  0.927500  0.015000  0.144200  1.0  0.145
  H  H43  1  0.310000  0.772100  0.280600  1.0  0.1324
  H  H44  1  0.207700  0.794200  0.233800  1.0  0.1507
  H  H45  1  0.287200  0.864000  0.259700  1.0  0.1546
  H  H46  1  0.900700  0.730800  0.149100  1.0  0.1109
  H  H47  1  0.733500  0.682700  0.118100  1.0  0.0957
  H  H48  1  0.580800  0.666300  0.031100  1.0  0.0949
  H  H49  1  0.489200  0.510100  0.582500  1.0  0.1455
  H  H50  1  0.461600  0.417200  0.594400  1.0  0.1498
  H  H51  1  0.427500  0.485000  0.644200  1.0  0.145
  H  H52  1  0.810000  0.727900  0.780600  1.0  0.1324
  H  H53  1  0.707700  0.705800  0.733800  1.0  0.1508
  H  H54  1  0.787200  0.636000  0.759700  1.0  0.1542
  H  H55  1  0.400700  0.769200  0.649100  1.0  0.1126
  H  H56  1  0.233500  0.817300  0.618100  1.0  0.0953
  H  H57  1  0.080800  0.833700  0.531100  1.0  0.0956
  H  H58  1  0.989200  0.010100  0.582500  1.0  0.1455
  H  H59  1  0.961600  0.917200  0.594400  1.0  0.1501
  H  H60  1  0.927500  0.985000  0.644200  1.0  0.145
  H  H61  1  0.310000  0.227900  0.780600  1.0  0.1324
  H  H62  1  0.207700  0.205800  0.733800  1.0  0.1508
  H  H63  1  0.287200  0.136000  0.759700  1.0  0.1542
  H  H64  1  0.900700  0.269200  0.649100  1.0  0.1126
  H  H65  1  0.733500  0.317300  0.618100  1.0  0.0953
  H  H66  1  0.580800  0.333700  0.531100  1.0  0.0956
  H  H67  1  0.510800  0.510100  0.917500  1.0  0.1459
  H  H68  1  0.538400  0.417200  0.905600  1.0  0.1492
  H  H69  1  0.572500  0.485000  0.855800  1.0  0.1461
  H  H70  1  0.190000  0.727900  0.719400  1.0  0.1315
  H  H71  1  0.292300  0.705800  0.766200  1.0  0.1458
  H  H72  1  0.212800  0.636000  0.740300  1.0  0.153
  H  H73  1  0.599300  0.769200  0.850900  1.0  0.1125
  H  H74  1  0.766500  0.817300  0.881900  1.0  0.0961
  H  H75  1  0.919200  0.833700  0.968900  1.0  0.0954
  H  H76  1  0.010800  0.010100  0.917500  1.0  0.1459
  H  H77  1  0.038400  0.917200  0.905600  1.0  0.1492
  H  H78  1  0.072500  0.985000  0.855800  1.0  0.1461
  H  H79  1  0.690000  0.227900  0.719400  1.0  0.1315
  H  H80  1  0.792300  0.205800  0.766200  1.0  0.1458
  H  H81  1  0.712800  0.136000  0.740300  1.0  0.153
  H  H82  1  0.099300  0.269200  0.850900  1.0  0.1125
  H  H83  1  0.266500  0.317300  0.881900  1.0  0.0961
  H  H84  1  0.419200  0.333700  0.968900  1.0  0.0954
  C  C85  1  0.414800  0.541910  0.343320  1.0  0.4406
  C  C86  1  0.518300  0.531500  0.384160  1.0  -0.4567
  C  C87  1  0.157300  0.296100  0.314000  1.0  0.4157
  C  C88  1  0.218400  0.307600  0.254800  1.0  -0.4501
  C  C89  1  0.464800  0.321600  0.416280  1.0  0.6823
  C  C90  1  0.573400  0.288000  0.438410  1.0  -0.1401
  C  C91  1  0.630300  0.241600  0.393660  1.0  -0.046
  C  C92  1  0.729600  0.212400  0.412230  1.0  -0.1284
  C  C93  1  0.777500  0.226900  0.477390  1.0  0.0368
  C  C94  1  0.881500  0.196700  0.498390  1.0  -0.0649
  C  C95  1  0.914800  0.041910  0.343320  1.0  0.4406
  C  C96  1  0.018300  0.031500  0.384160  1.0  -0.4567
  C  C97  1  0.657300  0.796100  0.314000  1.0  0.4157
  C  C98  1  0.718400  0.807600  0.254800  1.0  -0.4501
  C  C99  1  0.964800  0.821600  0.416280  1.0  0.6823
  C  C100  1  0.073400  0.788000  0.438410  1.0  -0.1401
  C  C101  1  0.130300  0.741600  0.393660  1.0  -0.046
  C  C102  1  0.229600  0.712400  0.412230  1.0  -0.1284
  C  C103  1  0.277500  0.726900  0.477390  1.0  0.0368
  C  C104  1  0.381500  0.696700  0.498390  1.0  -0.0649
  C  C105  1  0.585200  0.541910  0.156680  1.0  0.4366
  C  C106  1  0.481700  0.531500  0.115840  1.0  -0.4553
  C  C107  1  0.842700  0.296100  0.186000  1.0  0.4066
  C  C108  1  0.781600  0.307600  0.245200  1.0  -0.4508
  C  C109  1  0.535200  0.321600  0.083720  1.0  0.6835
  C  C110  1  0.426600  0.288000  0.061590  1.0  -0.1398
  C  C111  1  0.369700  0.241600  0.106340  1.0  -0.052
  C  C112  1  0.270400  0.212400  0.087770  1.0  -0.1269
  C  C113  1  0.222500  0.226900  0.022610  1.0  0.037
  C  C114  1  0.118500  0.196700  0.001610  1.0  -0.066
  C  C115  1  0.085200  0.041910  0.156680  1.0  0.4366
  C  C116  1  0.981700  0.031500  0.115840  1.0  -0.4553
  C  C117  1  0.342700  0.796100  0.186000  1.0  0.4066
  C  C118  1  0.281600  0.807600  0.245200  1.0  -0.4508
  C  C119  1  0.035200  0.821600  0.083720  1.0  0.6835
  C  C120  1  0.926600  0.788000  0.061590  1.0  -0.1398
  C  C121  1  0.869700  0.741600  0.106340  1.0  -0.0519
  C  C122  1  0.770400  0.712400  0.087770  1.0  -0.1269
  C  C123  1  0.722500  0.726900  0.022610  1.0  0.037
  C  C124  1  0.618500  0.696700  0.001610  1.0  -0.066
  C  C125  1  0.585200  0.458090  0.656680  1.0  0.4373
  C  C126  1  0.481700  0.468500  0.615840  1.0  -0.4555
  C  C127  1  0.842700  0.703900  0.686000  1.0  0.4096
  C  C128  1  0.781600  0.692400  0.745200  1.0  -0.4506
  C  C129  1  0.535200  0.678400  0.583720  1.0  0.6824
  C  C130  1  0.426600  0.712000  0.561590  1.0  -0.1401
  C  C131  1  0.369700  0.758400  0.606340  1.0  -0.0532
  C  C132  1  0.270400  0.787600  0.587770  1.0  -0.1259
  C  C133  1  0.222500  0.773100  0.522610  1.0  0.037
  C  C134  1  0.118500  0.803300  0.501610  1.0  -0.0667
  C  C135  1  0.085200  0.958090  0.656680  1.0  0.4378
  C  C136  1  0.981700  0.968500  0.615840  1.0  -0.4555
  C  C137  1  0.342700  0.203900  0.686000  1.0  0.4096
  C  C138  1  0.281600  0.192400  0.745200  1.0  -0.4506
  C  C139  1  0.035200  0.178400  0.583720  1.0  0.6824
  C  C140  1  0.926600  0.212000  0.561590  1.0  -0.1401
  C  C141  1  0.869700  0.258400  0.606340  1.0  -0.0514
  C  C142  1  0.770400  0.287600  0.587770  1.0  -0.1259
  C  C143  1  0.722500  0.273100  0.522610  1.0  0.037
  C  C144  1  0.618500  0.303300  0.501610  1.0  -0.0667
  C  C145  1  0.414800  0.458090  0.843320  1.0  0.4411
  C  C146  1  0.518300  0.468500  0.884160  1.0  -0.4571
  C  C147  1  0.157300  0.703900  0.814000  1.0  0.4181
  C  C148  1  0.218400  0.692400  0.754800  1.0  -0.4506
  C  C149  1  0.464800  0.678400  0.916280  1.0  0.6813
  C  C150  1  0.573400  0.712000  0.938410  1.0  -0.1401
  C  C151  1  0.630300  0.758400  0.893660  1.0  -0.0477
  C  C152  1  0.729600  0.787600  0.912230  1.0  -0.1285
  C  C153  1  0.777500  0.773100  0.977390  1.0  0.0368
  C  C154  1  0.881500  0.803300  0.998390  1.0  -0.0657
  C  C155  1  0.914800  0.958090  0.843320  1.0  0.441
  C  C156  1  0.018300  0.968500  0.884160  1.0  -0.4571
  C  C157  1  0.657300  0.203900  0.814000  1.0  0.4181
  C  C158  1  0.718400  0.192400  0.754800  1.0  -0.4506
  C  C159  1  0.964800  0.178400  0.916280  1.0  0.6813
  C  C160  1  0.073400  0.212000  0.938410  1.0  -0.1401
  C  C161  1  0.130300  0.258400  0.893660  1.0  -0.0477
  C  C162  1  0.229600  0.287600  0.912230  1.0  -0.1285
  C  C163  1  0.277500  0.273100  0.977390  1.0  0.0368
  C  C164  1  0.381500  0.303300  0.998390  1.0  -0.0657
  N  N165  1  0.325200  0.500740  0.350970  1.0  -0.237
  N  N166  1  0.251500  0.529150  0.301910  1.0  -0.0946
  N  N167  1  0.295300  0.584840  0.267760  1.0  -0.0836
  N  N168  1  0.399000  0.595380  0.292600  1.0  -0.3647
  N  N169  1  0.173500  0.334690  0.372210  1.0  -0.276
  N  N170  1  0.099400  0.305360  0.411620  1.0  -0.0755
  N  N171  1  0.040900  0.251180  0.378390  1.0  -0.0912
  N  N172  1  0.076100  0.243990  0.316290  1.0  -0.304
  N  N173  1  0.825200  0.000740  0.350970  1.0  -0.237
  N  N174  1  0.751500  0.029150  0.301910  1.0  -0.0946
  N  N175  1  0.795300  0.084840  0.267760  1.0  -0.0836
  N  N176  1  0.899000  0.095380  0.292600  1.0  -0.3647
  N  N177  1  0.673500  0.834690  0.372210  1.0  -0.276
  N  N178  1  0.599400  0.805360  0.411620  1.0  -0.0755
  N  N179  1  0.540900  0.751180  0.378390  1.0  -0.0912
  N  N180  1  0.576100  0.743990  0.316290  1.0  -0.304
  N  N181  1  0.674800  0.500740  0.149030  1.0  -0.2401
  N  N182  1  0.748500  0.529150  0.198090  1.0  -0.0926
  N  N183  1  0.704700  0.584840  0.232240  1.0  -0.087
  N  N184  1  0.601000  0.595380  0.207400  1.0  -0.3651
  N  N185  1  0.826500  0.334690  0.127790  1.0  -0.2744
  N  N186  1  0.900600  0.305360  0.088380  1.0  -0.075
  N  N187  1  0.959100  0.251180  0.121610  1.0  -0.0909
  N  N188  1  0.923900  0.243990  0.183710  1.0  -0.3046
  N  N189  1  0.174800  0.000740  0.149030  1.0  -0.2401
  N  N190  1  0.248500  0.029150  0.198090  1.0  -0.0926
  N  N191  1  0.204700  0.084840  0.232240  1.0  -0.087
  N  N192  1  0.101000  0.095380  0.207400  1.0  -0.3651
  N  N193  1  0.326500  0.834690  0.127790  1.0  -0.2744
  N  N194  1  0.400600  0.805360  0.088380  1.0  -0.075
  N  N195  1  0.459100  0.751180  0.121610  1.0  -0.0909
  N  N196  1  0.423900  0.743990  0.183710  1.0  -0.3046
  N  N197  1  0.674800  0.499260  0.649030  1.0  -0.2409
  N  N198  1  0.748500  0.470850  0.698090  1.0  -0.0934
  N  N199  1  0.704700  0.415160  0.732240  1.0  -0.0856
  N  N200  1  0.601000  0.404620  0.707400  1.0  -0.3646
  N  N201  1  0.826500  0.665310  0.627790  1.0  -0.2755
  N  N202  1  0.900600  0.694640  0.588380  1.0  -0.0735
  N  N203  1  0.959100  0.748820  0.621610  1.0  -0.0912
  N  N204  1  0.923900  0.756010  0.683710  1.0  -0.3038
  N  N205  1  0.174800  0.999260  0.649030  1.0  -0.2409
  N  N206  1  0.248500  0.970850  0.698090  1.0  -0.0934
  N  N207  1  0.204700  0.915160  0.732240  1.0  -0.0856
  N  N208  1  0.101000  0.904620  0.707400  1.0  -0.3646
  N  N209  1  0.326500  0.165310  0.627790  1.0  -0.2755
  N  N210  1  0.400600  0.194640  0.588380  1.0  -0.0735
  N  N211  1  0.459100  0.248820  0.621610  1.0  -0.0912
  N  N212  1  0.423900  0.256010  0.683710  1.0  -0.3038
  N  N213  1  0.325200  0.499260  0.850970  1.0  -0.2382
  N  N214  1  0.251500  0.470850  0.801910  1.0  -0.0926
  N  N215  1  0.295300  0.415160  0.767760  1.0  -0.084
  N  N216  1  0.399000  0.404620  0.792600  1.0  -0.3651
  N  N217  1  0.173500  0.665310  0.872210  1.0  -0.2767
  N  N218  1  0.099400  0.694640  0.911620  1.0  -0.0746
  N  N219  1  0.040900  0.748820  0.878390  1.0  -0.0913
  N  N220  1  0.076100  0.756010  0.816290  1.0  -0.3036
  N  N221  1  0.825200  0.999260  0.850970  1.0  -0.2382
  N  N222  1  0.751500  0.970850  0.801910  1.0  -0.0926
  N  N223  1  0.795300  0.915160  0.767760  1.0  -0.084
  N  N224  1  0.899000  0.904620  0.792600  1.0  -0.3651
  N  N225  1  0.673500  0.165310  0.872210  1.0  -0.2767
  N  N226  1  0.599400  0.194640  0.911620  1.0  -0.0746
  N  N227  1  0.540900  0.248820  0.878390  1.0  -0.0913
  N  N228  1  0.576100  0.256010  0.816290  1.0  -0.3036
  O  O229  1  0.416660  0.362600  0.458730  1.0  -0.5896
  O  O230  1  0.426900  0.311070  0.358150  1.0  -0.6427
  O  O231  1  0.916660  0.862600  0.458730  1.0  -0.5893
  O  O232  1  0.926900  0.811070  0.358150  1.0  -0.6427
  O  O233  1  0.583340  0.362600  0.041270  1.0  -0.5892
  O  O234  1  0.573100  0.311070  0.141850  1.0  -0.6428
  O  O235  1  0.083340  0.862600  0.041270  1.0  -0.5895
  O  O236  1  0.073100  0.811070  0.141850  1.0  -0.6428
  O  O237  1  0.583340  0.637400  0.541270  1.0  -0.5905
  O  O238  1  0.573100  0.688930  0.641850  1.0  -0.6426
  O  O239  1  0.083340  0.137400  0.541270  1.0  -0.5894
  O  O240  1  0.073100  0.188930  0.641850  1.0  -0.6426
  O  O241  1  0.416660  0.637400  0.958730  1.0  -0.59
  O  O242  1  0.426900  0.688930  0.858150  1.0  -0.6426
  O  O243  1  0.916660  0.137400  0.958730  1.0  -0.59
  O  O244  1  0.926900  0.188930  0.858150  1.0  -0.6426
