# generated using pymatgen
data_Be5P7(HO4)7
_symmetry_space_group_name_H-M   'P 1'
_cell_length_a   14.69580000
_cell_length_b   11.64510000
_cell_length_c   20.59120000
_cell_angle_alpha   90.00000000
_cell_angle_beta   93.81100000
_cell_angle_gamma   90.00000000
_symmetry_Int_Tables_number   1
_chemical_formula_structural   Be5P7(HO4)7
_chemical_formula_sum   'Be20 P28 H28 O112'
_cell_volume   3516.06345860
_cell_formula_units_Z   4
loop_
 _symmetry_equiv_pos_site_id
 _symmetry_equiv_pos_as_xyz
  1  'x, y, z'
loop_
 _atom_site_type_symbol
 _atom_site_label
 _atom_site_symmetry_multiplicity
 _atom_site_fract_x
 _atom_site_fract_y
 _atom_site_fract_z
 _atom_site_occupancy
 _atom_site_charge
  Be  Be1  1  0.600600  0.673200  0.235200  1.0  1.1123
  Be  Be2  1  0.655100  0.718300  0.506400  1.0  1.2145
  Be  Be3  1  0.414500  0.930900  0.637800  1.0  1.1032
  Be  Be4  1  0.347200  0.614300  0.596100  1.0  1.1415
  Be  Be5  1  0.381500  0.274400  0.617000  1.0  1.1168
  Be  Be6  1  0.100600  0.173200  0.235200  1.0  1.1123
  Be  Be7  1  0.155100  0.218300  0.506400  1.0  1.2145
  Be  Be8  1  0.914500  0.430900  0.637800  1.0  1.1032
  Be  Be9  1  0.847200  0.114300  0.596100  1.0  1.1415
  Be  Be10  1  0.881500  0.774400  0.617000  1.0  1.1168
  Be  Be11  1  0.600600  0.326800  0.735200  1.0  1.1114
  Be  Be12  1  0.655100  0.281700  0.006400  1.0  1.214
  Be  Be13  1  0.414500  0.069100  0.137800  1.0  1.1038
  Be  Be14  1  0.347200  0.385700  0.096100  1.0  1.1413
  Be  Be15  1  0.381500  0.725600  0.117000  1.0  1.1168
  Be  Be16  1  0.100600  0.826800  0.735200  1.0  1.1114
  Be  Be17  1  0.155100  0.781700  0.006400  1.0  1.214
  Be  Be18  1  0.914500  0.569100  0.137800  1.0  1.1033
  Be  Be19  1  0.847200  0.885700  0.096100  1.0  1.1413
  Be  Be20  1  0.881500  0.225600  0.117000  1.0  1.1168
  P  P21  1  0.635800  0.750940  0.364660  1.0  1.7367
  P  P22  1  0.475460  0.770140  0.542380  1.0  1.7951
  P  P23  1  0.286830  0.772680  0.695560  1.0  1.6718
  P  P24  1  0.441690  0.463360  0.695960  1.0  1.7348
  P  P25  1  0.285400  0.413090  0.522460  1.0  1.7459
  P  P26  1  0.264980  0.083410  0.592380  1.0  1.767
  P  P27  1  0.527230  0.130460  0.661280  1.0  1.7906
  P  P28  1  0.135800  0.250940  0.364660  1.0  1.7367
  P  P29  1  0.975460  0.270140  0.542380  1.0  1.7951
  P  P30  1  0.786830  0.272680  0.695560  1.0  1.6718
  P  P31  1  0.941690  0.963360  0.695960  1.0  1.7348
  P  P32  1  0.785400  0.913090  0.522460  1.0  1.7459
  P  P33  1  0.764980  0.583410  0.592380  1.0  1.767
  P  P34  1  0.027230  0.630460  0.661280  1.0  1.7906
  P  P35  1  0.635800  0.249060  0.864660  1.0  1.7355
  P  P36  1  0.475460  0.229860  0.042380  1.0  1.7948
  P  P37  1  0.286830  0.227320  0.195560  1.0  1.6721
  P  P38  1  0.441690  0.536640  0.195960  1.0  1.7261
  P  P39  1  0.285400  0.586910  0.022460  1.0  1.7377
  P  P40  1  0.264980  0.916590  0.092380  1.0  1.7657
  P  P41  1  0.527230  0.869540  0.161280  1.0  1.7905
  P  P42  1  0.135800  0.749060  0.864660  1.0  1.7355
  P  P43  1  0.975460  0.729860  0.042380  1.0  1.7948
  P  P44  1  0.786830  0.727320  0.195560  1.0  1.6721
  P  P45  1  0.941690  0.036640  0.195960  1.0  1.7261
  P  P46  1  0.785400  0.086910  0.022460  1.0  1.7377
  P  P47  1  0.764980  0.416590  0.092380  1.0  1.7668
  P  P48  1  0.027230  0.369540  0.161280  1.0  1.7905
  H  H49  1  0.545400  0.850200  0.318000  1.0  0.3955
  H  H50  1  0.501500  0.811200  0.451800  1.0  0.3843
  H  H51  1  0.269900  0.712700  0.784400  1.0  0.3884
  H  H52  1  0.379900  0.567000  0.758100  1.0  0.3652
  H  H53  1  0.278100  0.399400  0.424500  1.0  0.3949
  H  H54  1  0.203500  0.973700  0.649300  1.0  0.3708
  H  H55  1  0.656000  0.125500  0.637000  1.0  0.3939
  H  H56  1  0.045400  0.350200  0.318000  1.0  0.3955
  H  H57  1  0.001500  0.311200  0.451800  1.0  0.3843
  H  H58  1  0.769900  0.212700  0.784400  1.0  0.3884
  H  H59  1  0.879900  0.067000  0.758100  1.0  0.3639
  H  H60  1  0.778100  0.899400  0.424500  1.0  0.3949
  H  H61  1  0.703500  0.473700  0.649300  1.0  0.3708
  H  H62  1  0.156000  0.625500  0.637000  1.0  0.3939
  H  H63  1  0.545400  0.149800  0.818000  1.0  0.396
  H  H64  1  0.501500  0.188800  0.951800  1.0  0.3835
  H  H65  1  0.269900  0.287300  0.284400  1.0  0.3891
  H  H66  1  0.379900  0.433000  0.258100  1.0  0.367
  H  H67  1  0.278100  0.600600  0.924500  1.0  0.3952
  H  H68  1  0.203500  0.026300  0.149300  1.0  0.3702
  H  H69  1  0.656000  0.874500  0.137000  1.0  0.3947
  H  H70  1  0.045400  0.649800  0.818000  1.0  0.396
  H  H71  1  0.001500  0.688800  0.951800  1.0  0.3835
  H  H72  1  0.769900  0.787300  0.284400  1.0  0.3891
  H  H73  1  0.879900  0.933000  0.258100  1.0  0.3657
  H  H74  1  0.778100  0.100600  0.924500  1.0  0.3952
  H  H75  1  0.703500  0.526300  0.149300  1.0  0.3701
  H  H76  1  0.156000  0.374500  0.137000  1.0  0.3947
  O  O77  1  0.616400  0.660800  0.313100  1.0  -0.6263
  O  O78  1  0.627100  0.702400  0.429430  1.0  -0.6706
  O  O79  1  0.562200  0.843900  0.356600  1.0  -0.5863
  O  O80  1  0.727000  0.806300  0.357700  1.0  -0.7046
  O  O81  1  0.563600  0.703400  0.544670  1.0  -0.6832
  O  O82  1  0.480000  0.859200  0.594860  1.0  -0.7625
  O  O83  1  0.393900  0.692700  0.545220  1.0  -0.7478
  O  O84  1  0.462300  0.832700  0.475640  1.0  -0.6821
  O  O85  1  0.364300  0.855300  0.690570  1.0  -0.748
  O  O86  1  0.274500  0.691800  0.638010  1.0  -0.7723
  O  O87  1  0.198000  0.839100  0.701870  1.0  -0.8056
  O  O88  1  0.307800  0.698900  0.757940  1.0  -0.6465
  O  O89  1  0.425800  0.557100  0.646510  1.0  -0.8675
  O  O90  1  0.384000  0.357300  0.680200  1.0  -0.7966
  O  O91  1  0.411100  0.509100  0.763970  1.0  -0.6575
  O  O92  1  0.541000  0.432800  0.706540  1.0  -0.7235
  O  O93  1  0.279200  0.524600  0.558740  1.0  -0.7228
  O  O94  1  0.367700  0.342700  0.548270  1.0  -0.7953
  O  O95  1  0.303900  0.445700  0.449470  1.0  -0.6862
  O  O96  1  0.197700  0.345700  0.521570  1.0  -0.8943
  O  O97  1  0.298100  0.189200  0.630980  1.0  -0.7937
  O  O98  1  0.186200  0.032900  0.630900  1.0  -0.6814
  O  O99  1  0.225500  0.116400  0.525250  1.0  -0.6462
  O  O100  1  0.339700  0.995500  0.585530  1.0  -0.8423
  O  O101  1  0.477400  0.205500  0.610240  1.0  -0.7833
  O  O102  1  0.471400  0.029000  0.680740  1.0  -0.7674
  O  O103  1  0.613000  0.081200  0.630220  1.0  -0.6998
  O  O104  1  0.555100  0.200400  0.721940  1.0  -0.8231
  O  O105  1  0.116400  0.160800  0.313100  1.0  -0.6263
  O  O106  1  0.127100  0.202400  0.429430  1.0  -0.6706
  O  O107  1  0.062200  0.343900  0.356600  1.0  -0.5863
  O  O108  1  0.227000  0.306300  0.357700  1.0  -0.7046
  O  O109  1  0.063600  0.203400  0.544670  1.0  -0.6832
  O  O110  1  0.980000  0.359200  0.594860  1.0  -0.7625
  O  O111  1  0.893900  0.192700  0.545220  1.0  -0.7478
  O  O112  1  0.962300  0.332700  0.475640  1.0  -0.6821
  O  O113  1  0.864300  0.355300  0.690570  1.0  -0.748
  O  O114  1  0.774500  0.191800  0.638010  1.0  -0.7723
  O  O115  1  0.698000  0.339100  0.701870  1.0  -0.8056
  O  O116  1  0.807800  0.198900  0.757940  1.0  -0.6465
  O  O117  1  0.925800  0.057100  0.646510  1.0  -0.8675
  O  O118  1  0.884000  0.857300  0.680200  1.0  -0.7966
  O  O119  1  0.911100  0.009100  0.763970  1.0  -0.6577
  O  O120  1  0.041000  0.932800  0.706540  1.0  -0.7235
  O  O121  1  0.779200  0.024600  0.558740  1.0  -0.7228
  O  O122  1  0.867700  0.842700  0.548270  1.0  -0.7953
  O  O123  1  0.803900  0.945700  0.449470  1.0  -0.6862
  O  O124  1  0.697700  0.845700  0.521570  1.0  -0.8943
  O  O125  1  0.798100  0.689200  0.630980  1.0  -0.7937
  O  O126  1  0.686200  0.532900  0.630900  1.0  -0.6814
  O  O127  1  0.725500  0.616400  0.525250  1.0  -0.6462
  O  O128  1  0.839700  0.495500  0.585530  1.0  -0.8423
  O  O129  1  0.977400  0.705500  0.610240  1.0  -0.7833
  O  O130  1  0.971400  0.529000  0.680740  1.0  -0.7674
  O  O131  1  0.113000  0.581200  0.630220  1.0  -0.6998
  O  O132  1  0.055100  0.700400  0.721940  1.0  -0.8236
  O  O133  1  0.616400  0.339200  0.813100  1.0  -0.6228
  O  O134  1  0.627100  0.297600  0.929430  1.0  -0.6748
  O  O135  1  0.562200  0.156100  0.856600  1.0  -0.5855
  O  O136  1  0.727000  0.193700  0.857700  1.0  -0.7047
  O  O137  1  0.563600  0.296600  0.044670  1.0  -0.6821
  O  O138  1  0.480000  0.140800  0.094860  1.0  -0.7637
  O  O139  1  0.393900  0.307300  0.045220  1.0  -0.7473
  O  O140  1  0.462300  0.167300  0.975640  1.0  -0.6802
  O  O141  1  0.364300  0.144700  0.190570  1.0  -0.7488
  O  O142  1  0.274500  0.308200  0.138010  1.0  -0.7723
  O  O143  1  0.198000  0.160900  0.201870  1.0  -0.8044
  O  O144  1  0.307800  0.301100  0.257940  1.0  -0.6463
  O  O145  1  0.425800  0.442900  0.146510  1.0  -0.8676
  O  O146  1  0.384000  0.642700  0.180200  1.0  -0.7951
  O  O147  1  0.411100  0.490900  0.263970  1.0  -0.6566
  O  O148  1  0.541000  0.567200  0.206540  1.0  -0.7244
  O  O149  1  0.279200  0.475400  0.058740  1.0  -0.7236
  O  O150  1  0.367700  0.657300  0.048270  1.0  -0.7915
  O  O151  1  0.303900  0.554300  0.949470  1.0  -0.6858
  O  O152  1  0.197700  0.654300  0.021570  1.0  -0.8925
  O  O153  1  0.298100  0.810800  0.130980  1.0  -0.7957
  O  O154  1  0.186200  0.967100  0.130900  1.0  -0.6834
  O  O155  1  0.225500  0.883600  0.025250  1.0  -0.6469
  O  O156  1  0.339700  0.004500  0.085530  1.0  -0.8412
  O  O157  1  0.477400  0.794500  0.110240  1.0  -0.7839
  O  O158  1  0.471400  0.971000  0.180740  1.0  -0.7667
  O  O159  1  0.613000  0.918800  0.130220  1.0  -0.6995
  O  O160  1  0.555100  0.799600  0.221940  1.0  -0.8223
  O  O161  1  0.116400  0.839200  0.813100  1.0  -0.6228
  O  O162  1  0.127100  0.797600  0.929430  1.0  -0.6748
  O  O163  1  0.062200  0.656100  0.856600  1.0  -0.5855
  O  O164  1  0.227000  0.693700  0.857700  1.0  -0.7047
  O  O165  1  0.063600  0.796600  0.044670  1.0  -0.6821
  O  O166  1  0.980000  0.640800  0.094860  1.0  -0.764
  O  O167  1  0.893900  0.807300  0.045220  1.0  -0.7473
  O  O168  1  0.962300  0.667300  0.975640  1.0  -0.6802
  O  O169  1  0.864300  0.644700  0.190570  1.0  -0.7485
  O  O170  1  0.774500  0.808200  0.138010  1.0  -0.7723
  O  O171  1  0.698000  0.660900  0.201870  1.0  -0.8044
  O  O172  1  0.807800  0.801100  0.257940  1.0  -0.6463
  O  O173  1  0.925800  0.942900  0.146510  1.0  -0.8676
  O  O174  1  0.884000  0.142700  0.180200  1.0  -0.7968
  O  O175  1  0.911100  0.990900  0.263970  1.0  -0.6568
  O  O176  1  0.041000  0.067200  0.206540  1.0  -0.7244
  O  O177  1  0.779200  0.975400  0.058740  1.0  -0.7236
  O  O178  1  0.867700  0.157300  0.048270  1.0  -0.7915
  O  O179  1  0.803900  0.054300  0.949470  1.0  -0.6858
  O  O180  1  0.697700  0.154300  0.021570  1.0  -0.8925
  O  O181  1  0.798100  0.310800  0.130980  1.0  -0.7957
  O  O182  1  0.686200  0.467100  0.130900  1.0  -0.6834
  O  O183  1  0.725500  0.383600  0.025250  1.0  -0.6469
  O  O184  1  0.839700  0.504500  0.085530  1.0  -0.8412
  O  O185  1  0.977400  0.294500  0.110240  1.0  -0.7839
  O  O186  1  0.971400  0.471000  0.180740  1.0  -0.7667
  O  O187  1  0.113000  0.418800  0.130220  1.0  -0.6995
  O  O188  1  0.055100  0.299600  0.221940  1.0  -0.8226
