# generated using pymatgen
data_Cd3C2S2(NCl3)2
_symmetry_space_group_name_H-M   'P 1'
_cell_length_a   15.39790000
_cell_length_b   11.59410000
_cell_length_c   12.58790000
_cell_angle_alpha   90.00000000
_cell_angle_beta   93.86200000
_cell_angle_gamma   90.00000000
_symmetry_Int_Tables_number   1
_chemical_formula_structural   Cd3C2S2(NCl3)2
_chemical_formula_sum   'Cd12 C8 S8 N8 Cl24'
_cell_volume   2242.14910377
_cell_formula_units_Z   4
loop_
 _symmetry_equiv_pos_site_id
 _symmetry_equiv_pos_as_xyz
  1  'x, y, z'
loop_
 _atom_site_type_symbol
 _atom_site_label
 _atom_site_symmetry_multiplicity
 _atom_site_fract_x
 _atom_site_fract_y
 _atom_site_fract_z
 _atom_site_occupancy
 _atom_site_charge
  Cd  Cd1  1  0.109750  0.397740  0.036230  1.0  0.9301
  Cd  Cd2  1  0.609760  0.897740  0.036230  1.0  0.9313
  Cd  Cd3  1  0.890240  0.397740  0.463770  1.0  0.9308
  Cd  Cd4  1  0.390250  0.897740  0.463770  1.0  0.9296
  Cd  Cd5  1  0.890240  0.602260  0.963770  1.0  0.9307
  Cd  Cd6  1  0.390250  0.102260  0.963770  1.0  0.9296
  Cd  Cd7  1  0.109750  0.602260  0.536230  1.0  0.9299
  Cd  Cd8  1  0.609760  0.102260  0.536230  1.0  0.931
  Cd  Cd9  1  0.000000  0.576000  0.250000  1.0  0.9407
  Cd  Cd10  1  0.500000  0.076000  0.250000  1.0  0.9408
  Cd  Cd11  1  0.000000  0.424000  0.750000  1.0  0.9411
  Cd  Cd12  1  0.500000  0.924000  0.750000  1.0  0.941
  C  C13  1  0.212600  0.157300  0.092200  1.0  0.4047
  C  C14  1  0.712600  0.657300  0.092200  1.0  0.4047
  C  C15  1  0.787400  0.157300  0.407800  1.0  0.4034
  C  C16  1  0.287400  0.657300  0.407800  1.0  0.4034
  C  C17  1  0.787400  0.842700  0.907800  1.0  0.4026
  C  C18  1  0.287400  0.342700  0.907800  1.0  0.4026
  C  C19  1  0.212600  0.842700  0.592200  1.0  0.4043
  C  C20  1  0.712600  0.342700  0.592200  1.0  0.4043
  S  S21  1  0.142950  0.220920  0.166920  1.0  -0.1289
  S  S22  1  0.642950  0.720920  0.166920  1.0  -0.1288
  S  S23  1  0.857050  0.220920  0.333080  1.0  -0.1281
  S  S24  1  0.357050  0.720920  0.333080  1.0  -0.1281
  S  S25  1  0.857050  0.779080  0.833080  1.0  -0.1277
  S  S26  1  0.357050  0.279080  0.833080  1.0  -0.1277
  S  S27  1  0.142950  0.779080  0.666920  1.0  -0.1283
  S  S28  1  0.642950  0.279080  0.666920  1.0  -0.1282
  N  N29  1  0.259700  0.108600  0.040800  1.0  -0.4011
  N  N30  1  0.759700  0.608600  0.040800  1.0  -0.4011
  N  N31  1  0.740300  0.108600  0.459200  1.0  -0.403
  N  N32  1  0.240300  0.608600  0.459200  1.0  -0.403
  N  N33  1  0.740300  0.891400  0.959200  1.0  -0.4061
  N  N34  1  0.240300  0.391400  0.959200  1.0  -0.4061
  N  N35  1  0.259700  0.891400  0.540800  1.0  -0.4041
  N  N36  1  0.759700  0.391400  0.540800  1.0  -0.4041
  Cl  Cl37  1  0.154800  0.557330  0.171380  1.0  -0.4095
  Cl  Cl38  1  0.047050  0.264170  0.885310  1.0  -0.4122
  Cl  Cl39  1  0.051360  0.578220  0.896360  1.0  -0.4506
  Cl  Cl40  1  0.654800  0.057330  0.171380  1.0  -0.4095
  Cl  Cl41  1  0.547050  0.764170  0.885310  1.0  -0.4122
  Cl  Cl42  1  0.551360  0.078220  0.896360  1.0  -0.4511
  Cl  Cl43  1  0.845200  0.557330  0.328620  1.0  -0.409
  Cl  Cl44  1  0.952950  0.264170  0.614690  1.0  -0.4123
  Cl  Cl45  1  0.948640  0.578220  0.603640  1.0  -0.4519
  Cl  Cl46  1  0.345200  0.057330  0.328620  1.0  -0.409
  Cl  Cl47  1  0.452950  0.764170  0.614690  1.0  -0.4123
  Cl  Cl48  1  0.448640  0.078220  0.603640  1.0  -0.4514
  Cl  Cl49  1  0.845200  0.442670  0.828620  1.0  -0.409
  Cl  Cl50  1  0.952950  0.735830  0.114690  1.0  -0.4117
  Cl  Cl51  1  0.948640  0.421780  0.103640  1.0  -0.452
  Cl  Cl52  1  0.345200  0.942670  0.828620  1.0  -0.409
  Cl  Cl53  1  0.452950  0.235830  0.114690  1.0  -0.4117
  Cl  Cl54  1  0.448640  0.921780  0.103640  1.0  -0.4515
  Cl  Cl55  1  0.154800  0.442670  0.671380  1.0  -0.4096
  Cl  Cl56  1  0.047050  0.735830  0.385310  1.0  -0.412
  Cl  Cl57  1  0.051360  0.421780  0.396360  1.0  -0.4513
  Cl  Cl58  1  0.654800  0.942670  0.671380  1.0  -0.4096
  Cl  Cl59  1  0.547050  0.235830  0.385310  1.0  -0.412
  Cl  Cl60  1  0.551360  0.921780  0.396360  1.0  -0.4518
