# generated using pymatgen
data_Zn4Mo12H12(C7O10)3
_symmetry_space_group_name_H-M   'P 1'
_cell_length_a   21.68540000
_cell_length_b   29.72760000
_cell_length_c   34.82860000
_cell_angle_alpha   90.00000000
_cell_angle_beta   96.34200000
_cell_angle_gamma   90.00000000
_symmetry_Int_Tables_number   1
_chemical_formula_structural   Zn4Mo12H12(C7O10)3
_chemical_formula_sum   'Zn32 Mo96 H96 C168 O240'
_cell_volume   22315.02428024
_cell_formula_units_Z   8
loop_
 _symmetry_equiv_pos_site_id
 _symmetry_equiv_pos_as_xyz
  1  'x, y, z'
loop_
 _atom_site_type_symbol
 _atom_site_label
 _atom_site_symmetry_multiplicity
 _atom_site_fract_x
 _atom_site_fract_y
 _atom_site_fract_z
 _atom_site_occupancy
 _atom_site_charge
  Zn  Zn1  1  0.067430  0.028770  0.983200  1.0  1.0204
  Zn  Zn2  1  0.060300  0.869350  0.869550  1.0  1.1544
  Zn  Zn3  1  0.203990  0.848810  0.018320  1.0  1.0861
  Zn  Zn4  1  0.288110  0.991190  0.906550  1.0  1.0492
  Zn  Zn5  1  0.934440  0.974180  0.523360  1.0  1.0188
  Zn  Zn6  1  0.928080  0.159450  0.602830  1.0  1.0898
  Zn  Zn7  1  0.786340  0.136140  0.454970  1.0  1.1579
  Zn  Zn8  1  0.711190  0.026480  0.590290  1.0  1.112
  Zn  Zn9  1  0.432570  0.528770  0.516800  1.0  1.0206
  Zn  Zn10  1  0.439700  0.369350  0.630450  1.0  1.1516
  Zn  Zn11  1  0.296010  0.348810  0.481680  1.0  1.0855
  Zn  Zn12  1  0.211890  0.491190  0.593450  1.0  1.0474
  Zn  Zn13  1  0.565560  0.474180  0.976640  1.0  1.0184
  Zn  Zn14  1  0.571920  0.659450  0.897170  1.0  1.0939
  Zn  Zn15  1  0.713660  0.636140  0.045030  1.0  1.1557
  Zn  Zn16  1  0.788810  0.526480  0.909710  1.0  1.1136
  Zn  Zn17  1  0.932570  0.971230  0.016800  1.0  1.0201
  Zn  Zn18  1  0.939700  0.130650  0.130450  1.0  1.1532
  Zn  Zn19  1  0.796010  0.151190  0.981680  1.0  1.0855
  Zn  Zn20  1  0.711890  0.008810  0.093450  1.0  1.0476
  Zn  Zn21  1  0.065560  0.025820  0.476640  1.0  1.0188
  Zn  Zn22  1  0.071920  0.840550  0.397170  1.0  1.0937
  Zn  Zn23  1  0.213660  0.863860  0.545030  1.0  1.1559
  Zn  Zn24  1  0.288810  0.973520  0.409710  1.0  1.1142
  Zn  Zn25  1  0.567430  0.471230  0.483200  1.0  1.0197
  Zn  Zn26  1  0.560300  0.630650  0.369550  1.0  1.1554
  Zn  Zn27  1  0.703990  0.651190  0.518320  1.0  1.0853
  Zn  Zn28  1  0.788110  0.508810  0.406550  1.0  1.0493
  Zn  Zn29  1  0.434440  0.525820  0.023360  1.0  1.0193
  Zn  Zn30  1  0.428080  0.340550  0.102830  1.0  1.0941
  Zn  Zn31  1  0.286340  0.363860  0.954970  1.0  1.1575
  Zn  Zn32  1  0.211190  0.473520  0.090290  1.0  1.1122
  Mo  Mo33  1  0.071660  0.917200  0.030510  1.0  1.1448
  Mo  Mo34  1  0.985840  0.929030  0.939850  1.0  1.1832
  Mo  Mo35  1  0.229270  0.040810  0.986650  1.0  1.0587
  Mo  Mo36  1  0.149970  0.052070  0.904380  1.0  1.1475
  Mo  Mo37  1  0.019620  0.986030  0.889040  1.0  1.0994
  Mo  Mo38  1  0.172950  0.964120  0.047860  1.0  1.0794
  Mo  Mo39  1  0.308940  0.941570  0.000330  1.0  1.0688
  Mo  Mo40  1  0.061750  0.830740  0.964940  1.0  1.0507
  Mo  Mo41  1  0.181080  0.811270  0.921530  1.0  1.1052
  Mo  Mo42  1  0.307460  0.877580  0.948930  1.0  1.0659
  Mo  Mo43  1  0.218150  0.890540  0.856200  1.0  1.0841
  Mo  Mo44  1  0.154780  0.964070  0.840970  1.0  1.0887
  Mo  Mo45  1  0.922500  0.070020  0.455730  1.0  1.1807
  Mo  Mo46  1  0.008450  0.084060  0.546010  1.0  1.1838
  Mo  Mo47  1  0.977890  0.041460  0.606660  1.0  1.1133
  Mo  Mo48  1  0.825190  0.017090  0.447540  1.0  1.0866
  Mo  Mo49  1  0.853360  0.969740  0.605530  1.0  1.1575
  Mo  Mo50  1  0.926330  0.171980  0.502770  1.0  1.1357
  Mo  Mo51  1  0.803470  0.199420  0.539820  1.0  1.1467
  Mo  Mo52  1  0.774430  0.957960  0.523100  1.0  1.1431
  Mo  Mo53  1  0.686840  0.048810  0.489920  1.0  1.0703
  Mo  Mo54  1  0.839970  0.072410  0.648730  1.0  1.0956
  Mo  Mo55  1  0.771690  0.138750  0.618860  1.0  1.0709
  Mo  Mo56  1  0.681660  0.125030  0.526730  1.0  1.0653
  Mo  Mo57  1  0.428340  0.417200  0.469490  1.0  1.1467
  Mo  Mo58  1  0.514160  0.429030  0.560150  1.0  1.1809
  Mo  Mo59  1  0.270730  0.540810  0.513350  1.0  1.0595
  Mo  Mo60  1  0.350030  0.552070  0.595620  1.0  1.1466
  Mo  Mo61  1  0.480380  0.486030  0.610960  1.0  1.0959
  Mo  Mo62  1  0.327050  0.464120  0.452140  1.0  1.0813
  Mo  Mo63  1  0.191060  0.441570  0.499670  1.0  1.0697
  Mo  Mo64  1  0.438250  0.330740  0.535060  1.0  1.0513
  Mo  Mo65  1  0.318920  0.311270  0.578470  1.0  1.1045
  Mo  Mo66  1  0.192540  0.377580  0.551070  1.0  1.0671
  Mo  Mo67  1  0.281850  0.390540  0.643800  1.0  1.0802
  Mo  Mo68  1  0.345220  0.464070  0.659030  1.0  1.0868
  Mo  Mo69  1  0.577500  0.570020  0.044270  1.0  1.1814
  Mo  Mo70  1  0.491550  0.584060  0.953990  1.0  1.186
  Mo  Mo71  1  0.522110  0.541460  0.893340  1.0  1.1131
  Mo  Mo72  1  0.674810  0.517090  0.052460  1.0  1.0846
  Mo  Mo73  1  0.646640  0.469740  0.894470  1.0  1.1593
  Mo  Mo74  1  0.573670  0.671980  0.997230  1.0  1.1358
  Mo  Mo75  1  0.696530  0.699420  0.960180  1.0  1.1464
  Mo  Mo76  1  0.725570  0.457960  0.976900  1.0  1.1431
  Mo  Mo77  1  0.813160  0.548810  0.010080  1.0  1.0694
  Mo  Mo78  1  0.660030  0.572410  0.851270  1.0  1.099
  Mo  Mo79  1  0.728310  0.638750  0.881140  1.0  1.0732
  Mo  Mo80  1  0.818340  0.625030  0.973270  1.0  1.0641
  Mo  Mo81  1  0.928340  0.082800  0.969490  1.0  1.1469
  Mo  Mo82  1  0.014160  0.070970  0.060150  1.0  1.1805
  Mo  Mo83  1  0.770730  0.959190  0.013350  1.0  1.0601
  Mo  Mo84  1  0.850030  0.947930  0.095620  1.0  1.1444
  Mo  Mo85  1  0.980380  0.013970  0.110960  1.0  1.0974
  Mo  Mo86  1  0.827050  0.035880  0.952140  1.0  1.0815
  Mo  Mo87  1  0.691060  0.058430  0.999670  1.0  1.0699
  Mo  Mo88  1  0.938250  0.169260  0.035060  1.0  1.0502
  Mo  Mo89  1  0.818920  0.188730  0.078470  1.0  1.1041
  Mo  Mo90  1  0.692540  0.122420  0.051080  1.0  1.0664
  Mo  Mo91  1  0.781850  0.109460  0.143800  1.0  1.0799
  Mo  Mo92  1  0.845220  0.035930  0.159030  1.0  1.0869
  Mo  Mo93  1  0.077500  0.929980  0.544270  1.0  1.1816
  Mo  Mo94  1  0.991550  0.915940  0.453990  1.0  1.1861
  Mo  Mo95  1  0.022110  0.958540  0.393340  1.0  1.1137
  Mo  Mo96  1  0.174810  0.982910  0.552460  1.0  1.0843
  Mo  Mo97  1  0.146640  0.030260  0.394470  1.0  1.1604
  Mo  Mo98  1  0.073670  0.828020  0.497240  1.0  1.137
  Mo  Mo99  1  0.196530  0.800580  0.460180  1.0  1.1454
  Mo  Mo100  1  0.225570  0.042040  0.476900  1.0  1.146
  Mo  Mo101  1  0.313160  0.951190  0.510080  1.0  1.0692
  Mo  Mo102  1  0.160030  0.927590  0.351270  1.0  1.0985
  Mo  Mo103  1  0.228310  0.861250  0.381140  1.0  1.0734
  Mo  Mo104  1  0.318340  0.874970  0.473270  1.0  1.0634
  Mo  Mo105  1  0.571660  0.582800  0.530510  1.0  1.145
  Mo  Mo106  1  0.485840  0.570970  0.439850  1.0  1.1825
  Mo  Mo107  1  0.729270  0.459190  0.486650  1.0  1.0592
  Mo  Mo108  1  0.649970  0.447930  0.404380  1.0  1.1452
  Mo  Mo109  1  0.519620  0.513970  0.389040  1.0  1.0979
  Mo  Mo110  1  0.672950  0.535880  0.547860  1.0  1.0789
  Mo  Mo111  1  0.808940  0.558430  0.500330  1.0  1.0688
  Mo  Mo112  1  0.561750  0.669260  0.464940  1.0  1.049
  Mo  Mo113  1  0.681080  0.688730  0.421530  1.0  1.106
  Mo  Mo114  1  0.807460  0.622420  0.448920  1.0  1.0657
  Mo  Mo115  1  0.718150  0.609460  0.356200  1.0  1.0832
  Mo  Mo116  1  0.654780  0.535930  0.340970  1.0  1.0894
  Mo  Mo117  1  0.422500  0.429980  0.955730  1.0  1.181
  Mo  Mo118  1  0.508450  0.415940  0.046010  1.0  1.1842
  Mo  Mo119  1  0.477890  0.458540  0.106660  1.0  1.1133
  Mo  Mo120  1  0.325190  0.482910  0.947540  1.0  1.0851
  Mo  Mo121  1  0.353360  0.530260  0.105530  1.0  1.1578
  Mo  Mo122  1  0.426330  0.328020  0.002770  1.0  1.1366
  Mo  Mo123  1  0.303470  0.300580  0.039820  1.0  1.1476
  Mo  Mo124  1  0.274430  0.542040  0.023100  1.0  1.146
  Mo  Mo125  1  0.186840  0.451190  0.989920  1.0  1.0693
  Mo  Mo126  1  0.339970  0.427590  0.148730  1.0  1.0954
  Mo  Mo127  1  0.271690  0.361250  0.118860  1.0  1.0699
  Mo  Mo128  1  0.181660  0.374970  0.026730  1.0  1.0681
  H  H129  1  0.478300  0.722500  0.287900  1.0  0.1304
  H  H130  1  0.426200  0.763700  0.238400  1.0  0.1466
  H  H131  1  0.370600  0.651200  0.185300  1.0  0.1441
  H  H132  1  0.419300  0.610600  0.236200  1.0  0.1242
  H  H133  1  0.403300  0.797100  0.191500  1.0  0.1707
  H  H134  1  0.355100  0.843200  0.143700  1.0  0.133
  H  H135  1  0.266300  0.737900  0.096300  1.0  0.1307
  H  H136  1  0.313500  0.693000  0.145200  1.0  0.13
  H  H137  1  0.631500  0.982900  0.689000  1.0  0.1321
  H  H138  1  0.579400  0.971100  0.742200  1.0  0.1368
  H  H139  1  0.468700  0.073700  0.711300  1.0  0.1365
  H  H140  1  0.523500  0.088500  0.660400  1.0  0.1375
  H  H141  1  0.499600  0.945100  0.769100  1.0  0.1337
  H  H142  1  0.442000  0.929200  0.819500  1.0  0.1407
  H  H143  1  0.401000  0.058400  0.827300  1.0  0.1375
  H  H144  1  0.454100  0.073300  0.775200  1.0  0.1307
  H  H145  1  0.075200  0.161300  0.728200  1.0  0.1353
  H  H146  1  0.121700  0.205800  0.777500  1.0  0.1261
  H  H147  1  0.009500  0.306200  0.744500  1.0  0.1406
  H  H148  1  0.964600  0.263000  0.693200  1.0  0.1441
  H  H149  1  0.118300  0.236900  0.835900  1.0  0.1427
  H  H150  1  0.172500  0.278600  0.884800  1.0  0.1208
  H  H151  1  0.155500  0.387600  0.819200  1.0  0.1406
  H  H152  1  0.098800  0.347200  0.771200  1.0  0.1293
  H  H153  1  0.021700  0.222500  0.212100  1.0  0.1303
  H  H154  1  0.073800  0.263700  0.261600  1.0  0.1459
  H  H155  1  0.129400  0.151200  0.314700  1.0  0.1449
  H  H156  1  0.080700  0.110600  0.263800  1.0  0.1244
  H  H157  1  0.096700  0.297100  0.308500  1.0  0.1699
  H  H158  1  0.144900  0.343200  0.356300  1.0  0.1333
  H  H159  1  0.233700  0.237900  0.403700  1.0  0.131
  H  H160  1  0.186500  0.193000  0.354800  1.0  0.1298
  H  H161  1  0.868500  0.482900  0.811000  1.0  0.1315
  H  H162  1  0.920600  0.471100  0.757800  1.0  0.1368
  H  H163  1  0.031300  0.573700  0.788700  1.0  0.137
  H  H164  1  0.976500  0.588500  0.839600  1.0  0.1371
  H  H165  1  0.000400  0.445100  0.730900  1.0  0.1334
  H  H166  1  0.058000  0.429200  0.680500  1.0  0.1407
  H  H167  1  0.099000  0.558400  0.672700  1.0  0.1374
  H  H168  1  0.045900  0.573300  0.724800  1.0  0.1306
  H  H169  1  0.424800  0.661300  0.771800  1.0  0.135
  H  H170  1  0.378300  0.705800  0.722500  1.0  0.1257
  H  H171  1  0.490500  0.806200  0.755500  1.0  0.1404
  H  H172  1  0.535400  0.763000  0.806800  1.0  0.1439
  H  H173  1  0.381700  0.736900  0.664100  1.0  0.143
  H  H174  1  0.327500  0.778600  0.615200  1.0  0.1211
  H  H175  1  0.344500  0.887600  0.680800  1.0  0.1396
  H  H176  1  0.401200  0.847200  0.728800  1.0  0.1297
  H  H177  1  0.521700  0.277500  0.712100  1.0  0.1299
  H  H178  1  0.573800  0.236300  0.761600  1.0  0.1471
  H  H179  1  0.629400  0.348800  0.814700  1.0  0.145
  H  H180  1  0.580700  0.389400  0.763800  1.0  0.1223
  H  H181  1  0.596700  0.202900  0.808500  1.0  0.1679
  H  H182  1  0.644900  0.156800  0.856300  1.0  0.1334
  H  H183  1  0.733700  0.262100  0.903700  1.0  0.1311
  H  H184  1  0.686500  0.307000  0.854800  1.0  0.1298
  H  H185  1  0.368500  0.017100  0.311000  1.0  0.1319
  H  H186  1  0.420600  0.028900  0.257800  1.0  0.1379
  H  H187  1  0.531300  0.926300  0.288700  1.0  0.1369
  H  H188  1  0.476500  0.911500  0.339600  1.0  0.1369
  H  H189  1  0.500400  0.054900  0.230900  1.0  0.1338
  H  H190  1  0.558000  0.070800  0.180500  1.0  0.1411
  H  H191  1  0.599000  0.941600  0.172700  1.0  0.1369
  H  H192  1  0.545900  0.926700  0.224800  1.0  0.131
  H  H193  1  0.924800  0.838700  0.271800  1.0  0.1353
  H  H194  1  0.878300  0.794200  0.222500  1.0  0.1265
  H  H195  1  0.990500  0.693800  0.255500  1.0  0.1402
  H  H196  1  0.035400  0.737000  0.306800  1.0  0.1439
  H  H197  1  0.881700  0.763100  0.164100  1.0  0.1429
  H  H198  1  0.827500  0.721400  0.115200  1.0  0.1211
  H  H199  1  0.844500  0.612400  0.180800  1.0  0.1395
  H  H200  1  0.901200  0.652800  0.228800  1.0  0.1297
  H  H201  1  0.978300  0.777500  0.787900  1.0  0.1301
  H  H202  1  0.926200  0.736300  0.738400  1.0  0.148
  H  H203  1  0.870600  0.848800  0.685300  1.0  0.1452
  H  H204  1  0.919300  0.889400  0.736200  1.0  0.122
  H  H205  1  0.903300  0.702900  0.691500  1.0  0.1693
  H  H206  1  0.855100  0.656800  0.643700  1.0  0.1335
  H  H207  1  0.766300  0.762100  0.596300  1.0  0.131
  H  H208  1  0.813500  0.807000  0.645200  1.0  0.1307
  H  H209  1  0.131500  0.517100  0.189000  1.0  0.1326
  H  H210  1  0.079400  0.528900  0.242200  1.0  0.1372
  H  H211  1  0.968700  0.426300  0.211300  1.0  0.1362
  H  H212  1  0.023500  0.411500  0.160400  1.0  0.1365
  H  H213  1  0.999600  0.554900  0.269100  1.0  0.1335
  H  H214  1  0.942000  0.570800  0.319500  1.0  0.1411
  H  H215  1  0.901000  0.441600  0.327300  1.0  0.1371
  H  H216  1  0.954100  0.426700  0.275200  1.0  0.1306
  H  H217  1  0.575200  0.338700  0.228200  1.0  0.1354
  H  H218  1  0.621700  0.294200  0.277500  1.0  0.1265
  H  H219  1  0.509500  0.193800  0.244500  1.0  0.1402
  H  H220  1  0.464600  0.237000  0.193200  1.0  0.1438
  H  H221  1  0.618300  0.263100  0.335900  1.0  0.1425
  H  H222  1  0.672500  0.221400  0.384800  1.0  0.1205
  H  H223  1  0.655500  0.112400  0.319200  1.0  0.1405
  H  H224  1  0.598800  0.152800  0.271200  1.0  0.1292
  C  C225  1  0.489600  0.635800  0.300100  1.0  0.692
  C  C226  1  0.454700  0.662200  0.267200  1.0  -0.1187
  C  C227  1  0.456300  0.707500  0.267300  1.0  -0.0138
  C  C228  1  0.425400  0.732500  0.237100  1.0  -0.1109
  C  C229  1  0.394000  0.712000  0.205600  1.0  0.0116
  C  C230  1  0.392100  0.666300  0.206000  1.0  -0.1192
  C  C231  1  0.421900  0.641800  0.236700  1.0  -0.0103
  C  C232  1  0.362600  0.740400  0.173700  1.0  0.0783
  C  C233  1  0.374700  0.784700  0.172600  1.0  -0.1312
  C  C234  1  0.345700  0.812700  0.143700  1.0  -0.0373
  C  C235  1  0.304000  0.795600  0.115700  1.0  -0.0602
  C  C236  1  0.293200  0.750700  0.115900  1.0  -0.0297
  C  C237  1  0.322300  0.723700  0.145300  1.0  -0.0641
  C  C238  1  0.272400  0.827100  0.085300  1.0  0.7262
  C  C239  1  0.618100  0.045900  0.634800  1.0  0.6773
  C  C240  1  0.582400  0.036300  0.668400  1.0  -0.1095
  C  C241  1  0.598700  0.001700  0.693400  1.0  -0.0409
  C  C242  1  0.567000  0.994400  0.725300  1.0  -0.1117
  C  C243  1  0.517900  0.020700  0.732500  1.0  0.062
  C  C244  1  0.502200  0.055400  0.707300  1.0  -0.1102
  C  C245  1  0.534300  0.063900  0.676300  1.0  -0.0499
  C  C246  1  0.482700  0.011300  0.765900  1.0  0.0864
  C  C247  1  0.479000  0.968400  0.780300  1.0  -0.111
  C  C248  1  0.445300  0.958700  0.811000  1.0  -0.0256
  C  C249  1  0.417100  0.992700  0.828700  1.0  -0.0916
  C  C250  1  0.420400  0.035100  0.815400  1.0  -0.0461
  C  C251  1  0.452800  0.043900  0.784100  1.0  -0.092
  C  C252  1  0.380500  0.980500  0.862100  1.0  0.7089
  C  C253  1  0.987800  0.177900  0.673600  1.0  0.7311
  C  C254  1  0.015600  0.207300  0.706100  1.0  0.0324
  C  C255  1  0.061600  0.190700  0.731000  1.0  -0.053
  C  C256  1  0.089100  0.217600  0.760900  1.0  -0.1012
  C  C257  1  0.070300  0.260000  0.766500  1.0  0.0632
  C  C258  1  0.023400  0.276900  0.741300  1.0  -0.0681
  C  C259  1  0.996000  0.250900  0.710600  1.0  -0.0368
  C  C260  1  0.102100  0.288000  0.798100  1.0  0.0797
  C  C261  1  0.125300  0.267400  0.832300  1.0  -0.1417
  C  C262  1  0.159100  0.292200  0.861300  1.0  -0.0376
  C  C263  1  0.172600  0.336000  0.855700  1.0  -0.034
  C  C264  1  0.148600  0.357000  0.822500  1.0  -0.052
  C  C265  1  0.114200  0.332700  0.794000  1.0  -0.111
  C  C266  1  0.212900  0.361000  0.886800  1.0  0.7182
  C  C267  1  0.010400  0.135800  0.199900  1.0  0.6907
  C  C268  1  0.045300  0.162200  0.232800  1.0  -0.1177
  C  C269  1  0.043700  0.207500  0.232700  1.0  -0.0139
  C  C270  1  0.074600  0.232500  0.262900  1.0  -0.1117
  C  C271  1  0.106000  0.212000  0.294400  1.0  0.0118
  C  C272  1  0.107900  0.166300  0.294000  1.0  -0.1186
  C  C273  1  0.078100  0.141800  0.263300  1.0  -0.0088
  C  C274  1  0.137400  0.240400  0.326300  1.0  0.0782
  C  C275  1  0.125300  0.284700  0.327400  1.0  -0.1299
  C  C276  1  0.154300  0.312700  0.356300  1.0  -0.0381
  C  C277  1  0.196000  0.295600  0.384300  1.0  -0.0609
  C  C278  1  0.206800  0.250700  0.384100  1.0  -0.0307
  C  C279  1  0.177700  0.223700  0.354700  1.0  -0.0622
  C  C280  1  0.227600  0.327100  0.414700  1.0  0.723
  C  C281  1  0.881900  0.545900  0.865200  1.0  0.675
  C  C282  1  0.917600  0.536300  0.831600  1.0  -0.1103
  C  C283  1  0.901300  0.501700  0.806600  1.0  -0.0392
  C  C284  1  0.933000  0.494400  0.774700  1.0  -0.1123
  C  C285  1  0.982100  0.520700  0.767500  1.0  0.0617
  C  C286  1  0.997800  0.555400  0.792700  1.0  -0.1092
  C  C287  1  0.965700  0.563900  0.823700  1.0  -0.0488
  C  C288  1  0.017300  0.511300  0.734100  1.0  0.0863
  C  C289  1  0.021000  0.468400  0.719700  1.0  -0.1107
  C  C290  1  0.054700  0.458700  0.689000  1.0  -0.0258
  C  C291  1  0.082900  0.492700  0.671300  1.0  -0.0919
  C  C292  1  0.079600  0.535100  0.684600  1.0  -0.0515
  C  C293  1  0.047200  0.543900  0.715900  1.0  -0.0887
  C  C294  1  0.119500  0.480500  0.637900  1.0  0.7048
  C  C295  1  0.512200  0.677900  0.826400  1.0  0.7296
  C  C296  1  0.484400  0.707300  0.793900  1.0  0.0325
  C  C297  1  0.438400  0.690700  0.769000  1.0  -0.0539
  C  C298  1  0.410900  0.717600  0.739100  1.0  -0.1017
  C  C299  1  0.429700  0.760000  0.733500  1.0  0.0637
  C  C300  1  0.476600  0.776900  0.758700  1.0  -0.0662
  C  C301  1  0.504000  0.750900  0.789400  1.0  -0.0357
  C  C302  1  0.397900  0.788000  0.701900  1.0  0.0801
  C  C303  1  0.374700  0.767400  0.667700  1.0  -0.1414
  C  C304  1  0.340900  0.792200  0.638700  1.0  -0.0374
  C  C305  1  0.327400  0.836000  0.644300  1.0  -0.0336
  C  C306  1  0.351400  0.857000  0.677500  1.0  -0.0516
  C  C307  1  0.385800  0.832700  0.706000  1.0  -0.1098
  C  C308  1  0.287100  0.861000  0.613200  1.0  0.7168
  C  C309  1  0.510400  0.364200  0.699900  1.0  0.6904
  C  C310  1  0.545300  0.337800  0.732800  1.0  -0.1162
  C  C311  1  0.543700  0.292500  0.732700  1.0  -0.014
  C  C312  1  0.574600  0.267500  0.762900  1.0  -0.1109
  C  C313  1  0.606000  0.288000  0.794400  1.0  0.0116
  C  C314  1  0.607900  0.333700  0.794000  1.0  -0.1188
  C  C315  1  0.578100  0.358200  0.763300  1.0  -0.0089
  C  C316  1  0.637400  0.259600  0.826300  1.0  0.078
  C  C317  1  0.625300  0.215300  0.827400  1.0  -0.1319
  C  C318  1  0.654300  0.187300  0.856300  1.0  -0.0404
  C  C319  1  0.696000  0.204400  0.884300  1.0  -0.0602
  C  C320  1  0.706800  0.249300  0.884100  1.0  -0.0309
  C  C321  1  0.677700  0.276300  0.854700  1.0  -0.0606
  C  C322  1  0.727600  0.172900  0.914700  1.0  0.7233
  C  C323  1  0.381900  0.954100  0.365200  1.0  0.6746
  C  C324  1  0.417600  0.963700  0.331600  1.0  -0.1103
  C  C325  1  0.401300  0.998300  0.306600  1.0  -0.0336
  C  C326  1  0.433000  0.005600  0.274700  1.0  -0.1132
  C  C327  1  0.482100  0.979300  0.267500  1.0  0.0617
  C  C328  1  0.497800  0.944600  0.292700  1.0  -0.1088
  C  C329  1  0.465700  0.936100  0.323700  1.0  -0.0492
  C  C330  1  0.517300  0.988700  0.234100  1.0  0.0863
  C  C331  1  0.521000  0.031600  0.219700  1.0  -0.111
  C  C332  1  0.554700  0.041300  0.189000  1.0  -0.0275
  C  C333  1  0.582900  0.007300  0.171300  1.0  -0.092
  C  C334  1  0.579600  0.964900  0.184600  1.0  -0.0495
  C  C335  1  0.547200  0.956100  0.215900  1.0  -0.0924
  C  C336  1  0.619500  0.019500  0.137900  1.0  0.7046
  C  C337  1  0.012200  0.822100  0.326400  1.0  0.7296
  C  C338  1  0.984400  0.792700  0.293900  1.0  0.0323
  C  C339  1  0.938400  0.809300  0.269000  1.0  -0.0538
  C  C340  1  0.910900  0.782400  0.239100  1.0  -0.1037
  C  C341  1  0.929700  0.740000  0.233500  1.0  0.0635
  C  C342  1  0.976600  0.723100  0.258700  1.0  -0.0657
  C  C343  1  0.004000  0.749100  0.289400  1.0  -0.0361
  C  C344  1  0.897900  0.712000  0.201900  1.0  0.0801
  C  C345  1  0.874700  0.732600  0.167700  1.0  -0.1417
  C  C346  1  0.840900  0.707800  0.138700  1.0  -0.0377
  C  C347  1  0.827400  0.664000  0.144300  1.0  -0.034
  C  C348  1  0.851400  0.643000  0.177500  1.0  -0.0523
  C  C349  1  0.885800  0.667300  0.206000  1.0  -0.1118
  C  C350  1  0.787100  0.639000  0.113200  1.0  0.7175
  C  C351  1  0.989600  0.864200  0.800100  1.0  0.6913
  C  C352  1  0.954700  0.837800  0.767200  1.0  -0.1182
  C  C353  1  0.956300  0.792500  0.767300  1.0  -0.0129
  C  C354  1  0.925400  0.767500  0.737100  1.0  -0.1099
  C  C355  1  0.894000  0.788000  0.705600  1.0  0.0114
  C  C356  1  0.892100  0.833700  0.706000  1.0  -0.1194
  C  C357  1  0.921900  0.858200  0.736700  1.0  -0.011
  C  C358  1  0.862600  0.759600  0.673700  1.0  0.0783
  C  C359  1  0.874700  0.715300  0.672600  1.0  -0.1313
  C  C360  1  0.845700  0.687300  0.643700  1.0  -0.0351
  C  C361  1  0.804000  0.704400  0.615700  1.0  -0.0608
  C  C362  1  0.793200  0.749300  0.615900  1.0  -0.0289
  C  C363  1  0.822300  0.776300  0.645300  1.0  -0.0612
  C  C364  1  0.772400  0.672900  0.585300  1.0  0.7239
  C  C365  1  0.118100  0.454100  0.134800  1.0  0.6771
  C  C366  1  0.082400  0.463700  0.168400  1.0  -0.1097
  C  C367  1  0.098700  0.498300  0.193400  1.0  -0.0391
  C  C368  1  0.067000  0.505600  0.225300  1.0  -0.1127
  C  C369  1  0.017900  0.479300  0.232500  1.0  0.062
  C  C370  1  0.002200  0.444600  0.207300  1.0  -0.1098
  C  C371  1  0.034300  0.436100  0.176300  1.0  -0.0477
  C  C372  1  0.982700  0.488700  0.265900  1.0  0.0866
  C  C373  1  0.979000  0.531600  0.280300  1.0  -0.1103
  C  C374  1  0.945300  0.541300  0.311000  1.0  -0.027
  C  C375  1  0.917100  0.507300  0.328700  1.0  -0.0919
  C  C376  1  0.920400  0.464900  0.315400  1.0  -0.0482
  C  C377  1  0.952800  0.456100  0.284100  1.0  -0.0943
  C  C378  1  0.880500  0.519500  0.362100  1.0  0.712
  C  C379  1  0.487800  0.322100  0.173600  1.0  0.7303
  C  C380  1  0.515600  0.292700  0.206100  1.0  0.0327
  C  C381  1  0.561600  0.309300  0.231000  1.0  -0.0529
  C  C382  1  0.589100  0.282400  0.260900  1.0  -0.1024
  C  C383  1  0.570300  0.240000  0.266500  1.0  0.0633
  C  C384  1  0.523400  0.223100  0.241300  1.0  -0.0687
  C  C385  1  0.496000  0.249100  0.210600  1.0  -0.0369
  C  C386  1  0.602100  0.212000  0.298100  1.0  0.0798
  C  C387  1  0.625300  0.232600  0.332300  1.0  -0.1411
  C  C388  1  0.659100  0.207800  0.361300  1.0  -0.0381
  C  C389  1  0.672600  0.164000  0.355700  1.0  -0.0334
  C  C390  1  0.648600  0.143000  0.322500  1.0  -0.0534
  C  C391  1  0.614200  0.167300  0.294000  1.0  -0.1149
  C  C392  1  0.712900  0.139000  0.386800  1.0  0.719
  O  O393  1  0.009280  0.071160  0.002280  1.0  -0.8053
  O  O394  1  0.091970  0.980260  0.021310  1.0  -0.825
  O  O395  1  0.018200  0.990190  0.944740  1.0  -0.8047
  O  O396  1  0.142500  0.048470  0.961420  1.0  -0.7547
  O  O397  1  0.016000  0.920470  0.889420  1.0  -0.8322
  O  O398  1  0.994000  0.861280  0.943000  1.0  -0.6818
  O  O399  1  0.153700  0.821980  0.974240  1.0  -0.7869
  O  O400  1  0.092800  0.830440  0.912170  1.0  -0.7856
  O  O401  1  0.234100  0.033360  0.929560  1.0  -0.7552
  O  O402  1  0.061800  0.852310  0.013430  1.0  -0.7035
  O  O403  1  0.198700  0.025220  0.030940  1.0  -0.6884
  O  O404  1  0.261200  0.819510  0.942610  1.0  -0.6764
  O  O405  1  0.313400  0.943360  0.944600  1.0  -0.8005
  O  O406  1  0.274900  0.880750  0.998760  1.0  -0.7821
  O  O407  1  0.066500  0.043890  0.895090  1.0  -0.6762
  O  O408  1  0.128900  0.901850  0.848000  1.0  -0.7947
  O  O409  1  0.266400  0.946960  0.050230  1.0  -0.6321
  O  O410  1  0.237600  0.953630  0.867000  1.0  -0.7806
  O  O411  1  0.301500  0.008350  0.995210  1.0  -0.6419
  O  O412  1  0.301000  0.879130  0.889610  1.0  -0.6429
  O  O413  1  0.060100  0.976650  0.837940  1.0  -0.6374
  O  O414  1  0.159540  0.899890  0.038890  1.0  -0.8273
  O  O415  1  0.169400  0.026990  0.859320  1.0  -0.6806
  O  O416  1  0.193000  0.829570  0.872590  1.0  -0.6713
  O  O417  1  0.496700  0.595410  0.296830  1.0  -0.4169
  O  O418  1  0.509400  0.660420  0.329160  1.0  -0.5436
  O  O419  1  0.237500  0.808320  0.058390  1.0  -0.5546
  O  O420  1  0.281600  0.867200  0.088780  1.0  -0.427
  O  O421  1  0.617500  0.084300  0.621690  1.0  -0.4185
  O  O422  1  0.353000  0.013000  0.877360  1.0  -0.5735
  O  O423  1  0.647500  0.011720  0.622420  1.0  -0.5645
  O  O424  1  0.379400  0.940600  0.871500  1.0  -0.4259
  O  O425  1  0.907280  0.010680  0.476780  1.0  -0.812
  O  O426  1  0.833540  0.082220  0.443840  1.0  -0.8318
  O  O427  1  0.996160  0.930480  0.510470  1.0  -0.7942
  O  O428  1  0.927700  0.137750  0.459670  1.0  -0.648
  O  O429  1  0.980020  0.022630  0.553190  1.0  -0.7974
  O  O430  1  0.977000  0.105340  0.593370  1.0  -0.8451
  O  O431  1  0.995700  0.149050  0.529660  1.0  -0.6601
  O  O432  1  0.935800  0.982050  0.612600  1.0  -0.6747
  O  O433  1  0.934100  0.062080  0.653350  1.0  -0.6237
  O  O434  1  0.804300  0.962020  0.476730  1.0  -0.6856
  O  O435  1  0.730900  0.031130  0.442250  1.0  -0.6136
  O  O436  1  0.830800  0.005960  0.644060  1.0  -0.6987
  O  O437  1  0.861500  0.958850  0.549120  1.0  -0.8024
  O  O438  1  0.767800  0.979500  0.577360  1.0  -0.8193
  O  O439  1  0.716500  0.109040  0.479290  1.0  -0.7872
  O  O440  1  0.680200  0.062130  0.544280  1.0  -0.7792
  O  O441  1  0.699800  0.985480  0.508610  1.0  -0.6586
  O  O442  1  0.757000  0.074160  0.621440  1.0  -0.7781
  O  O443  1  0.861100  0.131560  0.629210  1.0  -0.811
  O  O444  1  0.792800  0.194610  0.590900  1.0  -0.68
  O  O445  1  0.687200  0.139810  0.584860  1.0  -0.641
  O  O446  1  0.893200  0.185330  0.553860  1.0  -0.7006
  O  O447  1  0.833300  0.175470  0.491670  1.0  -0.7618
  O  O448  1  0.724500  0.183750  0.521410  1.0  -0.6684
  O  O449  1  0.988200  0.137500  0.678810  1.0  -0.408
  O  O450  1  0.967700  0.198270  0.642450  1.0  -0.5681
  O  O451  1  0.210000  0.402000  0.888270  1.0  -0.4172
  O  O452  1  0.248200  0.336000  0.909170  1.0  -0.5696
  O  O453  1  0.490720  0.571160  0.497720  1.0  -0.8054
  O  O454  1  0.408030  0.480260  0.478690  1.0  -0.8261
  O  O455  1  0.481800  0.490190  0.555260  1.0  -0.8061
  O  O456  1  0.357500  0.548470  0.538580  1.0  -0.7544
  O  O457  1  0.484000  0.420470  0.610580  1.0  -0.8326
  O  O458  1  0.506000  0.361280  0.557000  1.0  -0.6815
  O  O459  1  0.346300  0.321980  0.525760  1.0  -0.7867
  O  O460  1  0.407200  0.330440  0.587830  1.0  -0.7862
  O  O461  1  0.265900  0.533360  0.570440  1.0  -0.7557
  O  O462  1  0.438200  0.352310  0.486570  1.0  -0.701
  O  O463  1  0.301300  0.525220  0.469060  1.0  -0.6892
  O  O464  1  0.238800  0.319510  0.557390  1.0  -0.676
  O  O465  1  0.186600  0.443360  0.555400  1.0  -0.8006
  O  O466  1  0.225100  0.380750  0.501240  1.0  -0.782
  O  O467  1  0.433500  0.543890  0.604910  1.0  -0.6755
  O  O468  1  0.371100  0.401850  0.652000  1.0  -0.7937
  O  O469  1  0.233600  0.446960  0.449770  1.0  -0.6307
  O  O470  1  0.262400  0.453630  0.633000  1.0  -0.7793
  O  O471  1  0.198500  0.508350  0.504790  1.0  -0.6423
  O  O472  1  0.199000  0.379130  0.610390  1.0  -0.6433
  O  O473  1  0.439900  0.476650  0.662060  1.0  -0.6389
  O  O474  1  0.340460  0.399890  0.461110  1.0  -0.8297
  O  O475  1  0.330600  0.526990  0.640680  1.0  -0.6799
  O  O476  1  0.307000  0.329570  0.627410  1.0  -0.6721
  O  O477  1  0.003300  0.095410  0.203170  1.0  -0.4139
  O  O478  1  0.990600  0.160420  0.170840  1.0  -0.5451
  O  O479  1  0.262500  0.308320  0.441610  1.0  -0.5541
  O  O480  1  0.218400  0.367200  0.411220  1.0  -0.428
  O  O481  1  0.882500  0.584300  0.878310  1.0  -0.4164
  O  O482  1  0.147000  0.513000  0.622640  1.0  -0.5755
  O  O483  1  0.852500  0.511720  0.877580  1.0  -0.5652
  O  O484  1  0.120600  0.440600  0.628500  1.0  -0.4252
  O  O485  1  0.592720  0.510680  0.023220  1.0  -0.8105
  O  O486  1  0.666460  0.582220  0.056160  1.0  -0.831
  O  O487  1  0.503840  0.430480  0.989530  1.0  -0.7951
  O  O488  1  0.572300  0.637750  0.040330  1.0  -0.6477
  O  O489  1  0.519980  0.522630  0.946810  1.0  -0.7946
  O  O490  1  0.523000  0.605340  0.906630  1.0  -0.8459
  O  O491  1  0.504300  0.649050  0.970340  1.0  -0.6598
  O  O492  1  0.564200  0.482050  0.887400  1.0  -0.6753
  O  O493  1  0.565900  0.562080  0.846650  1.0  -0.6227
  O  O494  1  0.695700  0.462020  0.023270  1.0  -0.6856
  O  O495  1  0.769100  0.531130  0.057750  1.0  -0.6141
  O  O496  1  0.669200  0.505960  0.855940  1.0  -0.7001
  O  O497  1  0.638500  0.458850  0.950880  1.0  -0.8023
  O  O498  1  0.732200  0.479500  0.922640  1.0  -0.8204
  O  O499  1  0.783500  0.609040  0.020710  1.0  -0.7873
  O  O500  1  0.819800  0.562130  0.955720  1.0  -0.7793
  O  O501  1  0.800200  0.485480  0.991390  1.0  -0.6595
  O  O502  1  0.743000  0.574160  0.878560  1.0  -0.7801
  O  O503  1  0.638900  0.631560  0.870790  1.0  -0.8134
  O  O504  1  0.707200  0.694610  0.909100  1.0  -0.681
  O  O505  1  0.812800  0.639810  0.915140  1.0  -0.6402
  O  O506  1  0.606800  0.685330  0.946140  1.0  -0.7012
  O  O507  1  0.666667  0.675470  0.008330  1.0  -0.7615
  O  O508  1  0.775500  0.683750  0.978590  1.0  -0.6681
  O  O509  1  0.511800  0.637500  0.821190  1.0  -0.4093
  O  O510  1  0.532300  0.698270  0.857550  1.0  -0.5687
  O  O511  1  0.290000  0.902000  0.611730  1.0  -0.4176
  O  O512  1  0.251800  0.836000  0.590830  1.0  -0.5696
  O  O513  1  0.990720  0.928840  0.997720  1.0  -0.8053
  O  O514  1  0.908030  0.019740  0.978690  1.0  -0.826
  O  O515  1  0.981800  0.009810  0.055260  1.0  -0.8068
  O  O516  1  0.857500  0.951530  0.038580  1.0  -0.7557
  O  O517  1  0.984000  0.079530  0.110580  1.0  -0.8329
  O  O518  1  0.006000  0.138720  0.057000  1.0  -0.6809
  O  O519  1  0.846300  0.178020  0.025760  1.0  -0.7864
  O  O520  1  0.907200  0.169560  0.087830  1.0  -0.7852
  O  O521  1  0.765900  0.966640  0.070440  1.0  -0.7557
  O  O522  1  0.938200  0.147690  0.986570  1.0  -0.7035
  O  O523  1  0.801300  0.974780  0.969060  1.0  -0.6884
  O  O524  1  0.738800  0.180490  0.057390  1.0  -0.6763
  O  O525  1  0.686600  0.056640  0.055400  1.0  -0.8005
  O  O526  1  0.725100  0.119250  0.001240  1.0  -0.7819
  O  O527  1  0.933500  0.956110  0.104910  1.0  -0.6759
  O  O528  1  0.871100  0.098150  0.152000  1.0  -0.7938
  O  O529  1  0.733600  0.053040  0.949770  1.0  -0.6295
  O  O530  1  0.762400  0.046370  0.133000  1.0  -0.779
  O  O531  1  0.698500  0.991650  0.004790  1.0  -0.6425
  O  O532  1  0.699000  0.120870  0.110390  1.0  -0.644
  O  O533  1  0.939900  0.023350  0.162060  1.0  -0.6407
  O  O534  1  0.840460  0.100110  0.961110  1.0  -0.8296
  O  O535  1  0.830600  0.973010  0.140680  1.0  -0.6812
  O  O536  1  0.807000  0.170430  0.127410  1.0  -0.6706
  O  O537  1  0.503300  0.404590  0.703170  1.0  -0.4145
  O  O538  1  0.490600  0.339580  0.670840  1.0  -0.5451
  O  O539  1  0.762500  0.191680  0.941610  1.0  -0.5546
  O  O540  1  0.718400  0.132800  0.911220  1.0  -0.4289
  O  O541  1  0.382500  0.915700  0.378310  1.0  -0.4173
  O  O542  1  0.647000  0.987000  0.122640  1.0  -0.5721
  O  O543  1  0.352500  0.988280  0.377580  1.0  -0.5653
  O  O544  1  0.620600  0.059400  0.128500  1.0  -0.4233
  O  O545  1  0.092720  0.989320  0.523220  1.0  -0.8104
  O  O546  1  0.166460  0.917780  0.556160  1.0  -0.8311
  O  O547  1  0.003840  0.069520  0.489530  1.0  -0.7948
  O  O548  1  0.072300  0.862250  0.540330  1.0  -0.6522
  O  O549  1  0.019980  0.977370  0.446810  1.0  -0.7954
  O  O550  1  0.023000  0.894660  0.406630  1.0  -0.8458
  O  O551  1  0.004300  0.850950  0.470340  1.0  -0.6596
  O  O552  1  0.064200  0.017950  0.387400  1.0  -0.675
  O  O553  1  0.065900  0.937920  0.346650  1.0  -0.6247
  O  O554  1  0.195700  0.037980  0.523270  1.0  -0.6849
  O  O555  1  0.269100  0.968870  0.557750  1.0  -0.6126
  O  O556  1  0.169200  0.994040  0.355940  1.0  -0.6995
  O  O557  1  0.138500  0.041150  0.450880  1.0  -0.8013
  O  O558  1  0.232200  0.020500  0.422640  1.0  -0.8187
  O  O559  1  0.283500  0.890960  0.520710  1.0  -0.787
  O  O560  1  0.319800  0.937870  0.455720  1.0  -0.7796
  O  O561  1  0.300200  0.014520  0.491390  1.0  -0.6585
  O  O562  1  0.243000  0.925840  0.378560  1.0  -0.7801
  O  O563  1  0.138900  0.868440  0.370790  1.0  -0.8136
  O  O564  1  0.207200  0.805390  0.409100  1.0  -0.6795
  O  O565  1  0.312800  0.860190  0.415140  1.0  -0.6389
  O  O566  1  0.106800  0.814670  0.446140  1.0  -0.7031
  O  O567  1  0.166700  0.824530  0.508330  1.0  -0.7613
  O  O568  1  0.275500  0.816250  0.478590  1.0  -0.6676
  O  O569  1  0.011800  0.862500  0.321190  1.0  -0.4085
  O  O570  1  0.032300  0.801730  0.357550  1.0  -0.5679
  O  O571  1  0.790000  0.598000  0.111730  1.0  -0.4159
  O  O572  1  0.751800  0.664000  0.090830  1.0  -0.5707
  O  O573  1  0.509280  0.428840  0.502280  1.0  -0.8052
  O  O574  1  0.591970  0.519740  0.521310  1.0  -0.8254
  O  O575  1  0.518200  0.509810  0.444740  1.0  -0.8045
  O  O576  1  0.642500  0.451530  0.461420  1.0  -0.7566
  O  O577  1  0.516000  0.579530  0.389420  1.0  -0.8325
  O  O578  1  0.494000  0.638720  0.443000  1.0  -0.6824
  O  O579  1  0.653700  0.678020  0.474240  1.0  -0.7867
  O  O580  1  0.592800  0.669560  0.412170  1.0  -0.7852
  O  O581  1  0.734100  0.466640  0.429560  1.0  -0.756
  O  O582  1  0.561800  0.647690  0.513430  1.0  -0.7035
  O  O583  1  0.698700  0.474780  0.530940  1.0  -0.6906
  O  O584  1  0.761200  0.680490  0.442610  1.0  -0.677
  O  O585  1  0.813400  0.556640  0.444600  1.0  -0.8003
  O  O586  1  0.774900  0.619250  0.498760  1.0  -0.7822
  O  O587  1  0.566500  0.456110  0.395090  1.0  -0.6759
  O  O588  1  0.628900  0.598150  0.348000  1.0  -0.7945
  O  O589  1  0.766400  0.553040  0.550230  1.0  -0.633
  O  O590  1  0.737600  0.546370  0.367000  1.0  -0.7806
  O  O591  1  0.801500  0.491650  0.495210  1.0  -0.6422
  O  O592  1  0.801000  0.620870  0.389610  1.0  -0.6441
  O  O593  1  0.560100  0.523350  0.337940  1.0  -0.6366
  O  O594  1  0.659540  0.600110  0.538890  1.0  -0.8275
  O  O595  1  0.669400  0.473010  0.359320  1.0  -0.6795
  O  O596  1  0.693000  0.670430  0.372590  1.0  -0.6717
  O  O597  1  0.996700  0.904590  0.796830  1.0  -0.4179
  O  O598  1  0.009400  0.839580  0.829160  1.0  -0.5437
  O  O599  1  0.737500  0.691680  0.558390  1.0  -0.5556
  O  O600  1  0.781600  0.632800  0.588780  1.0  -0.429
  O  O601  1  0.117500  0.415700  0.121690  1.0  -0.4187
  O  O602  1  0.853000  0.487000  0.377360  1.0  -0.5716
  O  O603  1  0.147500  0.488280  0.122420  1.0  -0.5663
  O  O604  1  0.879400  0.559400  0.371500  1.0  -0.4229
  O  O605  1  0.407280  0.489320  0.976780  1.0  -0.8129
  O  O606  1  0.333540  0.417780  0.943840  1.0  -0.8319
  O  O607  1  0.496160  0.569520  0.010470  1.0  -0.7948
  O  O608  1  0.427700  0.362250  0.959670  1.0  -0.6474
  O  O609  1  0.480020  0.477370  0.053190  1.0  -0.7981
  O  O610  1  0.477000  0.394660  0.093370  1.0  -0.8448
  O  O611  1  0.495700  0.350950  0.029660  1.0  -0.6607
  O  O612  1  0.435800  0.517950  0.112600  1.0  -0.6737
  O  O613  1  0.434100  0.437920  0.153350  1.0  -0.6231
  O  O614  1  0.304300  0.537980  0.976730  1.0  -0.6869
  O  O615  1  0.230900  0.468870  0.942250  1.0  -0.6143
  O  O616  1  0.330800  0.494040  0.144060  1.0  -0.6972
  O  O617  1  0.361500  0.541150  0.049120  1.0  -0.8016
  O  O618  1  0.267800  0.520500  0.077360  1.0  -0.8182
  O  O619  1  0.216500  0.390960  0.979290  1.0  -0.7872
  O  O620  1  0.180200  0.437870  0.044280  1.0  -0.7793
  O  O621  1  0.199800  0.514520  0.008610  1.0  -0.6588
  O  O622  1  0.257000  0.425840  0.121440  1.0  -0.7783
  O  O623  1  0.361100  0.368440  0.129210  1.0  -0.8109
  O  O624  1  0.292800  0.305390  0.090900  1.0  -0.681
  O  O625  1  0.187200  0.360190  0.084860  1.0  -0.6409
  O  O626  1  0.393200  0.314670  0.053860  1.0  -0.7035
  O  O627  1  0.333333  0.324530  0.991670  1.0  -0.7617
  O  O628  1  0.224500  0.316250  0.021410  1.0  -0.6684
  O  O629  1  0.488200  0.362500  0.178810  1.0  -0.4076
  O  O630  1  0.467700  0.301730  0.142450  1.0  -0.5665
  O  O631  1  0.710000  0.098000  0.388270  1.0  -0.4153
  O  O632  1  0.748200  0.164000  0.409170  1.0  -0.5699
