# generated using pymatgen
data_AgH32(C23N2)2
_symmetry_space_group_name_H-M   'P 1'
_cell_length_a   16.09710000
_cell_length_b   19.52720000
_cell_length_c   14.40980000
_cell_angle_alpha   90.00000000
_cell_angle_beta   101.34600000
_cell_angle_gamma   90.00000000
_symmetry_Int_Tables_number   1
_chemical_formula_structural   AgH32(C23N2)2
_chemical_formula_sum   'Ag4 H128 C184 N16'
_cell_volume   4440.93209888
_cell_formula_units_Z   4
loop_
 _symmetry_equiv_pos_site_id
 _symmetry_equiv_pos_as_xyz
  1  'x, y, z'
loop_
 _atom_site_type_symbol
 _atom_site_label
 _atom_site_symmetry_multiplicity
 _atom_site_fract_x
 _atom_site_fract_y
 _atom_site_fract_z
 _atom_site_occupancy
 _atom_site_charge
  Ag  Ag1  1  0.205070  0.286160  0.123410  1.0  0.3676
  Ag  Ag2  1  0.794930  0.786160  0.376590  1.0  0.3681
  Ag  Ag3  1  0.794930  0.713840  0.876590  1.0  0.3676
  Ag  Ag4  1  0.205070  0.213840  0.623410  1.0  0.3679
  H  H5  1  0.180300  0.445800  0.030200  1.0  0.0736
  H  H6  1  0.019300  0.336700  0.140200  1.0  0.0584
  H  H7  1  0.961300  0.434500  0.191700  1.0  0.1036
  H  H8  1  0.020300  0.540400  0.169100  1.0  0.1001
  H  H9  1  0.038600  0.627700  0.072700  1.0  0.0945
  H  H10  1  0.264600  0.537700  0.075900  1.0  0.1022
  H  H11  1  0.092300  0.730200  0.030700  1.0  0.079
  H  H12  1  0.320100  0.642200  0.043800  1.0  0.1007
  H  H13  1  0.394100  0.824800  0.998900  1.0  0.1039
  H  H14  1  0.264400  0.759300  0.193600  1.0  0.0859
  H  H15  1  0.505900  0.857400  0.120100  1.0  0.0873
  H  H16  1  0.372600  0.796700  0.314400  1.0  0.0985
  H  H17  1  0.231800  0.874500  0.785700  1.0  0.08
  H  H18  1  0.221600  0.904900  0.059900  1.0  0.0949
  H  H19  1  0.212200  0.686700  0.840600  1.0  0.081
  H  H20  1  0.053100  0.845600  0.845300  1.0  0.0913
  H  H21  1  0.258000  0.989500  0.768400  1.0  0.0934
  H  H22  1  0.246400  0.020600  0.042400  1.0  0.0875
  H  H23  1  0.123200  0.643200  0.708100  1.0  0.1041
  H  H24  1  0.959100  0.798100  0.719400  1.0  0.1019
  H  H25  1  0.609700  0.799700  0.261100  1.0  0.0555
  H  H26  1  0.451700  0.910800  0.382800  1.0  0.1095
  H  H27  1  0.566100  0.932800  0.508500  1.0  0.1021
  H  H28  1  0.193600  0.095700  0.759100  1.0  0.0653
  H  H29  1  0.337300  0.115800  0.018900  1.0  0.1129
  H  H30  1  0.920200  0.777700  0.565500  1.0  0.0738
  H  H31  1  0.015300  0.589000  0.623900  1.0  0.107
  H  H32  1  0.696100  0.886700  0.505900  1.0  0.0665
  H  H33  1  0.345900  0.233200  0.989400  1.0  0.0926
  H  H34  1  0.935400  0.552000  0.480500  1.0  0.1016
  H  H35  1  0.280600  0.277500  0.845800  1.0  0.0699
  H  H36  1  0.846900  0.628200  0.385600  1.0  0.0712
  H  H37  1  0.819700  0.945800  0.469800  1.0  0.074
  H  H38  1  0.980700  0.836700  0.359800  1.0  0.058
  H  H39  1  0.038700  0.934500  0.308300  1.0  0.1047
  H  H40  1  0.979700  0.040400  0.330900  1.0  0.101
  H  H41  1  0.961400  0.127700  0.427300  1.0  0.0946
  H  H42  1  0.735400  0.037700  0.424100  1.0  0.1014
  H  H43  1  0.907700  0.230200  0.469300  1.0  0.0788
  H  H44  1  0.679900  0.142200  0.456200  1.0  0.0996
  H  H45  1  0.605900  0.324800  0.501100  1.0  0.1038
  H  H46  1  0.735600  0.259300  0.306400  1.0  0.0851
  H  H47  1  0.494100  0.357400  0.379900  1.0  0.0884
  H  H48  1  0.627400  0.296700  0.185600  1.0  0.0985
  H  H49  1  0.768200  0.374500  0.714300  1.0  0.0799
  H  H50  1  0.778400  0.404900  0.440100  1.0  0.0949
  H  H51  1  0.787800  0.186700  0.659400  1.0  0.081
  H  H52  1  0.946900  0.345600  0.654700  1.0  0.0911
  H  H53  1  0.742000  0.489500  0.731600  1.0  0.0941
  H  H54  1  0.753600  0.520600  0.457600  1.0  0.0879
  H  H55  1  0.876800  0.143200  0.791900  1.0  0.1042
  H  H56  1  0.040900  0.298100  0.780600  1.0  0.1014
  H  H57  1  0.390300  0.299700  0.238900  1.0  0.0547
  H  H58  1  0.548300  0.410800  0.117200  1.0  0.1093
  H  H59  1  0.433900  0.432800  0.991500  1.0  0.1026
  H  H60  1  0.806400  0.595700  0.740900  1.0  0.0654
  H  H61  1  0.662700  0.615800  0.481100  1.0  0.1126
  H  H62  1  0.079800  0.277700  0.934500  1.0  0.0737
  H  H63  1  0.984700  0.089000  0.876100  1.0  0.1058
  H  H64  1  0.303900  0.386700  0.994100  1.0  0.0661
  H  H65  1  0.654100  0.733200  0.510600  1.0  0.0932
  H  H66  1  0.064600  0.052000  0.019500  1.0  0.1017
  H  H67  1  0.719400  0.777500  0.654200  1.0  0.0703
  H  H68  1  0.153100  0.128200  0.114400  1.0  0.0719
  H  H69  1  0.819700  0.554200  0.969800  1.0  0.0742
  H  H70  1  0.980700  0.663300  0.859800  1.0  0.0583
  H  H71  1  0.038700  0.565500  0.808300  1.0  0.1049
  H  H72  1  0.979700  0.459600  0.830900  1.0  0.1006
  H  H73  1  0.961400  0.372300  0.927300  1.0  0.0947
  H  H74  1  0.735400  0.462300  0.924100  1.0  0.1018
  H  H75  1  0.907700  0.269800  0.969300  1.0  0.0786
  H  H76  1  0.679900  0.357800  0.956200  1.0  0.0999
  H  H77  1  0.605900  0.175200  0.001100  1.0  0.1044
  H  H78  1  0.735600  0.240700  0.806400  1.0  0.0848
  H  H79  1  0.494100  0.142600  0.879900  1.0  0.0886
  H  H80  1  0.627400  0.203300  0.685600  1.0  0.0984
  H  H81  1  0.768200  0.125500  0.214300  1.0  0.0796
  H  H82  1  0.778400  0.095100  0.940100  1.0  0.0954
  H  H83  1  0.787800  0.313300  0.159400  1.0  0.0811
  H  H84  1  0.946900  0.154400  0.154700  1.0  0.0908
  H  H85  1  0.742000  0.010500  0.231600  1.0  0.0944
  H  H86  1  0.753600  0.979400  0.957600  1.0  0.0878
  H  H87  1  0.876800  0.356800  0.291900  1.0  0.1038
  H  H88  1  0.040900  0.201900  0.280600  1.0  0.1009
  H  H89  1  0.390300  0.200300  0.738900  1.0  0.0541
  H  H90  1  0.548300  0.089200  0.617200  1.0  0.1087
  H  H91  1  0.433900  0.067200  0.491500  1.0  0.1025
  H  H92  1  0.806400  0.904300  0.240900  1.0  0.0651
  H  H93  1  0.662700  0.884200  0.981100  1.0  0.1125
  H  H94  1  0.079800  0.222300  0.434500  1.0  0.0735
  H  H95  1  0.984700  0.411000  0.376100  1.0  0.1071
  H  H96  1  0.303900  0.113300  0.494100  1.0  0.0657
  H  H97  1  0.654100  0.766800  0.010600  1.0  0.093
  H  H98  1  0.064600  0.448000  0.519500  1.0  0.1011
  H  H99  1  0.719400  0.722500  0.154200  1.0  0.0712
  H  H100  1  0.153100  0.371800  0.614400  1.0  0.0718
  H  H101  1  0.180300  0.054200  0.530200  1.0  0.0737
  H  H102  1  0.019300  0.163300  0.640200  1.0  0.0586
  H  H103  1  0.961300  0.065500  0.691700  1.0  0.104
  H  H104  1  0.020300  0.959600  0.669100  1.0  0.1004
  H  H105  1  0.038600  0.872300  0.572700  1.0  0.0944
  H  H106  1  0.264600  0.962300  0.575900  1.0  0.1024
  H  H107  1  0.092300  0.769800  0.530700  1.0  0.0787
  H  H108  1  0.320100  0.857800  0.543800  1.0  0.1009
  H  H109  1  0.394100  0.675200  0.498900  1.0  0.1041
  H  H110  1  0.264400  0.740700  0.693600  1.0  0.0851
  H  H111  1  0.505900  0.642600  0.620100  1.0  0.0874
  H  H112  1  0.372600  0.703300  0.814400  1.0  0.0979
  H  H113  1  0.231800  0.625500  0.285700  1.0  0.0796
  H  H114  1  0.221600  0.595100  0.559900  1.0  0.0946
  H  H115  1  0.212200  0.813300  0.340600  1.0  0.0811
  H  H116  1  0.053100  0.654400  0.345300  1.0  0.0918
  H  H117  1  0.258000  0.510500  0.268400  1.0  0.0938
  H  H118  1  0.246400  0.479400  0.542400  1.0  0.0876
  H  H119  1  0.123200  0.856800  0.208100  1.0  0.1036
  H  H120  1  0.959100  0.701900  0.219400  1.0  0.1021
  H  H121  1  0.609700  0.700300  0.761100  1.0  0.0552
  H  H122  1  0.451700  0.589200  0.882800  1.0  0.1092
  H  H123  1  0.566100  0.567200  0.008500  1.0  0.1025
  H  H124  1  0.193600  0.404300  0.259100  1.0  0.0654
  H  H125  1  0.337300  0.384200  0.518900  1.0  0.1129
  H  H126  1  0.920200  0.722300  0.065500  1.0  0.0741
  H  H127  1  0.015300  0.911000  0.123900  1.0  0.1073
  H  H128  1  0.696100  0.613300  0.005900  1.0  0.0669
  H  H129  1  0.345900  0.266800  0.489400  1.0  0.0927
  H  H130  1  0.935400  0.948000  0.980500  1.0  0.1013
  H  H131  1  0.280600  0.222500  0.345800  1.0  0.0711
  H  H132  1  0.846900  0.871800  0.885600  1.0  0.0713
  C  C133  1  0.136400  0.443740  0.065600  1.0  0.1522
  C  C134  1  0.042000  0.380000  0.128500  1.0  0.1512
  C  C135  1  0.108000  0.505400  0.097200  1.0  0.077
  C  C136  1  0.007800  0.437700  0.160200  1.0  -0.1607
  C  C137  1  0.042100  0.500200  0.145600  1.0  -0.0871
  C  C138  1  0.144900  0.571170  0.076800  1.0  0.0335
  C  C139  1  0.095700  0.629820  0.064500  1.0  -0.1484
  C  C140  1  0.229200  0.577070  0.067700  1.0  -0.1578
  C  C141  1  0.128000  0.691060  0.040600  1.0  -0.1255
  C  C142  1  0.261800  0.639090  0.047000  1.0  -0.1204
  C  C143  1  0.211600  0.696870  0.030700  1.0  0.0312
  C  C144  1  0.244700  0.765090  0.010200  1.0  0.0136
  C  C145  1  0.318000  0.789140  0.084800  1.0  0.0315
  C  C146  1  0.207000  0.802850  0.935000  1.0  -0.0275
  C  C147  1  0.389800  0.818400  0.063200  1.0  -0.122
  C  C148  1  0.313000  0.780480  0.178200  1.0  -0.1313
  C  C149  1  0.225000  0.877390  0.925100  1.0  0.0336
  C  C150  1  0.144300  0.772260  0.856000  1.0  0.0514
  C  C151  1  0.455800  0.838600  0.135400  1.0  -0.1628
  C  C152  1  0.377800  0.802100  0.250300  1.0  -0.159
  C  C153  1  0.235200  0.904250  0.838500  1.0  -0.1285
  C  C154  1  0.228900  0.921890  0.000300  1.0  -0.1227
  C  C155  1  0.161900  0.710840  0.814400  1.0  -0.1519
  C  C156  1  0.067500  0.803990  0.818200  1.0  -0.1329
  C  C157  1  0.449500  0.831400  0.229400  1.0  0.0224
  C  C158  1  0.249900  0.972740  0.827900  1.0  -0.1572
  C  C159  1  0.243200  0.990890  0.989500  1.0  -0.1347
  C  C160  1  0.108100  0.684190  0.736100  1.0  -0.1471
  C  C161  1  0.011900  0.776270  0.742000  1.0  -0.13
  C  C162  1  0.519500  0.851500  0.308600  1.0  0.0016
  C  C163  1  0.253300  0.017930  0.903200  1.0  0.0507
  C  C164  1  0.032200  0.716550  0.697800  1.0  -0.0005
  C  C165  1  0.600000  0.826920  0.312600  1.0  0.1254
  C  C166  1  0.506100  0.892100  0.382500  1.0  -0.1277
  C  C167  1  0.264300  0.092390  0.890600  1.0  0.0303
  C  C168  1  0.976900  0.688430  0.611000  1.0  0.0108
  C  C169  1  0.573700  0.905000  0.456700  1.0  -0.1595
  C  C170  1  0.226000  0.123690  0.806900  1.0  0.1544
  C  C171  1  0.309900  0.134400  0.959900  1.0  -0.0938
  C  C172  1  0.923100  0.730830  0.548900  1.0  0.1531
  C  C173  1  0.980000  0.620430  0.583900  1.0  -0.085
  C  C174  1  0.650600  0.877600  0.454400  1.0  0.1393
  C  C175  1  0.315200  0.203800  0.942300  1.0  -0.1279
  C  C176  1  0.932400  0.598290  0.499700  1.0  -0.1657
  C  C177  1  0.276000  0.229800  0.856900  1.0  0.1321
  C  C178  1  0.880300  0.643980  0.443400  1.0  0.14
  C  C179  1  0.863600  0.943740  0.434400  1.0  0.1531
  C  C180  1  0.958000  0.880000  0.371500  1.0  0.1511
  C  C181  1  0.892000  0.005400  0.402800  1.0  0.0763
  C  C182  1  0.992200  0.937700  0.339800  1.0  -0.1581
  C  C183  1  0.957900  0.000200  0.354400  1.0  -0.0873
  C  C184  1  0.855100  0.071170  0.423200  1.0  0.0333
  C  C185  1  0.904300  0.129820  0.435500  1.0  -0.1483
  C  C186  1  0.770800  0.077070  0.432300  1.0  -0.1581
  C  C187  1  0.872000  0.191060  0.459400  1.0  -0.1263
  C  C188  1  0.738200  0.139090  0.453000  1.0  -0.1187
  C  C189  1  0.788400  0.196870  0.469300  1.0  0.0299
  C  C190  1  0.755300  0.265090  0.489800  1.0  0.0138
  C  C191  1  0.682000  0.289140  0.415200  1.0  0.031
  C  C192  1  0.793000  0.302850  0.565000  1.0  -0.0284
  C  C193  1  0.610200  0.318400  0.436800  1.0  -0.1197
  C  C194  1  0.687000  0.280480  0.321800  1.0  -0.1358
  C  C195  1  0.775000  0.377390  0.574900  1.0  0.0334
  C  C196  1  0.855700  0.272260  0.644000  1.0  0.0515
  C  C197  1  0.544200  0.338600  0.364600  1.0  -0.1627
  C  C198  1  0.622200  0.302100  0.249700  1.0  -0.1577
  C  C199  1  0.764800  0.404250  0.661500  1.0  -0.1276
  C  C200  1  0.771100  0.421890  0.499700  1.0  -0.1231
  C  C201  1  0.838100  0.210840  0.685600  1.0  -0.1511
  C  C202  1  0.932500  0.303990  0.681800  1.0  -0.1335
  C  C203  1  0.550500  0.331400  0.270600  1.0  0.0221
  C  C204  1  0.750100  0.472740  0.672100  1.0  -0.157
  C  C205  1  0.756800  0.490890  0.510500  1.0  -0.1335
  C  C206  1  0.891900  0.184190  0.763900  1.0  -0.1455
  C  C207  1  0.988100  0.276270  0.758000  1.0  -0.1326
  C  C208  1  0.480500  0.351500  0.191400  1.0  0.002
  C  C209  1  0.746700  0.517930  0.596800  1.0  0.0505
  C  C210  1  0.967800  0.216550  0.802200  1.0  -0.0013
  C  C211  1  0.400000  0.326920  0.187400  1.0  0.1243
  C  C212  1  0.493900  0.392100  0.117500  1.0  -0.124
  C  C213  1  0.735700  0.592390  0.609400  1.0  0.0318
  C  C214  1  0.023100  0.188430  0.889000  1.0  0.0113
  C  C215  1  0.426300  0.405000  0.043300  1.0  -0.159
  C  C216  1  0.774000  0.623690  0.693100  1.0  0.1546
  C  C217  1  0.690100  0.634400  0.540100  1.0  -0.0939
  C  C218  1  0.076900  0.230830  0.951100  1.0  0.1527
  C  C219  1  0.020000  0.120430  0.916100  1.0  -0.0844
  C  C220  1  0.349400  0.377600  0.045600  1.0  0.1405
  C  C221  1  0.684800  0.703800  0.557700  1.0  -0.1283
  C  C222  1  0.067600  0.098290  0.000300  1.0  -0.1654
  C  C223  1  0.724000  0.729800  0.643100  1.0  0.1324
  C  C224  1  0.119700  0.143980  0.056600  1.0  0.139
  C  C225  1  0.863600  0.556260  0.934400  1.0  0.1529
  C  C226  1  0.958000  0.620000  0.871500  1.0  0.151
  C  C227  1  0.892000  0.494600  0.902800  1.0  0.0762
  C  C228  1  0.992200  0.562300  0.839800  1.0  -0.1578
  C  C229  1  0.957900  0.499800  0.854400  1.0  -0.0867
  C  C230  1  0.855100  0.428830  0.923200  1.0  0.0333
  C  C231  1  0.904300  0.370180  0.935500  1.0  -0.148
  C  C232  1  0.770800  0.422930  0.932300  1.0  -0.1588
  C  C233  1  0.872000  0.308940  0.959400  1.0  -0.1265
  C  C234  1  0.738200  0.360910  0.953000  1.0  -0.1182
  C  C235  1  0.788400  0.303130  0.969300  1.0  0.0302
  C  C236  1  0.755300  0.234910  0.989800  1.0  0.0138
  C  C237  1  0.682000  0.210860  0.915200  1.0  0.031
  C  C238  1  0.793000  0.197150  0.065000  1.0  -0.0281
  C  C239  1  0.610200  0.181600  0.936800  1.0  -0.1194
  C  C240  1  0.687000  0.219520  0.821800  1.0  -0.1355
  C  C241  1  0.775000  0.122610  0.074900  1.0  0.0334
  C  C242  1  0.855700  0.227740  0.144000  1.0  0.0514
  C  C243  1  0.544200  0.161400  0.864600  1.0  -0.1615
  C  C244  1  0.622200  0.197900  0.749700  1.0  -0.1573
  C  C245  1  0.764800  0.095750  0.161500  1.0  -0.1266
  C  C246  1  0.771100  0.078110  0.999700  1.0  -0.1231
  C  C247  1  0.838100  0.289160  0.185600  1.0  -0.1508
  C  C248  1  0.932500  0.196010  0.181800  1.0  -0.134
  C  C249  1  0.550500  0.168600  0.770600  1.0  0.0219
  C  C250  1  0.750100  0.027260  0.172100  1.0  -0.1569
  C  C251  1  0.756800  0.009110  0.010500  1.0  -0.1326
  C  C252  1  0.891900  0.315810  0.263900  1.0  -0.1457
  C  C253  1  0.988100  0.223730  0.258000  1.0  -0.1322
  C  C254  1  0.480500  0.148500  0.691400  1.0  0.0021
  C  C255  1  0.746700  0.982070  0.096800  1.0  0.0499
  C  C256  1  0.967800  0.283450  0.302200  1.0  -0.0013
  C  C257  1  0.400000  0.173080  0.687400  1.0  0.1248
  C  C258  1  0.493900  0.107900  0.617500  1.0  -0.1245
  C  C259  1  0.735700  0.907610  0.109400  1.0  0.0319
  C  C260  1  0.023100  0.311570  0.389000  1.0  0.0103
  C  C261  1  0.426300  0.095000  0.543300  1.0  -0.158
  C  C262  1  0.774000  0.876310  0.193100  1.0  0.1554
  C  C263  1  0.690100  0.865600  0.040100  1.0  -0.0941
  C  C264  1  0.076900  0.269170  0.451100  1.0  0.1534
  C  C265  1  0.020000  0.379570  0.416100  1.0  -0.0846
  C  C266  1  0.349400  0.122400  0.545600  1.0  0.1406
  C  C267  1  0.684800  0.796200  0.057700  1.0  -0.128
  C  C268  1  0.067600  0.401710  0.500300  1.0  -0.1639
  C  C269  1  0.724000  0.770200  0.143100  1.0  0.1317
  C  C270  1  0.119700  0.356020  0.556600  1.0  0.1387
  C  C271  1  0.136400  0.056260  0.565600  1.0  0.1523
  C  C272  1  0.042000  0.120000  0.628500  1.0  0.1509
  C  C273  1  0.108000  0.994600  0.597200  1.0  0.077
  C  C274  1  0.007800  0.062300  0.660200  1.0  -0.1599
  C  C275  1  0.042100  0.999800  0.645600  1.0  -0.0874
  C  C276  1  0.144900  0.928830  0.576800  1.0  0.0335
  C  C277  1  0.095700  0.870180  0.564500  1.0  -0.1482
  C  C278  1  0.229200  0.922930  0.567700  1.0  -0.1579
  C  C279  1  0.128000  0.808940  0.540600  1.0  -0.1262
  C  C280  1  0.261800  0.860910  0.547000  1.0  -0.1198
  C  C281  1  0.211600  0.803130  0.530700  1.0  0.0316
  C  C282  1  0.244700  0.734910  0.510200  1.0  0.0135
  C  C283  1  0.318000  0.710860  0.584800  1.0  0.0315
  C  C284  1  0.207000  0.697150  0.435000  1.0  -0.0272
  C  C285  1  0.389800  0.681600  0.563200  1.0  -0.1216
  C  C286  1  0.313000  0.719520  0.678200  1.0  -0.131
  C  C287  1  0.225000  0.622610  0.425100  1.0  0.0336
  C  C288  1  0.144300  0.727740  0.356000  1.0  0.0511
  C  C289  1  0.455800  0.661400  0.635400  1.0  -0.1624
  C  C290  1  0.377800  0.697900  0.750300  1.0  -0.1584
  C  C291  1  0.235200  0.595750  0.338500  1.0  -0.1266
  C  C292  1  0.228900  0.578110  0.500300  1.0  -0.1231
  C  C293  1  0.161900  0.789160  0.314400  1.0  -0.152
  C  C294  1  0.067500  0.696010  0.318200  1.0  -0.1332
  C  C295  1  0.449500  0.668600  0.729400  1.0  0.0225
  C  C296  1  0.249900  0.527260  0.327900  1.0  -0.1568
  C  C297  1  0.243200  0.509110  0.489500  1.0  -0.135
  C  C298  1  0.108100  0.815810  0.236100  1.0  -0.1478
  C  C299  1  0.011900  0.723730  0.242000  1.0  -0.1296
  C  C300  1  0.519500  0.648500  0.808600  1.0  0.0015
  C  C301  1  0.253300  0.482070  0.403200  1.0  0.0505
  C  C302  1  0.032200  0.783450  0.197800  1.0  -0.0004
  C  C303  1  0.600000  0.673080  0.812600  1.0  0.126
  C  C304  1  0.506100  0.607900  0.882500  1.0  -0.126
  C  C305  1  0.264300  0.407610  0.390600  1.0  0.0298
  C  C306  1  0.976900  0.811570  0.111000  1.0  0.0099
  C  C307  1  0.573700  0.595000  0.956700  1.0  -0.1585
  C  C308  1  0.226000  0.376310  0.306900  1.0  0.1553
  C  C309  1  0.309900  0.365600  0.459900  1.0  -0.0942
  C  C310  1  0.923100  0.769170  0.048900  1.0  0.1541
  C  C311  1  0.980000  0.879570  0.083900  1.0  -0.085
  C  C312  1  0.650600  0.622400  0.954400  1.0  0.14
  C  C313  1  0.315200  0.296200  0.442300  1.0  -0.127
  C  C314  1  0.932400  0.901710  0.999700  1.0  -0.1634
  C  C315  1  0.276000  0.270200  0.356900  1.0  0.1313
  C  C316  1  0.880300  0.856020  0.943400  1.0  0.1401
  N  N317  1  0.106210  0.382080  0.081700  1.0  -0.39
  N  N318  1  0.334120  0.338400  0.116500  1.0  -0.3614
  N  N319  1  0.231400  0.308930  0.288300  1.0  -0.3786
  N  N320  1  0.125260  0.209760  0.033100  1.0  -0.3631
  N  N321  1  0.893790  0.882080  0.418300  1.0  -0.3898
  N  N322  1  0.665880  0.838400  0.383500  1.0  -0.3637
  N  N323  1  0.768600  0.808930  0.211700  1.0  -0.3744
  N  N324  1  0.874740  0.709760  0.466900  1.0  -0.3629
  N  N325  1  0.893790  0.617920  0.918300  1.0  -0.3903
  N  N326  1  0.665880  0.661600  0.883500  1.0  -0.3635
  N  N327  1  0.768600  0.691070  0.711700  1.0  -0.3758
  N  N328  1  0.874740  0.790240  0.966900  1.0  -0.3649
  N  N329  1  0.106210  0.117920  0.581700  1.0  -0.391
  N  N330  1  0.334120  0.161600  0.616500  1.0  -0.3609
  N  N331  1  0.231400  0.191070  0.788300  1.0  -0.3773
  N  N332  1  0.125260  0.290240  0.533100  1.0  -0.3626
