# generated using pymatgen
data_ErH3(C3O2)3
_symmetry_space_group_name_H-M   'P 1'
_cell_length_a   6.07200000
_cell_length_b   9.53000000
_cell_length_c   19.84400000
_cell_angle_alpha   90.00000000
_cell_angle_beta   90.00000000
_cell_angle_gamma   90.00000000
_symmetry_Int_Tables_number   1
_chemical_formula_structural   ErH3(C3O2)3
_chemical_formula_sum   'Er4 H12 C36 O24'
_cell_volume   1148.29607904
_cell_formula_units_Z   4
loop_
 _symmetry_equiv_pos_site_id
 _symmetry_equiv_pos_as_xyz
  1  'x, y, z'
loop_
 _atom_site_type_symbol
 _atom_site_label
 _atom_site_symmetry_multiplicity
 _atom_site_fract_x
 _atom_site_fract_y
 _atom_site_fract_z
 _atom_site_occupancy
 _atom_site_charge
  Er  Er1  1  0.786100  0.467100  0.813700  1.0  1.5676
  Er  Er2  1  0.713900  0.532900  0.313700  1.0  1.568
  Er  Er3  1  0.213900  0.967100  0.686300  1.0  1.5665
  Er  Er4  1  0.286100  0.032900  0.186300  1.0  1.5669
  H  H5  1  0.823170  0.472310  0.061550  1.0  0.1266
  H  H6  1  0.420510  0.615120  0.958830  1.0  0.1222
  H  H7  1  0.566190  0.704840  0.069290  1.0  0.1105
  H  H8  1  0.676830  0.527690  0.561550  1.0  0.1281
  H  H9  1  0.079490  0.384880  0.458830  1.0  0.1221
  H  H10  1  0.933810  0.295160  0.569290  1.0  0.1107
  H  H11  1  0.176830  0.972310  0.438450  1.0  0.1303
  H  H12  1  0.579490  0.115120  0.541170  1.0  0.1233
  H  H13  1  0.434260  0.205140  0.428950  1.0  0.1125
  H  H14  1  0.323170  0.027690  0.938450  1.0  0.1283
  H  H15  1  0.920510  0.884880  0.041170  1.0  0.1219
  H  H16  1  0.066190  0.795160  0.930710  1.0  0.1103
  C  C17  1  0.287100  0.625400  0.128000  1.0  -0.0299
  C  C18  1  0.081400  0.561200  0.125700  1.0  -0.0499
  C  C19  1  0.992600  0.523600  0.064000  1.0  -0.0834
  C  C20  1  0.106700  0.547200  0.004000  1.0  -0.0499
  C  C21  1  0.318500  0.604800  0.006800  1.0  -0.0651
  C  C22  1  0.400600  0.648500  0.068400  1.0  -0.093
  C  C23  1  0.388900  0.670300  0.194400  1.0  0.6829
  C  C24  1  0.944100  0.540900  0.187300  1.0  0.6489
  C  C25  1  0.002400  0.507800  0.937100  1.0  0.6584
  C  C26  1  0.212900  0.374600  0.628000  1.0  -0.0305
  C  C27  1  0.418600  0.438800  0.625700  1.0  -0.0506
  C  C28  1  0.507400  0.476400  0.564000  1.0  -0.083
  C  C29  1  0.393300  0.452800  0.504000  1.0  -0.0491
  C  C30  1  0.181500  0.395200  0.506800  1.0  -0.0687
  C  C31  1  0.099400  0.351500  0.568400  1.0  -0.0925
  C  C32  1  0.111100  0.329700  0.694400  1.0  0.6818
  C  C33  1  0.555900  0.459100  0.687300  1.0  0.6501
  C  C34  1  0.497600  0.492200  0.437100  1.0  0.6585
  C  C35  1  0.712900  0.125400  0.372000  1.0  -0.0358
  C  C36  1  0.918600  0.061200  0.374300  1.0  -0.0557
  C  C37  1  0.007400  0.023600  0.436000  1.0  -0.0848
  C  C38  1  0.893300  0.047200  0.496000  1.0  -0.0501
  C  C39  1  0.681500  0.104800  0.493200  1.0  -0.065
  C  C40  1  0.599400  0.148500  0.431600  1.0  -0.0937
  C  C41  1  0.611100  0.170300  0.305600  1.0  0.6876
  C  C42  1  0.055900  0.040900  0.312700  1.0  0.648
  C  C43  1  0.997600  0.007800  0.562900  1.0  0.6576
  C  C44  1  0.787100  0.874600  0.872000  1.0  -0.0316
  C  C45  1  0.581400  0.938800  0.874300  1.0  -0.0511
  C  C46  1  0.492600  0.976400  0.936000  1.0  -0.0834
  C  C47  1  0.606700  0.952800  0.996000  1.0  -0.0494
  C  C48  1  0.818500  0.895200  0.993200  1.0  -0.0647
  C  C49  1  0.900600  0.851500  0.931600  1.0  -0.0934
  C  C50  1  0.888900  0.829700  0.805600  1.0  0.6818
  C  C51  1  0.444100  0.959100  0.812700  1.0  0.6478
  C  C52  1  0.502400  0.992200  0.062900  1.0  0.6578
  O  O53  1  0.425300  0.803200  0.202200  1.0  -0.6072
  O  O54  1  0.441600  0.577500  0.234100  1.0  -0.5891
  O  O55  1  0.848600  0.426900  0.196600  1.0  -0.51
  O  O56  1  0.924200  0.640400  0.228500  1.0  -0.6108
  O  O57  1  0.801400  0.494200  0.934400  1.0  -0.6273
  O  O58  1  0.118600  0.496100  0.884900  1.0  -0.5959
  O  O59  1  0.074700  0.196800  0.702200  1.0  -0.6078
  O  O60  1  0.058400  0.422500  0.734100  1.0  -0.5893
  O  O61  1  0.651400  0.573100  0.696600  1.0  -0.5081
  O  O62  1  0.575800  0.359600  0.728500  1.0  -0.6084
  O  O63  1  0.698600  0.505800  0.434400  1.0  -0.6257
  O  O64  1  0.381400  0.503900  0.384900  1.0  -0.5957
  O  O65  1  0.574700  0.303200  0.297800  1.0  -0.6129
  O  O66  1  0.558400  0.077500  0.265900  1.0  -0.5901
  O  O67  1  0.151400  0.926900  0.303400  1.0  -0.5145
  O  O68  1  0.075800  0.140400  0.271500  1.0  -0.6128
  O  O69  1  0.198600  0.994200  0.565600  1.0  -0.6266
  O  O70  1  0.881400  0.996100  0.615100  1.0  -0.596
  O  O71  1  0.925300  0.696800  0.797800  1.0  -0.6065
  O  O72  1  0.941600  0.922500  0.765900  1.0  -0.59
  O  O73  1  0.348600  0.073100  0.803400  1.0  -0.5084
  O  O74  1  0.424200  0.859600  0.771500  1.0  -0.6097
  O  O75  1  0.301400  0.005800  0.065600  1.0  -0.6291
  O  O76  1  0.618600  0.003900  0.115100  1.0  -0.601
