# generated using pymatgen
data_ZnH8C12(IN2)2
_symmetry_space_group_name_H-M   'P 1'
_cell_length_a   31.89500000
_cell_length_b   15.13300000
_cell_length_c   31.16800000
_cell_angle_alpha   90.00000000
_cell_angle_beta   98.08200000
_cell_angle_gamma   90.00000000
_symmetry_Int_Tables_number   1
_chemical_formula_structural   ZnH8C12(IN2)2
_chemical_formula_sum   'Zn24 H192 C288 I48 N96'
_cell_volume   14894.34957032
_cell_formula_units_Z   24
loop_
 _symmetry_equiv_pos_site_id
 _symmetry_equiv_pos_as_xyz
  1  'x, y, z'
loop_
 _atom_site_type_symbol
 _atom_site_label
 _atom_site_symmetry_multiplicity
 _atom_site_fract_x
 _atom_site_fract_y
 _atom_site_fract_z
 _atom_site_occupancy
 _atom_site_charge
  Zn  Zn1  1  0.808350  0.349700  0.214460  1.0  0.8433
  Zn  Zn2  1  0.930040  0.890950  0.895420  1.0  0.8571
  Zn  Zn3  1  0.141870  0.599330  0.050170  1.0  0.8969
  Zn  Zn4  1  0.308350  0.849700  0.214460  1.0  0.8433
  Zn  Zn5  1  0.430040  0.390950  0.895420  1.0  0.8571
  Zn  Zn6  1  0.641870  0.099330  0.050170  1.0  0.8969
  Zn  Zn7  1  0.808350  0.650300  0.714460  1.0  0.8425
  Zn  Zn8  1  0.930040  0.109050  0.395420  1.0  0.8536
  Zn  Zn9  1  0.141870  0.400670  0.550170  1.0  0.8963
  Zn  Zn10  1  0.308350  0.150300  0.714460  1.0  0.8425
  Zn  Zn11  1  0.430040  0.609050  0.395420  1.0  0.8536
  Zn  Zn12  1  0.641870  0.900670  0.550170  1.0  0.8963
  Zn  Zn13  1  0.191650  0.349700  0.285540  1.0  0.8419
  Zn  Zn14  1  0.069960  0.890950  0.604580  1.0  0.8576
  Zn  Zn15  1  0.858130  0.599330  0.449830  1.0  0.8969
  Zn  Zn16  1  0.691650  0.849700  0.285540  1.0  0.8419
  Zn  Zn17  1  0.569960  0.390950  0.604580  1.0  0.8576
  Zn  Zn18  1  0.358130  0.099330  0.449830  1.0  0.8969
  Zn  Zn19  1  0.191650  0.650300  0.785540  1.0  0.8415
  Zn  Zn20  1  0.069960  0.109050  0.104580  1.0  0.8543
  Zn  Zn21  1  0.858130  0.400670  0.949830  1.0  0.8967
  Zn  Zn22  1  0.691650  0.150300  0.785540  1.0  0.8415
  Zn  Zn23  1  0.569960  0.609050  0.104580  1.0  0.8543
  Zn  Zn24  1  0.358130  0.900670  0.949830  1.0  0.8967
  H  H25  1  0.809500  0.257900  0.128500  1.0  0.0994
  H  H26  1  0.854500  0.236800  0.077200  1.0  0.1153
  H  H27  1  0.945500  0.368600  0.155100  1.0  0.1154
  H  H28  1  0.897600  0.384900  0.204800  1.0  0.0866
  H  H29  1  0.995300  0.032100  0.922000  1.0  0.0865
  H  H30  1  0.005200  0.152900  0.967900  1.0  0.1184
  H  H31  1  0.903200  0.073600  0.021900  1.0  0.1275
  H  H32  1  0.896700  0.953800  0.974800  1.0  0.0883
  H  H33  1  0.072300  0.564000  0.097600  1.0  0.0769
  H  H34  1  0.016400  0.469000  0.101300  1.0  0.1237
  H  H35  1  0.040000  0.362200  0.987800  1.0  0.1085
  H  H36  1  0.093900  0.465700  0.986500  1.0  0.1028
  H  H37  1  0.171300  0.413400  0.069400  1.0  0.0907
  H  H38  1  0.216700  0.335100  0.119700  1.0  0.1169
  H  H39  1  0.246500  0.563600  0.184300  1.0  0.1115
  H  H40  1  0.195800  0.634100  0.136000  1.0  0.0877
  H  H41  1  0.347800  0.002200  0.264600  1.0  0.0662
  H  H42  1  0.347200  0.154600  0.265800  1.0  0.1201
  H  H43  1  0.258200  0.148700  0.159900  1.0  0.1237
  H  H44  1  0.263300  0.995500  0.161800  1.0  0.0871
  H  H45  1  0.353100  0.634000  0.331200  1.0  0.0846
  H  H46  1  0.310900  0.560500  0.276200  1.0  0.1104
  H  H47  1  0.379300  0.340200  0.308300  1.0  0.1224
  H  H48  1  0.418000  0.417700  0.363600  1.0  0.083
  H  H49  1  0.309500  0.757900  0.128500  1.0  0.0994
  H  H50  1  0.354500  0.736800  0.077200  1.0  0.1153
  H  H51  1  0.445500  0.868600  0.155100  1.0  0.1154
  H  H52  1  0.397600  0.884900  0.204800  1.0  0.0866
  H  H53  1  0.495300  0.532100  0.922000  1.0  0.0865
  H  H54  1  0.505200  0.652900  0.967900  1.0  0.1184
  H  H55  1  0.403200  0.573600  0.021900  1.0  0.1275
  H  H56  1  0.396700  0.453800  0.974800  1.0  0.0883
  H  H57  1  0.572300  0.064000  0.097600  1.0  0.0769
  H  H58  1  0.516400  0.969000  0.101300  1.0  0.1237
  H  H59  1  0.540000  0.862200  0.987800  1.0  0.1085
  H  H60  1  0.593900  0.965700  0.986500  1.0  0.1028
  H  H61  1  0.671300  0.913400  0.069400  1.0  0.0907
  H  H62  1  0.716700  0.835100  0.119700  1.0  0.1169
  H  H63  1  0.746500  0.063600  0.184300  1.0  0.1115
  H  H64  1  0.695800  0.134100  0.136000  1.0  0.0878
  H  H65  1  0.847800  0.502200  0.264600  1.0  0.0662
  H  H66  1  0.847200  0.654600  0.265800  1.0  0.1201
  H  H67  1  0.758200  0.648700  0.159900  1.0  0.1237
  H  H68  1  0.763300  0.495500  0.161800  1.0  0.0871
  H  H69  1  0.853100  0.134000  0.331200  1.0  0.0846
  H  H70  1  0.810900  0.060500  0.276200  1.0  0.1104
  H  H71  1  0.879300  0.840200  0.308300  1.0  0.1224
  H  H72  1  0.918000  0.917700  0.363600  1.0  0.083
  H  H73  1  0.809500  0.742100  0.628500  1.0  0.1
  H  H74  1  0.854500  0.763200  0.577200  1.0  0.1154
  H  H75  1  0.945500  0.631400  0.655100  1.0  0.1153
  H  H76  1  0.897600  0.615100  0.704800  1.0  0.0867
  H  H77  1  0.995300  0.967900  0.422000  1.0  0.0862
  H  H78  1  0.005200  0.847100  0.467900  1.0  0.1182
  H  H79  1  0.903200  0.926400  0.521900  1.0  0.1275
  H  H80  1  0.896700  0.046200  0.474800  1.0  0.0883
  H  H81  1  0.072300  0.436000  0.597600  1.0  0.0773
  H  H82  1  0.016400  0.531000  0.601300  1.0  0.1238
  H  H83  1  0.040000  0.637800  0.487800  1.0  0.1085
  H  H84  1  0.093900  0.534300  0.486500  1.0  0.1029
  H  H85  1  0.171300  0.586600  0.569400  1.0  0.0902
  H  H86  1  0.216700  0.664900  0.619700  1.0  0.117
  H  H87  1  0.246500  0.436400  0.684300  1.0  0.1116
  H  H88  1  0.195800  0.365900  0.636000  1.0  0.0886
  H  H89  1  0.347800  0.997800  0.764600  1.0  0.0663
  H  H90  1  0.347200  0.845400  0.765800  1.0  0.1203
  H  H91  1  0.258200  0.851300  0.659900  1.0  0.1237
  H  H92  1  0.263300  0.004500  0.661800  1.0  0.0872
  H  H93  1  0.353100  0.366000  0.831200  1.0  0.0844
  H  H94  1  0.310900  0.439500  0.776200  1.0  0.1099
  H  H95  1  0.379300  0.659800  0.808300  1.0  0.1223
  H  H96  1  0.418000  0.582300  0.863600  1.0  0.0833
  H  H97  1  0.309500  0.242100  0.628500  1.0  0.1
  H  H98  1  0.354500  0.263200  0.577200  1.0  0.1154
  H  H99  1  0.445500  0.131400  0.655100  1.0  0.1153
  H  H100  1  0.397600  0.115100  0.704800  1.0  0.0867
  H  H101  1  0.495300  0.467900  0.422000  1.0  0.0862
  H  H102  1  0.505200  0.347100  0.467900  1.0  0.1182
  H  H103  1  0.403200  0.426400  0.521900  1.0  0.1275
  H  H104  1  0.396700  0.546200  0.474800  1.0  0.0883
  H  H105  1  0.572300  0.936000  0.597600  1.0  0.0773
  H  H106  1  0.516400  0.031000  0.601300  1.0  0.1238
  H  H107  1  0.540000  0.137800  0.487800  1.0  0.1085
  H  H108  1  0.593900  0.034300  0.486500  1.0  0.1029
  H  H109  1  0.671300  0.086600  0.569400  1.0  0.0902
  H  H110  1  0.716700  0.164900  0.619700  1.0  0.117
  H  H111  1  0.746500  0.936400  0.684300  1.0  0.1116
  H  H112  1  0.695800  0.865900  0.636000  1.0  0.0886
  H  H113  1  0.847800  0.497800  0.764600  1.0  0.0663
  H  H114  1  0.847200  0.345400  0.765800  1.0  0.1203
  H  H115  1  0.758200  0.351300  0.659900  1.0  0.1237
  H  H116  1  0.763300  0.504500  0.661800  1.0  0.0872
  H  H117  1  0.853100  0.866000  0.831200  1.0  0.0844
  H  H118  1  0.810900  0.939500  0.776200  1.0  0.1099
  H  H119  1  0.879300  0.159800  0.808300  1.0  0.1223
  H  H120  1  0.918000  0.082300  0.863600  1.0  0.0833
  H  H121  1  0.190500  0.257900  0.371500  1.0  0.0988
  H  H122  1  0.145500  0.236800  0.422800  1.0  0.115
  H  H123  1  0.054500  0.368600  0.344900  1.0  0.1163
  H  H124  1  0.102400  0.384900  0.295200  1.0  0.0871
  H  H125  1  0.004700  0.032100  0.578000  1.0  0.0862
  H  H126  1  0.994800  0.152900  0.532100  1.0  0.1186
  H  H127  1  0.096800  0.073600  0.478100  1.0  0.1268
  H  H128  1  0.103300  0.953800  0.525200  1.0  0.0882
  H  H129  1  0.927700  0.564000  0.402400  1.0  0.0764
  H  H130  1  0.983600  0.469000  0.398700  1.0  0.1239
  H  H131  1  0.960000  0.362200  0.512200  1.0  0.1087
  H  H132  1  0.906100  0.465700  0.513500  1.0  0.1031
  H  H133  1  0.828700  0.413400  0.430600  1.0  0.091
  H  H134  1  0.783300  0.335100  0.380300  1.0  0.1169
  H  H135  1  0.753500  0.563600  0.315700  1.0  0.1122
  H  H136  1  0.804200  0.634100  0.364000  1.0  0.0876
  H  H137  1  0.652200  0.002200  0.235400  1.0  0.0665
  H  H138  1  0.652800  0.154600  0.234200  1.0  0.1203
  H  H139  1  0.741800  0.148700  0.340100  1.0  0.1245
  H  H140  1  0.736700  0.995500  0.338200  1.0  0.0873
  H  H141  1  0.646900  0.634000  0.168800  1.0  0.0846
  H  H142  1  0.689100  0.560500  0.223800  1.0  0.11
  H  H143  1  0.620700  0.340200  0.191700  1.0  0.1222
  H  H144  1  0.582000  0.417700  0.136400  1.0  0.0833
  H  H145  1  0.690500  0.757900  0.371500  1.0  0.0988
  H  H146  1  0.645500  0.736800  0.422800  1.0  0.115
  H  H147  1  0.554500  0.868600  0.344900  1.0  0.1163
  H  H148  1  0.602400  0.884900  0.295200  1.0  0.0871
  H  H149  1  0.504700  0.532100  0.578000  1.0  0.0862
  H  H150  1  0.494800  0.652900  0.532100  1.0  0.1186
  H  H151  1  0.596800  0.573600  0.478100  1.0  0.1268
  H  H152  1  0.603300  0.453800  0.525200  1.0  0.0882
  H  H153  1  0.427700  0.064000  0.402400  1.0  0.0764
  H  H154  1  0.483600  0.969000  0.398700  1.0  0.1239
  H  H155  1  0.460000  0.862200  0.512200  1.0  0.1087
  H  H156  1  0.406100  0.965700  0.513500  1.0  0.1031
  H  H157  1  0.328700  0.913400  0.430600  1.0  0.091
  H  H158  1  0.283300  0.835100  0.380300  1.0  0.1169
  H  H159  1  0.253500  0.063600  0.315700  1.0  0.1122
  H  H160  1  0.304200  0.134100  0.364000  1.0  0.0877
  H  H161  1  0.152200  0.502200  0.235400  1.0  0.0665
  H  H162  1  0.152800  0.654600  0.234200  1.0  0.1203
  H  H163  1  0.241800  0.648700  0.340100  1.0  0.1245
  H  H164  1  0.236700  0.495500  0.338200  1.0  0.0873
  H  H165  1  0.146900  0.134000  0.168800  1.0  0.0846
  H  H166  1  0.189100  0.060500  0.223800  1.0  0.11
  H  H167  1  0.120700  0.840200  0.191700  1.0  0.1222
  H  H168  1  0.082000  0.917700  0.136400  1.0  0.0833
  H  H169  1  0.190500  0.742100  0.871500  1.0  0.1
  H  H170  1  0.145500  0.763200  0.922800  1.0  0.1153
  H  H171  1  0.054500  0.631400  0.844900  1.0  0.1163
  H  H172  1  0.102400  0.615100  0.795200  1.0  0.0873
  H  H173  1  0.004700  0.967900  0.078000  1.0  0.0861
  H  H174  1  0.994800  0.847100  0.032100  1.0  0.1184
  H  H175  1  0.096800  0.926400  0.978100  1.0  0.127
  H  H176  1  0.103300  0.046200  0.025200  1.0  0.0882
  H  H177  1  0.927700  0.436000  0.902400  1.0  0.0764
  H  H178  1  0.983600  0.531000  0.898700  1.0  0.1236
  H  H179  1  0.960000  0.637800  0.012200  1.0  0.1087
  H  H180  1  0.906100  0.534300  0.013500  1.0  0.1031
  H  H181  1  0.828700  0.586600  0.930600  1.0  0.0899
  H  H182  1  0.783300  0.664900  0.880300  1.0  0.1171
  H  H183  1  0.753500  0.436400  0.815700  1.0  0.1119
  H  H184  1  0.804200  0.365900  0.864000  1.0  0.0887
  H  H185  1  0.652200  0.997800  0.735400  1.0  0.0669
  H  H186  1  0.652800  0.845400  0.734200  1.0  0.1202
  H  H187  1  0.741800  0.851300  0.840100  1.0  0.1246
  H  H188  1  0.736700  0.004500  0.838200  1.0  0.0871
  H  H189  1  0.646900  0.366000  0.668800  1.0  0.0839
  H  H190  1  0.689100  0.439500  0.723800  1.0  0.1102
  H  H191  1  0.620700  0.659800  0.691700  1.0  0.1224
  H  H192  1  0.582000  0.582300  0.636400  1.0  0.0834
  H  H193  1  0.690500  0.242100  0.871500  1.0  0.1
  H  H194  1  0.645500  0.263200  0.922800  1.0  0.1153
  H  H195  1  0.554500  0.131400  0.844900  1.0  0.1163
  H  H196  1  0.602400  0.115100  0.795200  1.0  0.0873
  H  H197  1  0.504700  0.467900  0.078000  1.0  0.0861
  H  H198  1  0.494800  0.347100  0.032100  1.0  0.1184
  H  H199  1  0.596800  0.426400  0.978100  1.0  0.127
  H  H200  1  0.603300  0.546200  0.025200  1.0  0.0882
  H  H201  1  0.427700  0.936000  0.902400  1.0  0.0764
  H  H202  1  0.483600  0.031000  0.898700  1.0  0.1236
  H  H203  1  0.460000  0.137800  0.012200  1.0  0.1087
  H  H204  1  0.406100  0.034300  0.013500  1.0  0.1031
  H  H205  1  0.328700  0.086600  0.930600  1.0  0.0899
  H  H206  1  0.283300  0.164900  0.880300  1.0  0.1171
  H  H207  1  0.253500  0.936400  0.815700  1.0  0.1119
  H  H208  1  0.304200  0.865900  0.864000  1.0  0.0887
  H  H209  1  0.152200  0.497800  0.735400  1.0  0.0669
  H  H210  1  0.152800  0.345400  0.734200  1.0  0.1202
  H  H211  1  0.241800  0.351300  0.840100  1.0  0.1246
  H  H212  1  0.236700  0.504500  0.838200  1.0  0.0871
  H  H213  1  0.146900  0.866000  0.668800  1.0  0.0839
  H  H214  1  0.189100  0.939500  0.723800  1.0  0.1102
  H  H215  1  0.120700  0.159800  0.691700  1.0  0.1224
  H  H216  1  0.082000  0.082300  0.636400  1.0  0.0834
  C  C217  1  0.837400  0.281400  0.133700  1.0  0.1447
  C  C218  1  0.864100  0.267700  0.103300  1.0  -0.1357
  C  C219  1  0.905100  0.299400  0.111100  1.0  -0.1047
  C  C220  1  0.917700  0.345000  0.149000  1.0  -0.1491
  C  C221  1  0.888700  0.355600  0.178200  1.0  0.1292
  C  C222  1  0.933900  0.288200  0.078100  1.0  0.4062
  C  C223  1  0.956700  0.208900  0.025500  1.0  0.3879
  C  C224  1  0.989600  0.334600  0.048200  1.0  0.3917
  C  C225  1  0.976200  0.041300  0.942300  1.0  0.1474
  C  C226  1  0.982200  0.113700  0.969400  1.0  -0.1718
  C  C227  1  0.954400  0.128300  0.998600  1.0  -0.084
  C  C228  1  0.922200  0.066800  0.001200  1.0  -0.1681
  C  C229  1  0.918600  0.995800  0.973000  1.0  0.1282
  C  C230  1  0.065600  0.521900  0.075000  1.0  0.1521
  C  C231  1  0.032500  0.465000  0.077900  1.0  -0.1665
  C  C232  1  0.023100  0.401100  0.045600  1.0  -0.0555
  C  C233  1  0.046300  0.402900  0.011100  1.0  -0.1106
  C  C234  1  0.078500  0.464200  0.010500  1.0  0.1245
  C  C235  1  0.186200  0.443700  0.093600  1.0  0.1364
  C  C236  1  0.213400  0.397000  0.123100  1.0  -0.137
  C  C237  1  0.236200  0.440700  0.158100  1.0  -0.0929
  C  C238  1  0.230400  0.531100  0.161600  1.0  -0.1345
  C  C239  1  0.201200  0.573100  0.132100  1.0  0.1378
  C  C240  1  0.267300  0.392200  0.190200  1.0  0.3736
  C  C241  1  0.300100  0.267800  0.213400  1.0  0.1834
  C  C242  1  0.317300  0.394600  0.247800  1.0  0.3896
  C  C243  1  0.329200  0.032500  0.243000  1.0  0.16
  C  C244  1  0.329200  0.123600  0.244000  1.0  -0.1384
  C  C245  1  0.302800  0.168700  0.212900  1.0  -0.0495
  C  C246  1  0.277200  0.120100  0.181700  1.0  -0.1574
  C  C247  1  0.280000  0.029400  0.183500  1.0  0.1238
  C  C248  1  0.358400  0.573200  0.326500  1.0  0.129
  C  C249  1  0.333500  0.530300  0.293200  1.0  -0.1646
  C  C250  1  0.341700  0.443200  0.285000  1.0  -0.1061
  C  C251  1  0.373400  0.400900  0.312300  1.0  -0.1271
  C  C252  1  0.396300  0.447400  0.345000  1.0  0.155
  C  C253  1  0.337400  0.781400  0.133700  1.0  0.1447
  C  C254  1  0.364100  0.767700  0.103300  1.0  -0.1357
  C  C255  1  0.405100  0.799400  0.111100  1.0  -0.1047
  C  C256  1  0.417700  0.845000  0.149000  1.0  -0.1491
  C  C257  1  0.388700  0.855600  0.178200  1.0  0.1292
  C  C258  1  0.433900  0.788200  0.078100  1.0  0.4062
  C  C259  1  0.456700  0.708900  0.025500  1.0  0.3879
  C  C260  1  0.489600  0.834600  0.048200  1.0  0.3917
  C  C261  1  0.476200  0.541300  0.942300  1.0  0.1474
  C  C262  1  0.482200  0.613700  0.969400  1.0  -0.1718
  C  C263  1  0.454400  0.628300  0.998600  1.0  -0.084
  C  C264  1  0.422200  0.566800  0.001200  1.0  -0.1681
  C  C265  1  0.418600  0.495800  0.973000  1.0  0.1282
  C  C266  1  0.565600  0.021900  0.075000  1.0  0.1521
  C  C267  1  0.532500  0.965000  0.077900  1.0  -0.1665
  C  C268  1  0.523100  0.901100  0.045600  1.0  -0.0555
  C  C269  1  0.546300  0.902900  0.011100  1.0  -0.1106
  C  C270  1  0.578500  0.964200  0.010500  1.0  0.1245
  C  C271  1  0.686200  0.943700  0.093600  1.0  0.1364
  C  C272  1  0.713400  0.897000  0.123100  1.0  -0.137
  C  C273  1  0.736200  0.940700  0.158100  1.0  -0.0929
  C  C274  1  0.730400  0.031100  0.161600  1.0  -0.1345
  C  C275  1  0.701200  0.073100  0.132100  1.0  0.1378
  C  C276  1  0.767300  0.892200  0.190200  1.0  0.3736
  C  C277  1  0.800100  0.767800  0.213400  1.0  0.1834
  C  C278  1  0.817300  0.894600  0.247800  1.0  0.3896
  C  C279  1  0.829200  0.532500  0.243000  1.0  0.16
  C  C280  1  0.829200  0.623600  0.244000  1.0  -0.1384
  C  C281  1  0.802800  0.668700  0.212900  1.0  -0.0495
  C  C282  1  0.777200  0.620100  0.181700  1.0  -0.1574
  C  C283  1  0.780000  0.529400  0.183500  1.0  0.1238
  C  C284  1  0.858400  0.073200  0.326500  1.0  0.129
  C  C285  1  0.833500  0.030300  0.293200  1.0  -0.1646
  C  C286  1  0.841700  0.943200  0.285000  1.0  -0.1061
  C  C287  1  0.873400  0.900900  0.312300  1.0  -0.1271
  C  C288  1  0.896300  0.947400  0.345000  1.0  0.155
  C  C289  1  0.837400  0.718600  0.633700  1.0  0.1434
  C  C290  1  0.864100  0.732300  0.603300  1.0  -0.1349
  C  C291  1  0.905100  0.700600  0.611100  1.0  -0.1044
  C  C292  1  0.917700  0.655000  0.649000  1.0  -0.1494
  C  C293  1  0.888700  0.644400  0.678200  1.0  0.1297
  C  C294  1  0.933900  0.711800  0.578100  1.0  0.4064
  C  C295  1  0.956700  0.791100  0.525500  1.0  0.3879
  C  C296  1  0.989600  0.665400  0.548200  1.0  0.3917
  C  C297  1  0.976200  0.958700  0.442300  1.0  0.1478
  C  C298  1  0.982200  0.886300  0.469400  1.0  -0.1716
  C  C299  1  0.954400  0.871700  0.498600  1.0  -0.0859
  C  C300  1  0.922200  0.933200  0.501200  1.0  -0.1685
  C  C301  1  0.918600  0.004200  0.473000  1.0  0.1276
  C  C302  1  0.065600  0.478100  0.575000  1.0  0.1526
  C  C303  1  0.032500  0.535000  0.577900  1.0  -0.1664
  C  C304  1  0.023100  0.598900  0.545600  1.0  -0.0549
  C  C305  1  0.046300  0.597100  0.511100  1.0  -0.1118
  C  C306  1  0.078500  0.535800  0.510500  1.0  0.1246
  C  C307  1  0.186200  0.556300  0.593600  1.0  0.1366
  C  C308  1  0.213400  0.603000  0.623100  1.0  -0.1368
  C  C309  1  0.236200  0.559300  0.658100  1.0  -0.0923
  C  C310  1  0.230400  0.468900  0.661600  1.0  -0.1339
  C  C311  1  0.201200  0.426900  0.632100  1.0  0.1362
  C  C312  1  0.267300  0.607800  0.690200  1.0  0.3734
  C  C313  1  0.300100  0.732200  0.713400  1.0  0.1838
  C  C314  1  0.317300  0.605400  0.747800  1.0  0.3892
  C  C315  1  0.329200  0.967500  0.743000  1.0  0.159
  C  C316  1  0.329200  0.876400  0.744000  1.0  -0.1385
  C  C317  1  0.302800  0.831300  0.712900  1.0  -0.05
  C  C318  1  0.277200  0.879900  0.681700  1.0  -0.157
  C  C319  1  0.280000  0.970600  0.683500  1.0  0.124
  C  C320  1  0.358400  0.426800  0.826500  1.0  0.1296
  C  C321  1  0.333500  0.469700  0.793200  1.0  -0.164
  C  C322  1  0.341700  0.556800  0.785000  1.0  -0.1048
  C  C323  1  0.373400  0.599100  0.812300  1.0  -0.13
  C  C324  1  0.396300  0.552600  0.845000  1.0  0.1549
  C  C325  1  0.337400  0.218600  0.633700  1.0  0.1434
  C  C326  1  0.364100  0.232300  0.603300  1.0  -0.1349
  C  C327  1  0.405100  0.200600  0.611100  1.0  -0.1044
  C  C328  1  0.417700  0.155000  0.649000  1.0  -0.1494
  C  C329  1  0.388700  0.144400  0.678200  1.0  0.1297
  C  C330  1  0.433900  0.211800  0.578100  1.0  0.4064
  C  C331  1  0.456700  0.291100  0.525500  1.0  0.3879
  C  C332  1  0.489600  0.165400  0.548200  1.0  0.3917
  C  C333  1  0.476200  0.458700  0.442300  1.0  0.1478
  C  C334  1  0.482200  0.386300  0.469400  1.0  -0.1716
  C  C335  1  0.454400  0.371700  0.498600  1.0  -0.0859
  C  C336  1  0.422200  0.433200  0.501200  1.0  -0.1685
  C  C337  1  0.418600  0.504200  0.473000  1.0  0.1276
  C  C338  1  0.565600  0.978100  0.575000  1.0  0.1526
  C  C339  1  0.532500  0.035000  0.577900  1.0  -0.1664
  C  C340  1  0.523100  0.098900  0.545600  1.0  -0.0549
  C  C341  1  0.546300  0.097100  0.511100  1.0  -0.1118
  C  C342  1  0.578500  0.035800  0.510500  1.0  0.1246
  C  C343  1  0.686200  0.056300  0.593600  1.0  0.1366
  C  C344  1  0.713400  0.103000  0.623100  1.0  -0.1368
  C  C345  1  0.736200  0.059300  0.658100  1.0  -0.0923
  C  C346  1  0.730400  0.968900  0.661600  1.0  -0.1339
  C  C347  1  0.701200  0.926900  0.632100  1.0  0.1362
  C  C348  1  0.767300  0.107800  0.690200  1.0  0.3734
  C  C349  1  0.800100  0.232200  0.713400  1.0  0.1838
  C  C350  1  0.817300  0.105400  0.747800  1.0  0.3892
  C  C351  1  0.829200  0.467500  0.743000  1.0  0.159
  C  C352  1  0.829200  0.376400  0.744000  1.0  -0.1385
  C  C353  1  0.802800  0.331300  0.712900  1.0  -0.05
  C  C354  1  0.777200  0.379900  0.681700  1.0  -0.157
  C  C355  1  0.780000  0.470600  0.683500  1.0  0.124
  C  C356  1  0.858400  0.926800  0.826500  1.0  0.1296
  C  C357  1  0.833500  0.969700  0.793200  1.0  -0.164
  C  C358  1  0.841700  0.056800  0.785000  1.0  -0.1048
  C  C359  1  0.873400  0.099100  0.812300  1.0  -0.13
  C  C360  1  0.896300  0.052600  0.845000  1.0  0.1549
  C  C361  1  0.162600  0.281400  0.366300  1.0  0.1426
  C  C362  1  0.135900  0.267700  0.396700  1.0  -0.1349
  C  C363  1  0.094900  0.299400  0.388900  1.0  -0.1049
  C  C364  1  0.082300  0.345000  0.351000  1.0  -0.1498
  C  C365  1  0.111300  0.355600  0.321800  1.0  0.1289
  C  C366  1  0.066100  0.288200  0.421900  1.0  0.4059
  C  C367  1  0.043300  0.208900  0.474500  1.0  0.3879
  C  C368  1  0.010400  0.334600  0.451800  1.0  0.3916
  C  C369  1  0.023800  0.041300  0.557700  1.0  0.1466
  C  C370  1  0.017800  0.113700  0.530600  1.0  -0.1725
  C  C371  1  0.045600  0.128300  0.501400  1.0  -0.0842
  C  C372  1  0.077800  0.066800  0.498800  1.0  -0.1663
  C  C373  1  0.081400  0.995800  0.527000  1.0  0.1271
  C  C374  1  0.934400  0.521900  0.425000  1.0  0.1515
  C  C375  1  0.967500  0.465000  0.422100  1.0  -0.1669
  C  C376  1  0.976900  0.401100  0.454400  1.0  -0.0584
  C  C377  1  0.953700  0.402900  0.488900  1.0  -0.1103
  C  C378  1  0.921500  0.464200  0.489500  1.0  0.1247
  C  C379  1  0.813800  0.443700  0.406400  1.0  0.1377
  C  C380  1  0.786600  0.397000  0.376900  1.0  -0.1352
  C  C381  1  0.763800  0.440700  0.341900  1.0  -0.092
  C  C382  1  0.769600  0.531100  0.338400  1.0  -0.1338
  C  C383  1  0.798800  0.573100  0.367900  1.0  0.1394
  C  C384  1  0.732700  0.392200  0.309800  1.0  0.3753
  C  C385  1  0.699900  0.267800  0.286600  1.0  0.1852
  C  C386  1  0.682700  0.394600  0.252200  1.0  0.3906
  C  C387  1  0.670800  0.032500  0.257000  1.0  0.1576
  C  C388  1  0.670800  0.123600  0.256000  1.0  -0.1375
  C  C389  1  0.697200  0.168700  0.287100  1.0  -0.0501
  C  C390  1  0.722800  0.120100  0.318300  1.0  -0.1585
  C  C391  1  0.720000  0.029400  0.316500  1.0  0.1246
  C  C392  1  0.641600  0.573200  0.173500  1.0  0.1298
  C  C393  1  0.666500  0.530300  0.206800  1.0  -0.1648
  C  C394  1  0.658300  0.443200  0.215000  1.0  -0.1067
  C  C395  1  0.626600  0.400900  0.187700  1.0  -0.1267
  C  C396  1  0.603700  0.447400  0.155000  1.0  0.1555
  C  C397  1  0.662600  0.781400  0.366300  1.0  0.1426
  C  C398  1  0.635900  0.767700  0.396700  1.0  -0.1349
  C  C399  1  0.594900  0.799400  0.388900  1.0  -0.1049
  C  C400  1  0.582300  0.845000  0.351000  1.0  -0.1498
  C  C401  1  0.611300  0.855600  0.321800  1.0  0.1289
  C  C402  1  0.566100  0.788200  0.421900  1.0  0.4059
  C  C403  1  0.543300  0.708900  0.474500  1.0  0.3879
  C  C404  1  0.510400  0.834600  0.451800  1.0  0.3916
  C  C405  1  0.523800  0.541300  0.557700  1.0  0.1466
  C  C406  1  0.517800  0.613700  0.530600  1.0  -0.1725
  C  C407  1  0.545600  0.628300  0.501400  1.0  -0.0842
  C  C408  1  0.577800  0.566800  0.498800  1.0  -0.1663
  C  C409  1  0.581400  0.495800  0.527000  1.0  0.1271
  C  C410  1  0.434400  0.021900  0.425000  1.0  0.1515
  C  C411  1  0.467500  0.965000  0.422100  1.0  -0.1669
  C  C412  1  0.476900  0.901100  0.454400  1.0  -0.0584
  C  C413  1  0.453700  0.902900  0.488900  1.0  -0.1103
  C  C414  1  0.421500  0.964200  0.489500  1.0  0.1247
  C  C415  1  0.313800  0.943700  0.406400  1.0  0.1377
  C  C416  1  0.286600  0.897000  0.376900  1.0  -0.1352
  C  C417  1  0.263800  0.940700  0.341900  1.0  -0.092
  C  C418  1  0.269600  0.031100  0.338400  1.0  -0.1338
  C  C419  1  0.298800  0.073100  0.367900  1.0  0.1394
  C  C420  1  0.232700  0.892200  0.309800  1.0  0.3753
  C  C421  1  0.199900  0.767800  0.286600  1.0  0.1852
  C  C422  1  0.182700  0.894600  0.252200  1.0  0.3906
  C  C423  1  0.170800  0.532500  0.257000  1.0  0.1576
  C  C424  1  0.170800  0.623600  0.256000  1.0  -0.1375
  C  C425  1  0.197200  0.668700  0.287100  1.0  -0.0501
  C  C426  1  0.222800  0.620100  0.318300  1.0  -0.1585
  C  C427  1  0.220000  0.529400  0.316500  1.0  0.1246
  C  C428  1  0.141600  0.073200  0.173500  1.0  0.1298
  C  C429  1  0.166500  0.030300  0.206800  1.0  -0.1648
  C  C430  1  0.158300  0.943200  0.215000  1.0  -0.1067
  C  C431  1  0.126600  0.900900  0.187700  1.0  -0.1267
  C  C432  1  0.103700  0.947400  0.155000  1.0  0.1555
  C  C433  1  0.162600  0.718600  0.866300  1.0  0.1426
  C  C434  1  0.135900  0.732300  0.896700  1.0  -0.1344
  C  C435  1  0.094900  0.700600  0.888900  1.0  -0.1042
  C  C436  1  0.082300  0.655000  0.851000  1.0  -0.1499
  C  C437  1  0.111300  0.644400  0.821800  1.0  0.129
  C  C438  1  0.066100  0.711800  0.921900  1.0  0.406
  C  C439  1  0.043300  0.791100  0.974500  1.0  0.3879
  C  C440  1  0.010400  0.665400  0.951800  1.0  0.3917
  C  C441  1  0.023800  0.958700  0.057700  1.0  0.1463
  C  C442  1  0.017800  0.886300  0.030600  1.0  -0.1709
  C  C443  1  0.045600  0.871700  0.001400  1.0  -0.0861
  C  C444  1  0.077800  0.933200  0.998800  1.0  -0.1667
  C  C445  1  0.081400  0.004200  0.027000  1.0  0.1267
  C  C446  1  0.934400  0.478100  0.925000  1.0  0.1516
  C  C447  1  0.967500  0.535000  0.922100  1.0  -0.167
  C  C448  1  0.976900  0.598900  0.954400  1.0  -0.0578
  C  C449  1  0.953700  0.597100  0.988900  1.0  -0.1121
  C  C450  1  0.921500  0.535800  0.989500  1.0  0.1251
  C  C451  1  0.813800  0.556300  0.906400  1.0  0.137
  C  C452  1  0.786600  0.603000  0.876900  1.0  -0.1356
  C  C453  1  0.763800  0.559300  0.841900  1.0  -0.092
  C  C454  1  0.769600  0.468900  0.838400  1.0  -0.1335
  C  C455  1  0.798800  0.426900  0.867900  1.0  0.1374
  C  C456  1  0.732700  0.607800  0.809800  1.0  0.3753
  C  C457  1  0.699900  0.732200  0.786600  1.0  0.1852
  C  C458  1  0.682700  0.605400  0.752200  1.0  0.3902
  C  C459  1  0.670800  0.967500  0.757000  1.0  0.1574
  C  C460  1  0.670800  0.876400  0.756000  1.0  -0.1374
  C  C461  1  0.697200  0.831300  0.787100  1.0  -0.0505
  C  C462  1  0.722800  0.879900  0.818300  1.0  -0.1584
  C  C463  1  0.720000  0.970600  0.816500  1.0  0.1239
  C  C464  1  0.641600  0.426800  0.673500  1.0  0.1303
  C  C465  1  0.666500  0.469700  0.706800  1.0  -0.1636
  C  C466  1  0.658300  0.556800  0.715000  1.0  -0.1061
  C  C467  1  0.626600  0.599100  0.687700  1.0  -0.1292
  C  C468  1  0.603700  0.552600  0.655000  1.0  0.1553
  C  C469  1  0.662600  0.218600  0.866300  1.0  0.1426
  C  C470  1  0.635900  0.232300  0.896700  1.0  -0.1344
  C  C471  1  0.594900  0.200600  0.888900  1.0  -0.1042
  C  C472  1  0.582300  0.155000  0.851000  1.0  -0.1499
  C  C473  1  0.611300  0.144400  0.821800  1.0  0.129
  C  C474  1  0.566100  0.211800  0.921900  1.0  0.406
  C  C475  1  0.543300  0.291100  0.974500  1.0  0.3879
  C  C476  1  0.510400  0.165400  0.951800  1.0  0.3917
  C  C477  1  0.523800  0.458700  0.057700  1.0  0.1463
  C  C478  1  0.517800  0.386300  0.030600  1.0  -0.1709
  C  C479  1  0.545600  0.371700  0.001400  1.0  -0.0861
  C  C480  1  0.577800  0.433200  0.998800  1.0  -0.1667
  C  C481  1  0.581400  0.504200  0.027000  1.0  0.1267
  C  C482  1  0.434400  0.978100  0.925000  1.0  0.1516
  C  C483  1  0.467500  0.035000  0.922100  1.0  -0.167
  C  C484  1  0.476900  0.098900  0.954400  1.0  -0.0578
  C  C485  1  0.453700  0.097100  0.988900  1.0  -0.1121
  C  C486  1  0.421500  0.035800  0.989500  1.0  0.1251
  C  C487  1  0.313800  0.056300  0.906400  1.0  0.137
  C  C488  1  0.286600  0.103000  0.876900  1.0  -0.1356
  C  C489  1  0.263800  0.059300  0.841900  1.0  -0.092
  C  C490  1  0.269600  0.968900  0.838400  1.0  -0.1335
  C  C491  1  0.298800  0.926900  0.867900  1.0  0.1374
  C  C492  1  0.232700  0.107800  0.809800  1.0  0.3753
  C  C493  1  0.199900  0.232200  0.786600  1.0  0.1852
  C  C494  1  0.182700  0.105400  0.752200  1.0  0.3902
  C  C495  1  0.170800  0.467500  0.757000  1.0  0.1574
  C  C496  1  0.170800  0.376400  0.756000  1.0  -0.1374
  C  C497  1  0.197200  0.331300  0.787100  1.0  -0.0505
  C  C498  1  0.222800  0.379900  0.818300  1.0  -0.1584
  C  C499  1  0.220000  0.470600  0.816500  1.0  0.1239
  C  C500  1  0.141600  0.926800  0.673500  1.0  0.1303
  C  C501  1  0.166500  0.969700  0.706800  1.0  -0.1636
  C  C502  1  0.158300  0.056800  0.715000  1.0  -0.1061
  C  C503  1  0.126600  0.099100  0.687700  1.0  -0.1292
  C  C504  1  0.103700  0.052600  0.655000  1.0  0.1553
  I  I505  1  0.741700  0.285940  0.181340  1.0  -0.4128
  I  I506  1  0.845330  0.304440  0.288020  1.0  -0.4618
  I  I507  1  0.887650  0.768360  0.923630  1.0  -0.4075
  I  I508  1  0.995020  0.866810  0.857150  1.0  -0.3436
  I  I509  1  0.123120  0.747050  0.081220  1.0  -0.4156
  I  I510  1  0.177390  0.583400  0.982380  1.0  -0.3128
  I  I511  1  0.241700  0.785940  0.181340  1.0  -0.4128
  I  I512  1  0.345330  0.804440  0.288020  1.0  -0.4618
  I  I513  1  0.387650  0.268360  0.923630  1.0  -0.4075
  I  I514  1  0.495020  0.366810  0.857150  1.0  -0.3436
  I  I515  1  0.623120  0.247050  0.081220  1.0  -0.4156
  I  I516  1  0.677390  0.083400  0.982380  1.0  -0.3128
  I  I517  1  0.741700  0.714060  0.681340  1.0  -0.4132
  I  I518  1  0.845330  0.695560  0.788020  1.0  -0.4616
  I  I519  1  0.887650  0.231640  0.423630  1.0  -0.407
  I  I520  1  0.995020  0.133190  0.357150  1.0  -0.343
  I  I521  1  0.123120  0.252950  0.581220  1.0  -0.416
  I  I522  1  0.177390  0.416600  0.482380  1.0  -0.3127
  I  I523  1  0.241700  0.214060  0.681340  1.0  -0.4132
  I  I524  1  0.345330  0.195560  0.788020  1.0  -0.4616
  I  I525  1  0.387650  0.731640  0.423630  1.0  -0.407
  I  I526  1  0.495020  0.633190  0.357150  1.0  -0.343
  I  I527  1  0.623120  0.752950  0.581220  1.0  -0.416
  I  I528  1  0.677390  0.916600  0.482380  1.0  -0.3127
  I  I529  1  0.258300  0.285940  0.318660  1.0  -0.413
  I  I530  1  0.154670  0.304440  0.211980  1.0  -0.4596
  I  I531  1  0.112350  0.768360  0.576370  1.0  -0.4079
  I  I532  1  0.004980  0.866810  0.642850  1.0  -0.345
  I  I533  1  0.876880  0.747050  0.418780  1.0  -0.4144
  I  I534  1  0.822610  0.583400  0.517620  1.0  -0.3128
  I  I535  1  0.758300  0.785940  0.318660  1.0  -0.413
  I  I536  1  0.654670  0.804440  0.211980  1.0  -0.4596
  I  I537  1  0.612350  0.268360  0.576370  1.0  -0.4079
  I  I538  1  0.504980  0.366810  0.642850  1.0  -0.345
  I  I539  1  0.376880  0.247050  0.418780  1.0  -0.4144
  I  I540  1  0.322610  0.083400  0.517620  1.0  -0.3128
  I  I541  1  0.258300  0.714060  0.818660  1.0  -0.4129
  I  I542  1  0.154670  0.695560  0.711980  1.0  -0.4595
  I  I543  1  0.112350  0.231640  0.076370  1.0  -0.4075
  I  I544  1  0.004980  0.133190  0.142850  1.0  -0.3442
  I  I545  1  0.876880  0.252950  0.918780  1.0  -0.4145
  I  I546  1  0.822610  0.416600  0.017620  1.0  -0.3132
  I  I547  1  0.758300  0.214060  0.818660  1.0  -0.4129
  I  I548  1  0.654670  0.195560  0.711980  1.0  -0.4595
  I  I549  1  0.612350  0.731640  0.076370  1.0  -0.4075
  I  I550  1  0.504980  0.633190  0.142850  1.0  -0.3442
  I  I551  1  0.376880  0.752950  0.918780  1.0  -0.4145
  I  I552  1  0.322610  0.916600  0.017620  1.0  -0.3132
  N  N553  1  0.849400  0.326700  0.170300  1.0  -0.299
  N  N554  1  0.928000  0.218300  0.052600  1.0  -0.4242
  N  N555  1  0.987700  0.266600  0.021200  1.0  -0.4733
  N  N556  1  0.964800  0.348500  0.077800  1.0  -0.4068
  N  N557  1  0.944900  0.983700  0.943200  1.0  -0.3132
  N  N558  1  0.088200  0.522100  0.043700  1.0  -0.2862
  N  N559  1  0.179800  0.531000  0.097700  1.0  -0.3361
  N  N560  1  0.271400  0.305400  0.184700  1.0  -0.3175
  N  N561  1  0.325000  0.309600  0.244900  1.0  -0.3165
  N  N562  1  0.288000  0.439700  0.222200  1.0  -0.4687
  N  N563  1  0.305900  0.986600  0.215000  1.0  -0.2947
  N  N564  1  0.389400  0.533300  0.352200  1.0  -0.3075
  N  N565  1  0.349400  0.826700  0.170300  1.0  -0.299
  N  N566  1  0.428000  0.718300  0.052600  1.0  -0.4242
  N  N567  1  0.487700  0.766600  0.021200  1.0  -0.4733
  N  N568  1  0.464800  0.848500  0.077800  1.0  -0.4068
  N  N569  1  0.444900  0.483700  0.943200  1.0  -0.3132
  N  N570  1  0.588200  0.022100  0.043700  1.0  -0.2862
  N  N571  1  0.679800  0.031000  0.097700  1.0  -0.3361
  N  N572  1  0.771400  0.805400  0.184700  1.0  -0.3175
  N  N573  1  0.825000  0.809600  0.244900  1.0  -0.3165
  N  N574  1  0.788000  0.939700  0.222200  1.0  -0.4687
  N  N575  1  0.805900  0.486600  0.215000  1.0  -0.2947
  N  N576  1  0.889400  0.033300  0.352200  1.0  -0.3075
  N  N577  1  0.849400  0.673300  0.670300  1.0  -0.2988
  N  N578  1  0.928000  0.781700  0.552600  1.0  -0.4251
  N  N579  1  0.987700  0.733400  0.521200  1.0  -0.4729
  N  N580  1  0.964800  0.651500  0.577800  1.0  -0.4049
  N  N581  1  0.944900  0.016300  0.443200  1.0  -0.312
  N  N582  1  0.088200  0.477900  0.543700  1.0  -0.2848
  N  N583  1  0.179800  0.469000  0.597700  1.0  -0.3366
  N  N584  1  0.271400  0.694600  0.684700  1.0  -0.3165
  N  N585  1  0.325000  0.690400  0.744900  1.0  -0.3166
  N  N586  1  0.288000  0.560300  0.722200  1.0  -0.4692
  N  N587  1  0.305900  0.013400  0.715000  1.0  -0.2958
  N  N588  1  0.389400  0.466700  0.852200  1.0  -0.3072
  N  N589  1  0.349400  0.173300  0.670300  1.0  -0.2988
  N  N590  1  0.428000  0.281700  0.552600  1.0  -0.4251
  N  N591  1  0.487700  0.233400  0.521200  1.0  -0.4729
  N  N592  1  0.464800  0.151500  0.577800  1.0  -0.4049
  N  N593  1  0.444900  0.516300  0.443200  1.0  -0.312
  N  N594  1  0.588200  0.977900  0.543700  1.0  -0.2848
  N  N595  1  0.679800  0.969000  0.597700  1.0  -0.3366
  N  N596  1  0.771400  0.194600  0.684700  1.0  -0.3165
  N  N597  1  0.825000  0.190400  0.744900  1.0  -0.3166
  N  N598  1  0.788000  0.060300  0.722200  1.0  -0.4692
  N  N599  1  0.805900  0.513400  0.715000  1.0  -0.2958
  N  N600  1  0.889400  0.966700  0.852200  1.0  -0.3072
  N  N601  1  0.150600  0.326700  0.329700  1.0  -0.2972
  N  N602  1  0.072000  0.218300  0.447400  1.0  -0.4237
  N  N603  1  0.012300  0.266600  0.478800  1.0  -0.4752
  N  N604  1  0.035200  0.348500  0.422200  1.0  -0.4069
  N  N605  1  0.055100  0.983700  0.556800  1.0  -0.3117
  N  N606  1  0.911800  0.522100  0.456300  1.0  -0.2863
  N  N607  1  0.820200  0.531000  0.402300  1.0  -0.3353
  N  N608  1  0.728600  0.305400  0.315300  1.0  -0.3183
  N  N609  1  0.675000  0.309600  0.255100  1.0  -0.3144
  N  N610  1  0.712000  0.439700  0.277800  1.0  -0.4696
  N  N611  1  0.694100  0.986600  0.285000  1.0  -0.2946
  N  N612  1  0.610600  0.533300  0.147800  1.0  -0.3059
  N  N613  1  0.650600  0.826700  0.329700  1.0  -0.2972
  N  N614  1  0.572000  0.718300  0.447400  1.0  -0.4237
  N  N615  1  0.512300  0.766600  0.478800  1.0  -0.4752
  N  N616  1  0.535200  0.848500  0.422200  1.0  -0.4069
  N  N617  1  0.555100  0.483700  0.556800  1.0  -0.3117
  N  N618  1  0.411800  0.022100  0.456300  1.0  -0.2863
  N  N619  1  0.320200  0.031000  0.402300  1.0  -0.3353
  N  N620  1  0.228600  0.805400  0.315300  1.0  -0.3183
  N  N621  1  0.175000  0.809600  0.255100  1.0  -0.3144
  N  N622  1  0.212000  0.939700  0.277800  1.0  -0.4696
  N  N623  1  0.194100  0.486600  0.285000  1.0  -0.2946
  N  N624  1  0.110600  0.033300  0.147800  1.0  -0.3059
  N  N625  1  0.150600  0.673300  0.829700  1.0  -0.2973
  N  N626  1  0.072000  0.781700  0.947400  1.0  -0.4261
  N  N627  1  0.012300  0.733400  0.978800  1.0  -0.4752
  N  N628  1  0.035200  0.651500  0.922200  1.0  -0.4076
  N  N629  1  0.055100  0.016300  0.056800  1.0  -0.3122
  N  N630  1  0.911800  0.477900  0.956300  1.0  -0.2865
  N  N631  1  0.820200  0.469000  0.902300  1.0  -0.3346
  N  N632  1  0.728600  0.694600  0.815300  1.0  -0.3189
  N  N633  1  0.675000  0.690400  0.755100  1.0  -0.3141
  N  N634  1  0.712000  0.560300  0.777800  1.0  -0.4695
  N  N635  1  0.694100  0.013400  0.785000  1.0  -0.2962
  N  N636  1  0.610600  0.466700  0.647800  1.0  -0.3085
  N  N637  1  0.650600  0.173300  0.829700  1.0  -0.2973
  N  N638  1  0.572000  0.281700  0.947400  1.0  -0.4261
  N  N639  1  0.512300  0.233400  0.978800  1.0  -0.4752
  N  N640  1  0.535200  0.151500  0.922200  1.0  -0.4076
  N  N641  1  0.555100  0.516300  0.056800  1.0  -0.3122
  N  N642  1  0.411800  0.977900  0.956300  1.0  -0.2865
  N  N643  1  0.320200  0.969000  0.902300  1.0  -0.3346
  N  N644  1  0.228600  0.194600  0.815300  1.0  -0.3189
  N  N645  1  0.175000  0.190400  0.755100  1.0  -0.3141
  N  N646  1  0.212000  0.060300  0.777800  1.0  -0.4695
  N  N647  1  0.194100  0.513400  0.785000  1.0  -0.2962
  N  N648  1  0.110600  0.966700  0.647800  1.0  -0.3085
