# generated using pymatgen
data_ZnH8C12(IN2)2
_symmetry_space_group_name_H-M   'P 1'
_cell_length_a   33.91400000
_cell_length_b   15.13500000
_cell_length_c   30.96300000
_cell_angle_alpha   90.00000000
_cell_angle_beta   100.72700000
_cell_angle_gamma   90.00000000
_symmetry_Int_Tables_number   1
_chemical_formula_structural   ZnH8C12(IN2)2
_chemical_formula_sum   'Zn24 H192 C288 I48 N96'
_cell_volume   15615.22223097
_cell_formula_units_Z   24
loop_
 _symmetry_equiv_pos_site_id
 _symmetry_equiv_pos_as_xyz
  1  'x, y, z'
loop_
 _atom_site_type_symbol
 _atom_site_label
 _atom_site_symmetry_multiplicity
 _atom_site_fract_x
 _atom_site_fract_y
 _atom_site_fract_z
 _atom_site_occupancy
 _atom_site_charge
  Zn  Zn1  1  0.230800  0.141000  0.036900  1.0  0.8652
  Zn  Zn2  1  0.918900  0.912300  0.230900  1.0  0.8172
  Zn  Zn3  1  0.144000  0.626600  0.362800  1.0  0.8815
  Zn  Zn4  1  0.730800  0.641000  0.036900  1.0  0.8652
  Zn  Zn5  1  0.418900  0.412300  0.230900  1.0  0.8172
  Zn  Zn6  1  0.644000  0.126600  0.362800  1.0  0.8815
  Zn  Zn7  1  0.230800  0.859000  0.536900  1.0  0.8681
  Zn  Zn8  1  0.918900  0.087700  0.730900  1.0  0.8164
  Zn  Zn9  1  0.144000  0.373400  0.862800  1.0  0.8839
  Zn  Zn10  1  0.730800  0.359000  0.536900  1.0  0.8681
  Zn  Zn11  1  0.418900  0.587700  0.730900  1.0  0.8164
  Zn  Zn12  1  0.644000  0.873400  0.862800  1.0  0.8839
  Zn  Zn13  1  0.379600  0.370100  0.487400  1.0  0.872
  Zn  Zn14  1  0.695700  0.603700  0.323410  1.0  0.8754
  Zn  Zn15  1  0.481000  0.880900  0.182600  1.0  0.87
  Zn  Zn16  1  0.879600  0.870100  0.487400  1.0  0.872
  Zn  Zn17  1  0.195700  0.103700  0.323410  1.0  0.8754
  Zn  Zn18  1  0.981000  0.380900  0.182600  1.0  0.87
  Zn  Zn19  1  0.379600  0.629900  0.987400  1.0  0.8712
  Zn  Zn20  1  0.695700  0.396300  0.823410  1.0  0.8769
  Zn  Zn21  1  0.481000  0.119100  0.682600  1.0  0.8664
  Zn  Zn22  1  0.879600  0.129900  0.987400  1.0  0.8712
  Zn  Zn23  1  0.195700  0.896300  0.823410  1.0  0.8769
  Zn  Zn24  1  0.981000  0.619100  0.682600  1.0  0.8664
  H  H25  1  0.187900  0.029800  0.098100  1.0  0.0853
  H  H26  1  0.149300  0.045600  0.152100  1.0  0.1235
  H  H27  1  0.163000  0.311100  0.143900  1.0  0.1192
  H  H28  1  0.199300  0.286500  0.088900  1.0  0.0793
  H  H29  1  0.977100  0.045900  0.285500  1.0  0.0756
  H  H30  1  0.033100  0.130700  0.287100  1.0  0.125
  H  H31  1  0.040300  0.032800  0.167800  1.0  0.1242
  H  H32  1  0.983200  0.954400  0.170300  1.0  0.0728
  H  H33  1  0.178300  0.535800  0.290300  1.0  0.0817
  H  H34  1  0.168600  0.410100  0.248700  1.0  0.1076
  H  H35  1  0.068400  0.364700  0.295400  1.0  0.1106
  H  H36  1  0.077800  0.497000  0.331900  1.0  0.0823
  H  H37  1  0.215600  0.654700  0.435600  1.0  0.0731
  H  H38  1  0.255900  0.580000  0.491600  1.0  0.1125
  H  H39  1  0.194300  0.355600  0.453800  1.0  0.105
  H  H40  1  0.154400  0.438700  0.400700  1.0  0.0785
  H  H41  1  0.385400  0.405500  0.707800  1.0  0.0819
  H  H42  1  0.350200  0.329600  0.648600  1.0  0.1156
  H  H43  1  0.322500  0.561900  0.587000  1.0  0.1225
  H  H44  1  0.364700  0.628900  0.644500  1.0  0.0761
  H  H45  1  0.202600  0.024400  0.491900  1.0  0.1053
  H  H46  1  0.210900  0.173800  0.501100  1.0  0.0933
  H  H47  1  0.302100  0.134100  0.599100  1.0  0.1005
  H  H48  1  0.289700  0.985300  0.593100  1.0  0.091
  H  H49  1  0.687900  0.529800  0.098100  1.0  0.0853
  H  H50  1  0.649300  0.545600  0.152100  1.0  0.1235
  H  H51  1  0.663000  0.811100  0.143900  1.0  0.1192
  H  H52  1  0.699300  0.786500  0.088900  1.0  0.0793
  H  H53  1  0.477100  0.545900  0.285500  1.0  0.0756
  H  H54  1  0.533100  0.630700  0.287100  1.0  0.125
  H  H55  1  0.540300  0.532800  0.167800  1.0  0.1242
  H  H56  1  0.483200  0.454400  0.170300  1.0  0.0728
  H  H57  1  0.678300  0.035800  0.290300  1.0  0.0817
  H  H58  1  0.668600  0.910100  0.248700  1.0  0.1076
  H  H59  1  0.568400  0.864700  0.295400  1.0  0.1106
  H  H60  1  0.577800  0.997000  0.331900  1.0  0.0823
  H  H61  1  0.715600  0.154700  0.435600  1.0  0.0731
  H  H62  1  0.755900  0.080000  0.491600  1.0  0.1125
  H  H63  1  0.694300  0.855600  0.453800  1.0  0.105
  H  H64  1  0.654400  0.938700  0.400700  1.0  0.0785
  H  H65  1  0.885400  0.905500  0.707800  1.0  0.0819
  H  H66  1  0.850200  0.829600  0.648600  1.0  0.1156
  H  H67  1  0.822500  0.061900  0.587000  1.0  0.1225
  H  H68  1  0.864700  0.128900  0.644500  1.0  0.0761
  H  H69  1  0.702600  0.524400  0.491900  1.0  0.1053
  H  H70  1  0.710900  0.673800  0.501100  1.0  0.0933
  H  H71  1  0.802100  0.634100  0.599100  1.0  0.1005
  H  H72  1  0.789700  0.485300  0.593100  1.0  0.091
  H  H73  1  0.187900  0.970200  0.598100  1.0  0.0855
  H  H74  1  0.149300  0.954400  0.652100  1.0  0.1232
  H  H75  1  0.163000  0.688900  0.643900  1.0  0.1191
  H  H76  1  0.199300  0.713500  0.588900  1.0  0.0792
  H  H77  1  0.977100  0.954100  0.785500  1.0  0.0758
  H  H78  1  0.033100  0.869300  0.787100  1.0  0.1248
  H  H79  1  0.040300  0.967200  0.667800  1.0  0.1243
  H  H80  1  0.983200  0.045600  0.670300  1.0  0.0731
  H  H81  1  0.178300  0.464200  0.790300  1.0  0.081
  H  H82  1  0.168600  0.589900  0.748700  1.0  0.1079
  H  H83  1  0.068400  0.635300  0.795400  1.0  0.1104
  H  H84  1  0.077800  0.503000  0.831900  1.0  0.0824
  H  H85  1  0.215600  0.345300  0.935600  1.0  0.0733
  H  H86  1  0.255900  0.420000  0.991600  1.0  0.1129
  H  H87  1  0.194300  0.644400  0.953800  1.0  0.1057
  H  H88  1  0.154400  0.561300  0.900700  1.0  0.0788
  H  H89  1  0.385400  0.594500  0.207800  1.0  0.0816
  H  H90  1  0.350200  0.670400  0.148600  1.0  0.1155
  H  H91  1  0.322500  0.438100  0.087000  1.0  0.1224
  H  H92  1  0.364700  0.371100  0.144500  1.0  0.0769
  H  H93  1  0.202600  0.975600  0.991900  1.0  0.1052
  H  H94  1  0.210900  0.826200  0.001100  1.0  0.0929
  H  H95  1  0.302100  0.865900  0.099100  1.0  0.1009
  H  H96  1  0.289700  0.014700  0.093100  1.0  0.0908
  H  H97  1  0.687900  0.470200  0.598100  1.0  0.0855
  H  H98  1  0.649300  0.454400  0.652100  1.0  0.1232
  H  H99  1  0.663000  0.188900  0.643900  1.0  0.1191
  H  H100  1  0.699300  0.213500  0.588900  1.0  0.0792
  H  H101  1  0.477100  0.454100  0.785500  1.0  0.0758
  H  H102  1  0.533100  0.369300  0.787100  1.0  0.1248
  H  H103  1  0.540300  0.467200  0.667800  1.0  0.1243
  H  H104  1  0.483200  0.545600  0.670300  1.0  0.0731
  H  H105  1  0.678300  0.964200  0.790300  1.0  0.081
  H  H106  1  0.668600  0.089900  0.748700  1.0  0.1079
  H  H107  1  0.568400  0.135300  0.795400  1.0  0.1104
  H  H108  1  0.577800  0.003000  0.831900  1.0  0.0824
  H  H109  1  0.715600  0.845300  0.935600  1.0  0.0733
  H  H110  1  0.755900  0.920000  0.991600  1.0  0.1129
  H  H111  1  0.694300  0.144400  0.953800  1.0  0.1044
  H  H112  1  0.654400  0.061300  0.900700  1.0  0.0788
  H  H113  1  0.885400  0.094500  0.207800  1.0  0.0816
  H  H114  1  0.850200  0.170400  0.148600  1.0  0.1155
  H  H115  1  0.822500  0.938100  0.087000  1.0  0.1224
  H  H116  1  0.864700  0.871100  0.144500  1.0  0.0769
  H  H117  1  0.702600  0.475600  0.991900  1.0  0.1052
  H  H118  1  0.710900  0.326200  0.001100  1.0  0.0929
  H  H119  1  0.802100  0.365900  0.099100  1.0  0.1009
  H  H120  1  0.789700  0.514700  0.093100  1.0  0.0908
  H  H121  1  0.385600  0.257000  0.412500  1.0  0.1108
  H  H122  1  0.429900  0.224200  0.364900  1.0  0.1176
  H  H123  1  0.497400  0.440900  0.408000  1.0  0.111
  H  H124  1  0.453200  0.460800  0.456900  1.0  0.0749
  H  H125  1  0.632900  0.575900  0.373600  1.0  0.1006
  H  H126  1  0.596300  0.447900  0.384400  1.0  0.0954
  H  H127  1  0.595200  0.365200  0.263400  1.0  0.1174
  H  H128  1  0.644700  0.469100  0.260400  1.0  0.0762
  H  H129  1  0.544400  0.032000  0.202200  1.0  0.077
  H  H130  1  0.551700  0.164200  0.239500  1.0  0.1283
  H  H131  1  0.462800  0.091000  0.300300  1.0  0.1173
  H  H132  1  0.460200  0.958300  0.263900  1.0  0.0774
  H  H133  1  0.452300  0.067800  0.159800  1.0  0.0699
  H  H134  1  0.421200  0.151400  0.099700  1.0  0.1093
  H  H135  1  0.364700  0.922500  0.053600  1.0  0.108
  H  H136  1  0.414600  0.849800  0.102000  1.0  0.072
  H  H137  1  0.327000  0.479500  0.936600  1.0  0.0646
  H  H138  1  0.331600  0.326800  0.927900  1.0  0.1185
  H  H139  1  0.396400  0.325200  0.052800  1.0  0.1088
  H  H140  1  0.408600  0.473400  0.042500  1.0  0.0772
  H  H141  1  0.258800  0.848800  0.903200  1.0  0.105
  H  H142  1  0.304300  0.921900  0.956900  1.0  0.1013
  H  H143  1  0.281300  0.138600  0.889400  1.0  0.1019
  H  H144  1  0.217500  0.082400  0.854800  1.0  0.0988
  H  H145  1  0.885600  0.757000  0.412500  1.0  0.1108
  H  H146  1  0.929900  0.724200  0.364900  1.0  0.1176
  H  H147  1  0.997400  0.940900  0.408000  1.0  0.111
  H  H148  1  0.953200  0.960800  0.456900  1.0  0.0749
  H  H149  1  0.132900  0.075900  0.373600  1.0  0.1006
  H  H150  1  0.096300  0.947900  0.384400  1.0  0.0954
  H  H151  1  0.095200  0.865200  0.263400  1.0  0.1174
  H  H152  1  0.144700  0.969100  0.260400  1.0  0.0762
  H  H153  1  0.044400  0.532000  0.202200  1.0  0.077
  H  H154  1  0.051700  0.664200  0.239500  1.0  0.1283
  H  H155  1  0.962800  0.591000  0.300300  1.0  0.1173
  H  H156  1  0.960200  0.458300  0.263900  1.0  0.0774
  H  H157  1  0.952300  0.567800  0.159800  1.0  0.0699
  H  H158  1  0.921200  0.651400  0.099700  1.0  0.11
  H  H159  1  0.864700  0.422500  0.053600  1.0  0.108
  H  H160  1  0.914600  0.349800  0.102000  1.0  0.072
  H  H161  1  0.827000  0.979500  0.936600  1.0  0.0646
  H  H162  1  0.831600  0.826800  0.927900  1.0  0.1185
  H  H163  1  0.896400  0.825200  0.052800  1.0  0.1092
  H  H164  1  0.908600  0.973400  0.042500  1.0  0.0772
  H  H165  1  0.758800  0.348800  0.903200  1.0  0.105
  H  H166  1  0.804300  0.421900  0.956900  1.0  0.1013
  H  H167  1  0.781300  0.638600  0.889400  1.0  0.1019
  H  H168  1  0.717500  0.582400  0.854800  1.0  0.0988
  H  H169  1  0.385600  0.743000  0.912500  1.0  0.1111
  H  H170  1  0.429900  0.775800  0.864900  1.0  0.1176
  H  H171  1  0.497400  0.559100  0.908000  1.0  0.111
  H  H172  1  0.453200  0.539200  0.956900  1.0  0.0758
  H  H173  1  0.632900  0.424100  0.873600  1.0  0.1006
  H  H174  1  0.596300  0.552100  0.884400  1.0  0.0952
  H  H175  1  0.595200  0.634800  0.763400  1.0  0.1174
  H  H176  1  0.644700  0.530900  0.760400  1.0  0.0766
  H  H177  1  0.544400  0.968000  0.702200  1.0  0.0769
  H  H178  1  0.551700  0.835800  0.739500  1.0  0.1281
  H  H179  1  0.462800  0.909000  0.800300  1.0  0.1172
  H  H180  1  0.460200  0.041700  0.763900  1.0  0.0778
  H  H181  1  0.452300  0.932200  0.659800  1.0  0.0706
  H  H182  1  0.421200  0.848600  0.599700  1.0  0.11
  H  H183  1  0.364700  0.077500  0.553600  1.0  0.1085
  H  H184  1  0.414600  0.150200  0.602000  1.0  0.0715
  H  H185  1  0.327000  0.520500  0.436600  1.0  0.0642
  H  H186  1  0.331600  0.673200  0.427900  1.0  0.1185
  H  H187  1  0.396400  0.674800  0.552800  1.0  0.1087
  H  H188  1  0.408600  0.526600  0.542500  1.0  0.0774
  H  H189  1  0.258800  0.151200  0.403200  1.0  0.1046
  H  H190  1  0.304300  0.078100  0.456900  1.0  0.1014
  H  H191  1  0.281300  0.861400  0.389400  1.0  0.1016
  H  H192  1  0.217500  0.917600  0.354800  1.0  0.0988
  H  H193  1  0.885600  0.243000  0.912500  1.0  0.1111
  H  H194  1  0.929900  0.275800  0.864900  1.0  0.1176
  H  H195  1  0.997400  0.059100  0.908000  1.0  0.111
  H  H196  1  0.953200  0.039200  0.956900  1.0  0.0758
  H  H197  1  0.132900  0.924100  0.873600  1.0  0.1006
  H  H198  1  0.096300  0.052100  0.884400  1.0  0.0952
  H  H199  1  0.095200  0.134800  0.763400  1.0  0.1174
  H  H200  1  0.144700  0.030900  0.760400  1.0  0.0766
  H  H201  1  0.044400  0.468000  0.702200  1.0  0.0769
  H  H202  1  0.051700  0.335800  0.739500  1.0  0.1281
  H  H203  1  0.962800  0.409000  0.800300  1.0  0.1172
  H  H204  1  0.960200  0.541700  0.763900  1.0  0.0778
  H  H205  1  0.952300  0.432200  0.659800  1.0  0.0706
  H  H206  1  0.921200  0.348600  0.599700  1.0  0.11
  H  H207  1  0.864700  0.577500  0.553600  1.0  0.1085
  H  H208  1  0.914600  0.650200  0.602000  1.0  0.0715
  H  H209  1  0.827000  0.020500  0.436600  1.0  0.0642
  H  H210  1  0.831600  0.173200  0.427900  1.0  0.1185
  H  H211  1  0.896400  0.174800  0.552800  1.0  0.1087
  H  H212  1  0.908600  0.026600  0.542500  1.0  0.0774
  H  H213  1  0.758800  0.651200  0.403200  1.0  0.1046
  H  H214  1  0.804300  0.578100  0.456900  1.0  0.1014
  H  H215  1  0.781300  0.361400  0.389400  1.0  0.1016
  H  H216  1  0.717500  0.417600  0.354800  1.0  0.0988
  C  C217  1  0.182600  0.088000  0.107600  1.0  0.1601
  C  C218  1  0.159800  0.096000  0.139700  1.0  -0.1507
  C  C219  1  0.153000  0.180000  0.153100  1.0  -0.069
  C  C220  1  0.167700  0.253000  0.134700  1.0  -0.1477
  C  C221  1  0.189500  0.237000  0.102500  1.0  0.1366
  C  C222  1  0.130500  0.192300  0.189400  1.0  0.3477
  C  C223  1  0.075700  0.156100  0.223200  1.0  0.3605
  C  C224  1  0.112100  0.287400  0.242600  1.0  0.3714
  C  C225  1  0.989900  0.043000  0.260700  1.0  0.1497
  C  C226  1  0.023300  0.095000  0.262100  1.0  -0.1978
  C  C227  1  0.042400  0.095000  0.226600  1.0  0.003
  C  C228  1  0.027400  0.038000  0.192400  1.0  -0.177
  C  C229  1  0.993500  0.991000  0.194800  1.0  0.1497
  C  C230  1  0.155100  0.501000  0.291000  1.0  0.1238
  C  C231  1  0.149600  0.426000  0.266400  1.0  -0.1399
  C  C232  1  0.117200  0.372000  0.267000  1.0  -0.0269
  C  C233  1  0.091100  0.400000  0.293000  1.0  -0.1488
  C  C234  1  0.097300  0.478000  0.315600  1.0  0.1379
  C  C235  1  0.210500  0.594000  0.439400  1.0  0.1268
  C  C236  1  0.234200  0.550700  0.473200  1.0  -0.1703
  C  C237  1  0.225900  0.464100  0.479900  1.0  -0.0791
  C  C238  1  0.198000  0.417500  0.451500  1.0  -0.1034
  C  C239  1  0.175800  0.467900  0.419500  1.0  0.1514
  C  C240  1  0.245200  0.410600  0.517600  1.0  0.2514
  C  C241  1  0.298700  0.399000  0.579300  1.0  0.2541
  C  C242  1  0.266300  0.268900  0.546800  1.0  0.2562
  C  C243  1  0.373500  0.437600  0.682400  1.0  0.1344
  C  C244  1  0.351300  0.392000  0.648000  1.0  -0.1665
  C  C245  1  0.330700  0.438000  0.612600  1.0  -0.0497
  C  C246  1  0.335700  0.527900  0.611200  1.0  -0.1985
  C  C247  1  0.360600  0.567000  0.646000  1.0  0.1554
  C  C248  1  0.223300  0.046500  0.514200  1.0  0.0931
  C  C249  1  0.229300  0.135000  0.518900  1.0  -0.1136
  C  C250  1  0.260100  0.172500  0.547900  1.0  0.0157
  C  C251  1  0.281600  0.113100  0.576200  1.0  -0.1148
  C  C252  1  0.274400  0.024200  0.572500  1.0  0.1213
  C  C253  1  0.682600  0.588000  0.107600  1.0  0.1601
  C  C254  1  0.659800  0.596000  0.139700  1.0  -0.1507
  C  C255  1  0.653000  0.680000  0.153100  1.0  -0.069
  C  C256  1  0.667700  0.753000  0.134700  1.0  -0.1477
  C  C257  1  0.689500  0.737000  0.102500  1.0  0.1366
  C  C258  1  0.630500  0.692300  0.189400  1.0  0.3477
  C  C259  1  0.575700  0.656100  0.223200  1.0  0.3605
  C  C260  1  0.612100  0.787400  0.242600  1.0  0.3714
  C  C261  1  0.489900  0.543000  0.260700  1.0  0.1497
  C  C262  1  0.523300  0.595000  0.262100  1.0  -0.1978
  C  C263  1  0.542400  0.595000  0.226600  1.0  0.003
  C  C264  1  0.527400  0.538000  0.192400  1.0  -0.177
  C  C265  1  0.493500  0.491000  0.194800  1.0  0.1497
  C  C266  1  0.655100  0.001000  0.291000  1.0  0.1238
  C  C267  1  0.649600  0.926000  0.266400  1.0  -0.1399
  C  C268  1  0.617200  0.872000  0.267000  1.0  -0.0269
  C  C269  1  0.591100  0.900000  0.293000  1.0  -0.1488
  C  C270  1  0.597300  0.978000  0.315600  1.0  0.1379
  C  C271  1  0.710500  0.094000  0.439400  1.0  0.1268
  C  C272  1  0.734200  0.050700  0.473200  1.0  -0.1703
  C  C273  1  0.725900  0.964100  0.479900  1.0  -0.0791
  C  C274  1  0.698000  0.917500  0.451500  1.0  -0.1034
  C  C275  1  0.675800  0.967900  0.419500  1.0  0.1514
  C  C276  1  0.745200  0.910600  0.517600  1.0  0.2514
  C  C277  1  0.798700  0.899000  0.579300  1.0  0.2541
  C  C278  1  0.766300  0.768900  0.546800  1.0  0.2562
  C  C279  1  0.873500  0.937600  0.682400  1.0  0.1344
  C  C280  1  0.851300  0.892000  0.648000  1.0  -0.1665
  C  C281  1  0.830700  0.938000  0.612600  1.0  -0.0497
  C  C282  1  0.835700  0.027900  0.611200  1.0  -0.1985
  C  C283  1  0.860600  0.067000  0.646000  1.0  0.1554
  C  C284  1  0.723300  0.546500  0.514200  1.0  0.0931
  C  C285  1  0.729300  0.635000  0.518900  1.0  -0.1136
  C  C286  1  0.760100  0.672500  0.547900  1.0  0.0157
  C  C287  1  0.781600  0.613100  0.576200  1.0  -0.1148
  C  C288  1  0.774400  0.524200  0.572500  1.0  0.1213
  C  C289  1  0.182600  0.912000  0.607600  1.0  0.1598
  C  C290  1  0.159800  0.904000  0.639700  1.0  -0.1527
  C  C291  1  0.153000  0.820000  0.653100  1.0  -0.069
  C  C292  1  0.167700  0.747000  0.634700  1.0  -0.1482
  C  C293  1  0.189500  0.763000  0.602500  1.0  0.1362
  C  C294  1  0.130500  0.807700  0.689400  1.0  0.3477
  C  C295  1  0.075700  0.843900  0.723200  1.0  0.3604
  C  C296  1  0.112100  0.712600  0.742600  1.0  0.3717
  C  C297  1  0.989900  0.957000  0.760700  1.0  0.1501
  C  C298  1  0.023300  0.905000  0.762100  1.0  -0.1975
  C  C299  1  0.042400  0.905000  0.726600  1.0  0.0025
  C  C300  1  0.027400  0.962000  0.692400  1.0  -0.1762
  C  C301  1  0.993500  0.009000  0.694800  1.0  0.149
  C  C302  1  0.155100  0.499000  0.791000  1.0  0.1209
  C  C303  1  0.149600  0.574000  0.766400  1.0  -0.1405
  C  C304  1  0.117200  0.628000  0.767000  1.0  -0.028
  C  C305  1  0.091100  0.600000  0.793000  1.0  -0.1515
  C  C306  1  0.097300  0.522000  0.815600  1.0  0.1381
  C  C307  1  0.210500  0.406000  0.939400  1.0  0.1264
  C  C308  1  0.234200  0.449300  0.973200  1.0  -0.1682
  C  C309  1  0.225900  0.535900  0.979900  1.0  -0.0792
  C  C310  1  0.198000  0.582500  0.951500  1.0  -0.1048
  C  C311  1  0.175800  0.532100  0.919500  1.0  0.152
  C  C312  1  0.245200  0.589400  0.017600  1.0  0.2518
  C  C313  1  0.298700  0.601000  0.079300  1.0  0.2543
  C  C314  1  0.266300  0.731100  0.046800  1.0  0.2559
  C  C315  1  0.373500  0.562400  0.182400  1.0  0.1333
  C  C316  1  0.351300  0.608000  0.148000  1.0  -0.166
  C  C317  1  0.330700  0.562000  0.112600  1.0  -0.049
  C  C318  1  0.335700  0.472100  0.111200  1.0  -0.1991
  C  C319  1  0.360600  0.433000  0.146000  1.0  0.1548
  C  C320  1  0.223300  0.953500  0.014200  1.0  0.0934
  C  C321  1  0.229300  0.865000  0.018900  1.0  -0.1132
  C  C322  1  0.260100  0.827500  0.047900  1.0  0.0163
  C  C323  1  0.281600  0.886900  0.076200  1.0  -0.1142
  C  C324  1  0.274400  0.975800  0.072500  1.0  0.1196
  C  C325  1  0.682600  0.412000  0.607600  1.0  0.1598
  C  C326  1  0.659800  0.404000  0.639700  1.0  -0.1527
  C  C327  1  0.653000  0.320000  0.653100  1.0  -0.069
  C  C328  1  0.667700  0.247000  0.634700  1.0  -0.1482
  C  C329  1  0.689500  0.263000  0.602500  1.0  0.1362
  C  C330  1  0.630500  0.307700  0.689400  1.0  0.3477
  C  C331  1  0.575700  0.343900  0.723200  1.0  0.3604
  C  C332  1  0.612100  0.212600  0.742600  1.0  0.3717
  C  C333  1  0.489900  0.457000  0.760700  1.0  0.1501
  C  C334  1  0.523300  0.405000  0.762100  1.0  -0.1975
  C  C335  1  0.542400  0.405000  0.726600  1.0  0.0025
  C  C336  1  0.527400  0.462000  0.692400  1.0  -0.1762
  C  C337  1  0.493500  0.509000  0.694800  1.0  0.149
  C  C338  1  0.655100  0.999000  0.791000  1.0  0.1209
  C  C339  1  0.649600  0.074000  0.766400  1.0  -0.1405
  C  C340  1  0.617200  0.128000  0.767000  1.0  -0.028
  C  C341  1  0.591100  0.100000  0.793000  1.0  -0.1515
  C  C342  1  0.597300  0.022000  0.815600  1.0  0.1381
  C  C343  1  0.710500  0.906000  0.939400  1.0  0.1264
  C  C344  1  0.734200  0.949300  0.973200  1.0  -0.1682
  C  C345  1  0.725900  0.035900  0.979900  1.0  -0.0792
  C  C346  1  0.698000  0.082500  0.951500  1.0  -0.1048
  C  C347  1  0.675800  0.032100  0.919500  1.0  0.152
  C  C348  1  0.745200  0.089400  0.017600  1.0  0.2518
  C  C349  1  0.798700  0.101000  0.079300  1.0  0.2543
  C  C350  1  0.766300  0.231100  0.046800  1.0  0.2559
  C  C351  1  0.873500  0.062400  0.182400  1.0  0.1333
  C  C352  1  0.851300  0.108000  0.148000  1.0  -0.166
  C  C353  1  0.830700  0.062000  0.112600  1.0  -0.049
  C  C354  1  0.835700  0.972100  0.111200  1.0  -0.1991
  C  C355  1  0.860600  0.933000  0.146000  1.0  0.1548
  C  C356  1  0.723300  0.453500  0.014200  1.0  0.0934
  C  C357  1  0.729300  0.365000  0.018900  1.0  -0.1132
  C  C358  1  0.760100  0.327500  0.047900  1.0  0.0163
  C  C359  1  0.781600  0.386900  0.076200  1.0  -0.1142
  C  C360  1  0.774400  0.475800  0.072500  1.0  0.1196
  C  C361  1  0.408600  0.293000  0.412000  1.0  0.1319
  C  C362  1  0.434300  0.274000  0.384100  1.0  -0.1007
  C  C363  1  0.466300  0.328000  0.384600  1.0  -0.0069
  C  C364  1  0.475600  0.402000  0.409500  1.0  -0.1145
  C  C365  1  0.448700  0.412600  0.436900  1.0  0.1476
  C  C366  1  0.493600  0.312300  0.353400  1.0  0.4314
  C  C367  1  0.513300  0.221800  0.300400  1.0  0.4254
  C  C368  1  0.548000  0.352500  0.321500  1.0  0.4322
  C  C369  1  0.628100  0.529000  0.353000  1.0  0.1247
  C  C370  1  0.601600  0.462000  0.356100  1.0  -0.1047
  C  C371  1  0.582200  0.412000  0.320500  1.0  -0.0148
  C  C372  1  0.602200  0.408000  0.286100  1.0  -0.1727
  C  C373  1  0.632600  0.467000  0.285800  1.0  0.1464
  C  C374  1  0.527300  0.043600  0.222600  1.0  0.1531
  C  C375  1  0.532600  0.122000  0.245200  1.0  -0.1917
  C  C376  1  0.509400  0.137400  0.276200  1.0  -0.0569
  C  C377  1  0.481000  0.079100  0.281100  1.0  -0.1737
  C  C378  1  0.478600  0.001600  0.257700  1.0  0.1549
  C  C379  1  0.437600  0.037600  0.135000  1.0  0.1693
  C  C380  1  0.418100  0.089100  0.101200  1.0  -0.1022
  C  C381  1  0.393500  0.040500  0.069900  1.0  0.0049
  C  C382  1  0.386200  0.952300  0.072000  1.0  -0.1336
  C  C383  1  0.413300  0.912400  0.103600  1.0  0.1551
  C  C384  1  0.368500  0.083100  0.031800  1.0  0.3271
  C  C385  1  0.358600  0.216000  0.990800  1.0  0.0548
  C  C386  1  0.316600  0.092700  0.969200  1.0  0.3455
  C  C387  1  0.345400  0.447000  0.957500  1.0  0.1341
  C  C388  1  0.344100  0.357000  0.953800  1.0  -0.1271
  C  C389  1  0.362600  0.313200  0.991000  1.0  -0.0775
  C  C390  1  0.385100  0.355200  0.026500  1.0  -0.15
  C  C391  1  0.389700  0.443800  0.020800  1.0  0.1463
  C  C392  1  0.260300  0.912000  0.903700  1.0  0.1087
  C  C393  1  0.287800  0.955000  0.934500  1.0  -0.1186
  C  C394  1  0.291800  0.041000  0.933900  1.0  0.0653
  C  C395  1  0.271700  0.083000  0.897500  1.0  -0.0709
  C  C396  1  0.237800  0.048000  0.872200  1.0  0.1117
  C  C397  1  0.908600  0.793000  0.412000  1.0  0.1319
  C  C398  1  0.934300  0.774000  0.384100  1.0  -0.1007
  C  C399  1  0.966300  0.828000  0.384600  1.0  -0.0069
  C  C400  1  0.975600  0.902000  0.409500  1.0  -0.1145
  C  C401  1  0.948700  0.912600  0.436900  1.0  0.1476
  C  C402  1  0.993600  0.812300  0.353400  1.0  0.4314
  C  C403  1  0.013300  0.721800  0.300400  1.0  0.4254
  C  C404  1  0.048000  0.852500  0.321500  1.0  0.4322
  C  C405  1  0.128100  0.029000  0.353000  1.0  0.1247
  C  C406  1  0.101600  0.962000  0.356100  1.0  -0.1047
  C  C407  1  0.082200  0.912000  0.320500  1.0  -0.0148
  C  C408  1  0.102200  0.908000  0.286100  1.0  -0.1727
  C  C409  1  0.132600  0.967000  0.285800  1.0  0.1464
  C  C410  1  0.027300  0.543600  0.222600  1.0  0.1531
  C  C411  1  0.032600  0.622000  0.245200  1.0  -0.1917
  C  C412  1  0.009400  0.637400  0.276200  1.0  -0.0569
  C  C413  1  0.981000  0.579100  0.281100  1.0  -0.1737
  C  C414  1  0.978600  0.501600  0.257700  1.0  0.1549
  C  C415  1  0.937600  0.537600  0.135000  1.0  0.1693
  C  C416  1  0.918100  0.589100  0.101200  1.0  -0.1022
  C  C417  1  0.893500  0.540500  0.069900  1.0  0.0049
  C  C418  1  0.886200  0.452300  0.072000  1.0  -0.1336
  C  C419  1  0.913300  0.412400  0.103600  1.0  0.1551
  C  C420  1  0.868500  0.583100  0.031800  1.0  0.3271
  C  C421  1  0.858600  0.716000  0.990800  1.0  0.0548
  C  C422  1  0.816600  0.592700  0.969200  1.0  0.3455
  C  C423  1  0.845400  0.947000  0.957500  1.0  0.1341
  C  C424  1  0.844100  0.857000  0.953800  1.0  -0.1271
  C  C425  1  0.862600  0.813200  0.991000  1.0  -0.0775
  C  C426  1  0.885100  0.855200  0.026500  1.0  -0.15
  C  C427  1  0.889700  0.943800  0.020800  1.0  0.1463
  C  C428  1  0.760300  0.412000  0.903700  1.0  0.1087
  C  C429  1  0.787800  0.455000  0.934500  1.0  -0.1186
  C  C430  1  0.791800  0.541000  0.933900  1.0  0.0653
  C  C431  1  0.771700  0.583000  0.897500  1.0  -0.0709
  C  C432  1  0.737800  0.548000  0.872200  1.0  0.1117
  C  C433  1  0.408600  0.707000  0.912000  1.0  0.1311
  C  C434  1  0.434300  0.726000  0.884100  1.0  -0.1016
  C  C435  1  0.466300  0.672000  0.884600  1.0  -0.0071
  C  C436  1  0.475600  0.598000  0.909500  1.0  -0.1136
  C  C437  1  0.448700  0.587400  0.936900  1.0  0.148
  C  C438  1  0.493600  0.687700  0.853400  1.0  0.4316
  C  C439  1  0.513300  0.778200  0.800400  1.0  0.4249
  C  C440  1  0.548000  0.647500  0.821500  1.0  0.4327
  C  C441  1  0.628100  0.471000  0.853000  1.0  0.1252
  C  C442  1  0.601600  0.538000  0.856100  1.0  -0.1052
  C  C443  1  0.582200  0.588000  0.820500  1.0  -0.0142
  C  C444  1  0.602200  0.592000  0.786100  1.0  -0.1729
  C  C445  1  0.632600  0.533000  0.785800  1.0  0.1454
  C  C446  1  0.527300  0.956400  0.722600  1.0  0.1533
  C  C447  1  0.532600  0.878000  0.745200  1.0  -0.1928
  C  C448  1  0.509400  0.862600  0.776200  1.0  -0.0564
  C  C449  1  0.481000  0.920900  0.781100  1.0  -0.1738
  C  C450  1  0.478600  0.998400  0.757700  1.0  0.1545
  C  C451  1  0.437600  0.962400  0.635000  1.0  0.1696
  C  C452  1  0.418100  0.910900  0.601200  1.0  -0.1029
  C  C453  1  0.393500  0.959500  0.569900  1.0  0.0052
  C  C454  1  0.386200  0.047700  0.572000  1.0  -0.1332
  C  C455  1  0.413300  0.087600  0.603600  1.0  0.1565
  C  C456  1  0.368500  0.916900  0.531800  1.0  0.3272
  C  C457  1  0.358600  0.784000  0.490800  1.0  0.0547
  C  C458  1  0.316600  0.907300  0.469200  1.0  0.3459
  C  C459  1  0.345400  0.553000  0.457500  1.0  0.1342
  C  C460  1  0.344100  0.643000  0.453800  1.0  -0.1276
  C  C461  1  0.362600  0.686800  0.491000  1.0  -0.0777
  C  C462  1  0.385100  0.644800  0.526500  1.0  -0.1506
  C  C463  1  0.389700  0.556200  0.520800  1.0  0.1465
  C  C464  1  0.260300  0.088000  0.403700  1.0  0.1104
  C  C465  1  0.287800  0.045000  0.434500  1.0  -0.1198
  C  C466  1  0.291800  0.959000  0.433900  1.0  0.0657
  C  C467  1  0.271700  0.917000  0.397500  1.0  -0.0712
  C  C468  1  0.237800  0.952000  0.372200  1.0  0.112
  C  C469  1  0.908600  0.207000  0.912000  1.0  0.1311
  C  C470  1  0.934300  0.226000  0.884100  1.0  -0.1016
  C  C471  1  0.966300  0.172000  0.884600  1.0  -0.0071
  C  C472  1  0.975600  0.098000  0.909500  1.0  -0.1136
  C  C473  1  0.948700  0.087400  0.936900  1.0  0.148
  C  C474  1  0.993600  0.187700  0.853400  1.0  0.4316
  C  C475  1  0.013300  0.278200  0.800400  1.0  0.4249
  C  C476  1  0.048000  0.147500  0.821500  1.0  0.4327
  C  C477  1  0.128100  0.971000  0.853000  1.0  0.1252
  C  C478  1  0.101600  0.038000  0.856100  1.0  -0.1052
  C  C479  1  0.082200  0.088000  0.820500  1.0  -0.0142
  C  C480  1  0.102200  0.092000  0.786100  1.0  -0.1729
  C  C481  1  0.132600  0.033000  0.785800  1.0  0.1454
  C  C482  1  0.027300  0.456400  0.722600  1.0  0.1533
  C  C483  1  0.032600  0.378000  0.745200  1.0  -0.1928
  C  C484  1  0.009400  0.362600  0.776200  1.0  -0.0564
  C  C485  1  0.981000  0.420900  0.781100  1.0  -0.1738
  C  C486  1  0.978600  0.498400  0.757700  1.0  0.1545
  C  C487  1  0.937600  0.462400  0.635000  1.0  0.1696
  C  C488  1  0.918100  0.410900  0.601200  1.0  -0.1029
  C  C489  1  0.893500  0.459500  0.569900  1.0  0.0052
  C  C490  1  0.886200  0.547700  0.572000  1.0  -0.1332
  C  C491  1  0.913300  0.587600  0.603600  1.0  0.1565
  C  C492  1  0.868500  0.416900  0.531800  1.0  0.3272
  C  C493  1  0.858600  0.284000  0.490800  1.0  0.0547
  C  C494  1  0.816600  0.407300  0.469200  1.0  0.3459
  C  C495  1  0.845400  0.053000  0.457500  1.0  0.1342
  C  C496  1  0.844100  0.143000  0.453800  1.0  -0.1276
  C  C497  1  0.862600  0.186800  0.491000  1.0  -0.0777
  C  C498  1  0.885100  0.144800  0.526500  1.0  -0.1506
  C  C499  1  0.889700  0.056200  0.520800  1.0  0.1465
  C  C500  1  0.760300  0.588000  0.403700  1.0  0.1104
  C  C501  1  0.787800  0.545000  0.434500  1.0  -0.1198
  C  C502  1  0.791800  0.459000  0.433900  1.0  0.0657
  C  C503  1  0.771700  0.417000  0.397500  1.0  -0.0712
  C  C504  1  0.737800  0.452000  0.372200  1.0  0.112
  I  I505  1  0.291560  0.240300  0.062930  1.0  -0.5018
  I  I506  1  0.183770  0.167200  0.963600  1.0  -0.4353
  I  I507  1  0.933900  0.763000  0.201000  1.0  -0.4526
  I  I508  1  0.885700  0.947700  0.299700  1.0  -0.3211
  I  I509  1  0.185770  0.737500  0.328490  1.0  -0.425
  I  I510  1  0.083660  0.659700  0.398500  1.0  -0.3557
  I  I511  1  0.791560  0.740300  0.062930  1.0  -0.5018
  I  I512  1  0.683770  0.667200  0.963600  1.0  -0.4353
  I  I513  1  0.433900  0.263000  0.201000  1.0  -0.4526
  I  I514  1  0.385700  0.447700  0.299700  1.0  -0.3211
  I  I515  1  0.685770  0.237500  0.328490  1.0  -0.425
  I  I516  1  0.583660  0.159700  0.398500  1.0  -0.3557
  I  I517  1  0.291560  0.759700  0.562930  1.0  -0.5024
  I  I518  1  0.183770  0.832800  0.463600  1.0  -0.4349
  I  I519  1  0.933900  0.237000  0.701000  1.0  -0.4526
  I  I520  1  0.885700  0.052300  0.799700  1.0  -0.3214
  I  I521  1  0.185770  0.262500  0.828490  1.0  -0.4248
  I  I522  1  0.083660  0.340300  0.898500  1.0  -0.36
  I  I523  1  0.791560  0.259700  0.562930  1.0  -0.5024
  I  I524  1  0.683770  0.332800  0.463600  1.0  -0.4349
  I  I525  1  0.433900  0.737000  0.701000  1.0  -0.4526
  I  I526  1  0.385700  0.552300  0.799700  1.0  -0.3214
  I  I527  1  0.685770  0.762500  0.828490  1.0  -0.4248
  I  I528  1  0.583660  0.840300  0.898500  1.0  -0.3555
  I  I529  1  0.311980  0.306500  0.447800  1.0  -0.4208
  I  I530  1  0.420100  0.327100  0.562090  1.0  -0.4129
  I  I531  1  0.720810  0.585400  0.252880  1.0  -0.3127
  I  I532  1  0.681030  0.748200  0.356390  1.0  -0.446
  I  I533  1  0.539150  0.851700  0.142990  1.0  -0.3371
  I  I534  1  0.442400  0.767200  0.219500  1.0  -0.3679
  I  I535  1  0.811980  0.806500  0.447800  1.0  -0.4208
  I  I536  1  0.920100  0.827100  0.562090  1.0  -0.4129
  I  I537  1  0.220810  0.085400  0.252880  1.0  -0.3127
  I  I538  1  0.181030  0.248200  0.356390  1.0  -0.446
  I  I539  1  0.039150  0.351700  0.142990  1.0  -0.3371
  I  I540  1  0.942400  0.267200  0.219500  1.0  -0.3679
  I  I541  1  0.311980  0.693500  0.947800  1.0  -0.4208
  I  I542  1  0.420100  0.672900  0.062090  1.0  -0.413
  I  I543  1  0.720810  0.414600  0.752880  1.0  -0.3126
  I  I544  1  0.681030  0.251800  0.856390  1.0  -0.4463
  I  I545  1  0.539150  0.148300  0.642990  1.0  -0.3369
  I  I546  1  0.442400  0.232800  0.719500  1.0  -0.3678
  I  I547  1  0.811980  0.193500  0.947800  1.0  -0.4208
  I  I548  1  0.920100  0.172900  0.062090  1.0  -0.413
  I  I549  1  0.220810  0.914600  0.752880  1.0  -0.3126
  I  I550  1  0.181030  0.751800  0.856390  1.0  -0.4463
  I  I551  1  0.039150  0.648300  0.642990  1.0  -0.3369
  I  I552  1  0.942400  0.732800  0.719500  1.0  -0.3678
  N  N553  1  0.197700  0.156100  0.088900  1.0  -0.3388
  N  N554  1  0.100100  0.136400  0.194200  1.0  -0.393
  N  N555  1  0.081700  0.231600  0.247400  1.0  -0.3927
  N  N556  1  0.136500  0.267800  0.213700  1.0  -0.3999
  N  N557  1  0.973500  0.990000  0.228000  1.0  -0.2844
  N  N558  1  0.129500  0.528000  0.315800  1.0  -0.3128
  N  N559  1  0.180700  0.555900  0.411400  1.0  -0.338
  N  N560  1  0.273800  0.450100  0.549000  1.0  -0.3984
  N  N561  1  0.294900  0.308400  0.578200  1.0  -0.3856
  N  N562  1  0.241400  0.320000  0.516500  1.0  -0.4527
  N  N563  1  0.379200  0.524700  0.681800  1.0  -0.3168
  N  N564  1  0.246600  0.990800  0.540800  1.0  -0.3028
  N  N565  1  0.697700  0.656100  0.088900  1.0  -0.3388
  N  N566  1  0.600100  0.636400  0.194200  1.0  -0.393
  N  N567  1  0.581700  0.731600  0.247400  1.0  -0.3927
  N  N568  1  0.636500  0.767800  0.213700  1.0  -0.3999
  N  N569  1  0.473500  0.490000  0.228000  1.0  -0.2844
  N  N570  1  0.629500  0.028000  0.315800  1.0  -0.3128
  N  N571  1  0.680700  0.055900  0.411400  1.0  -0.338
  N  N572  1  0.773800  0.950100  0.549000  1.0  -0.3984
  N  N573  1  0.794900  0.808400  0.578200  1.0  -0.3856
  N  N574  1  0.741400  0.820000  0.516500  1.0  -0.4527
  N  N575  1  0.879200  0.024700  0.681800  1.0  -0.3168
  N  N576  1  0.746600  0.490800  0.540800  1.0  -0.3028
  N  N577  1  0.197700  0.843900  0.588900  1.0  -0.3387
  N  N578  1  0.100100  0.863600  0.694200  1.0  -0.3945
  N  N579  1  0.081700  0.768400  0.747400  1.0  -0.3929
  N  N580  1  0.136500  0.732200  0.713700  1.0  -0.4002
  N  N581  1  0.973500  0.010000  0.728000  1.0  -0.2835
  N  N582  1  0.129500  0.472000  0.815800  1.0  -0.3116
  N  N583  1  0.180700  0.444100  0.911400  1.0  -0.3385
  N  N584  1  0.273800  0.549900  0.049000  1.0  -0.3985
  N  N585  1  0.294900  0.691600  0.078200  1.0  -0.387
  N  N586  1  0.241400  0.680000  0.016500  1.0  -0.4524
  N  N587  1  0.379200  0.475300  0.181800  1.0  -0.3151
  N  N588  1  0.246600  0.009200  0.040800  1.0  -0.3012
  N  N589  1  0.697700  0.343900  0.588900  1.0  -0.3387
  N  N590  1  0.600100  0.363600  0.694200  1.0  -0.3945
  N  N591  1  0.581700  0.268400  0.747400  1.0  -0.3929
  N  N592  1  0.636500  0.232200  0.713700  1.0  -0.4002
  N  N593  1  0.473500  0.510000  0.728000  1.0  -0.2835
  N  N594  1  0.629500  0.972000  0.815800  1.0  -0.3116
  N  N595  1  0.680700  0.944100  0.911400  1.0  -0.3385
  N  N596  1  0.773800  0.049900  0.049000  1.0  -0.3985
  N  N597  1  0.794900  0.191600  0.078200  1.0  -0.387
  N  N598  1  0.741400  0.180000  0.016500  1.0  -0.4524
  N  N599  1  0.879200  0.975300  0.181800  1.0  -0.3151
  N  N600  1  0.746600  0.509200  0.040800  1.0  -0.3012
  N  N601  1  0.416700  0.361900  0.438500  1.0  -0.3119
  N  N602  1  0.488600  0.238600  0.328700  1.0  -0.4338
  N  N603  1  0.543000  0.278700  0.296800  1.0  -0.44
  N  N604  1  0.523200  0.369200  0.349800  1.0  -0.4078
  N  N605  1  0.646400  0.523000  0.318500  1.0  -0.3161
  N  N606  1  0.500000  0.982300  0.227000  1.0  -0.3249
  N  N607  1  0.438200  0.949900  0.136500  1.0  -0.3089
  N  N608  1  0.379200  0.168500  0.025400  1.0  -0.3954
  N  N609  1  0.327300  0.178100  0.962700  1.0  -0.2853
  N  N610  1  0.337200  0.045200  0.003700  1.0  -0.4285
  N  N611  1  0.370200  0.493000  0.987800  1.0  -0.3172
  N  N612  1  0.235800  0.960100  0.874300  1.0  -0.2877
  N  N613  1  0.916700  0.861900  0.438500  1.0  -0.3119
  N  N614  1  0.988600  0.738600  0.328700  1.0  -0.4338
  N  N615  1  0.043000  0.778700  0.296800  1.0  -0.44
  N  N616  1  0.023200  0.869200  0.349800  1.0  -0.4078
  N  N617  1  0.146400  0.023000  0.318500  1.0  -0.3161
  N  N618  1  0.000000  0.482300  0.227000  1.0  -0.3249
  N  N619  1  0.938200  0.449900  0.136500  1.0  -0.3089
  N  N620  1  0.879200  0.668500  0.025400  1.0  -0.3939
  N  N621  1  0.827300  0.678100  0.962700  1.0  -0.2853
  N  N622  1  0.837200  0.545200  0.003700  1.0  -0.4285
  N  N623  1  0.870200  0.993000  0.987800  1.0  -0.3172
  N  N624  1  0.735800  0.460100  0.874300  1.0  -0.2877
  N  N625  1  0.416700  0.638100  0.938500  1.0  -0.312
  N  N626  1  0.488600  0.761400  0.828700  1.0  -0.4341
  N  N627  1  0.543000  0.721300  0.796800  1.0  -0.4397
  N  N628  1  0.523200  0.630800  0.849800  1.0  -0.407
  N  N629  1  0.646400  0.477000  0.818500  1.0  -0.3151
  N  N630  1  0.500000  0.017700  0.727000  1.0  -0.3245
  N  N631  1  0.438200  0.050100  0.636500  1.0  -0.3107
  N  N632  1  0.379200  0.831500  0.525400  1.0  -0.3952
  N  N633  1  0.327300  0.821900  0.462700  1.0  -0.2856
  N  N634  1  0.337200  0.954800  0.503700  1.0  -0.4284
  N  N635  1  0.370200  0.507000  0.487800  1.0  -0.316
  N  N636  1  0.235800  0.039900  0.374300  1.0  -0.2871
  N  N637  1  0.916700  0.138100  0.938500  1.0  -0.312
  N  N638  1  0.988600  0.261400  0.828700  1.0  -0.4341
  N  N639  1  0.043000  0.221300  0.796800  1.0  -0.4397
  N  N640  1  0.023200  0.130800  0.849800  1.0  -0.407
  N  N641  1  0.146400  0.977000  0.818500  1.0  -0.3151
  N  N642  1  0.000000  0.517700  0.727000  1.0  -0.3245
  N  N643  1  0.938200  0.550100  0.636500  1.0  -0.3107
  N  N644  1  0.879200  0.331500  0.525400  1.0  -0.3952
  N  N645  1  0.827300  0.321900  0.462700  1.0  -0.2856
  N  N646  1  0.837200  0.454800  0.503700  1.0  -0.4284
  N  N647  1  0.870200  0.007000  0.487800  1.0  -0.316
  N  N648  1  0.735800  0.539900  0.374300  1.0  -0.2871
