# generated using pymatgen
data_CeH4(C3O4)2
_symmetry_space_group_name_H-M   'P 1'
_cell_length_a   10.20240000
_cell_length_b   10.20240000
_cell_length_c   31.08180000
_cell_angle_alpha   90.00000000
_cell_angle_beta   90.00000000
_cell_angle_gamma   120.00000000
_symmetry_Int_Tables_number   1
_chemical_formula_structural   CeH4(C3O4)2
_chemical_formula_sum   'Ce9 H36 C54 O72'
_cell_volume   2801.82810038
_cell_formula_units_Z   9
loop_
 _symmetry_equiv_pos_site_id
 _symmetry_equiv_pos_as_xyz
  1  'x, y, z'
loop_
 _atom_site_type_symbol
 _atom_site_label
 _atom_site_symmetry_multiplicity
 _atom_site_fract_x
 _atom_site_fract_y
 _atom_site_fract_z
 _atom_site_occupancy
 _atom_site_charge
  Ce  Ce1  1  0.666667  0.333333  0.333333  1.0  2.1808
  Ce  Ce2  1  0.333333  0.666667  0.666667  1.0  2.1808
  Ce  Ce3  1  0.000000  0.000000  0.000000  1.0  2.1808
  Ce  Ce4  1  0.666667  0.333333  0.201430  1.0  2.2062
  Ce  Ce5  1  0.333333  0.666667  0.534760  1.0  2.2063
  Ce  Ce6  1  0.000000  0.000000  0.868100  1.0  2.2063
  Ce  Ce7  1  0.333333  0.666667  0.798570  1.0  2.2061
  Ce  Ce8  1  0.000000  0.000000  0.131900  1.0  2.206
  Ce  Ce9  1  0.666667  0.333333  0.465240  1.0  2.2062
  H  H10  1  0.165900  0.115700  0.264200  1.0  0.1469
  H  H11  1  0.222400  0.019600  0.239200  1.0  0.1721
  H  H12  1  0.832570  0.449030  0.597530  1.0  0.1436
  H  H13  1  0.889070  0.352930  0.572530  1.0  0.1721
  H  H14  1  0.499230  0.782370  0.930870  1.0  0.1469
  H  H15  1  0.555730  0.686270  0.905870  1.0  0.1683
  H  H16  1  0.884300  0.050200  0.264200  1.0  0.1456
  H  H17  1  0.980400  0.202800  0.239200  1.0  0.167
  H  H18  1  0.550970  0.383530  0.597530  1.0  0.1479
  H  H19  1  0.647070  0.536130  0.572530  1.0  0.167
  H  H20  1  0.217630  0.716870  0.930870  1.0  0.1456
  H  H21  1  0.313730  0.869470  0.905870  1.0  0.1724
  H  H22  1  0.949800  0.834100  0.264200  1.0  0.1488
  H  H23  1  0.797200  0.777600  0.239200  1.0  0.167
  H  H24  1  0.616470  0.167430  0.597530  1.0  0.1448
  H  H25  1  0.463870  0.110930  0.572530  1.0  0.1669
  H  H26  1  0.283130  0.500770  0.930870  1.0  0.1488
  H  H27  1  0.130530  0.444270  0.905870  1.0  0.1707
  H  H28  1  0.834100  0.884300  0.735800  1.0  0.1464
  H  H29  1  0.777600  0.980400  0.760800  1.0  0.1715
  H  H30  1  0.500770  0.217630  0.069130  1.0  0.1464
  H  H31  1  0.444270  0.313730  0.094130  1.0  0.1678
  H  H32  1  0.167430  0.550970  0.402470  1.0  0.1431
  H  H33  1  0.110930  0.647070  0.427470  1.0  0.1715
  H  H34  1  0.115700  0.949800  0.735800  1.0  0.1452
  H  H35  1  0.019600  0.797200  0.760800  1.0  0.1671
  H  H36  1  0.782370  0.283130  0.069130  1.0  0.1452
  H  H37  1  0.686270  0.130530  0.094130  1.0  0.1724
  H  H38  1  0.449030  0.616470  0.402470  1.0  0.1476
  H  H39  1  0.352930  0.463870  0.427470  1.0  0.1671
  H  H40  1  0.050200  0.165900  0.735800  1.0  0.149
  H  H41  1  0.202800  0.222400  0.760800  1.0  0.1666
  H  H42  1  0.716870  0.499230  0.069130  1.0  0.149
  H  H43  1  0.869470  0.555730  0.094130  1.0  0.1705
  H  H44  1  0.383530  0.832570  0.402470  1.0  0.1449
  H  H45  1  0.536130  0.889070  0.427470  1.0  0.1666
  C  C46  1  0.386700  0.182600  0.276890  1.0  0.8383
  C  C47  1  0.250200  0.121300  0.248250  1.0  -0.3834
  C  C48  1  0.280400  0.220200  0.208850  1.0  0.7825
  C  C49  1  0.053370  0.515930  0.610220  1.0  0.8383
  C  C50  1  0.916870  0.454630  0.581580  1.0  -0.3834
  C  C51  1  0.947070  0.553530  0.542180  1.0  0.7837
  C  C52  1  0.720030  0.849270  0.943560  1.0  0.8383
  C  C53  1  0.583530  0.787970  0.914920  1.0  -0.3834
  C  C54  1  0.613730  0.886870  0.875520  1.0  0.7825
  C  C55  1  0.817400  0.204100  0.276890  1.0  0.8362
  C  C56  1  0.878700  0.128900  0.248250  1.0  -0.3822
  C  C57  1  0.779800  0.060200  0.208850  1.0  0.7821
  C  C58  1  0.484070  0.537430  0.610220  1.0  0.8362
  C  C59  1  0.545370  0.462230  0.581580  1.0  -0.3822
  C  C60  1  0.446470  0.393530  0.542180  1.0  0.7811
  C  C61  1  0.150730  0.870770  0.943560  1.0  0.8362
  C  C62  1  0.212030  0.795570  0.914920  1.0  -0.3822
  C  C63  1  0.113130  0.726870  0.875520  1.0  0.7821
  C  C64  1  0.795900  0.613300  0.276890  1.0  0.8369
  C  C65  1  0.871100  0.749800  0.248250  1.0  -0.381
  C  C66  1  0.939800  0.719600  0.208850  1.0  0.781
  C  C67  1  0.462570  0.946630  0.610220  1.0  0.8369
  C  C68  1  0.537770  0.083130  0.581580  1.0  -0.3812
  C  C69  1  0.606470  0.052930  0.542180  1.0  0.7825
  C  C70  1  0.129230  0.279970  0.943560  1.0  0.8369
  C  C71  1  0.204430  0.416470  0.914920  1.0  -0.381
  C  C72  1  0.273130  0.386270  0.875520  1.0  0.781
  C  C73  1  0.613300  0.817400  0.723110  1.0  0.8375
  C  C74  1  0.749800  0.878700  0.751750  1.0  -0.3817
  C  C75  1  0.719600  0.779800  0.791150  1.0  0.7834
  C  C76  1  0.279970  0.150730  0.056440  1.0  0.8375
  C  C77  1  0.416470  0.212030  0.085080  1.0  -0.3817
  C  C78  1  0.386270  0.113130  0.124480  1.0  0.7834
  C  C79  1  0.946630  0.484070  0.389780  1.0  0.8375
  C  C80  1  0.083130  0.545370  0.418420  1.0  -0.3817
  C  C81  1  0.052930  0.446470  0.457820  1.0  0.7846
  C  C82  1  0.182600  0.795900  0.723110  1.0  0.8359
  C  C83  1  0.121300  0.871100  0.751750  1.0  -0.381
  C  C84  1  0.220200  0.939800  0.791150  1.0  0.7814
  C  C85  1  0.849270  0.129230  0.056440  1.0  0.8359
  C  C86  1  0.787970  0.204430  0.085080  1.0  -0.381
  C  C87  1  0.886870  0.273130  0.124480  1.0  0.7814
  C  C88  1  0.515930  0.462570  0.389780  1.0  0.8359
  C  C89  1  0.454630  0.537770  0.418420  1.0  -0.381
  C  C90  1  0.553530  0.606470  0.457820  1.0  0.7803
  C  C91  1  0.204100  0.386700  0.723110  1.0  0.8368
  C  C92  1  0.128900  0.250200  0.751750  1.0  -0.382
  C  C93  1  0.060200  0.280400  0.791150  1.0  0.7821
  C  C94  1  0.870770  0.720030  0.056440  1.0  0.8368
  C  C95  1  0.795570  0.583530  0.085080  1.0  -0.382
  C  C96  1  0.726870  0.613730  0.124480  1.0  0.7821
  C  C97  1  0.537430  0.053370  0.389780  1.0  0.8368
  C  C98  1  0.462230  0.916870  0.418420  1.0  -0.3822
  C  C99  1  0.393530  0.947070  0.457820  1.0  0.7836
  O  O100  1  0.387200  0.242200  0.311900  1.0  -0.6275
  O  O101  1  0.502310  0.177400  0.263800  1.0  -0.7552
  O  O102  1  0.411620  0.328200  0.202230  1.0  -0.613
  O  O103  1  0.496600  0.142100  0.148480  1.0  -0.64
  O  O104  1  0.053870  0.575530  0.645230  1.0  -0.6275
  O  O105  1  0.168980  0.510730  0.597130  1.0  -0.7552
  O  O106  1  0.078290  0.661530  0.535560  1.0  -0.6402
  O  O107  1  0.163270  0.475430  0.481810  1.0  -0.6663
  O  O108  1  0.720530  0.908870  0.978570  1.0  -0.5995
  O  O109  1  0.835640  0.844070  0.930470  1.0  -0.7552
  O  O110  1  0.744950  0.994870  0.868900  1.0  -0.613
  O  O111  1  0.829930  0.808770  0.815150  1.0  -0.64
  O  O112  1  0.757800  0.145000  0.311900  1.0  -0.5994
  O  O113  1  0.822600  0.324910  0.263800  1.0  -0.7548
  O  O114  1  0.671800  0.083420  0.202230  1.0  -0.6408
  O  O115  1  0.857900  0.354500  0.148480  1.0  -0.6331
  O  O116  1  0.424470  0.478330  0.645230  1.0  -0.5994
  O  O117  1  0.489270  0.658240  0.597130  1.0  -0.7548
  O  O118  1  0.338470  0.416750  0.535560  1.0  -0.6408
  O  O119  1  0.524570  0.687830  0.481810  1.0  -0.6639
  O  O120  1  0.091130  0.811670  0.978570  1.0  -0.6314
  O  O121  1  0.155930  0.991580  0.930470  1.0  -0.7547
  O  O122  1  0.005130  0.750090  0.868900  1.0  -0.6408
  O  O123  1  0.191230  0.021170  0.815150  1.0  -0.6331
  O  O124  1  0.855000  0.612800  0.311900  1.0  -0.6298
  O  O125  1  0.675090  0.497690  0.263800  1.0  -0.7527
  O  O126  1  0.916580  0.588380  0.202230  1.0  -0.642
  O  O127  1  0.645500  0.503400  0.148480  1.0  -0.6611
  O  O128  1  0.521670  0.946130  0.645230  1.0  -0.6298
  O  O129  1  0.341760  0.831020  0.597130  1.0  -0.7527
  O  O130  1  0.583250  0.921710  0.535560  1.0  -0.6256
  O  O131  1  0.312170  0.836730  0.481810  1.0  -0.64
  O  O132  1  0.188330  0.279470  0.978570  1.0  -0.6003
  O  O133  1  0.008420  0.164360  0.930470  1.0  -0.7527
  O  O134  1  0.249910  0.255050  0.868900  1.0  -0.642
  O  O135  1  0.978830  0.170070  0.815150  1.0  -0.6611
  O  O136  1  0.612800  0.757800  0.688100  1.0  -0.6268
  O  O137  1  0.497690  0.822600  0.736200  1.0  -0.7566
  O  O138  1  0.588380  0.671800  0.797770  1.0  -0.6071
  O  O139  1  0.503400  0.857900  0.851520  1.0  -0.6386
  O  O140  1  0.279470  0.091130  0.021430  1.0  -0.5979
  O  O141  1  0.164360  0.155930  0.069530  1.0  -0.7566
  O  O142  1  0.255050  0.005130  0.131100  1.0  -0.6071
  O  O143  1  0.170070  0.191230  0.184850  1.0  -0.6386
  O  O144  1  0.946130  0.424470  0.354770  1.0  -0.6268
  O  O145  1  0.831020  0.489270  0.402870  1.0  -0.7566
  O  O146  1  0.921710  0.338470  0.464440  1.0  -0.6348
  O  O147  1  0.836730  0.524570  0.518190  1.0  -0.6652
  O  O148  1  0.242200  0.855000  0.688100  1.0  -0.5981
  O  O149  1  0.177400  0.675090  0.736200  1.0  -0.7547
  O  O150  1  0.328200  0.916580  0.797770  1.0  -0.6445
  O  O151  1  0.142100  0.645500  0.851520  1.0  -0.6368
  O  O152  1  0.908870  0.188330  0.021430  1.0  -0.63
  O  O153  1  0.844070  0.008420  0.069530  1.0  -0.7547
  O  O154  1  0.994870  0.249910  0.131100  1.0  -0.6445
  O  O155  1  0.808770  0.978830  0.184850  1.0  -0.6368
  O  O156  1  0.575530  0.521670  0.354770  1.0  -0.5981
  O  O157  1  0.510730  0.341760  0.402870  1.0  -0.7547
  O  O158  1  0.661530  0.583250  0.464440  1.0  -0.6445
  O  O159  1  0.475430  0.312170  0.518190  1.0  -0.6667
  O  O160  1  0.145000  0.387200  0.688100  1.0  -0.628
  O  O161  1  0.324910  0.502310  0.736200  1.0  -0.7531
  O  O162  1  0.083420  0.411620  0.797770  1.0  -0.6414
  O  O163  1  0.354500  0.496600  0.851520  1.0  -0.6611
  O  O164  1  0.811670  0.720530  0.021430  1.0  -0.5986
  O  O165  1  0.991580  0.835640  0.069530  1.0  -0.7531
  O  O166  1  0.750090  0.744950  0.131100  1.0  -0.6414
  O  O167  1  0.021170  0.829930  0.184850  1.0  -0.6611
  O  O168  1  0.478330  0.053870  0.354770  1.0  -0.628
  O  O169  1  0.658240  0.168980  0.402870  1.0  -0.7531
  O  O170  1  0.416750  0.078290  0.464440  1.0  -0.6264
  O  O171  1  0.687830  0.163270  0.518190  1.0  -0.6403
