# generated using pymatgen
data_LaH4(C3O4)2
_symmetry_space_group_name_H-M   'P 1'
_cell_length_a   10.21050000
_cell_length_b   10.21050000
_cell_length_c   31.22230000
_cell_angle_alpha   90.00000000
_cell_angle_beta   90.00000000
_cell_angle_gamma   120.00000000
_symmetry_Int_Tables_number   1
_chemical_formula_structural   LaH4(C3O4)2
_chemical_formula_sum   'La9 H36 C54 O72'
_cell_volume   2818.96408872
_cell_formula_units_Z   9
loop_
 _symmetry_equiv_pos_site_id
 _symmetry_equiv_pos_as_xyz
  1  'x, y, z'
loop_
 _atom_site_type_symbol
 _atom_site_label
 _atom_site_symmetry_multiplicity
 _atom_site_fract_x
 _atom_site_fract_y
 _atom_site_fract_z
 _atom_site_occupancy
 _atom_site_charge
  La  La1  1  0.000000  0.000000  0.000000  1.0  2.088
  La  La2  1  0.666667  0.333333  0.333333  1.0  2.0881
  La  La3  1  0.333333  0.666667  0.666667  1.0  2.0881
  La  La4  1  0.000000  0.000000  0.131700  1.0  2.1214
  La  La5  1  0.666667  0.333333  0.465040  1.0  2.1215
  La  La6  1  0.333333  0.666667  0.798370  1.0  2.1211
  La  La7  1  0.000000  0.000000  0.868300  1.0  2.1214
  La  La8  1  0.666667  0.333333  0.201630  1.0  2.1217
  La  La9  1  0.333333  0.666667  0.534960  1.0  2.1212
  H  H10  1  0.446000  0.135000  0.095800  1.0  0.1724
  H  H11  1  0.500000  0.285000  0.070300  1.0  0.1507
  H  H12  1  0.112670  0.468330  0.429130  1.0  0.1724
  H  H13  1  0.166670  0.618330  0.403630  1.0  0.1507
  H  H14  1  0.779330  0.801670  0.762470  1.0  0.1724
  H  H15  1  0.833330  0.951670  0.736970  1.0  0.1507
  H  H16  1  0.865000  0.311000  0.095800  1.0  0.1712
  H  H17  1  0.715000  0.215000  0.070300  1.0  0.1504
  H  H18  1  0.531670  0.644330  0.429130  1.0  0.1712
  H  H19  1  0.381670  0.548330  0.403630  1.0  0.1504
  H  H20  1  0.198330  0.977670  0.762470  1.0  0.1712
  H  H21  1  0.048330  0.881670  0.736970  1.0  0.1504
  H  H22  1  0.689000  0.554000  0.095800  1.0  0.1718
  H  H23  1  0.785000  0.500000  0.070300  1.0  0.1505
  H  H24  1  0.355670  0.887330  0.429130  1.0  0.1718
  H  H25  1  0.451670  0.833330  0.403630  1.0  0.1505
  H  H26  1  0.022330  0.220670  0.762470  1.0  0.1718
  H  H27  1  0.118330  0.166670  0.736970  1.0  0.1505
  H  H28  1  0.554000  0.865000  0.904200  1.0  0.1724
  H  H29  1  0.500000  0.715000  0.929700  1.0  0.1519
  H  H30  1  0.220670  0.198330  0.237530  1.0  0.1724
  H  H31  1  0.166670  0.048330  0.263030  1.0  0.1519
  H  H32  1  0.887330  0.531670  0.570870  1.0  0.1724
  H  H33  1  0.833330  0.381670  0.596370  1.0  0.1519
  H  H34  1  0.135000  0.689000  0.904200  1.0  0.1719
  H  H35  1  0.285000  0.785000  0.929700  1.0  0.1509
  H  H36  1  0.801670  0.022330  0.237530  1.0  0.1719
  H  H37  1  0.951670  0.118330  0.263030  1.0  0.1509
  H  H38  1  0.468330  0.355670  0.570870  1.0  0.1719
  H  H39  1  0.618330  0.451670  0.596370  1.0  0.1509
  H  H40  1  0.311000  0.446000  0.904200  1.0  0.1726
  H  H41  1  0.215000  0.500000  0.929700  1.0  0.1513
  H  H42  1  0.977670  0.779330  0.237530  1.0  0.1726
  H  H43  1  0.881670  0.833330  0.263030  1.0  0.1513
  H  H44  1  0.644330  0.112670  0.570870  1.0  0.1726
  H  H45  1  0.548330  0.166670  0.596370  1.0  0.1513
  C  C46  1  0.281580  0.132150  0.056310  1.0  0.8243
  C  C47  1  0.417350  0.206460  0.085140  1.0  -0.3279
  C  C48  1  0.386160  0.274590  0.124420  1.0  0.7811
  C  C49  1  0.948250  0.465480  0.389640  1.0  0.8243
  C  C50  1  0.084020  0.539790  0.418470  1.0  -0.3282
  C  C51  1  0.052830  0.607920  0.457750  1.0  0.7811
  C  C52  1  0.614910  0.798820  0.722980  1.0  0.8243
  C  C53  1  0.750680  0.873130  0.751810  1.0  -0.3279
  C  C54  1  0.719490  0.941260  0.791090  1.0  0.7811
  C  C55  1  0.867850  0.149430  0.056310  1.0  0.8254
  C  C56  1  0.793540  0.210890  0.085140  1.0  -0.3282
  C  C57  1  0.725410  0.111570  0.124420  1.0  0.7817
  C  C58  1  0.534520  0.482760  0.389640  1.0  0.8252
  C  C59  1  0.460210  0.544220  0.418470  1.0  -0.3285
  C  C60  1  0.392080  0.444900  0.457750  1.0  0.7817
  C  C61  1  0.201180  0.816100  0.722980  1.0  0.8254
  C  C62  1  0.126870  0.877560  0.751810  1.0  -0.3282
  C  C63  1  0.058740  0.778240  0.791090  1.0  0.7817
  C  C64  1  0.850570  0.718420  0.056310  1.0  0.8243
  C  C65  1  0.789110  0.582650  0.085140  1.0  -0.3289
  C  C66  1  0.888430  0.613840  0.124420  1.0  0.781
  C  C67  1  0.517240  0.051750  0.389640  1.0  0.8243
  C  C68  1  0.455780  0.915980  0.418470  1.0  -0.3292
  C  C69  1  0.555100  0.947170  0.457750  1.0  0.781
  C  C70  1  0.183900  0.385090  0.722980  1.0  0.8243
  C  C71  1  0.122440  0.249320  0.751810  1.0  -0.3289
  C  C72  1  0.221760  0.280510  0.791090  1.0  0.781
  C  C73  1  0.718420  0.867850  0.943690  1.0  0.8248
  C  C74  1  0.582650  0.793540  0.914860  1.0  -0.3272
  C  C75  1  0.613840  0.725410  0.875580  1.0  0.7816
  C  C76  1  0.385090  0.201180  0.277020  1.0  0.8248
  C  C77  1  0.249320  0.126870  0.248190  1.0  -0.3272
  C  C78  1  0.280510  0.058740  0.208910  1.0  0.7816
  C  C79  1  0.051750  0.534520  0.610360  1.0  0.8248
  C  C80  1  0.915980  0.460210  0.581530  1.0  -0.3275
  C  C81  1  0.947170  0.392080  0.542250  1.0  0.7816
  C  C82  1  0.132150  0.850570  0.943690  1.0  0.8264
  C  C83  1  0.206460  0.789110  0.914860  1.0  -0.3282
  C  C84  1  0.274590  0.888430  0.875580  1.0  0.7824
  C  C85  1  0.798820  0.183900  0.277020  1.0  0.8264
  C  C86  1  0.873130  0.122440  0.248190  1.0  -0.3282
  C  C87  1  0.941260  0.221760  0.208910  1.0  0.7824
  C  C88  1  0.465480  0.517240  0.610360  1.0  0.8264
  C  C89  1  0.539790  0.455780  0.581530  1.0  -0.3285
  C  C90  1  0.607920  0.555100  0.542250  1.0  0.7824
  C  C91  1  0.149430  0.281580  0.943690  1.0  0.8254
  C  C92  1  0.210890  0.417350  0.914860  1.0  -0.3284
  C  C93  1  0.111570  0.386160  0.875580  1.0  0.7831
  C  C94  1  0.816100  0.614910  0.277020  1.0  0.8254
  C  C95  1  0.877560  0.750680  0.248190  1.0  -0.3284
  C  C96  1  0.778240  0.719490  0.208910  1.0  0.7831
  C  C97  1  0.482760  0.948250  0.610360  1.0  0.8254
  C  C98  1  0.544220  0.084020  0.581530  1.0  -0.3287
  C  C99  1  0.444900  0.052830  0.542250  1.0  0.7831
  O  O100  1  0.282240  0.192550  0.021560  1.0  -0.6311
  O  O101  1  0.166270  0.010840  0.069130  1.0  -0.7484
  O  O102  1  0.254720  0.250390  0.130810  1.0  -0.6232
  O  O103  1  0.495720  0.355420  0.148370  1.0  -0.6427
  O  O104  1  0.948910  0.525880  0.354890  1.0  -0.6311
  O  O105  1  0.832940  0.344170  0.402460  1.0  -0.7484
  O  O106  1  0.921390  0.583720  0.464140  1.0  -0.6486
  O  O107  1  0.162390  0.688750  0.481700  1.0  -0.6427
  O  O108  1  0.615570  0.859220  0.688230  1.0  -0.6311
  O  O109  1  0.499600  0.677510  0.735800  1.0  -0.7484
  O  O110  1  0.588050  0.917060  0.797480  1.0  -0.6232
  O  O111  1  0.829050  0.022090  0.815040  1.0  -0.6427
  O  O112  1  0.807450  0.089690  0.021560  1.0  -0.631
  O  O113  1  0.989160  0.155430  0.069130  1.0  -0.7505
  O  O114  1  0.749610  0.004330  0.130810  1.0  -0.6399
  O  O115  1  0.644580  0.140300  0.148370  1.0  -0.6395
  O  O116  1  0.474120  0.423020  0.354890  1.0  -0.631
  O  O117  1  0.655830  0.488760  0.402460  1.0  -0.7505
  O  O118  1  0.416280  0.337660  0.464140  1.0  -0.64
  O  O119  1  0.311250  0.473630  0.481700  1.0  -0.6395
  O  O120  1  0.140780  0.756360  0.688230  1.0  -0.631
  O  O121  1  0.322490  0.822100  0.735800  1.0  -0.7505
  O  O122  1  0.082940  0.671000  0.797480  1.0  -0.6399
  O  O123  1  0.977910  0.806970  0.815040  1.0  -0.6395
  O  O124  1  0.910310  0.717760  0.021560  1.0  -0.6298
  O  O125  1  0.844570  0.833730  0.069130  1.0  -0.7463
  O  O126  1  0.995670  0.745280  0.130810  1.0  -0.647
  O  O127  1  0.859700  0.504280  0.148370  1.0  -0.6405
  O  O128  1  0.576980  0.051090  0.354890  1.0  -0.6298
  O  O129  1  0.511240  0.167060  0.402460  1.0  -0.746
  O  O130  1  0.662340  0.078610  0.464140  1.0  -0.633
  O  O131  1  0.526370  0.837610  0.481700  1.0  -0.6405
  O  O132  1  0.243640  0.384430  0.688230  1.0  -0.6298
  O  O133  1  0.177900  0.500400  0.735800  1.0  -0.7463
  O  O134  1  0.329000  0.411950  0.797480  1.0  -0.647
  O  O135  1  0.193030  0.170950  0.815040  1.0  -0.6405
  O  O136  1  0.717760  0.807450  0.978440  1.0  -0.6305
  O  O137  1  0.833730  0.989160  0.930870  1.0  -0.7492
  O  O138  1  0.745280  0.749610  0.869190  1.0  -0.6219
  O  O139  1  0.504280  0.644580  0.851630  1.0  -0.6406
  O  O140  1  0.384430  0.140780  0.311770  1.0  -0.6305
  O  O141  1  0.500400  0.322490  0.264200  1.0  -0.7492
  O  O142  1  0.411950  0.082940  0.202520  1.0  -0.6219
  O  O143  1  0.170950  0.977910  0.184960  1.0  -0.6406
  O  O144  1  0.051090  0.474120  0.645110  1.0  -0.6305
  O  O145  1  0.167060  0.655830  0.597540  1.0  -0.7491
  O  O146  1  0.078610  0.416280  0.535860  1.0  -0.6476
  O  O147  1  0.837610  0.311250  0.518300  1.0  -0.6406
  O  O148  1  0.192550  0.910310  0.978440  1.0  -0.6303
  O  O149  1  0.010840  0.844570  0.930870  1.0  -0.749
  O  O150  1  0.250390  0.995670  0.869190  1.0  -0.6431
  O  O151  1  0.355420  0.859700  0.851630  1.0  -0.6376
  O  O152  1  0.859220  0.243640  0.311770  1.0  -0.6303
  O  O153  1  0.677510  0.177900  0.264200  1.0  -0.749
  O  O154  1  0.917060  0.329000  0.202520  1.0  -0.6431
  O  O155  1  0.022090  0.193030  0.184960  1.0  -0.6376
  O  O156  1  0.525880  0.576980  0.645110  1.0  -0.6303
  O  O157  1  0.344170  0.511240  0.597540  1.0  -0.749
  O  O158  1  0.583720  0.662340  0.535860  1.0  -0.6431
  O  O159  1  0.688750  0.526370  0.518300  1.0  -0.6376
  O  O160  1  0.089690  0.282240  0.978440  1.0  -0.6299
  O  O161  1  0.155430  0.166270  0.930870  1.0  -0.7455
  O  O162  1  0.004330  0.254720  0.869190  1.0  -0.6463
  O  O163  1  0.140300  0.495720  0.851630  1.0  -0.6391
  O  O164  1  0.756360  0.615570  0.311770  1.0  -0.6299
  O  O165  1  0.822100  0.499600  0.264200  1.0  -0.7455
  O  O166  1  0.671000  0.588050  0.202520  1.0  -0.6463
  O  O167  1  0.806970  0.829050  0.184960  1.0  -0.6391
  O  O168  1  0.423020  0.948910  0.645110  1.0  -0.6299
  O  O169  1  0.488760  0.832940  0.597540  1.0  -0.7455
  O  O170  1  0.337660  0.921390  0.535860  1.0  -0.6325
  O  O171  1  0.473630  0.162390  0.518300  1.0  -0.6391
