# generated using pymatgen
data_PrH4(C3O4)2
_symmetry_space_group_name_H-M   'P 1'
_cell_length_a   10.18210000
_cell_length_b   10.18210000
_cell_length_c   30.92160000
_cell_angle_alpha   90.00000000
_cell_angle_beta   90.00000000
_cell_angle_gamma   120.00000000
_symmetry_Int_Tables_number   1
_chemical_formula_structural   PrH4(C3O4)2
_chemical_formula_sum   'Pr9 H36 C54 O72'
_cell_volume   2776.30583305
_cell_formula_units_Z   9
loop_
 _symmetry_equiv_pos_site_id
 _symmetry_equiv_pos_as_xyz
  1  'x, y, z'
loop_
 _atom_site_type_symbol
 _atom_site_label
 _atom_site_symmetry_multiplicity
 _atom_site_fract_x
 _atom_site_fract_y
 _atom_site_fract_z
 _atom_site_occupancy
 _atom_site_charge
  Pr  Pr1  1  0.000000  0.000000  0.000000  1.0  2.1918
  Pr  Pr2  1  0.666667  0.333333  0.333333  1.0  2.1908
  Pr  Pr3  1  0.333333  0.666667  0.666667  1.0  2.1906
  Pr  Pr4  1  0.000000  0.000000  0.132000  1.0  2.2012
  Pr  Pr5  1  0.666667  0.333333  0.465340  1.0  2.2009
  Pr  Pr6  1  0.333333  0.666667  0.798670  1.0  2.2014
  Pr  Pr7  1  0.000000  0.000000  0.868000  1.0  2.2011
  Pr  Pr8  1  0.666667  0.333333  0.201330  1.0  2.2016
  Pr  Pr9  1  0.333333  0.666667  0.534660  1.0  2.2013
  H  H10  1  0.500300  0.281300  0.069000  1.0  0.1482
  H  H11  1  0.443600  0.128600  0.094200  1.0  0.1722
  H  H12  1  0.166970  0.614630  0.402330  1.0  0.1483
  H  H13  1  0.110270  0.461930  0.427530  1.0  0.1722
  H  H14  1  0.833630  0.947970  0.735670  1.0  0.1482
  H  H15  1  0.776930  0.795270  0.760870  1.0  0.1722
  H  H16  1  0.718700  0.219000  0.069000  1.0  0.1474
  H  H17  1  0.871400  0.315000  0.094200  1.0  0.1702
  H  H18  1  0.385370  0.552330  0.402330  1.0  0.1475
  H  H19  1  0.538070  0.648330  0.427530  1.0  0.1702
  H  H20  1  0.052030  0.885670  0.735670  1.0  0.1475
  H  H21  1  0.204730  0.981670  0.760870  1.0  0.1702
  H  H22  1  0.781000  0.499700  0.069000  1.0  0.1481
  H  H23  1  0.685000  0.556400  0.094200  1.0  0.1699
  H  H24  1  0.447670  0.833030  0.402330  1.0  0.1482
  H  H25  1  0.351670  0.889730  0.427530  1.0  0.1699
  H  H26  1  0.114330  0.166370  0.735670  1.0  0.1481
  H  H27  1  0.018330  0.223070  0.760870  1.0  0.1699
  H  H28  1  0.499700  0.718700  0.931000  1.0  0.1493
  H  H29  1  0.556400  0.871400  0.905800  1.0  0.1723
  H  H30  1  0.166370  0.052030  0.264330  1.0  0.1493
  H  H31  1  0.223070  0.204730  0.239130  1.0  0.1723
  H  H32  1  0.833030  0.385370  0.597670  1.0  0.1494
  H  H33  1  0.889730  0.538070  0.572470  1.0  0.1723
  H  H34  1  0.281300  0.781000  0.931000  1.0  0.1477
  H  H35  1  0.128600  0.685000  0.905800  1.0  0.1715
  H  H36  1  0.947970  0.114330  0.264330  1.0  0.1478
  H  H37  1  0.795270  0.018330  0.239130  1.0  0.1715
  H  H38  1  0.614630  0.447670  0.597670  1.0  0.1478
  H  H39  1  0.461930  0.351670  0.572470  1.0  0.1715
  H  H40  1  0.219000  0.500300  0.931000  1.0  0.1482
  H  H41  1  0.315000  0.443600  0.905800  1.0  0.1698
  H  H42  1  0.885670  0.833630  0.264330  1.0  0.1482
  H  H43  1  0.981670  0.776930  0.239130  1.0  0.1698
  H  H44  1  0.552330  0.166970  0.597670  1.0  0.1483
  H  H45  1  0.648330  0.110270  0.572470  1.0  0.1698
  C  C46  1  0.278280  0.127370  0.056580  1.0  0.8371
  C  C47  1  0.415940  0.202720  0.085180  1.0  -0.3809
  C  C48  1  0.386060  0.272140  0.124800  1.0  0.7957
  C  C49  1  0.944950  0.460700  0.389910  1.0  0.8371
  C  C50  1  0.082610  0.536050  0.418510  1.0  -0.3809
  C  C51  1  0.052730  0.605470  0.458130  1.0  0.7956
  C  C52  1  0.611610  0.794040  0.723250  1.0  0.8371
  C  C53  1  0.749270  0.869390  0.751850  1.0  -0.3809
  C  C54  1  0.719390  0.938810  0.791470  1.0  0.7957
  C  C55  1  0.872630  0.150910  0.056580  1.0  0.8365
  C  C56  1  0.797280  0.213220  0.085180  1.0  -0.3806
  C  C57  1  0.727860  0.113920  0.124800  1.0  0.7962
  C  C58  1  0.539300  0.484240  0.389910  1.0  0.8365
  C  C59  1  0.463950  0.546550  0.418510  1.0  -0.3806
  C  C60  1  0.394530  0.447250  0.458130  1.0  0.7961
  C  C61  1  0.205960  0.817580  0.723250  1.0  0.8365
  C  C62  1  0.130610  0.879890  0.751850  1.0  -0.3806
  C  C63  1  0.061190  0.780590  0.791470  1.0  0.7962
  C  C64  1  0.849090  0.721720  0.056580  1.0  0.8358
  C  C65  1  0.786780  0.584060  0.085180  1.0  -0.3814
  C  C66  1  0.886080  0.613940  0.124800  1.0  0.7947
  C  C67  1  0.515760  0.055050  0.389910  1.0  0.8358
  C  C68  1  0.453450  0.917390  0.418510  1.0  -0.3814
  C  C69  1  0.552750  0.947270  0.458130  1.0  0.7946
  C  C70  1  0.182420  0.388390  0.723250  1.0  0.8358
  C  C71  1  0.120110  0.250730  0.751850  1.0  -0.3814
  C  C72  1  0.219410  0.280610  0.791470  1.0  0.7947
  C  C73  1  0.721720  0.872630  0.943420  1.0  0.8357
  C  C74  1  0.584060  0.797280  0.914820  1.0  -0.3801
  C  C75  1  0.613940  0.727860  0.875200  1.0  0.7956
  C  C76  1  0.388390  0.205960  0.276750  1.0  0.8357
  C  C77  1  0.250730  0.130610  0.248150  1.0  -0.3801
  C  C78  1  0.280610  0.061190  0.208530  1.0  0.7956
  C  C79  1  0.055050  0.539300  0.610090  1.0  0.8357
  C  C80  1  0.917390  0.463950  0.581490  1.0  -0.3801
  C  C81  1  0.947270  0.394530  0.541870  1.0  0.7955
  C  C82  1  0.127370  0.849090  0.943420  1.0  0.8367
  C  C83  1  0.202720  0.786780  0.914820  1.0  -0.381
  C  C84  1  0.272140  0.886080  0.875200  1.0  0.7966
  C  C85  1  0.794040  0.182420  0.276750  1.0  0.8367
  C  C86  1  0.869390  0.120110  0.248150  1.0  -0.381
  C  C87  1  0.938810  0.219410  0.208530  1.0  0.7966
  C  C88  1  0.460700  0.515760  0.610090  1.0  0.8367
  C  C89  1  0.536050  0.453450  0.581490  1.0  -0.381
  C  C90  1  0.605470  0.552750  0.541870  1.0  0.7965
  C  C91  1  0.150910  0.278280  0.943420  1.0  0.8359
  C  C92  1  0.213220  0.415940  0.914820  1.0  -0.3793
  C  C93  1  0.113920  0.386060  0.875200  1.0  0.7961
  C  C94  1  0.817580  0.611610  0.276750  1.0  0.8359
  C  C95  1  0.879890  0.749270  0.248150  1.0  -0.3793
  C  C96  1  0.780590  0.719390  0.208530  1.0  0.7961
  C  C97  1  0.484240  0.944950  0.610090  1.0  0.8359
  C  C98  1  0.546550  0.082610  0.581490  1.0  -0.3793
  C  C99  1  0.447250  0.052730  0.541870  1.0  0.796
  O  O100  1  0.277810  0.186590  0.021330  1.0  -0.629
  O  O101  1  0.162680  0.006560  0.069900  1.0  -0.753
  O  O102  1  0.254440  0.248430  0.131440  1.0  -0.6194
  O  O103  1  0.497010  0.354110  0.148690  1.0  -0.6583
  O  O104  1  0.944480  0.519920  0.354660  1.0  -0.6291
  O  O105  1  0.829350  0.339890  0.403230  1.0  -0.7532
  O  O106  1  0.921110  0.581760  0.464770  1.0  -0.645
  O  O107  1  0.163680  0.687440  0.482020  1.0  -0.6583
  O  O108  1  0.611140  0.853260  0.688000  1.0  -0.629
  O  O109  1  0.496010  0.673230  0.736570  1.0  -0.753
  O  O110  1  0.587770  0.915100  0.798110  1.0  -0.6194
  O  O111  1  0.830340  0.020780  0.815360  1.0  -0.6583
  O  O112  1  0.813410  0.091220  0.021330  1.0  -0.6293
  O  O113  1  0.993440  0.156120  0.069900  1.0  -0.7535
  O  O114  1  0.751570  0.006010  0.131440  1.0  -0.6347
  O  O115  1  0.645890  0.142900  0.148690  1.0  -0.6544
  O  O116  1  0.480080  0.424550  0.354660  1.0  -0.6293
  O  O117  1  0.660110  0.489450  0.403230  1.0  -0.7537
  O  O118  1  0.418240  0.339340  0.464770  1.0  -0.6347
  O  O119  1  0.312560  0.476230  0.482020  1.0  -0.6544
  O  O120  1  0.146740  0.757890  0.688000  1.0  -0.6293
  O  O121  1  0.326770  0.822790  0.736570  1.0  -0.7535
  O  O122  1  0.084900  0.672680  0.798110  1.0  -0.6347
  O  O123  1  0.979220  0.809570  0.815360  1.0  -0.6544
  O  O124  1  0.908780  0.722190  0.021330  1.0  -0.6277
  O  O125  1  0.843880  0.837320  0.069900  1.0  -0.7506
  O  O126  1  0.993990  0.745560  0.131440  1.0  -0.6433
  O  O127  1  0.857100  0.502990  0.148690  1.0  -0.655
  O  O128  1  0.575450  0.055520  0.354660  1.0  -0.6278
  O  O129  1  0.510550  0.170650  0.403230  1.0  -0.7507
  O  O130  1  0.660660  0.078890  0.464770  1.0  -0.6288
  O  O131  1  0.523770  0.836320  0.482020  1.0  -0.655
  O  O132  1  0.242110  0.388860  0.688000  1.0  -0.6278
  O  O133  1  0.177210  0.503990  0.736570  1.0  -0.7506
  O  O134  1  0.327320  0.412230  0.798110  1.0  -0.6433
  O  O135  1  0.190430  0.169660  0.815360  1.0  -0.655
  O  O136  1  0.722190  0.813410  0.978670  1.0  -0.6288
  O  O137  1  0.837320  0.993440  0.930100  1.0  -0.7541
  O  O138  1  0.745560  0.751570  0.868560  1.0  -0.6163
  O  O139  1  0.502990  0.645890  0.851310  1.0  -0.656
  O  O140  1  0.388860  0.146740  0.312000  1.0  -0.6288
  O  O141  1  0.503990  0.326770  0.263430  1.0  -0.7541
  O  O142  1  0.412230  0.084900  0.201890  1.0  -0.6163
  O  O143  1  0.169660  0.979220  0.184640  1.0  -0.656
  O  O144  1  0.055520  0.480080  0.645340  1.0  -0.6288
  O  O145  1  0.170650  0.660110  0.596770  1.0  -0.7544
  O  O146  1  0.078890  0.418240  0.535230  1.0  -0.6419
  O  O147  1  0.836320  0.312560  0.517980  1.0  -0.656
  O  O148  1  0.186590  0.908780  0.978670  1.0  -0.6274
  O  O149  1  0.006560  0.843880  0.930100  1.0  -0.7522
  O  O150  1  0.248430  0.993990  0.868560  1.0  -0.6383
  O  O151  1  0.354110  0.857100  0.851310  1.0  -0.6537
  O  O152  1  0.853260  0.242110  0.312000  1.0  -0.6274
  O  O153  1  0.673230  0.177210  0.263430  1.0  -0.7522
  O  O154  1  0.915100  0.327320  0.201890  1.0  -0.6383
  O  O155  1  0.020780  0.190430  0.184640  1.0  -0.6537
  O  O156  1  0.519920  0.575450  0.645340  1.0  -0.6275
  O  O157  1  0.339890  0.510550  0.596770  1.0  -0.7524
  O  O158  1  0.581760  0.660660  0.535230  1.0  -0.6383
  O  O159  1  0.687440  0.523770  0.517980  1.0  -0.6537
  O  O160  1  0.091220  0.277810  0.978670  1.0  -0.6273
  O  O161  1  0.156120  0.162680  0.930100  1.0  -0.7496
  O  O162  1  0.006010  0.254440  0.868560  1.0  -0.6438
  O  O163  1  0.142900  0.497010  0.851310  1.0  -0.654
  O  O164  1  0.757890  0.611140  0.312000  1.0  -0.6273
  O  O165  1  0.822790  0.496010  0.263430  1.0  -0.7496
  O  O166  1  0.672680  0.587770  0.201890  1.0  -0.6438
  O  O167  1  0.809570  0.830340  0.184640  1.0  -0.654
  O  O168  1  0.424550  0.944480  0.645340  1.0  -0.6273
  O  O169  1  0.489450  0.829350  0.596770  1.0  -0.7498
  O  O170  1  0.339340  0.921110  0.535230  1.0  -0.6298
  O  O171  1  0.476230  0.163680  0.517980  1.0  -0.654
