# generated using pymatgen
data_NdH4(C3O4)2
_symmetry_space_group_name_H-M   'P 1'
_cell_length_a   10.23860000
_cell_length_b   10.23860000
_cell_length_c   31.01300000
_cell_angle_alpha   90.00000000
_cell_angle_beta   90.00000000
_cell_angle_gamma   120.00000000
_symmetry_Int_Tables_number   1
_chemical_formula_structural   NdH4(C3O4)2
_chemical_formula_sum   'Nd9 H36 C54 O72'
_cell_volume   2815.50020702
_cell_formula_units_Z   9
loop_
 _symmetry_equiv_pos_site_id
 _symmetry_equiv_pos_as_xyz
  1  'x, y, z'
loop_
 _atom_site_type_symbol
 _atom_site_label
 _atom_site_symmetry_multiplicity
 _atom_site_fract_x
 _atom_site_fract_y
 _atom_site_fract_z
 _atom_site_occupancy
 _atom_site_charge
  Nd  Nd1  1  0.000000  0.000000  0.000000  1.0  2.2277
  Nd  Nd2  1  0.666667  0.333333  0.333333  1.0  2.2263
  Nd  Nd3  1  0.333333  0.666667  0.666667  1.0  2.2262
  Nd  Nd4  1  0.000000  0.000000  0.131880  1.0  2.2373
  Nd  Nd5  1  0.666667  0.333333  0.465210  1.0  2.2373
  Nd  Nd6  1  0.333333  0.666667  0.798550  1.0  2.2372
  Nd  Nd7  1  0.000000  0.000000  0.868120  1.0  2.2374
  Nd  Nd8  1  0.666667  0.333333  0.201450  1.0  2.2374
  Nd  Nd9  1  0.333333  0.666667  0.534790  1.0  2.2373
  H  H10  1  0.443500  0.315100  0.094100  1.0  0.1663
  H  H11  1  0.499300  0.219000  0.069000  1.0  0.1491
  H  H12  1  0.110170  0.648430  0.427430  1.0  0.1663
  H  H13  1  0.165970  0.552330  0.402330  1.0  0.1491
  H  H14  1  0.776830  0.981770  0.760770  1.0  0.1663
  H  H15  1  0.832630  0.885670  0.735670  1.0  0.1491
  H  H16  1  0.684900  0.128400  0.094100  1.0  0.166
  H  H17  1  0.781000  0.280300  0.069000  1.0  0.1503
  H  H18  1  0.351570  0.461730  0.427430  1.0  0.166
  H  H19  1  0.447670  0.613630  0.402330  1.0  0.1503
  H  H20  1  0.018230  0.795070  0.760770  1.0  0.166
  H  H21  1  0.114330  0.946970  0.735670  1.0  0.1503
  H  H22  1  0.871600  0.556500  0.094100  1.0  0.1637
  H  H23  1  0.719700  0.500700  0.069000  1.0  0.1505
  H  H24  1  0.538270  0.889830  0.427430  1.0  0.1637
  H  H25  1  0.386370  0.834030  0.402330  1.0  0.1505
  H  H26  1  0.204930  0.223170  0.760770  1.0  0.1637
  H  H27  1  0.053030  0.167370  0.735670  1.0  0.1505
  H  H28  1  0.556500  0.684900  0.905900  1.0  0.167
  H  H29  1  0.500700  0.781000  0.931000  1.0  0.1499
  H  H30  1  0.223170  0.018230  0.239230  1.0  0.167
  H  H31  1  0.167370  0.114330  0.264330  1.0  0.1499
  H  H32  1  0.889830  0.351570  0.572570  1.0  0.167
  H  H33  1  0.834030  0.447670  0.597670  1.0  0.1499
  H  H34  1  0.315100  0.871600  0.905900  1.0  0.1661
  H  H35  1  0.219000  0.719700  0.931000  1.0  0.1511
  H  H36  1  0.981770  0.204930  0.239230  1.0  0.1661
  H  H37  1  0.885670  0.053030  0.264330  1.0  0.1511
  H  H38  1  0.648430  0.538270  0.572570  1.0  0.1661
  H  H39  1  0.552330  0.386370  0.597670  1.0  0.1511
  H  H40  1  0.128400  0.443500  0.905900  1.0  0.165
  H  H41  1  0.280300  0.499300  0.931000  1.0  0.1505
  H  H42  1  0.795070  0.776830  0.239230  1.0  0.165
  H  H43  1  0.946970  0.832630  0.264330  1.0  0.1505
  H  H44  1  0.461730  0.110170  0.572570  1.0  0.165
  H  H45  1  0.613630  0.165970  0.597670  1.0  0.1505
  C  C46  1  0.277950  0.151460  0.056560  1.0  0.8388
  C  C47  1  0.415710  0.213650  0.085140  1.0  -0.4034
  C  C48  1  0.386180  0.114750  0.124960  1.0  0.7754
  C  C49  1  0.944620  0.484790  0.389890  1.0  0.8388
  C  C50  1  0.082380  0.546980  0.418470  1.0  -0.4034
  C  C51  1  0.052850  0.448080  0.458290  1.0  0.7754
  C  C52  1  0.611280  0.818130  0.723230  1.0  0.8388
  C  C53  1  0.749040  0.880320  0.751810  1.0  -0.4034
  C  C54  1  0.719510  0.781420  0.791630  1.0  0.7754
  C  C55  1  0.848540  0.126490  0.056560  1.0  0.8369
  C  C56  1  0.786350  0.202060  0.085140  1.0  -0.4033
  C  C57  1  0.885250  0.271430  0.124960  1.0  0.7746
  C  C58  1  0.515210  0.459820  0.389890  1.0  0.8369
  C  C59  1  0.453020  0.535390  0.418470  1.0  -0.4033
  C  C60  1  0.551920  0.604760  0.458290  1.0  0.7745
  C  C61  1  0.181870  0.793160  0.723230  1.0  0.8369
  C  C62  1  0.119680  0.868730  0.751810  1.0  -0.4033
  C  C63  1  0.218580  0.938100  0.791630  1.0  0.7746
  C  C64  1  0.873510  0.722050  0.056560  1.0  0.8381
  C  C65  1  0.797940  0.584290  0.085140  1.0  -0.404
  C  C66  1  0.728570  0.613820  0.124960  1.0  0.7763
  C  C67  1  0.540180  0.055380  0.389890  1.0  0.8381
  C  C68  1  0.464610  0.917620  0.418470  1.0  -0.404
  C  C69  1  0.395240  0.947150  0.458290  1.0  0.7762
  C  C70  1  0.206840  0.388720  0.723230  1.0  0.8381
  C  C71  1  0.131270  0.250960  0.751810  1.0  -0.404
  C  C72  1  0.061900  0.280490  0.791630  1.0  0.7763
  C  C73  1  0.722050  0.848540  0.943440  1.0  0.8395
  C  C74  1  0.584290  0.786350  0.914860  1.0  -0.4054
  C  C75  1  0.613820  0.885250  0.875040  1.0  0.776
  C  C76  1  0.388720  0.181870  0.276770  1.0  0.8395
  C  C77  1  0.250960  0.119680  0.248190  1.0  -0.4054
  C  C78  1  0.280490  0.218580  0.208370  1.0  0.776
  C  C79  1  0.055380  0.515210  0.610110  1.0  0.8394
  C  C80  1  0.917620  0.453020  0.581530  1.0  -0.4054
  C  C81  1  0.947150  0.551920  0.541710  1.0  0.7759
  C  C82  1  0.151460  0.873510  0.943440  1.0  0.8379
  C  C83  1  0.213650  0.797940  0.914860  1.0  -0.4024
  C  C84  1  0.114750  0.728570  0.875040  1.0  0.7745
  C  C85  1  0.818130  0.206840  0.276770  1.0  0.8379
  C  C86  1  0.880320  0.131270  0.248190  1.0  -0.4024
  C  C87  1  0.781420  0.061900  0.208370  1.0  0.7745
  C  C88  1  0.484790  0.540180  0.610110  1.0  0.8379
  C  C89  1  0.546980  0.464610  0.581530  1.0  -0.4024
  C  C90  1  0.448080  0.395240  0.541710  1.0  0.7745
  C  C91  1  0.126490  0.277950  0.943440  1.0  0.838
  C  C92  1  0.202060  0.415710  0.914860  1.0  -0.4047
  C  C93  1  0.271430  0.386180  0.875040  1.0  0.7723
  C  C94  1  0.793160  0.611280  0.276770  1.0  0.838
  C  C95  1  0.868730  0.749040  0.248190  1.0  -0.4047
  C  C96  1  0.938100  0.719510  0.208370  1.0  0.7723
  C  C97  1  0.459820  0.944620  0.610110  1.0  0.838
  C  C98  1  0.535390  0.082380  0.581530  1.0  -0.4047
  C  C99  1  0.604760  0.052850  0.541710  1.0  0.7722
  O  O100  1  0.276990  0.091180  0.021200  1.0  -0.6243
  O  O101  1  0.161730  0.156170  0.069970  1.0  -0.7229
  O  O102  1  0.254270  0.006380  0.131600  1.0  -0.645
  O  O103  1  0.497230  0.143760  0.148980  1.0  -0.6551
  O  O104  1  0.943660  0.424510  0.354530  1.0  -0.6243
  O  O105  1  0.828400  0.489500  0.403300  1.0  -0.7228
  O  O106  1  0.920940  0.339710  0.464930  1.0  -0.6265
  O  O107  1  0.163900  0.477090  0.482310  1.0  -0.6551
  O  O108  1  0.610320  0.757850  0.687870  1.0  -0.6243
  O  O109  1  0.495060  0.822840  0.736640  1.0  -0.7229
  O  O110  1  0.587600  0.673050  0.798270  1.0  -0.645
  O  O111  1  0.830560  0.810430  0.815650  1.0  -0.6551
  O  O112  1  0.908820  0.185810  0.021200  1.0  -0.6251
  O  O113  1  0.843830  0.005560  0.069970  1.0  -0.7217
  O  O114  1  0.993620  0.247890  0.131600  1.0  -0.6539
  O  O115  1  0.856240  0.353470  0.148980  1.0  -0.6566
  O  O116  1  0.575490  0.519140  0.354530  1.0  -0.6251
  O  O117  1  0.510500  0.338890  0.403300  1.0  -0.7217
  O  O118  1  0.660290  0.581220  0.464930  1.0  -0.6541
  O  O119  1  0.522910  0.686800  0.482310  1.0  -0.6566
  O  O120  1  0.242150  0.852480  0.687870  1.0  -0.6251
  O  O121  1  0.177160  0.672230  0.736640  1.0  -0.7217
  O  O122  1  0.326950  0.914560  0.798270  1.0  -0.6539
  O  O123  1  0.189570  0.020140  0.815650  1.0  -0.6566
  O  O124  1  0.814190  0.723010  0.021200  1.0  -0.6233
  O  O125  1  0.994440  0.838270  0.069970  1.0  -0.7208
  O  O126  1  0.752110  0.745730  0.131600  1.0  -0.6217
  O  O127  1  0.646530  0.502770  0.148980  1.0  -0.6548
  O  O128  1  0.480860  0.056340  0.354530  1.0  -0.6233
  O  O129  1  0.661110  0.171600  0.403300  1.0  -0.7207
  O  O130  1  0.418780  0.079060  0.464930  1.0  -0.6524
  O  O131  1  0.313200  0.836100  0.482310  1.0  -0.6548
  O  O132  1  0.147520  0.389680  0.687870  1.0  -0.6233
  O  O133  1  0.327770  0.504940  0.736640  1.0  -0.7208
  O  O134  1  0.085440  0.412400  0.798270  1.0  -0.6217
  O  O135  1  0.979860  0.169440  0.815650  1.0  -0.6548
  O  O136  1  0.723010  0.908820  0.978800  1.0  -0.6239
  O  O137  1  0.838270  0.843830  0.930030  1.0  -0.722
  O  O138  1  0.745730  0.993620  0.868400  1.0  -0.6495
  O  O139  1  0.502770  0.856240  0.851020  1.0  -0.6526
  O  O140  1  0.389680  0.242150  0.312130  1.0  -0.6239
  O  O141  1  0.504940  0.177160  0.263360  1.0  -0.722
  O  O142  1  0.412400  0.326950  0.201730  1.0  -0.6495
  O  O143  1  0.169440  0.189570  0.184350  1.0  -0.6526
  O  O144  1  0.056340  0.575490  0.645470  1.0  -0.6239
  O  O145  1  0.171600  0.510500  0.596700  1.0  -0.7219
  O  O146  1  0.079060  0.660290  0.535070  1.0  -0.6314
  O  O147  1  0.836100  0.522910  0.517690  1.0  -0.6525
  O  O148  1  0.091180  0.814190  0.978800  1.0  -0.624
  O  O149  1  0.156170  0.994440  0.930030  1.0  -0.7217
  O  O150  1  0.006380  0.752110  0.868400  1.0  -0.6496
  O  O151  1  0.143760  0.646530  0.851020  1.0  -0.6582
  O  O152  1  0.757850  0.147520  0.312130  1.0  -0.624
  O  O153  1  0.822840  0.327770  0.263360  1.0  -0.7217
  O  O154  1  0.673050  0.085440  0.201730  1.0  -0.6496
  O  O155  1  0.810430  0.979860  0.184350  1.0  -0.6582
  O  O156  1  0.424510  0.480860  0.645470  1.0  -0.624
  O  O157  1  0.489500  0.661110  0.596700  1.0  -0.7216
  O  O158  1  0.339710  0.418780  0.535070  1.0  -0.6497
  O  O159  1  0.477090  0.313200  0.517690  1.0  -0.6582
  O  O160  1  0.185810  0.276990  0.978800  1.0  -0.6226
  O  O161  1  0.005560  0.161730  0.930030  1.0  -0.7201
  O  O162  1  0.247890  0.254270  0.868400  1.0  -0.6195
  O  O163  1  0.353470  0.497230  0.851020  1.0  -0.6544
  O  O164  1  0.852480  0.610320  0.312130  1.0  -0.6226
  O  O165  1  0.672230  0.495060  0.263360  1.0  -0.7201
  O  O166  1  0.914560  0.587600  0.201730  1.0  -0.6195
  O  O167  1  0.020140  0.830560  0.184350  1.0  -0.6544
  O  O168  1  0.519140  0.943660  0.645470  1.0  -0.6226
  O  O169  1  0.338890  0.828400  0.596700  1.0  -0.72
  O  O170  1  0.581220  0.920940  0.535070  1.0  -0.6511
  O  O171  1  0.686800  0.163900  0.517690  1.0  -0.6544
