# generated using pymatgen
data_Mn2PHC3O10
_symmetry_space_group_name_H-M   'P 1'
_cell_length_a   7.78950000
_cell_length_b   8.07540000
_cell_length_c   9.72860000
_cell_angle_alpha   75.90200000
_cell_angle_beta   79.14200000
_cell_angle_gamma   86.69500000
_symmetry_Int_Tables_number   1
_chemical_formula_structural   Mn2PHC3O10
_chemical_formula_sum   'Mn4 P2 H2 C6 O20'
_cell_volume   582.85896730
_cell_formula_units_Z   2
loop_
 _symmetry_equiv_pos_site_id
 _symmetry_equiv_pos_as_xyz
  1  'x, y, z'
loop_
 _atom_site_type_symbol
 _atom_site_label
 _atom_site_symmetry_multiplicity
 _atom_site_fract_x
 _atom_site_fract_y
 _atom_site_fract_z
 _atom_site_occupancy
 _atom_site_charge
  Mn  Mn1  1  0.657970  0.467030  0.252690  1.0  1.1122
  Mn  Mn2  1  0.322380  0.191070  0.370350  1.0  1.1181
  Mn  Mn3  1  0.342030  0.532970  0.747310  1.0  1.1128
  Mn  Mn4  1  0.677620  0.808930  0.629650  1.0  1.1172
  P  P5  1  0.573210  0.230230  0.595130  1.0  1.7792
  P  P6  1  0.426790  0.769770  0.404870  1.0  1.7792
  H  H7  1  0.779200  0.360100  0.609000  1.0  0.4551
  H  H8  1  0.220800  0.639900  0.391000  1.0  0.4545
  C  C9  1  0.982000  0.261100  0.269100  1.0  0.6474
  C  C10  1  0.021200  0.430100  0.305500  1.0  0.6403
  C  C11  1  0.433800  0.427300  0.042000  1.0  0.6424
  C  C12  1  0.018000  0.738900  0.730900  1.0  0.6471
  C  C13  1  0.978800  0.569900  0.694500  1.0  0.6419
  C  C14  1  0.566200  0.572700  0.958000  1.0  0.6418
  O  O15  1  0.522900  0.295900  0.445800  1.0  -0.9083
  O  O16  1  0.464700  0.313900  0.705600  1.0  -0.795
  O  O17  1  0.560300  0.039800  0.645100  1.0  -0.76
  O  O18  1  0.772100  0.276000  0.577200  1.0  -0.665
  O  O19  1  0.845500  0.256700  0.221700  1.0  -0.5287
  O  O20  1  0.088700  0.140300  0.291800  1.0  -0.5541
  O  O21  1  0.911200  0.547900  0.285300  1.0  -0.5241
  O  O22  1  0.160100  0.435700  0.350100  1.0  -0.5658
  O  O23  1  0.467400  0.347300  0.163500  1.0  -0.5918
  O  O24  1  0.313100  0.401700  0.984400  1.0  -0.5016
  O  O25  1  0.477100  0.704100  0.554200  1.0  -0.909
  O  O26  1  0.535300  0.686100  0.294400  1.0  -0.7959
  O  O27  1  0.439700  0.960200  0.354900  1.0  -0.7605
  O  O28  1  0.227900  0.724000  0.422800  1.0  -0.6664
  O  O29  1  0.154500  0.743300  0.778300  1.0  -0.5297
  O  O30  1  0.911300  0.859700  0.708200  1.0  -0.551
  O  O31  1  0.088800  0.452100  0.714700  1.0  -0.5243
  O  O32  1  0.839900  0.564300  0.649900  1.0  -0.5643
  O  O33  1  0.532600  0.652700  0.836500  1.0  -0.5922
  O  O34  1  0.686900  0.598300  0.015600  1.0  -0.5015
