# generated using pymatgen
data_Mn5P3H3(CO4)6
_symmetry_space_group_name_H-M   'P 1'
_cell_length_a   7.72660000
_cell_length_b   7.96430000
_cell_length_c   21.22050000
_cell_angle_alpha   90.29800000
_cell_angle_beta   92.20900000
_cell_angle_gamma   90.80500000
_symmetry_Int_Tables_number   1
_chemical_formula_structural   Mn5P3H3(CO4)6
_chemical_formula_sum   'Mn10 P6 H6 C12 O48'
_cell_volume   1304.72432172
_cell_formula_units_Z   2
loop_
 _symmetry_equiv_pos_site_id
 _symmetry_equiv_pos_as_xyz
  1  'x, y, z'
loop_
 _atom_site_type_symbol
 _atom_site_label
 _atom_site_symmetry_multiplicity
 _atom_site_fract_x
 _atom_site_fract_y
 _atom_site_fract_z
 _atom_site_occupancy
 _atom_site_charge
  Mn  Mn1  1  0.611300  0.602850  0.605480  1.0  1.0959
  Mn  Mn2  1  0.290720  0.848700  0.553810  1.0  1.1257
  Mn  Mn3  1  0.200440  0.673590  0.823510  1.0  1.1253
  Mn  Mn4  1  0.523340  0.424800  0.879390  1.0  1.1313
  Mn  Mn5  1  0.597430  0.818210  0.974600  1.0  1.1179
  Mn  Mn6  1  0.388700  0.397150  0.394520  1.0  1.0973
  Mn  Mn7  1  0.709280  0.151300  0.446190  1.0  1.1257
  Mn  Mn8  1  0.799560  0.326410  0.176490  1.0  1.1255
  Mn  Mn9  1  0.476660  0.575200  0.120610  1.0  1.1292
  Mn  Mn10  1  0.402570  0.181790  0.025400  1.0  1.1218
  P  P11  1  0.587330  0.746330  0.456220  1.0  1.7424
  P  P12  1  0.265650  0.574500  0.979990  1.0  1.7085
  P  P13  1  0.323100  0.053340  0.880560  1.0  1.7824
  P  P14  1  0.412670  0.253670  0.543780  1.0  1.7429
  P  P15  1  0.734350  0.425500  0.020010  1.0  1.7082
  P  P16  1  0.676900  0.946660  0.119440  1.0  1.7828
  H  H17  1  0.798900  0.603500  0.453900  1.0  0.4465
  H  H18  1  0.018800  0.638600  0.991000  1.0  0.4247
  H  H19  1  0.110100  0.199800  0.876600  1.0  0.4719
  H  H20  1  0.201100  0.396500  0.546100  1.0  0.4476
  H  H21  1  0.981200  0.361400  0.009000  1.0  0.4252
  H  H22  1  0.889900  0.800200  0.123400  1.0  0.4713
  C  C23  1  0.982600  0.624000  0.583080  1.0  0.6454
  C  C24  1  0.932600  0.806100  0.600150  1.0  0.6133
  C  C25  1  0.471200  0.578800  0.734790  1.0  0.614
  C  C26  1  0.340600  0.691500  0.697130  1.0  0.627
  C  C27  1  0.884000  0.469700  0.842570  1.0  0.6795
  C  C28  1  0.829400  0.651100  0.858150  1.0  0.665
  C  C29  1  0.017400  0.376000  0.416920  1.0  0.6444
  C  C30  1  0.067400  0.193900  0.399850  1.0  0.6131
  C  C31  1  0.528800  0.421200  0.265210  1.0  0.6129
  C  C32  1  0.659400  0.308500  0.302870  1.0  0.6268
  C  C33  1  0.116000  0.530300  0.157430  1.0  0.6805
  C  C34  1  0.170600  0.348900  0.141850  1.0  0.6624
  O  O35  1  0.508200  0.712600  0.520570  1.0  -0.8892
  O  O36  1  0.785600  0.702200  0.463530  1.0  -0.6671
  O  O37  1  0.500100  0.634600  0.405430  1.0  -0.7576
  O  O38  1  0.579500  0.928000  0.437200  1.0  -0.7605
  O  O39  1  0.410300  0.652000  0.022330  1.0  -0.8777
  O  O40  1  0.322000  0.584100  0.911850  1.0  -0.8526
  O  O41  1  0.107400  0.694800  0.986830  1.0  -0.6713
  O  O42  1  0.214700  0.396700  0.997820  1.0  -0.8043
  O  O43  1  0.415600  0.201000  0.852740  1.0  -0.7857
  O  O44  1  0.131300  0.112400  0.895450  1.0  -0.6705
  O  O45  1  0.404400  0.002800  0.944640  1.0  -0.8778
  O  O46  1  0.303400  0.908500  0.835650  1.0  -0.7843
  O  O47  1  0.871100  0.510700  0.589610  1.0  -0.5038
  O  O48  1  0.131700  0.605100  0.563930  1.0  -0.5775
  O  O49  1  0.785000  0.824200  0.621370  1.0  -0.5533
  O  O50  1  0.040600  0.920200  0.591200  1.0  -0.5299
  O  O51  1  0.422500  0.535800  0.788780  1.0  -0.5799
  O  O52  1  0.608900  0.543000  0.711060  1.0  -0.5109
  O  O53  1  0.199600  0.720100  0.719540  1.0  -0.5299
  O  O54  1  0.396200  0.745700  0.645210  1.0  -0.5796
  O  O55  1  0.773800  0.355100  0.849320  1.0  -0.5352
  O  O56  1  0.033700  0.449200  0.824790  1.0  -0.5927
  O  O57  1  0.681100  0.671600  0.878480  1.0  -0.5831
  O  O58  1  0.941400  0.762500  0.849150  1.0  -0.5401
  O  O59  1  0.491800  0.287400  0.479430  1.0  -0.8894
  O  O60  1  0.214400  0.297800  0.536470  1.0  -0.6682
  O  O61  1  0.499900  0.365400  0.594570  1.0  -0.757
  O  O62  1  0.420500  0.072000  0.562800  1.0  -0.7602
  O  O63  1  0.589700  0.348000  0.977670  1.0  -0.8777
  O  O64  1  0.678000  0.415900  0.088150  1.0  -0.8519
  O  O65  1  0.892600  0.305200  0.013170  1.0  -0.6727
  O  O66  1  0.785300  0.603300  0.002180  1.0  -0.8033
  O  O67  1  0.584400  0.799000  0.147260  1.0  -0.787
  O  O68  1  0.868700  0.887600  0.104550  1.0  -0.6704
  O  O69  1  0.595600  0.997200  0.055360  1.0  -0.8776
  O  O70  1  0.696600  0.091500  0.164350  1.0  -0.7832
  O  O71  1  0.128900  0.489300  0.410390  1.0  -0.5057
  O  O72  1  0.868300  0.394900  0.436070  1.0  -0.5767
  O  O73  1  0.215000  0.175800  0.378630  1.0  -0.5538
  O  O74  1  0.959400  0.079800  0.408800  1.0  -0.534
  O  O75  1  0.577500  0.464200  0.211220  1.0  -0.5821
  O  O76  1  0.391100  0.457000  0.288940  1.0  -0.5109
  O  O77  1  0.800400  0.279900  0.280460  1.0  -0.5311
  O  O78  1  0.603800  0.254300  0.354790  1.0  -0.5792
  O  O79  1  0.226200  0.644900  0.150680  1.0  -0.5352
  O  O80  1  0.966300  0.550800  0.175210  1.0  -0.5917
  O  O81  1  0.318900  0.328400  0.121520  1.0  -0.5831
  O  O82  1  0.058600  0.237500  0.150850  1.0  -0.5379
