# generated using pymatgen
data_YbH6(C2O)6
_symmetry_space_group_name_H-M   'P 1'
_cell_length_a   10.74280000
_cell_length_b   11.27860000
_cell_length_c   26.17200000
_cell_angle_alpha   85.06000000
_cell_angle_beta   88.10600000
_cell_angle_gamma   62.36700000
_symmetry_Int_Tables_number   1
_chemical_formula_structural   YbH6(C2O)6
_chemical_formula_sum   'Yb6 H36 C72 O36'
_cell_volume   2798.87036461
_cell_formula_units_Z   6
loop_
 _symmetry_equiv_pos_site_id
 _symmetry_equiv_pos_as_xyz
  1  'x, y, z'
loop_
 _atom_site_type_symbol
 _atom_site_label
 _atom_site_symmetry_multiplicity
 _atom_site_fract_x
 _atom_site_fract_y
 _atom_site_fract_z
 _atom_site_occupancy
 _atom_site_charge
  Yb  Yb1  1  0.379980  0.535810  0.560350  1.0  1.5196
  Yb  Yb2  1  0.411420  0.117230  0.899640  1.0  1.4659
  Yb  Yb3  1  0.343800  0.346390  0.741820  1.0  1.6072
  Yb  Yb4  1  0.620020  0.464190  0.439650  1.0  1.5196
  Yb  Yb5  1  0.588580  0.882770  0.100360  1.0  1.4649
  Yb  Yb6  1  0.656200  0.653610  0.258180  1.0  1.6074
  H  H7  1  0.855900  0.268100  0.651200  1.0  0.1148
  H  H8  1  0.826300  0.516000  0.526700  1.0  0.1247
  H  H9  1  0.460200  0.109100  0.574100  1.0  0.1197
  H  H10  1  0.551500  0.091000  0.425200  1.0  0.1089
  H  H11  1  0.434000  0.621100  0.777700  1.0  0.1173
  H  H12  1  0.334300  0.859100  0.646800  1.0  0.1182
  H  H13  1  0.073300  0.248400  0.670500  1.0  0.1192
  H  H14  1  0.036900  0.504500  0.550000  1.0  0.1052
  H  H15  1  0.053900  0.156600  0.030800  1.0  0.122
  H  H16  1  0.131200  0.872300  0.935900  1.0  0.1069
  H  H17  1  0.592500  0.280100  0.034800  1.0  0.1099
  H  H18  1  0.357300  0.568400  0.928300  1.0  0.1164
  H  H19  1  0.815700  0.164300  0.902500  1.0  0.1011
  H  H20  1  0.710800  0.325300  0.759200  1.0  0.1098
  H  H21  1  0.016100  0.188000  0.896400  1.0  0.1007
  H  H22  1  0.917800  0.337900  0.751200  1.0  0.1084
  H  H23  1  0.459700  0.782100  0.818500  1.0  0.1223
  H  H24  1  0.367700  0.017500  0.687600  1.0  0.1143
  H  H25  1  0.144100  0.731900  0.348800  1.0  0.1152
  H  H26  1  0.173700  0.484000  0.473300  1.0  0.1247
  H  H27  1  0.539800  0.890900  0.425900  1.0  0.1202
  H  H28  1  0.448500  0.909000  0.574800  1.0  0.1091
  H  H29  1  0.566000  0.378900  0.222300  1.0  0.118
  H  H30  1  0.665700  0.140900  0.353200  1.0  0.1183
  H  H31  1  0.926700  0.751600  0.329500  1.0  0.1188
  H  H32  1  0.963100  0.495500  0.450000  1.0  0.105
  H  H33  1  0.946100  0.843400  0.969200  1.0  0.1213
  H  H34  1  0.868800  0.127700  0.064100  1.0  0.1075
  H  H35  1  0.407500  0.719900  0.965200  1.0  0.1098
  H  H36  1  0.642700  0.431600  0.071700  1.0  0.1169
  H  H37  1  0.184300  0.835700  0.097500  1.0  0.101
  H  H38  1  0.289200  0.674700  0.240800  1.0  0.1105
  H  H39  1  0.983900  0.812000  0.103600  1.0  0.1012
  H  H40  1  0.082200  0.662100  0.248800  1.0  0.108
  H  H41  1  0.540300  0.217900  0.181500  1.0  0.1224
  H  H42  1  0.632300  0.982500  0.312400  1.0  0.1142
  C  C43  1  0.674400  0.415700  0.575400  1.0  0.7075
  C  C44  1  0.817300  0.395300  0.587900  1.0  -0.1158
  C  C45  1  0.892800  0.315100  0.630500  1.0  -0.057
  C  C46  1  0.873500  0.464900  0.556300  1.0  -0.0854
  C  C47  1  0.511700  0.252200  0.498800  1.0  0.7413
  C  C48  1  0.475700  0.065400  0.544200  1.0  -0.0573
  C  C49  1  0.530200  0.054800  0.455400  1.0  -0.0316
  C  C50  1  0.369500  0.617500  0.680600  1.0  0.7784
  C  C51  1  0.383100  0.723100  0.708300  1.0  -0.1249
  C  C52  1  0.420100  0.700800  0.759500  1.0  -0.0445
  C  C53  1  0.361500  0.842800  0.681100  1.0  -0.041
  C  C54  1  0.208900  0.377500  0.627500  1.0  0.7858
  C  C55  1  0.074400  0.377400  0.612300  1.0  -0.1345
  C  C56  1  0.022100  0.304300  0.642400  1.0  -0.0364
  C  C57  1  0.000400  0.455900  0.570000  1.0  -0.0178
  C  C58  1  0.232300  0.036600  0.956400  1.0  0.6367
  C  C59  1  0.114500  0.015100  0.980400  1.0  -0.0968
  C  C60  1  0.033100  0.092800  0.018400  1.0  -0.0533
  C  C61  1  0.078600  0.923700  0.962100  1.0  -0.0552
  C  C62  1  0.438700  0.308600  0.953400  1.0  0.6683
  C  C63  1  0.470400  0.408900  0.977900  1.0  -0.1042
  C  C64  1  0.555300  0.368400  0.020800  1.0  -0.0215
  C  C65  1  0.415000  0.540900  0.957200  1.0  -0.0448
  C  C66  1  0.610800  0.224000  0.835900  1.0  0.7643
  C  C67  1  0.741400  0.240700  0.831500  1.0  -0.1279
  C  C68  1  0.835300  0.200300  0.871800  1.0  -0.0331
  C  C69  1  0.773700  0.294300  0.786700  1.0  -0.0527
  C  C70  1  0.129200  0.266800  0.817200  1.0  0.7613
  C  C71  1  0.992600  0.258500  0.822500  1.0  -0.1057
  C  C72  1  0.957200  0.211900  0.868000  1.0  -0.0513
  C  C73  1  0.897600  0.302500  0.781900  1.0  -0.0448
  C  C74  1  0.439800  0.018000  0.783400  1.0  0.7792
  C  C75  1  0.419100  0.913300  0.756900  1.0  -0.1213
  C  C76  1  0.436600  0.796700  0.783800  1.0  -0.0376
  C  C77  1  0.380700  0.937800  0.705600  1.0  -0.0311
  C  C78  1  0.505000  0.119900  0.498800  1.0  -0.1169
  C  C79  1  0.325600  0.584300  0.424600  1.0  0.7059
  C  C80  1  0.182700  0.604700  0.412100  1.0  -0.1176
  C  C81  1  0.107200  0.684900  0.369500  1.0  -0.0577
  C  C82  1  0.126500  0.535100  0.443700  1.0  -0.0852
  C  C83  1  0.488300  0.747800  0.501200  1.0  0.7396
  C  C84  1  0.524300  0.934600  0.455800  1.0  -0.0552
  C  C85  1  0.469800  0.945200  0.544600  1.0  -0.0312
  C  C86  1  0.630500  0.382500  0.319400  1.0  0.7817
  C  C87  1  0.616900  0.276900  0.291700  1.0  -0.1243
  C  C88  1  0.579900  0.299200  0.240500  1.0  -0.0426
  C  C89  1  0.638500  0.157200  0.318900  1.0  -0.0406
  C  C90  1  0.791100  0.622500  0.372500  1.0  0.7868
  C  C91  1  0.925600  0.622600  0.387700  1.0  -0.1355
  C  C92  1  0.977900  0.695700  0.357600  1.0  -0.0359
  C  C93  1  0.999600  0.544100  0.430000  1.0  -0.017
  C  C94  1  0.767700  0.963400  0.043600  1.0  0.6354
  C  C95  1  0.885500  0.984900  0.019600  1.0  -0.0987
  C  C96  1  0.966900  0.907200  0.981600  1.0  -0.0532
  C  C97  1  0.921400  0.076300  0.037900  1.0  -0.0548
  C  C98  1  0.561300  0.691400  0.046600  1.0  0.6755
  C  C99  1  0.529600  0.591100  0.022100  1.0  -0.103
  C  C100  1  0.444700  0.631600  0.979200  1.0  -0.0207
  C  C101  1  0.585000  0.459100  0.042800  1.0  -0.0457
  C  C102  1  0.389200  0.776000  0.164100  1.0  0.7656
  C  C103  1  0.258600  0.759300  0.168500  1.0  -0.1298
  C  C104  1  0.164700  0.799700  0.128200  1.0  -0.0323
  C  C105  1  0.226300  0.705700  0.213300  1.0  -0.0532
  C  C106  1  0.870800  0.733200  0.182800  1.0  0.7652
  C  C107  1  0.007400  0.741500  0.177500  1.0  -0.1067
  C  C108  1  0.042800  0.788100  0.132000  1.0  -0.0491
  C  C109  1  0.102400  0.697500  0.218100  1.0  -0.0459
  C  C110  1  0.560200  0.982000  0.216600  1.0  0.7792
  C  C111  1  0.580900  0.086700  0.243100  1.0  -0.1209
  C  C112  1  0.563400  0.203300  0.216200  1.0  -0.0392
  C  C113  1  0.619300  0.062200  0.294400  1.0  -0.0308
  C  C114  1  0.495000  0.880100  0.501200  1.0  -0.1166
  O  O115  1  0.628600  0.449900  0.529730  1.0  -0.7385
  O  O116  1  0.595100  0.408900  0.610600  1.0  -0.571
  O  O117  1  0.334200  0.645100  0.634000  1.0  -0.6634
  O  O118  1  0.244200  0.454900  0.600600  1.0  -0.6786
  O  O119  1  0.455800  0.320600  0.535200  1.0  -0.5798
  O  O120  1  0.573200  0.281300  0.461600  1.0  -0.6489
  O  O121  1  0.302900  0.968100  0.921800  1.0  -0.5443
  O  O122  1  0.255100  0.128900  0.971600  1.0  -0.5436
  O  O123  1  0.355400  0.346900  0.915800  1.0  -0.5424
  O  O124  1  0.494500  0.189100  0.971970  1.0  -0.5621
  O  O125  1  0.605500  0.144000  0.870600  1.0  -0.631
  O  O126  1  0.464700  0.996700  0.830000  1.0  -0.6256
  O  O127  1  0.206500  0.234400  0.856100  1.0  -0.6527
  O  O128  1  0.395400  0.509000  0.706210  1.0  -0.7143
  O  O129  1  0.273500  0.305500  0.665700  1.0  -0.6758
  O  O130  1  0.159100  0.302600  0.774400  1.0  -0.6727
  O  O131  1  0.435600  0.116000  0.755800  1.0  -0.6536
  O  O132  1  0.513100  0.293200  0.804800  1.0  -0.7112
  O  O133  1  0.371400  0.550100  0.470270  1.0  -0.7381
  O  O134  1  0.404900  0.591100  0.389400  1.0  -0.5689
  O  O135  1  0.665800  0.354900  0.366000  1.0  -0.6614
  O  O136  1  0.755800  0.545100  0.399400  1.0  -0.6781
  O  O137  1  0.544200  0.679400  0.464800  1.0  -0.5839
  O  O138  1  0.426800  0.718700  0.538400  1.0  -0.6504
  O  O139  1  0.697100  0.031900  0.078200  1.0  -0.5453
  O  O140  1  0.744900  0.871100  0.028400  1.0  -0.5453
  O  O141  1  0.644600  0.653100  0.084200  1.0  -0.5436
  O  O142  1  0.505500  0.810900  0.028030  1.0  -0.565
  O  O143  1  0.394500  0.856000  0.129400  1.0  -0.6342
  O  O144  1  0.535300  0.003300  0.170000  1.0  -0.6304
  O  O145  1  0.793500  0.765600  0.143900  1.0  -0.6531
  O  O146  1  0.604600  0.491000  0.293790  1.0  -0.7152
  O  O147  1  0.726500  0.694500  0.334300  1.0  -0.6762
  O  O148  1  0.840900  0.697400  0.225600  1.0  -0.6704
  O  O149  1  0.564400  0.884000  0.244200  1.0  -0.6562
  O  O150  1  0.486900  0.706800  0.195200  1.0  -0.711
