# generated using pymatgen
data_Dy2Cu3H18C42(NO4)6
_symmetry_space_group_name_H-M   'P 1'
_cell_length_a   17.00500000
_cell_length_b   17.53900000
_cell_length_c   21.66800000
_cell_angle_alpha   92.01000000
_cell_angle_beta   104.49000000
_cell_angle_gamma   107.16000000
_symmetry_Int_Tables_number   1
_chemical_formula_structural   Dy2Cu3H18C42(NO4)6
_chemical_formula_sum   'Dy4 Cu6 H36 C84 N12 O48'
_cell_volume   5936.83783772
_cell_formula_units_Z   2
loop_
 _symmetry_equiv_pos_site_id
 _symmetry_equiv_pos_as_xyz
  1  'x, y, z'
loop_
 _atom_site_type_symbol
 _atom_site_label
 _atom_site_symmetry_multiplicity
 _atom_site_fract_x
 _atom_site_fract_y
 _atom_site_fract_z
 _atom_site_occupancy
 _atom_site_charge
  Dy  Dy1  1  0.880680  0.711200  0.092990  1.0  2.2671
  Dy  Dy2  1  0.002250  0.758980  0.295760  1.0  2.2623
  Dy  Dy3  1  0.119320  0.288800  0.907010  1.0  2.2683
  Dy  Dy4  1  0.997760  0.241020  0.704240  1.0  2.2607
  Cu  Cu5  1  0.432200  0.710860  0.190270  1.0  0.7426
  Cu  Cu6  1  0.878100  0.217790  0.191070  1.0  0.618
  Cu  Cu7  1  0.885170  0.707210  0.678230  1.0  0.731
  Cu  Cu8  1  0.567800  0.289140  0.809730  1.0  0.7432
  Cu  Cu9  1  0.121900  0.782210  0.808930  1.0  0.6231
  Cu  Cu10  1  0.114830  0.292790  0.321770  1.0  0.7299
  H  H11  1  0.675500  0.694400  0.125800  1.0  0.0981
  H  H12  1  0.152500  0.739900  0.067300  1.0  0.1118
  H  H13  1  0.286200  0.726400  0.078200  1.0  0.0909
  H  H14  1  0.204000  0.758900  0.262900  1.0  0.1135
  H  H15  1  0.577800  0.705700  0.303100  1.0  0.0984
  H  H16  1  0.916400  0.597200  0.891200  1.0  0.107
  H  H17  1  0.910200  0.592300  0.784200  1.0  0.088
  H  H18  1  0.895200  0.815900  0.886000  1.0  0.0991
  H  H19  1  0.896300  0.466100  0.101800  1.0  0.1067
  H  H20  1  0.908400  0.359300  0.294500  1.0  0.1023
  H  H21  1  0.936000  0.495000  0.292400  1.0  0.0919
  H  H22  1  0.882700  0.094300  0.092100  1.0  0.0899
  H  H23  1  0.965600  0.637200  0.492100  1.0  0.1066
  H  H24  1  0.894000  0.838600  0.584600  1.0  0.0917
  H  H25  1  0.893700  0.964000  0.092300  1.0  0.1056
  H  H26  1  0.939100  0.990800  0.284400  1.0  0.0986
  H  H27  1  0.719900  0.708700  0.316900  1.0  0.1135
  H  H28  1  0.915300  0.848000  0.482100  1.0  0.1072
  H  H29  1  0.324500  0.305600  0.874200  1.0  0.0992
  H  H30  1  0.847500  0.260100  0.932700  1.0  0.1131
  H  H31  1  0.713800  0.273600  0.921800  1.0  0.0904
  H  H32  1  0.796000  0.241100  0.737100  1.0  0.1137
  H  H33  1  0.422200  0.294300  0.696900  1.0  0.0984
  H  H34  1  0.083600  0.402800  0.108800  1.0  0.1068
  H  H35  1  0.089800  0.407700  0.215800  1.0  0.089
  H  H36  1  0.104800  0.184100  0.114000  1.0  0.0987
  H  H37  1  0.103700  0.533900  0.898200  1.0  0.1067
  H  H38  1  0.091600  0.640700  0.705500  1.0  0.1035
  H  H39  1  0.064000  0.505000  0.707600  1.0  0.0914
  H  H40  1  0.117300  0.905700  0.907900  1.0  0.0895
  H  H41  1  0.034400  0.362800  0.507900  1.0  0.1071
  H  H42  1  0.106000  0.161400  0.415400  1.0  0.0925
  H  H43  1  0.106300  0.036000  0.907700  1.0  0.1052
  H  H44  1  0.060900  0.009200  0.715600  1.0  0.0996
  H  H45  1  0.280100  0.291300  0.683100  1.0  0.1134
  H  H46  1  0.084700  0.152000  0.517900  1.0  0.1064
  C  C47  1  0.937000  0.883800  0.193900  1.0  0.7252
  C  C48  1  0.807800  0.710700  0.230900  1.0  0.7588
  C  C49  1  0.712600  0.703900  0.220900  1.0  -0.1543
  C  C50  1  0.970300  0.751400  0.416600  1.0  0.7545
  C  C51  1  0.900900  0.710000  0.968100  1.0  0.685
  C  C52  1  0.904400  0.705600  0.900100  1.0  -0.1185
  C  C53  1  0.657600  0.697800  0.162700  1.0  -0.0039
  C  C54  1  0.188600  0.741300  0.107800  1.0  -0.0959
  C  C55  1  0.268500  0.732300  0.114900  1.0  0.0949
  C  C56  1  0.219400  0.752500  0.225300  1.0  -0.05
  C  C57  1  0.299300  0.742200  0.225300  1.0  0.1393
  C  C58  1  0.076400  0.756500  0.157000  1.0  0.7163
  C  C59  1  0.922100  0.963300  0.191500  1.0  -0.141
  C  C60  1  0.510000  0.692600  0.097800  1.0  0.6714
  C  C61  1  0.364300  0.740000  0.289000  1.0  0.4664
  C  C62  1  0.164400  0.752400  0.163100  1.0  -0.1522
  C  C63  1  0.575400  0.696400  0.158100  1.0  0.1697
  C  C64  1  0.598600  0.703900  0.267400  1.0  0.1093
  C  C65  1  0.909900  0.640500  0.869200  1.0  -0.1044
  C  C66  1  0.906100  0.637900  0.804800  1.0  0.1532
  C  C67  1  0.890900  0.762700  0.800600  1.0  0.1127
  C  C68  1  0.896600  0.769000  0.865600  1.0  -0.0345
  C  C69  1  0.899800  0.445200  0.140800  1.0  -0.014
  C  C70  1  0.920800  0.496200  0.198500  1.0  -0.1646
  C  C71  1  0.935100  0.585500  0.197700  1.0  0.7385
  C  C72  1  0.884700  0.364600  0.143500  1.0  0.0337
  C  C73  1  0.907800  0.381200  0.255900  1.0  0.1379
  C  C74  1  0.923300  0.462200  0.254300  1.0  -0.0387
  C  C75  1  0.892600  0.072400  0.130700  1.0  0.1466
  C  C76  1  0.914400  0.085800  0.240700  1.0  0.129
  C  C77  1  0.882200  0.827000  0.758600  1.0  0.6676
  C  C78  1  0.949800  0.677800  0.509400  1.0  -0.018
  C  C79  1  0.928000  0.670600  0.568000  1.0  0.0723
  C  C80  1  0.905300  0.796800  0.564600  1.0  0.1194
  C  C81  1  0.901300  0.994500  0.130600  1.0  -0.0886
  C  C82  1  0.927100  0.009400  0.244500  1.0  -0.031
  C  C83  1  0.948100  0.745500  0.476400  1.0  -0.0993
  C  C84  1  0.683900  0.706000  0.276200  1.0  -0.0871
  C  C85  1  0.919800  0.139600  0.295400  1.0  0.7201
  C  C86  1  0.869500  0.306100  0.086200  1.0  0.6395
  C  C87  1  0.926100  0.603200  0.606300  1.0  0.7165
  C  C88  1  0.921800  0.804500  0.503700  1.0  -0.0794
  C  C89  1  0.063000  0.116200  0.806100  1.0  0.7249
  C  C90  1  0.192200  0.289300  0.769100  1.0  0.7591
  C  C91  1  0.287400  0.296100  0.779100  1.0  -0.1567
  C  C92  1  0.029700  0.248600  0.583400  1.0  0.7535
  C  C93  1  0.099100  0.290000  0.031900  1.0  0.6839
  C  C94  1  0.095600  0.294400  0.099900  1.0  -0.122
  C  C95  1  0.342400  0.302200  0.837300  1.0  -0.0059
  C  C96  1  0.811400  0.258700  0.892200  1.0  -0.0965
  C  C97  1  0.731500  0.267700  0.885100  1.0  0.0945
  C  C98  1  0.780600  0.247500  0.774700  1.0  -0.0502
  C  C99  1  0.700700  0.257800  0.774700  1.0  0.138
  C  C100  1  0.923600  0.243500  0.843000  1.0  0.7149
  C  C101  1  0.077900  0.036700  0.808500  1.0  -0.1417
  C  C102  1  0.490000  0.307400  0.902200  1.0  0.6744
  C  C103  1  0.635700  0.260000  0.711000  1.0  0.4661
  C  C104  1  0.835600  0.247600  0.836900  1.0  -0.1515
  C  C105  1  0.424600  0.303600  0.841900  1.0  0.1714
  C  C106  1  0.401400  0.296100  0.732600  1.0  0.1078
  C  C107  1  0.090100  0.359500  0.130800  1.0  -0.1046
  C  C108  1  0.093900  0.362100  0.195200  1.0  0.1541
  C  C109  1  0.109100  0.237300  0.199400  1.0  0.1125
  C  C110  1  0.103400  0.231000  0.134400  1.0  -0.0337
  C  C111  1  0.100200  0.554800  0.859200  1.0  -0.0131
  C  C112  1  0.079200  0.503800  0.801500  1.0  -0.1636
  C  C113  1  0.064900  0.414500  0.802300  1.0  0.7386
  C  C114  1  0.115300  0.635400  0.856500  1.0  0.0342
  C  C115  1  0.092200  0.618800  0.744100  1.0  0.1358
  C  C116  1  0.076700  0.537800  0.745700  1.0  -0.0388
  C  C117  1  0.107400  0.927600  0.869300  1.0  0.1478
  C  C118  1  0.085600  0.914200  0.759300  1.0  0.1262
  C  C119  1  0.117800  0.173000  0.241400  1.0  0.6686
  C  C120  1  0.050200  0.322200  0.490600  1.0  -0.0172
  C  C121  1  0.072000  0.329400  0.432000  1.0  0.072
  C  C122  1  0.094700  0.203200  0.435400  1.0  0.1213
  C  C123  1  0.098700  0.005500  0.869400  1.0  -0.0888
  C  C124  1  0.072900  0.990600  0.755500  1.0  -0.0305
  C  C125  1  0.051900  0.254500  0.523600  1.0  -0.0979
  C  C126  1  0.316100  0.294000  0.723800  1.0  -0.0866
  C  C127  1  0.080200  0.860400  0.704600  1.0  0.7243
  C  C128  1  0.130500  0.693900  0.913800  1.0  0.6387
  C  C129  1  0.073900  0.396800  0.393700  1.0  0.7147
  C  C130  1  0.078200  0.195500  0.496300  1.0  -0.08
  N  N131  1  0.896600  0.699300  0.770500  1.0  -0.3475
  N  N132  1  0.898100  0.114600  0.183800  1.0  -0.329
  N  N133  1  0.905600  0.728800  0.594700  1.0  -0.2985
  N  N134  1  0.891900  0.334000  0.201800  1.0  -0.3235
  N  N135  1  0.546700  0.699600  0.209200  1.0  -0.3208
  N  N136  1  0.322400  0.731700  0.172500  1.0  -0.3097
  N  N137  1  0.103400  0.300700  0.229500  1.0  -0.3466
  N  N138  1  0.101900  0.885400  0.816200  1.0  -0.331
  N  N139  1  0.094400  0.271200  0.405300  1.0  -0.2996
  N  N140  1  0.108100  0.666000  0.798200  1.0  -0.3247
  N  N141  1  0.453300  0.300400  0.790800  1.0  -0.3228
  N  N142  1  0.677600  0.268300  0.827500  1.0  -0.3073
  O  O143  1  0.974500  0.691300  0.388370  1.0  -0.6506
  O  O144  1  0.984000  0.817100  0.395070  1.0  -0.6075
  O  O145  1  0.947000  0.547500  0.586100  1.0  -0.4487
  O  O146  1  0.909500  0.607800  0.658300  1.0  -0.5744
  O  O147  1  0.923000  0.113900  0.348000  1.0  -0.525
  O  O148  1  0.914200  0.208700  0.282400  1.0  -0.6166
  O  O149  1  0.956500  0.861600  0.245420  1.0  -0.6956
  O  O150  1  0.926000  0.845500  0.140620  1.0  -0.7135
  O  O151  1  0.873100  0.891200  0.781800  1.0  -0.5022
  O  O152  1  0.894500  0.645900  0.995570  1.0  -0.665
  O  O153  1  0.901000  0.774600  0.995870  1.0  -0.7095
  O  O154  1  0.953000  0.626300  0.251580  1.0  -0.6891
  O  O155  1  0.056100  0.765700  0.208620  1.0  -0.7951
  O  O156  1  0.028200  0.749200  0.101560  1.0  -0.6253
  O  O157  1  0.427800  0.724200  0.280390  1.0  -0.5497
  O  O158  1  0.348500  0.749500  0.339400  1.0  -0.4906
  O  O159  1  0.830900  0.706100  0.180620  1.0  -0.7993
  O  O160  1  0.853800  0.722900  0.286500  1.0  -0.6166
  O  O161  1  0.526100  0.684700  0.046200  1.0  -0.4872
  O  O162  1  0.438400  0.700100  0.101540  1.0  -0.5465
  O  O163  1  0.927500  0.610200  0.142190  1.0  -0.736
  O  O164  1  0.860900  0.327000  0.033300  1.0  -0.5141
  O  O165  1  0.867500  0.232400  0.101400  1.0  -0.5792
  O  O166  1  0.881000  0.813300  0.700700  1.0  -0.5755
  O  O167  1  0.025500  0.308700  0.611630  1.0  -0.6499
  O  O168  1  0.016000  0.182900  0.604930  1.0  -0.6083
  O  O169  1  0.053000  0.452500  0.413900  1.0  -0.4511
  O  O170  1  0.090500  0.392200  0.341700  1.0  -0.5768
  O  O171  1  0.077000  0.886100  0.652000  1.0  -0.5231
  O  O172  1  0.085800  0.791300  0.717600  1.0  -0.6144
  O  O173  1  0.043500  0.138400  0.754580  1.0  -0.694
  O  O174  1  0.074000  0.154500  0.859380  1.0  -0.7124
  O  O175  1  0.126900  0.108800  0.218200  1.0  -0.5026
  O  O176  1  0.105500  0.354100  0.004430  1.0  -0.665
  O  O177  1  0.099000  0.225400  0.004130  1.0  -0.7095
  O  O178  1  0.047000  0.373700  0.748420  1.0  -0.6899
  O  O179  1  0.943900  0.234300  0.791380  1.0  -0.7946
  O  O180  1  0.971800  0.250800  0.898440  1.0  -0.6262
  O  O181  1  0.572200  0.275800  0.719610  1.0  -0.5515
  O  O182  1  0.651500  0.250500  0.660600  1.0  -0.4878
  O  O183  1  0.169100  0.293900  0.819380  1.0  -0.7999
  O  O184  1  0.146200  0.277100  0.713500  1.0  -0.6177
  O  O185  1  0.473900  0.315300  0.953800  1.0  -0.489
  O  O186  1  0.561600  0.299900  0.898460  1.0  -0.5458
  O  O187  1  0.072500  0.389800  0.857810  1.0  -0.7372
  O  O188  1  0.139100  0.673000  0.966700  1.0  -0.5167
  O  O189  1  0.132500  0.767600  0.898600  1.0  -0.5802
  O  O190  1  0.119000  0.186700  0.299300  1.0  -0.5747
