# generated using pymatgen
data_MnV4(PO5)4
_symmetry_space_group_name_H-M   'P 1'
_cell_length_a   7.07000000
_cell_length_b   12.35600000
_cell_length_c   17.12000000
_cell_angle_alpha   75.69800000
_cell_angle_beta   85.65100000
_cell_angle_gamma   78.33100000
_symmetry_Int_Tables_number   1
_chemical_formula_structural   MnV4(PO5)4
_chemical_formula_sum   'Mn2 V8 P8 O40'
_cell_volume   1418.72020464
_cell_formula_units_Z   2
loop_
 _symmetry_equiv_pos_site_id
 _symmetry_equiv_pos_as_xyz
  1  'x, y, z'
loop_
 _atom_site_type_symbol
 _atom_site_label
 _atom_site_symmetry_multiplicity
 _atom_site_fract_x
 _atom_site_fract_y
 _atom_site_fract_z
 _atom_site_occupancy
 _atom_site_charge
  Mn  Mn1  1  0.250680  0.750160  0.749940  1.0  1.1926
  Mn  Mn2  1  0.749320  0.249840  0.250060  1.0  1.1928
  V  V3  1  0.469080  0.703730  0.572710  1.0  1.2637
  V  V4  1  0.031360  0.796220  0.927550  1.0  1.2727
  V  V5  1  0.266500  0.247070  0.752880  1.0  1.9605
  V  V6  1  0.765520  0.253170  0.747680  1.0  1.9742
  V  V7  1  0.530920  0.296270  0.427290  1.0  1.2639
  V  V8  1  0.968640  0.203780  0.072450  1.0  1.2708
  V  V9  1  0.733500  0.752930  0.247120  1.0  1.9599
  V  V10  1  0.234480  0.746830  0.252320  1.0  1.9749
  P  P11  1  0.066030  0.014890  0.783550  1.0  1.7622
  P  P12  1  0.486330  0.739580  0.411830  1.0  1.7886
  P  P13  1  0.434580  0.485050  0.716450  1.0  1.7898
  P  P14  1  0.014900  0.760940  0.088470  1.0  1.7325
  P  P15  1  0.933970  0.985110  0.216450  1.0  1.7623
  P  P16  1  0.513670  0.260420  0.588170  1.0  1.7873
  P  P17  1  0.565420  0.514950  0.283550  1.0  1.7902
  P  P18  1  0.985100  0.239060  0.911530  1.0  1.7338
  O  O19  1  0.130400  0.930800  0.730400  1.0  -0.758
  O  O20  1  0.214500  0.089700  0.782700  1.0  -0.787
  O  O21  1  0.031400  0.950000  0.872300  1.0  -0.7757
  O  O22  1  0.871200  0.090100  0.752800  1.0  -0.7162
  O  O23  1  0.654600  0.774400  0.357300  1.0  -0.724
  O  O24  1  0.320700  0.730400  0.363900  1.0  -0.7972
  O  O25  1  0.544300  0.628000  0.477500  1.0  -0.7316
  O  O26  1  0.410700  0.820700  0.468600  1.0  -0.6872
  O  O27  1  0.286200  0.409600  0.718100  1.0  -0.7748
  O  O28  1  0.629400  0.410200  0.747100  1.0  -0.7452
  O  O29  1  0.465300  0.549500  0.627900  1.0  -0.7709
  O  O30  1  0.368900  0.569700  0.769200  1.0  -0.7629
  O  O31  1  0.182100  0.769300  0.137800  1.0  -0.7822
  O  O32  1  0.094400  0.679300  0.031900  1.0  -0.6761
  O  O33  1  0.957000  0.871500  0.022480  1.0  -0.7179
  O  O34  1  0.846700  0.725200  0.141700  1.0  -0.7325
  O  O35  1  0.512400  0.205000  0.787400  1.0  -0.7141
  O  O36  1  0.284500  0.763300  0.622700  1.0  -0.6992
  O  O37  1  0.993700  0.295400  0.713300  1.0  -0.7159
  O  O38  1  0.217000  0.737400  0.877300  1.0  -0.6673
  O  O39  1  0.869600  0.069200  0.269600  1.0  -0.7592
  O  O40  1  0.785500  0.910300  0.217300  1.0  -0.7867
  O  O41  1  0.968600  0.050000  0.127700  1.0  -0.7762
  O  O42  1  0.128800  0.909900  0.247200  1.0  -0.715
  O  O43  1  0.345400  0.225600  0.642700  1.0  -0.7243
  O  O44  1  0.679300  0.269600  0.636100  1.0  -0.7968
  O  O45  1  0.455700  0.372000  0.522500  1.0  -0.734
  O  O46  1  0.589300  0.179300  0.531400  1.0  -0.6859
  O  O47  1  0.713800  0.590400  0.281900  1.0  -0.7751
  O  O48  1  0.370600  0.589800  0.252900  1.0  -0.7452
  O  O49  1  0.534700  0.450500  0.372100  1.0  -0.7719
  O  O50  1  0.631100  0.430300  0.230800  1.0  -0.7611
  O  O51  1  0.817900  0.230700  0.862200  1.0  -0.7819
  O  O52  1  0.905600  0.320700  0.968100  1.0  -0.678
  O  O53  1  0.043000  0.128500  0.977520  1.0  -0.7164
  O  O54  1  0.153300  0.274800  0.858300  1.0  -0.7312
  O  O55  1  0.487600  0.795000  0.212600  1.0  -0.716
  O  O56  1  0.715500  0.236700  0.377300  1.0  -0.6992
  O  O57  1  0.006300  0.704600  0.286700  1.0  -0.7151
  O  O58  1  0.783000  0.262600  0.122700  1.0  -0.6674
