# generated using pymatgen
data_LaH27C30(NO2)3
_symmetry_space_group_name_H-M   'P 1'
_cell_length_a   9.55740000
_cell_length_b   12.60560000
_cell_length_c   18.98920000
_cell_angle_alpha   106.13100000
_cell_angle_beta   98.97100000
_cell_angle_gamma   100.47900000
_symmetry_Int_Tables_number   1
_chemical_formula_structural   LaH27C30(NO2)3
_chemical_formula_sum   'La2 H54 C60 N6 O12'
_cell_volume   2108.77965596
_cell_formula_units_Z   2
loop_
 _symmetry_equiv_pos_site_id
 _symmetry_equiv_pos_as_xyz
  1  'x, y, z'
loop_
 _atom_site_type_symbol
 _atom_site_label
 _atom_site_symmetry_multiplicity
 _atom_site_fract_x
 _atom_site_fract_y
 _atom_site_fract_z
 _atom_site_occupancy
 _atom_site_charge
  La  La1  1  0.766820  0.981790  0.996150  1.0  2.1734
  La  La2  1  0.233180  0.018210  0.003850  1.0  2.1642
  H  H3  1  0.356100  0.151300  0.331700  1.0  0.1102
  H  H4  1  0.354000  0.083300  0.204400  1.0  0.0864
  H  H5  1  0.782300  0.086900  0.257800  1.0  0.0899
  H  H6  1  0.791700  0.153400  0.670700  1.0  0.0971
  H  H7  1  0.777900  0.161400  0.384000  1.0  0.091
  H  H8  1  0.146300  0.340700  0.683000  1.0  0.0883
  H  H9  1  0.116700  0.465200  0.698100  1.0  0.0964
  H  H10  1  0.202100  0.418400  0.634400  1.0  0.1
  H  H11  1  0.775500  0.125900  0.785800  1.0  0.0979
  H  H12  1  0.110600  0.179200  0.598400  1.0  0.0712
  H  H13  1  0.969100  0.076100  0.563700  1.0  0.0979
  H  H14  1  0.202900  0.123800  0.821700  1.0  0.097
  H  H15  1  0.138400  0.779800  0.836500  1.0  0.104
  H  H16  1  0.085700  0.556500  0.602000  1.0  0.0693
  H  H17  1  0.939200  0.579500  0.562000  1.0  0.0863
  H  H18  1  0.741700  0.562300  0.646200  1.0  0.0892
  H  H19  1  0.636000  0.039400  0.460300  1.0  0.0845
  H  H20  1  0.691400  0.036800  0.543600  1.0  0.0961
  H  H21  1  0.794700  0.019600  0.484700  1.0  0.0809
  H  H22  1  0.701900  0.673200  0.757600  1.0  0.099
  H  H23  1  0.208500  0.141800  0.703500  1.0  0.1001
  H  H24  1  0.510200  0.146100  0.463800  1.0  0.0843
  H  H25  1  0.506300  0.268400  0.455500  1.0  0.0779
  H  H26  1  0.169400  0.668500  0.722800  1.0  0.0924
  H  H27  1  0.659700  0.415300  0.435100  1.0  0.0917
  H  H28  1  0.756900  0.525500  0.501100  1.0  0.095
  H  H29  1  0.606700  0.458400  0.511700  1.0  0.1076
  H  H30  1  0.643900  0.848700  0.668300  1.0  0.1115
  H  H31  1  0.646000  0.916700  0.795600  1.0  0.0865
  H  H32  1  0.217700  0.913100  0.742200  1.0  0.0892
  H  H33  1  0.208300  0.846600  0.329300  1.0  0.0977
  H  H34  1  0.222100  0.838600  0.616000  1.0  0.0905
  H  H35  1  0.853700  0.659300  0.317000  1.0  0.0897
  H  H36  1  0.883300  0.534800  0.301900  1.0  0.0962
  H  H37  1  0.797900  0.581600  0.365600  1.0  0.1001
  H  H38  1  0.224500  0.874100  0.214200  1.0  0.0978
  H  H39  1  0.889400  0.820800  0.401600  1.0  0.0705
  H  H40  1  0.030900  0.923900  0.436300  1.0  0.0982
  H  H41  1  0.797100  0.876200  0.178300  1.0  0.0966
  H  H42  1  0.861600  0.220200  0.163500  1.0  0.104
  H  H43  1  0.914300  0.443500  0.398000  1.0  0.0685
  H  H44  1  0.060800  0.420500  0.438000  1.0  0.0865
  H  H45  1  0.258300  0.437700  0.353800  1.0  0.0893
  H  H46  1  0.364000  0.960600  0.539700  1.0  0.083
  H  H47  1  0.308600  0.963200  0.456400  1.0  0.0964
  H  H48  1  0.205300  0.980400  0.515300  1.0  0.0817
  H  H49  1  0.298100  0.326800  0.242400  1.0  0.098
  H  H50  1  0.791500  0.858200  0.296500  1.0  0.0982
  H  H51  1  0.489800  0.853900  0.536200  1.0  0.0833
  H  H52  1  0.493700  0.731600  0.544500  1.0  0.078
  H  H53  1  0.830600  0.331500  0.277200  1.0  0.0909
  H  H54  1  0.340300  0.584700  0.564900  1.0  0.0905
  H  H55  1  0.243100  0.474500  0.498900  1.0  0.0951
  H  H56  1  0.393300  0.541600  0.488300  1.0  0.1087
  C  C57  1  0.922000  0.232200  0.577500  1.0  -0.0455
  C  C58  1  0.980900  0.348300  0.602300  1.0  0.0357
  C  C59  1  0.712500  0.258800  0.501600  1.0  -0.1228
  C  C60  1  0.908600  0.420000  0.574700  1.0  -0.0278
  C  C61  1  0.568100  0.080900  0.217100  1.0  -0.0833
  C  C62  1  0.773500  0.374900  0.522800  1.0  0.0283
  C  C63  1  0.443400  0.140300  0.315900  1.0  0.0162
  C  C64  1  0.442100  0.099200  0.240600  1.0  -0.0707
  C  C65  1  0.784000  0.185200  0.527200  1.0  0.047
  C  C66  1  0.988000  0.122700  0.816000  1.0  -0.149
  C  C67  1  0.695100  0.102100  0.271900  1.0  -0.1543
  C  C68  1  0.874500  0.145100  0.701600  1.0  0.0209
  C  C69  1  0.982000  0.103300  0.891400  1.0  0.7196
  C  C70  1  0.691700  0.145400  0.346600  1.0  0.0414
  C  C71  1  0.572000  0.040400  0.134300  1.0  0.7256
  C  C72  1  0.124100  0.397500  0.659500  1.0  -0.3796
  C  C73  1  0.865500  0.130500  0.770100  1.0  -0.0786
  C  C74  1  0.007400  0.153300  0.600300  1.0  -0.0887
  C  C75  1  0.117100  0.128100  0.790800  1.0  -0.0804
  C  C76  1  0.916500  0.741000  0.807900  1.0  -0.1524
  C  C77  1  0.055900  0.737100  0.797500  1.0  -0.0916
  C  C78  1  0.979700  0.546300  0.599800  1.0  -0.0705
  C  C79  1  0.889800  0.819600  0.877700  1.0  0.7586
  C  C80  1  0.822600  0.608600  0.685100  1.0  0.0287
  C  C81  1  0.721100  0.059400  0.501700  1.0  -0.3476
  C  C82  1  0.798600  0.674000  0.751100  1.0  -0.1173
  C  C83  1  0.120700  0.139600  0.721300  1.0  0.0324
  C  C84  1  0.562700  0.209100  0.449200  1.0  -0.1338
  C  C85  1  0.073800  0.670900  0.730300  1.0  0.0682
  C  C86  1  0.691800  0.450400  0.489700  1.0  -0.3548
  C  C87  1  0.078000  0.767800  0.422500  1.0  -0.0466
  C  C88  1  0.019100  0.651700  0.397700  1.0  0.034
  C  C89  1  0.287500  0.741200  0.498400  1.0  -0.1222
  C  C90  1  0.091400  0.580000  0.425300  1.0  -0.0264
  C  C91  1  0.431900  0.919100  0.782900  1.0  -0.0837
  C  C92  1  0.226500  0.625100  0.477200  1.0  0.0299
  C  C93  1  0.556600  0.859700  0.684100  1.0  0.0144
  C  C94  1  0.557900  0.900800  0.759400  1.0  -0.072
  C  C95  1  0.216000  0.814800  0.472800  1.0  0.0469
  C  C96  1  0.012000  0.877300  0.184000  1.0  -0.1484
  C  C97  1  0.304900  0.897900  0.728100  1.0  -0.1547
  C  C98  1  0.125500  0.854900  0.298400  1.0  0.02
  C  C99  1  0.018000  0.896700  0.108600  1.0  0.7232
  C  C100  1  0.308300  0.854600  0.653400  1.0  0.0416
  C  C101  1  0.428000  0.959600  0.865700  1.0  0.7164
  C  C102  1  0.875900  0.602500  0.340500  1.0  -0.3796
  C  C103  1  0.134500  0.869500  0.229900  1.0  -0.0797
  C  C104  1  0.992600  0.846700  0.399700  1.0  -0.0889
  C  C105  1  0.882900  0.871900  0.209200  1.0  -0.0817
  C  C106  1  0.083500  0.259000  0.192100  1.0  -0.1525
  C  C107  1  0.944100  0.262900  0.202500  1.0  -0.0905
  C  C108  1  0.020300  0.453700  0.400200  1.0  -0.0724
  C  C109  1  0.110200  0.180400  0.122300  1.0  0.7572
  C  C110  1  0.177400  0.391400  0.314900  1.0  0.0291
  C  C111  1  0.278900  0.940600  0.498300  1.0  -0.349
  C  C112  1  0.201400  0.326000  0.248900  1.0  -0.1157
  C  C113  1  0.879300  0.860400  0.278700  1.0  0.0311
  C  C114  1  0.437300  0.790900  0.550800  1.0  -0.1323
  C  C115  1  0.926200  0.329100  0.269700  1.0  0.0722
  C  C116  1  0.308200  0.549600  0.510300  1.0  -0.3568
  N  N117  1  0.000400  0.147500  0.678600  1.0  -0.0902
  N  N118  1  0.957200  0.608900  0.674700  1.0  0.0083
  N  N119  1  0.569300  0.165000  0.367100  1.0  -0.0305
  N  N120  1  0.999600  0.852500  0.321400  1.0  -0.0888
  N  N121  1  0.042800  0.391100  0.325300  1.0  0.0092
  N  N122  1  0.430700  0.835000  0.632900  1.0  -0.0304
  O  O123  1  0.690500  0.022700  0.119570  1.0  -0.7393
  O  O124  1  0.459800  0.031100  0.088200  1.0  -0.7935
  O  O125  1  0.997500  0.889000  0.925600  1.0  -0.8464
  O  O126  1  0.760600  0.814000  0.883300  1.0  -0.6594
  O  O127  1  0.857900  0.067300  0.901300  1.0  -0.7234
  O  O128  1  0.102600  0.123900  0.935400  1.0  -0.743
  O  O129  1  0.309500  0.977300  0.880430  1.0  -0.7382
  O  O130  1  0.540200  0.968900  0.911800  1.0  -0.7941
  O  O131  1  0.002500  0.111000  0.074400  1.0  -0.8475
  O  O132  1  0.239400  0.186000  0.116700  1.0  -0.6593
  O  O133  1  0.142100  0.932700  0.098700  1.0  -0.725
  O  O134  1  0.897400  0.876100  0.064600  1.0  -0.7412
