# generated using pymatgen
data_PrH27C30(NO2)3
_symmetry_space_group_name_H-M   'P 1'
_cell_length_a   9.53000000
_cell_length_b   12.54010000
_cell_length_c   18.87190000
_cell_angle_alpha   105.93200000
_cell_angle_beta   98.86000000
_cell_angle_gamma   100.48200000
_symmetry_Int_Tables_number   1
_chemical_formula_structural   PrH27C30(NO2)3
_chemical_formula_sum   'Pr2 H54 C60 N6 O12'
_cell_volume   2082.30219497
_cell_formula_units_Z   2
loop_
 _symmetry_equiv_pos_site_id
 _symmetry_equiv_pos_as_xyz
  1  'x, y, z'
loop_
 _atom_site_type_symbol
 _atom_site_label
 _atom_site_symmetry_multiplicity
 _atom_site_fract_x
 _atom_site_fract_y
 _atom_site_fract_z
 _atom_site_occupancy
 _atom_site_charge
  Pr  Pr1  1  0.765820  0.482220  0.496360  1.0  2.1986
  Pr  Pr2  1  0.234180  0.517780  0.503640  1.0  2.1994
  H  H3  1  0.778400  0.582000  0.756300  1.0  0.093
  H  H4  1  0.351000  0.582800  0.704100  1.0  0.0946
  H  H5  1  0.355900  0.650500  0.832000  1.0  0.1043
  H  H6  1  0.162400  0.837900  0.171400  1.0  0.0844
  H  H7  1  0.109100  0.951800  0.204700  1.0  0.1004
  H  H8  1  0.194700  0.941400  0.137400  1.0  0.0943
  H  H9  1  0.779500  0.631400  0.289900  1.0  0.1024
  H  H10  1  0.112000  0.680200  0.098300  1.0  0.0904
  H  H11  1  0.970400  0.576300  0.065400  1.0  0.0983
  H  H12  1  0.141200  0.277500  0.335700  1.0  0.1063
  H  H13  1  0.775000  0.656000  0.883400  1.0  0.0937
  H  H14  1  0.169100  0.168200  0.220300  1.0  0.0929
  H  H15  1  0.932100  0.078900  0.059500  1.0  0.0859
  H  H16  1  0.081100  0.056000  0.097500  1.0  0.0682
  H  H17  1  0.206100  0.626300  0.325200  1.0  0.1009
  H  H18  1  0.213600  0.647600  0.206600  1.0  0.1027
  H  H19  1  0.793600  0.654000  0.172200  1.0  0.0924
  H  H20  1  0.703300  0.177800  0.259400  1.0  0.1021
  H  H21  1  0.601200  0.954400  0.011200  1.0  0.1015
  H  H22  1  0.654500  0.911800  0.934100  1.0  0.0905
  H  H23  1  0.749200  0.024300  0.999400  1.0  0.0939
  H  H24  1  0.740200  0.063200  0.145100  1.0  0.0899
  H  H25  1  0.505300  0.766900  0.957100  1.0  0.08
  H  H26  1  0.509600  0.643700  0.965100  1.0  0.0816
  H  H27  1  0.796400  0.517200  0.984200  1.0  0.1021
  H  H28  1  0.635900  0.536800  0.963200  1.0  0.0879
  H  H29  1  0.698300  0.533900  0.046200  1.0  0.0975
  H  H30  1  0.221600  0.418000  0.243700  1.0  0.0926
  H  H31  1  0.649000  0.417200  0.295900  1.0  0.0948
  H  H32  1  0.644100  0.349500  0.168000  1.0  0.1061
  H  H33  1  0.837600  0.162100  0.828600  1.0  0.0836
  H  H34  1  0.890900  0.048200  0.795300  1.0  0.0997
  H  H35  1  0.805300  0.058600  0.862600  1.0  0.0935
  H  H36  1  0.220500  0.368600  0.710100  1.0  0.1036
  H  H37  1  0.888000  0.319800  0.901700  1.0  0.0891
  H  H38  1  0.029600  0.423700  0.934600  1.0  0.0981
  H  H39  1  0.858800  0.722500  0.664300  1.0  0.1061
  H  H40  1  0.225000  0.344000  0.116600  1.0  0.0926
  H  H41  1  0.830900  0.831800  0.779700  1.0  0.0919
  H  H42  1  0.067900  0.921100  0.940500  1.0  0.0852
  H  H43  1  0.918900  0.944000  0.902500  1.0  0.0688
  H  H44  1  0.793900  0.373700  0.674800  1.0  0.101
  H  H45  1  0.786400  0.352400  0.793400  1.0  0.1013
  H  H46  1  0.206400  0.346000  0.827800  1.0  0.0926
  H  H47  1  0.296700  0.822200  0.740600  1.0  0.1013
  H  H48  1  0.398800  0.045600  0.988800  1.0  0.1061
  H  H49  1  0.345500  0.088200  0.065900  1.0  0.0884
  H  H50  1  0.250800  0.975700  0.000600  1.0  0.0946
  H  H51  1  0.259800  0.936800  0.854900  1.0  0.0897
  H  H52  1  0.494700  0.233100  0.042900  1.0  0.0801
  H  H53  1  0.490400  0.356300  0.034900  1.0  0.0811
  H  H54  1  0.203600  0.482800  0.015800  1.0  0.1013
  H  H55  1  0.364100  0.463200  0.036800  1.0  0.0869
  H  H56  1  0.301700  0.466100  0.953800  1.0  0.0973
  C  C57  1  0.905400  0.920100  0.073300  1.0  -0.0634
  C  C58  1  0.979900  0.849200  0.101600  1.0  0.0432
  C  C59  1  0.568100  0.538100  0.632700  1.0  0.7223
  C  C60  1  0.922600  0.731900  0.078000  1.0  -0.0458
  C  C61  1  0.772600  0.875800  0.022500  1.0  0.0404
  C  C62  1  0.920700  0.243400  0.307400  1.0  -0.1369
  C  C63  1  0.710200  0.755700  0.001300  1.0  -0.066
  C  C64  1  0.691400  0.598200  0.770700  1.0  -0.1233
  C  C65  1  0.439500  0.597900  0.740000  1.0  -0.118
  C  C66  1  0.565700  0.578600  0.716300  1.0  -0.0946
  C  C67  1  0.895800  0.323900  0.378500  1.0  0.7491
  C  C68  1  0.442900  0.639000  0.815600  1.0  0.0472
  C  C69  1  0.786500  0.684500  0.028400  1.0  0.0111
  C  C70  1  0.124400  0.899500  0.158800  1.0  -0.3594
  C  C71  1  0.869100  0.634300  0.273600  1.0  -0.0785
  C  C72  1  0.989600  0.625200  0.318700  1.0  -0.1437
  C  C73  1  0.009100  0.654500  0.101100  1.0  -0.078
  C  C74  1  0.057900  0.236800  0.296600  1.0  -0.1081
  C  C75  1  0.689000  0.641500  0.845900  1.0  0.0344
  C  C76  1  0.073800  0.170800  0.228800  1.0  0.0759
  C  C77  1  0.975500  0.045800  0.097100  1.0  -0.094
  C  C78  1  0.120700  0.631200  0.294000  1.0  -0.0066
  C  C79  1  0.125400  0.644200  0.224300  1.0  0.0162
  C  C80  1  0.877300  0.647700  0.203900  1.0  0.0057
  C  C81  1  0.799300  0.177100  0.251600  1.0  -0.0533
  C  C82  1  0.686700  0.948000  0.988800  1.0  -0.3505
  C  C83  1  0.821500  0.109500  0.184000  1.0  0.0027
  C  C84  1  0.561700  0.707200  0.950300  1.0  -0.1598
  C  C85  1  0.723700  0.556800  0.003300  1.0  -0.3445
  C  C86  1  0.984500  0.605900  0.395100  1.0  0.6972
  C  C87  1  0.094600  0.079900  0.926700  1.0  -0.0628
  C  C88  1  0.020100  0.150800  0.898400  1.0  0.0421
  C  C89  1  0.431900  0.461900  0.367300  1.0  0.7214
  C  C90  1  0.077400  0.268100  0.922000  1.0  -0.0463
  C  C91  1  0.227400  0.124200  0.977500  1.0  0.0415
  C  C92  1  0.079300  0.756600  0.692600  1.0  -0.1381
  C  C93  1  0.289800  0.244300  0.998700  1.0  -0.0639
  C  C94  1  0.308600  0.401800  0.229300  1.0  -0.1221
  C  C95  1  0.560500  0.402100  0.260000  1.0  -0.1125
  C  C96  1  0.434300  0.421400  0.283700  1.0  -0.0955
  C  C97  1  0.104200  0.676100  0.621500  1.0  0.7525
  C  C98  1  0.557100  0.361000  0.184400  1.0  0.0471
  C  C99  1  0.213500  0.315500  0.971600  1.0  0.0116
  C  C100  1  0.875600  0.100500  0.841200  1.0  -0.3586
  C  C101  1  0.130900  0.365700  0.726400  1.0  -0.0782
  C  C102  1  0.010400  0.374800  0.681300  1.0  -0.1496
  C  C103  1  0.990900  0.345500  0.898900  1.0  -0.0783
  C  C104  1  0.942100  0.763200  0.703400  1.0  -0.1087
  C  C105  1  0.311000  0.358500  0.154100  1.0  0.0319
  C  C106  1  0.926200  0.829200  0.771200  1.0  0.0816
  C  C107  1  0.024500  0.954200  0.902900  1.0  -0.0976
  C  C108  1  0.879300  0.368800  0.706000  1.0  -0.0081
  C  C109  1  0.874600  0.355800  0.775700  1.0  0.0146
  C  C110  1  0.122700  0.352300  0.796100  1.0  0.0075
  C  C111  1  0.200700  0.822900  0.748400  1.0  -0.0504
  C  C112  1  0.313300  0.052000  0.011200  1.0  -0.3529
  C  C113  1  0.178500  0.890500  0.816000  1.0  0.0007
  C  C114  1  0.438300  0.292800  0.049700  1.0  -0.1582
  C  C115  1  0.276300  0.443200  0.996700  1.0  -0.3472
  C  C116  1  0.015500  0.394100  0.604900  1.0  0.6831
  N  N117  1  0.003500  0.651900  0.181600  1.0  -0.1185
  N  N118  1  0.567300  0.662900  0.866300  1.0  -0.0141
  N  N119  1  0.957000  0.110000  0.174100  1.0  -0.002
  N  N120  1  0.996500  0.348100  0.818400  1.0  -0.117
  N  N121  1  0.432700  0.337100  0.133700  1.0  -0.0145
  N  N122  1  0.043000  0.890000  0.825900  1.0  -0.0021
  O  O123  1  0.456300  0.529800  0.586670  1.0  -0.7945
  O  O124  1  0.686700  0.519800  0.617440  1.0  -0.7487
  O  O125  1  0.766800  0.319800  0.385600  1.0  -0.7339
  O  O126  1  0.006300  0.391300  0.424900  1.0  -0.8041
  O  O127  1  0.861200  0.569400  0.405000  1.0  -0.7609
  O  O128  1  0.106700  0.625500  0.438600  1.0  -0.7667
  O  O129  1  0.543700  0.470200  0.413330  1.0  -0.7964
  O  O130  1  0.313300  0.480200  0.382560  1.0  -0.7478
  O  O131  1  0.233200  0.680200  0.614400  1.0  -0.7337
  O  O132  1  0.993700  0.608700  0.575100  1.0  -0.805
  O  O133  1  0.138800  0.430600  0.595000  1.0  -0.7588
  O  O134  1  0.893300  0.374500  0.561400  1.0  -0.7662
