# generated using pymatgen
data_NdH27C30(NO2)3
_symmetry_space_group_name_H-M   'P 1'
_cell_length_a   9.52970000
_cell_length_b   12.69960000
_cell_length_c   18.82030000
_cell_angle_alpha   106.34700000
_cell_angle_beta   98.63000000
_cell_angle_gamma   100.05900000
_symmetry_Int_Tables_number   1
_chemical_formula_structural   NdH27C30(NO2)3
_chemical_formula_sum   'Nd2 H54 C60 N6 O12'
_cell_volume   2103.64440575
_cell_formula_units_Z   2
loop_
 _symmetry_equiv_pos_site_id
 _symmetry_equiv_pos_as_xyz
  1  'x, y, z'
loop_
 _atom_site_type_symbol
 _atom_site_label
 _atom_site_symmetry_multiplicity
 _atom_site_fract_x
 _atom_site_fract_y
 _atom_site_fract_z
 _atom_site_occupancy
 _atom_site_charge
  Nd  Nd1  1  0.766650  0.983680  0.996680  1.0  2.2709
  Nd  Nd2  1  0.233350  0.016320  0.003320  1.0  2.2611
  H  H3  1  0.348800  0.086100  0.204400  1.0  0.0985
  H  H4  1  0.773000  0.159700  0.383700  1.0  0.0948
  H  H5  1  0.778400  0.087400  0.255800  1.0  0.0953
  H  H6  1  0.142300  0.781100  0.835300  1.0  0.1049
  H  H7  1  0.705800  0.676000  0.761200  1.0  0.0998
  H  H8  1  0.157600  0.336000  0.674900  1.0  0.0853
  H  H9  1  0.109000  0.452500  0.704000  1.0  0.1008
  H  H10  1  0.195200  0.432000  0.636400  1.0  0.0946
  H  H11  1  0.109600  0.179200  0.598000  1.0  0.0846
  H  H12  1  0.969000  0.077000  0.563600  1.0  0.0808
  H  H13  1  0.790300  0.150300  0.671900  1.0  0.0998
  H  H14  1  0.356900  0.159200  0.333900  1.0  0.1018
  H  H15  1  0.203900  0.120800  0.822400  1.0  0.0976
  H  H16  1  0.777100  0.126700  0.788400  1.0  0.1009
  H  H17  1  0.171000  0.665600  0.720900  1.0  0.0947
  H  H18  1  0.741300  0.562700  0.647900  1.0  0.0957
  H  H19  1  0.084700  0.551000  0.600100  1.0  0.0748
  H  H20  1  0.939100  0.576300  0.560700  1.0  0.0871
  H  H21  1  0.503400  0.270600  0.457500  1.0  0.075
  H  H22  1  0.506200  0.148500  0.464900  1.0  0.0859
  H  H23  1  0.607600  0.460300  0.515600  1.0  0.0984
  H  H24  1  0.651600  0.410800  0.436000  1.0  0.089
  H  H25  1  0.754600  0.521400  0.498600  1.0  0.0996
  H  H26  1  0.209000  0.140100  0.702800  1.0  0.1006
  H  H27  1  0.618900  0.044600  0.472400  1.0  0.0922
  H  H28  1  0.713700  0.035400  0.547200  1.0  0.092
  H  H29  1  0.778500  0.021200  0.472200  1.0  0.0972
  H  H30  1  0.651200  0.913900  0.795600  1.0  0.0983
  H  H31  1  0.227000  0.840300  0.616300  1.0  0.0937
  H  H32  1  0.221600  0.912600  0.744200  1.0  0.0948
  H  H33  1  0.857700  0.218900  0.164700  1.0  0.1049
  H  H34  1  0.294200  0.324000  0.238800  1.0  0.0989
  H  H35  1  0.842400  0.664000  0.325100  1.0  0.0849
  H  H36  1  0.891000  0.547500  0.296000  1.0  0.0997
  H  H37  1  0.804800  0.568000  0.363600  1.0  0.0947
  H  H38  1  0.890400  0.820800  0.402000  1.0  0.0834
  H  H39  1  0.031000  0.923000  0.436400  1.0  0.082
  H  H40  1  0.209700  0.849700  0.328100  1.0  0.0996
  H  H41  1  0.643100  0.840800  0.666100  1.0  0.1029
  H  H42  1  0.796100  0.879200  0.177600  1.0  0.0976
  H  H43  1  0.222900  0.873300  0.211600  1.0  0.101
  H  H44  1  0.829000  0.334400  0.279100  1.0  0.0936
  H  H45  1  0.258700  0.437300  0.352100  1.0  0.096
  H  H46  1  0.915300  0.449000  0.399900  1.0  0.0737
  H  H47  1  0.060900  0.423700  0.439300  1.0  0.088
  H  H48  1  0.496600  0.729400  0.542500  1.0  0.0746
  H  H49  1  0.493800  0.851500  0.535100  1.0  0.0859
  H  H50  1  0.392400  0.539700  0.484400  1.0  0.1002
  H  H51  1  0.348400  0.589200  0.564000  1.0  0.0879
  H  H52  1  0.245400  0.478600  0.501400  1.0  0.0999
  H  H53  1  0.791000  0.859900  0.297200  1.0  0.101
  H  H54  1  0.381100  0.955400  0.527600  1.0  0.0919
  H  H55  1  0.286300  0.964600  0.452800  1.0  0.0916
  H  H56  1  0.221500  0.978800  0.527800  1.0  0.0987
  C  C57  1  0.919900  0.231700  0.578000  1.0  -0.0471
  C  C58  1  0.567500  0.041400  0.132900  1.0  0.7415
  C  C59  1  0.565000  0.082500  0.216300  1.0  -0.1147
  C  C60  1  0.905400  0.418200  0.574100  1.0  -0.0892
  C  C61  1  0.437600  0.102100  0.240200  1.0  -0.1128
  C  C62  1  0.687500  0.145700  0.346100  1.0  0.0431
  C  C63  1  0.772300  0.375300  0.523400  1.0  0.0447
  C  C64  1  0.979500  0.346700  0.602500  1.0  0.0187
  C  C65  1  0.709600  0.258000  0.502300  1.0  -0.0792
  C  C66  1  0.782000  0.186100  0.528500  1.0  0.0251
  C  C67  1  0.897500  0.823500  0.880000  1.0  0.7479
  C  C68  1  0.988600  0.118500  0.816700  1.0  -0.1567
  C  C69  1  0.691000  0.102800  0.270400  1.0  -0.1301
  C  C70  1  0.059200  0.737600  0.797100  1.0  -0.1096
  C  C71  1  0.983300  0.100200  0.892900  1.0  0.7081
  C  C72  1  0.801900  0.675600  0.753300  1.0  -0.0808
  C  C73  1  0.123000  0.396200  0.659500  1.0  -0.3729
  C  C74  1  0.006700  0.153700  0.600400  1.0  -0.1314
  C  C75  1  0.874200  0.143600  0.703100  1.0  0.0183
  C  C76  1  0.920700  0.742500  0.809100  1.0  -0.151
  C  C77  1  0.442800  0.145200  0.316800  1.0  0.0318
  C  C78  1  0.118000  0.125200  0.791500  1.0  -0.009
  C  C79  1  0.866400  0.129300  0.771600  1.0  -0.069
  C  C80  1  0.075900  0.669200  0.729300  1.0  0.0862
  C  C81  1  0.823000  0.608500  0.686200  1.0  0.0106
  C  C82  1  0.979000  0.543100  0.598800  1.0  -0.0981
  C  C83  1  0.559100  0.210900  0.450400  1.0  -0.1317
  C  C84  1  0.689100  0.448400  0.490500  1.0  -0.3497
  C  C85  1  0.121700  0.138200  0.721400  1.0  0.0451
  C  C86  1  0.717600  0.060900  0.502800  1.0  -0.3653
  C  C87  1  0.080100  0.768300  0.422000  1.0  -0.0472
  C  C88  1  0.432500  0.958600  0.867100  1.0  0.7296
  C  C89  1  0.435000  0.917500  0.783700  1.0  -0.1144
  C  C90  1  0.094600  0.581800  0.425900  1.0  -0.0888
  C  C91  1  0.562400  0.897900  0.759800  1.0  -0.1139
  C  C92  1  0.312500  0.854300  0.653900  1.0  0.044
  C  C93  1  0.227700  0.624700  0.476600  1.0  0.0462
  C  C94  1  0.020500  0.653300  0.397500  1.0  0.018
  C  C95  1  0.290400  0.742000  0.497700  1.0  -0.0775
  C  C96  1  0.218000  0.813900  0.471500  1.0  0.0245
  C  C97  1  0.102500  0.176500  0.120000  1.0  0.7452
  C  C98  1  0.011400  0.881500  0.183300  1.0  -0.1556
  C  C99  1  0.309000  0.897200  0.729600  1.0  -0.1297
  C  C100  1  0.940800  0.262400  0.202900  1.0  -0.1104
  C  C101  1  0.016700  0.899800  0.107100  1.0  0.7088
  C  C102  1  0.198100  0.324400  0.246700  1.0  -0.0794
  C  C103  1  0.877000  0.603800  0.340500  1.0  -0.3714
  C  C104  1  0.993300  0.846300  0.399600  1.0  -0.1308
  C  C105  1  0.125800  0.856400  0.296900  1.0  0.0185
  C  C106  1  0.079300  0.257500  0.190900  1.0  -0.1508
  C  C107  1  0.557200  0.854800  0.683200  1.0  0.0312
  C  C108  1  0.882000  0.874800  0.208500  1.0  -0.0106
  C  C109  1  0.133600  0.870700  0.228400  1.0  -0.0705
  C  C110  1  0.924100  0.330800  0.270700  1.0  0.0902
  C  C111  1  0.177000  0.391500  0.313800  1.0  0.0104
  C  C112  1  0.021000  0.456900  0.401200  1.0  -0.1012
  C  C113  1  0.440900  0.789100  0.549600  1.0  -0.1312
  C  C114  1  0.310900  0.551600  0.509500  1.0  -0.353
  C  C115  1  0.878300  0.861800  0.278600  1.0  0.0439
  C  C116  1  0.282400  0.939100  0.497200  1.0  -0.3659
  N  N117  1  0.000500  0.148300  0.679900  1.0  -0.0966
  N  N118  1  0.958700  0.607300  0.674600  1.0  0.0428
  N  N119  1  0.566300  0.167200  0.366600  1.0  -0.0776
  N  N120  1  0.999500  0.851700  0.320100  1.0  -0.0956
  N  N121  1  0.041300  0.392700  0.325400  1.0  0.0413
  N  N122  1  0.433700  0.832800  0.633400  1.0  -0.0777
  O  O123  1  0.454200  0.030100  0.086800  1.0  -0.79
  O  O124  1  0.686600  0.024400  0.117400  1.0  -0.7137
  O  O125  1  0.860800  0.065200  0.904000  1.0  -0.7476
  O  O126  1  0.008700  0.890900  0.926100  1.0  -0.8166
  O  O127  1  0.769800  0.822900  0.887800  1.0  -0.7277
  O  O128  1  0.105300  0.120000  0.936500  1.0  -0.7729
  O  O129  1  0.545800  0.969900  0.913200  1.0  -0.7889
  O  O130  1  0.313400  0.975600  0.882600  1.0  -0.7138
  O  O131  1  0.139200  0.934800  0.096000  1.0  -0.7496
  O  O132  1  0.991300  0.109100  0.073900  1.0  -0.8168
  O  O133  1  0.230200  0.177100  0.112200  1.0  -0.7316
  O  O134  1  0.894700  0.880000  0.063500  1.0  -0.7712
