# generated using pymatgen
data_CeH27C30(NO2)3
_symmetry_space_group_name_H-M   'P 1'
_cell_length_a   9.52510000
_cell_length_b   12.56050000
_cell_length_c   18.92310000
_cell_angle_alpha   106.07700000
_cell_angle_beta   98.87400000
_cell_angle_gamma   100.64300000
_symmetry_Int_Tables_number   1
_chemical_formula_structural   CeH27C30(NO2)3
_chemical_formula_sum   'Ce2 H54 C60 N6 O12'
_cell_volume   2086.80615122
_cell_formula_units_Z   2
loop_
 _symmetry_equiv_pos_site_id
 _symmetry_equiv_pos_as_xyz
  1  'x, y, z'
loop_
 _atom_site_type_symbol
 _atom_site_label
 _atom_site_symmetry_multiplicity
 _atom_site_fract_x
 _atom_site_fract_y
 _atom_site_fract_z
 _atom_site_occupancy
 _atom_site_charge
  Ce  Ce1  1  0.234130  0.017790  0.003910  1.0  2.2401
  Ce  Ce2  1  0.765870  0.982210  0.996090  1.0  2.2473
  H  H3  1  0.351800  0.081900  0.204300  1.0  0.0897
  H  H4  1  0.779500  0.080800  0.256700  1.0  0.0908
  H  H5  1  0.355500  0.149500  0.331800  1.0  0.1072
  H  H6  1  0.775900  0.151700  0.384200  1.0  0.0913
  H  H7  1  0.795000  0.153000  0.672500  1.0  0.0895
  H  H8  1  0.114300  0.180900  0.599500  1.0  0.0764
  H  H9  1  0.972500  0.076600  0.566500  1.0  0.0666
  H  H10  1  0.208100  0.130000  0.826200  1.0  0.0866
  H  H11  1  0.779300  0.131700  0.789100  1.0  0.0988
  H  H12  1  0.162700  0.341400  0.673600  1.0  0.0849
  H  H13  1  0.108000  0.455200  0.704200  1.0  0.1001
  H  H14  1  0.194500  0.442000  0.637400  1.0  0.0916
  H  H15  1  0.137700  0.783500  0.833500  1.0  0.102
  H  H16  1  0.701200  0.676900  0.757200  1.0  0.099
  H  H17  1  0.168300  0.670100  0.719800  1.0  0.0932
  H  H18  1  0.736800  0.562700  0.645200  1.0  0.0906
  H  H19  1  0.081100  0.556200  0.598400  1.0  0.067
  H  H20  1  0.932300  0.577600  0.559100  1.0  0.0902
  H  H21  1  0.217200  0.148500  0.707500  1.0  0.1055
  H  H22  1  0.502900  0.260700  0.457100  1.0  0.0722
  H  H23  1  0.510500  0.138100  0.464900  1.0  0.071
  H  H24  1  0.602900  0.455100  0.512900  1.0  0.0955
  H  H25  1  0.646500  0.403800  0.434300  1.0  0.0836
  H  H26  1  0.749000  0.518100  0.495200  1.0  0.0919
  H  H27  1  0.624900  0.034900  0.475600  1.0  0.0916
  H  H28  1  0.731500  0.028500  0.547700  1.0  0.0975
  H  H29  1  0.785800  0.017400  0.470600  1.0  0.0925
  H  H30  1  0.648200  0.918100  0.795700  1.0  0.0898
  H  H31  1  0.220500  0.919200  0.743300  1.0  0.0902
  H  H32  1  0.644500  0.850500  0.668200  1.0  0.108
  H  H33  1  0.224100  0.848300  0.615800  1.0  0.0905
  H  H34  1  0.205000  0.847000  0.327500  1.0  0.0897
  H  H35  1  0.885700  0.819100  0.400500  1.0  0.0748
  H  H36  1  0.027500  0.923400  0.433500  1.0  0.0677
  H  H37  1  0.791900  0.870000  0.173800  1.0  0.0863
  H  H38  1  0.220700  0.868300  0.210900  1.0  0.0985
  H  H39  1  0.837300  0.658600  0.326400  1.0  0.0852
  H  H40  1  0.892000  0.544800  0.295800  1.0  0.0986
  H  H41  1  0.805500  0.558000  0.362600  1.0  0.0911
  H  H42  1  0.862300  0.216500  0.166500  1.0  0.1019
  H  H43  1  0.298800  0.323100  0.242800  1.0  0.0983
  H  H44  1  0.831700  0.329900  0.280200  1.0  0.092
  H  H45  1  0.263200  0.437300  0.354800  1.0  0.0913
  H  H46  1  0.918900  0.443800  0.401600  1.0  0.0663
  H  H47  1  0.067700  0.422400  0.440900  1.0  0.0898
  H  H48  1  0.782800  0.851500  0.292500  1.0  0.1045
  H  H49  1  0.497100  0.739300  0.542900  1.0  0.0722
  H  H50  1  0.489500  0.861900  0.535100  1.0  0.0712
  H  H51  1  0.397100  0.544900  0.487100  1.0  0.0968
  H  H52  1  0.353500  0.596200  0.565700  1.0  0.0827
  H  H53  1  0.251000  0.481900  0.504800  1.0  0.0913
  H  H54  1  0.375100  0.965100  0.524400  1.0  0.0931
  H  H55  1  0.268500  0.971500  0.452300  1.0  0.0969
  H  H56  1  0.214200  0.982600  0.529400  1.0  0.0942
  C  C57  1  0.924100  0.232400  0.578500  1.0  -0.0356
  C  C58  1  0.891500  0.823400  0.877200  1.0  0.7421
  C  C59  1  0.566200  0.076600  0.216900  1.0  -0.1302
  C  C60  1  0.905400  0.418900  0.573300  1.0  -0.0616
  C  C61  1  0.570100  0.037900  0.134000  1.0  0.747
  C  C62  1  0.980900  0.348500  0.602300  1.0  0.0297
  C  C63  1  0.439900  0.096400  0.240400  1.0  -0.0918
  C  C64  1  0.710600  0.253400  0.501700  1.0  -0.0841
  C  C65  1  0.692300  0.096100  0.271200  1.0  -0.1252
  C  C66  1  0.442400  0.137000  0.315700  1.0  0.045
  C  C67  1  0.770700  0.372700  0.522900  1.0  0.0555
  C  C68  1  0.690000  0.138100  0.346800  1.0  0.0334
  C  C69  1  0.916200  0.742000  0.805300  1.0  -0.1402
  C  C70  1  0.991300  0.126300  0.819200  1.0  -0.1581
  C  C71  1  0.786200  0.183200  0.528300  1.0  -0.0201
  C  C72  1  0.878900  0.147800  0.704500  1.0  0.0313
  C  C73  1  0.011100  0.155000  0.602100  1.0  -0.1048
  C  C74  1  0.122400  0.133500  0.794600  1.0  0.0075
  C  C75  1  0.869400  0.134800  0.773100  1.0  -0.0962
  C  C76  1  0.124100  0.401400  0.659400  1.0  -0.3715
  C  C77  1  0.054900  0.739400  0.794700  1.0  -0.0235
  C  C78  1  0.797500  0.676200  0.749800  1.0  -0.0899
  C  C79  1  0.072800  0.672600  0.727800  1.0  0.0618
  C  C80  1  0.818600  0.609600  0.683700  1.0  -0.0016
  C  C81  1  0.975000  0.545400  0.597200  1.0  -0.1013
  C  C82  1  0.986000  0.107200  0.894900  1.0  0.7112
  C  C83  1  0.128800  0.145500  0.725100  1.0  -0.0039
  C  C84  1  0.561100  0.202400  0.450400  1.0  -0.1379
  C  C85  1  0.684600  0.443800  0.488200  1.0  -0.3674
  C  C86  1  0.726800  0.054600  0.503300  1.0  -0.3623
  C  C87  1  0.075900  0.767600  0.421500  1.0  -0.0367
  C  C88  1  0.108500  0.176600  0.122800  1.0  0.7414
  C  C89  1  0.433800  0.923400  0.783100  1.0  -0.1313
  C  C90  1  0.094600  0.581100  0.426700  1.0  -0.0607
  C  C91  1  0.429900  0.962100  0.866000  1.0  0.7303
  C  C92  1  0.019100  0.651500  0.397700  1.0  0.0286
  C  C93  1  0.560100  0.903600  0.759600  1.0  -0.0933
  C  C94  1  0.289400  0.746600  0.498300  1.0  -0.0825
  C  C95  1  0.307700  0.903900  0.728800  1.0  -0.1254
  C  C96  1  0.557600  0.863000  0.684300  1.0  0.0436
  C  C97  1  0.229300  0.627300  0.477100  1.0  0.0567
  C  C98  1  0.310000  0.861900  0.653200  1.0  0.0335
  C  C99  1  0.083800  0.258000  0.194700  1.0  -0.1407
  C  C100  1  0.008700  0.873700  0.180800  1.0  -0.1583
  C  C101  1  0.213800  0.816800  0.471700  1.0  -0.0204
  C  C102  1  0.121100  0.852200  0.295500  1.0  0.0322
  C  C103  1  0.988900  0.845000  0.397900  1.0  -0.1051
  C  C104  1  0.877600  0.866500  0.205400  1.0  0.0054
  C  C105  1  0.130600  0.865200  0.226900  1.0  -0.0957
  C  C106  1  0.875900  0.598600  0.340600  1.0  -0.37
  C  C107  1  0.945100  0.260600  0.205300  1.0  -0.0237
  C  C108  1  0.202500  0.323800  0.250200  1.0  -0.0881
  C  C109  1  0.927200  0.327400  0.272200  1.0  0.0645
  C  C110  1  0.181400  0.390400  0.316300  1.0  -0.0033
  C  C111  1  0.025000  0.454600  0.402800  1.0  -0.1074
  C  C112  1  0.014000  0.892800  0.105100  1.0  0.7137
  C  C113  1  0.871200  0.854500  0.274900  1.0  -0.0033
  C  C114  1  0.438900  0.797600  0.549600  1.0  -0.1364
  C  C115  1  0.315400  0.556200  0.511800  1.0  -0.3697
  C  C116  1  0.273200  0.945400  0.496700  1.0  -0.3633
  N  N117  1  0.568100  0.159300  0.367100  1.0  -0.0395
  N  N118  1  0.005100  0.153000  0.682200  1.0  -0.1296
  N  N119  1  0.954900  0.610400  0.673100  1.0  0.0143
  N  N120  1  0.431900  0.840700  0.632900  1.0  -0.0408
  N  N121  1  0.994900  0.847000  0.317800  1.0  -0.1283
  N  N122  1  0.045100  0.389600  0.326900  1.0  0.0161
  O  O123  1  0.457800  0.029400  0.087550  1.0  -0.8022
  O  O124  1  0.688800  0.020300  0.118650  1.0  -0.7267
  O  O125  1  0.002000  0.891300  0.924200  1.0  -0.7419
  O  O126  1  0.763200  0.818900  0.883600  1.0  -0.7011
  O  O127  1  0.106300  0.126800  0.938700  1.0  -0.7371
  O  O128  1  0.860400  0.070700  0.904900  1.0  -0.7408
  O  O129  1  0.542200  0.970600  0.912450  1.0  -0.8031
  O  O130  1  0.311200  0.979700  0.881350  1.0  -0.7254
  O  O131  1  0.998000  0.108700  0.075800  1.0  -0.7422
  O  O132  1  0.236800  0.181100  0.116400  1.0  -0.702
  O  O133  1  0.893700  0.873200  0.061300  1.0  -0.7369
  O  O134  1  0.139600  0.929300  0.095100  1.0  -0.7419
