# generated using pymatgen
data_TbH27C30(NO2)3
_symmetry_space_group_name_H-M   'P 1'
_cell_length_a   9.53070000
_cell_length_b   12.70160000
_cell_length_c   18.81990000
_cell_angle_alpha   106.34900000
_cell_angle_beta   98.62900000
_cell_angle_gamma   100.06000000
_symmetry_Int_Tables_number   1
_chemical_formula_structural   TbH27C30(NO2)3
_chemical_formula_sum   'Tb2 H54 C60 N6 O12'
_cell_volume   2104.12562054
_cell_formula_units_Z   2
loop_
 _symmetry_equiv_pos_site_id
 _symmetry_equiv_pos_as_xyz
  1  'x, y, z'
loop_
 _atom_site_type_symbol
 _atom_site_label
 _atom_site_symmetry_multiplicity
 _atom_site_fract_x
 _atom_site_fract_y
 _atom_site_fract_z
 _atom_site_occupancy
 _atom_site_charge
  Tb  Tb1  1  0.766640  0.983670  0.996690  1.0  2.2446
  Tb  Tb2  1  0.233360  0.016330  0.003310  1.0  2.2435
  H  H3  1  0.349500  0.087000  0.204400  1.0  0.0933
  H  H4  1  0.775900  0.161500  0.383100  1.0  0.0912
  H  H5  1  0.778200  0.087400  0.255700  1.0  0.0911
  H  H6  1  0.142400  0.780700  0.835500  1.0  0.1058
  H  H7  1  0.706000  0.676500  0.761400  1.0  0.1005
  H  H8  1  0.160300  0.335400  0.672500  1.0  0.088
  H  H9  1  0.108100  0.449300  0.705300  1.0  0.0977
  H  H10  1  0.193500  0.435900  0.637400  1.0  0.0915
  H  H11  1  0.109500  0.180100  0.598100  1.0  0.0884
  H  H12  1  0.969600  0.077400  0.563500  1.0  0.0798
  H  H13  1  0.789900  0.151000  0.672100  1.0  0.0987
  H  H14  1  0.354400  0.157300  0.332900  1.0  0.1066
  H  H15  1  0.203700  0.120300  0.822000  1.0  0.0929
  H  H16  1  0.776800  0.126700  0.788600  1.0  0.1009
  H  H17  1  0.170600  0.664800  0.720800  1.0  0.1005
  H  H18  1  0.740400  0.562200  0.647800  1.0  0.0942
  H  H19  1  0.084600  0.551000  0.600100  1.0  0.0721
  H  H20  1  0.939000  0.576100  0.560600  1.0  0.0893
  H  H21  1  0.506700  0.148600  0.465200  1.0  0.0799
  H  H22  1  0.503200  0.270200  0.457000  1.0  0.07
  H  H23  1  0.611800  0.465300  0.518200  1.0  0.1046
  H  H24  1  0.643400  0.407500  0.436700  1.0  0.0895
  H  H25  1  0.755100  0.518400  0.494200  1.0  0.0968
  H  H26  1  0.209400  0.140300  0.703200  1.0  0.1004
  H  H27  1  0.717900  0.035200  0.547600  1.0  0.0907
  H  H28  1  0.776000  0.021200  0.470700  1.0  0.0958
  H  H29  1  0.617200  0.044700  0.474600  1.0  0.0954
  H  H30  1  0.650500  0.913000  0.795600  1.0  0.0935
  H  H31  1  0.224100  0.838500  0.616900  1.0  0.0914
  H  H32  1  0.221800  0.912600  0.744300  1.0  0.0907
  H  H33  1  0.857600  0.219300  0.164500  1.0  0.1054
  H  H34  1  0.294000  0.323500  0.238600  1.0  0.0998
  H  H35  1  0.839700  0.664600  0.327500  1.0  0.088
  H  H36  1  0.891900  0.550700  0.294700  1.0  0.0965
  H  H37  1  0.806500  0.564100  0.362600  1.0  0.091
  H  H38  1  0.890500  0.819900  0.401900  1.0  0.0867
  H  H39  1  0.030400  0.922600  0.436500  1.0  0.0802
  H  H40  1  0.210100  0.849000  0.327900  1.0  0.0995
  H  H41  1  0.645600  0.842700  0.667100  1.0  0.1081
  H  H42  1  0.796300  0.879700  0.178000  1.0  0.093
  H  H43  1  0.223200  0.873300  0.211400  1.0  0.101
  H  H44  1  0.829400  0.335200  0.279200  1.0  0.1004
  H  H45  1  0.259600  0.437800  0.352200  1.0  0.0943
  H  H46  1  0.915400  0.449000  0.399900  1.0  0.0713
  H  H47  1  0.061000  0.423900  0.439400  1.0  0.0893
  H  H48  1  0.493300  0.851400  0.534800  1.0  0.0799
  H  H49  1  0.496800  0.729800  0.543000  1.0  0.071
  H  H50  1  0.388200  0.534700  0.481800  1.0  0.1036
  H  H51  1  0.356600  0.592500  0.563300  1.0  0.0887
  H  H52  1  0.244900  0.481600  0.505800  1.0  0.0968
  H  H53  1  0.790600  0.859700  0.296800  1.0  0.1007
  H  H54  1  0.282100  0.964800  0.452400  1.0  0.0898
  H  H55  1  0.224000  0.978800  0.529300  1.0  0.0964
  H  H56  1  0.382800  0.955300  0.525400  1.0  0.0946
  C  C57  1  0.920000  0.231000  0.577700  1.0  -0.0634
  C  C58  1  0.566700  0.041800  0.132800  1.0  0.7407
  C  C59  1  0.564600  0.082000  0.216000  1.0  -0.1253
  C  C60  1  0.905500  0.418400  0.574300  1.0  -0.0723
  C  C61  1  0.437900  0.102200  0.240400  1.0  -0.0954
  C  C62  1  0.689200  0.146100  0.346000  1.0  0.044
  C  C63  1  0.771800  0.375000  0.523300  1.0  0.0568
  C  C64  1  0.979300  0.347100  0.602600  1.0  0.0372
  C  C65  1  0.709100  0.258600  0.502100  1.0  -0.0863
  C  C66  1  0.781800  0.186100  0.528300  1.0  -0.0216
  C  C67  1  0.897900  0.823200  0.879800  1.0  0.7416
  C  C68  1  0.988500  0.118900  0.816900  1.0  -0.1554
  C  C69  1  0.691100  0.102900  0.270600  1.0  -0.1626
  C  C70  1  0.059300  0.737400  0.797200  1.0  -0.115
  C  C71  1  0.983300  0.100400  0.893000  1.0  0.7192
  C  C72  1  0.801900  0.675800  0.753300  1.0  -0.0752
  C  C73  1  0.123000  0.396300  0.659500  1.0  -0.3675
  C  C74  1  0.006600  0.154000  0.600400  1.0  -0.1347
  C  C75  1  0.873800  0.143900  0.703200  1.0  0.0049
  C  C76  1  0.920500  0.742400  0.808800  1.0  -0.1477
  C  C77  1  0.441000  0.144100  0.316400  1.0  0.0369
  C  C78  1  0.117800  0.125100  0.791300  1.0  -0.0567
  C  C79  1  0.866100  0.129500  0.771800  1.0  -0.0817
  C  C80  1  0.075600  0.668800  0.729300  1.0  0.0833
  C  C81  1  0.822200  0.608200  0.686100  1.0  0.0067
  C  C82  1  0.979000  0.543000  0.598700  1.0  -0.1077
  C  C83  1  0.559300  0.210700  0.450300  1.0  -0.1144
  C  C84  1  0.688100  0.448100  0.490100  1.0  -0.3545
  C  C85  1  0.121800  0.138200  0.721600  1.0  0.0526
  C  C86  1  0.717600  0.060800  0.503100  1.0  -0.3758
  C  C87  1  0.080000  0.769000  0.422300  1.0  -0.0643
  C  C88  1  0.433300  0.958200  0.867200  1.0  0.7296
  C  C89  1  0.435400  0.918000  0.784000  1.0  -0.1254
  C  C90  1  0.094500  0.581600  0.425700  1.0  -0.0723
  C  C91  1  0.562100  0.897800  0.759600  1.0  -0.0967
  C  C92  1  0.310800  0.853900  0.654000  1.0  0.0432
  C  C93  1  0.228200  0.625000  0.476700  1.0  0.0567
  C  C94  1  0.020700  0.652900  0.397400  1.0  0.0369
  C  C95  1  0.290900  0.741400  0.497900  1.0  -0.0852
  C  C96  1  0.218200  0.813900  0.471700  1.0  -0.0217
  C  C97  1  0.102100  0.176800  0.120200  1.0  0.7382
  C  C98  1  0.011500  0.881100  0.183100  1.0  -0.1545
  C  C99  1  0.308900  0.897100  0.729400  1.0  -0.1639
  C  C100  1  0.940700  0.262600  0.202800  1.0  -0.1159
  C  C101  1  0.016700  0.899600  0.107000  1.0  0.7193
  C  C102  1  0.198100  0.324200  0.246700  1.0  -0.0741
  C  C103  1  0.877000  0.603700  0.340500  1.0  -0.366
  C  C104  1  0.993400  0.846000  0.399600  1.0  -0.1342
  C  C105  1  0.126200  0.856100  0.296800  1.0  0.0047
  C  C106  1  0.079500  0.257600  0.191200  1.0  -0.1466
  C  C107  1  0.559000  0.855900  0.683600  1.0  0.0365
  C  C108  1  0.882200  0.874900  0.208700  1.0  -0.058
  C  C109  1  0.133900  0.870500  0.228200  1.0  -0.0823
  C  C110  1  0.924400  0.331200  0.270700  1.0  0.0869
  C  C111  1  0.177800  0.391800  0.313900  1.0  0.0048
  C  C112  1  0.021000  0.457000  0.401300  1.0  -0.1132
  C  C113  1  0.440700  0.789300  0.549700  1.0  -0.1136
  C  C114  1  0.311900  0.551900  0.509900  1.0  -0.3578
  C  C115  1  0.878200  0.861800  0.278400  1.0  0.0524
  C  C116  1  0.282400  0.939200  0.496900  1.0  -0.376
  N  N117  1  0.000300  0.148200  0.679800  1.0  -0.0995
  N  N118  1  0.958200  0.607400  0.674800  1.0  0.1057
  N  N119  1  0.566600  0.166800  0.367900  1.0  0.0264
  N  N120  1  0.999700  0.851800  0.320200  1.0  -0.0985
  N  N121  1  0.041800  0.392600  0.325200  1.0  0.1059
  N  N122  1  0.433400  0.833200  0.632100  1.0  0.0259
  O  O123  1  0.686400  0.024000  0.117200  1.0  -0.699
  O  O124  1  0.860900  0.065300  0.904000  1.0  -0.7633
  O  O125  1  0.008700  0.890700  0.926200  1.0  -0.8182
  O  O126  1  0.769800  0.822700  0.887800  1.0  -0.7462
  O  O127  1  0.105300  0.120000  0.936600  1.0  -0.7766
  O  O128  1  0.454000  0.030200  0.086900  1.0  -0.776
  O  O129  1  0.313600  0.976000  0.882800  1.0  -0.6984
  O  O130  1  0.139100  0.934700  0.096000  1.0  -0.7636
  O  O131  1  0.991300  0.109300  0.073800  1.0  -0.8182
  O  O132  1  0.230200  0.177300  0.112200  1.0  -0.7502
  O  O133  1  0.894700  0.880000  0.063400  1.0  -0.7737
  O  O134  1  0.546000  0.969800  0.913100  1.0  -0.7756
