# generated using pymatgen
data_EuH27C30(NO2)3
_symmetry_space_group_name_H-M   'P 1'
_cell_length_a   9.49770000
_cell_length_b   12.62700000
_cell_length_c   18.70720000
_cell_angle_alpha   106.09600000
_cell_angle_beta   98.45200000
_cell_angle_gamma   100.27500000
_symmetry_Int_Tables_number   1
_chemical_formula_structural   EuH27C30(NO2)3
_chemical_formula_sum   'Eu2 H54 C60 N6 O12'
_cell_volume   2074.69948514
_cell_formula_units_Z   2
loop_
 _symmetry_equiv_pos_site_id
 _symmetry_equiv_pos_as_xyz
  1  'x, y, z'
loop_
 _atom_site_type_symbol
 _atom_site_label
 _atom_site_symmetry_multiplicity
 _atom_site_fract_x
 _atom_site_fract_y
 _atom_site_fract_z
 _atom_site_occupancy
 _atom_site_charge
  Eu  Eu1  1  0.235170  0.016180  0.003040  1.0  2.1134
  Eu  Eu2  1  0.764830  0.983820  0.996960  1.0  2.1219
  H  H3  1  0.348500  0.088100  0.204000  1.0  0.0991
  H  H4  1  0.776400  0.083500  0.254500  1.0  0.095
  H  H5  1  0.770000  0.150000  0.383900  1.0  0.0985
  H  H6  1  0.145500  0.782100  0.834700  1.0  0.1134
  H  H7  1  0.794800  0.151800  0.672900  1.0  0.0969
  H  H8  1  0.352700  0.150200  0.334100  1.0  0.1069
  H  H9  1  0.778700  0.130600  0.793300  1.0  0.1107
  H  H10  1  0.706400  0.678200  0.763400  1.0  0.1061
  H  H11  1  0.209300  0.129100  0.826100  1.0  0.0963
  H  H12  1  0.161400  0.340900  0.672900  1.0  0.0857
  H  H13  1  0.107400  0.455200  0.703100  1.0  0.1025
  H  H14  1  0.191300  0.438600  0.634000  1.0  0.0982
  H  H15  1  0.111000  0.180600  0.598400  1.0  0.0825
  H  H16  1  0.970000  0.077500  0.566300  1.0  0.0817
  H  H17  1  0.168400  0.665800  0.716300  1.0  0.0952
  H  H18  1  0.080300  0.552200  0.597200  1.0  0.0718
  H  H19  1  0.932200  0.576000  0.558800  1.0  0.089
  H  H20  1  0.738200  0.565200  0.649600  1.0  0.0879
  H  H21  1  0.212700  0.146100  0.704700  1.0  0.099
  H  H22  1  0.613100  0.470300  0.521600  1.0  0.0997
  H  H23  1  0.628900  0.404100  0.437900  1.0  0.0898
  H  H24  1  0.751000  0.514500  0.489000  1.0  0.0992
  H  H25  1  0.497200  0.262600  0.458700  1.0  0.0736
  H  H26  1  0.507000  0.140200  0.465000  1.0  0.0727
  H  H27  1  0.779600  0.019500  0.470900  1.0  0.096
  H  H28  1  0.620000  0.040800  0.476700  1.0  0.0922
  H  H29  1  0.724600  0.031800  0.549000  1.0  0.0951
  H  H30  1  0.651500  0.911900  0.796000  1.0  0.0988
  H  H31  1  0.223600  0.916500  0.745500  1.0  0.0947
  H  H32  1  0.230000  0.850000  0.616100  1.0  0.0979
  H  H33  1  0.854500  0.217900  0.165300  1.0  0.1135
  H  H34  1  0.205200  0.848200  0.327100  1.0  0.0977
  H  H35  1  0.647300  0.849800  0.665900  1.0  0.1073
  H  H36  1  0.221300  0.869400  0.206700  1.0  0.1107
  H  H37  1  0.293600  0.321800  0.236600  1.0  0.1054
  H  H38  1  0.790700  0.870900  0.173900  1.0  0.0953
  H  H39  1  0.838600  0.659100  0.327100  1.0  0.0864
  H  H40  1  0.892600  0.544800  0.296900  1.0  0.1019
  H  H41  1  0.808700  0.561400  0.366000  1.0  0.097
  H  H42  1  0.889000  0.819400  0.401600  1.0  0.0803
  H  H43  1  0.030000  0.922500  0.433700  1.0  0.0821
  H  H44  1  0.831600  0.334200  0.283700  1.0  0.0947
  H  H45  1  0.919700  0.447800  0.402800  1.0  0.0718
  H  H46  1  0.067800  0.424000  0.441200  1.0  0.0886
  H  H47  1  0.261800  0.434800  0.350400  1.0  0.0878
  H  H48  1  0.787300  0.853900  0.295300  1.0  0.0981
  H  H49  1  0.386900  0.529700  0.478400  1.0  0.0995
  H  H50  1  0.371100  0.595900  0.562100  1.0  0.0914
  H  H51  1  0.249000  0.485500  0.511000  1.0  0.1001
  H  H52  1  0.502800  0.737400  0.541300  1.0  0.0744
  H  H53  1  0.493000  0.859800  0.535000  1.0  0.0721
  H  H54  1  0.220400  0.980500  0.529100  1.0  0.0977
  H  H55  1  0.380000  0.959200  0.523300  1.0  0.0918
  H  H56  1  0.275400  0.968200  0.451000  1.0  0.0934
  C  C57  1  0.919800  0.232400  0.578400  1.0  -0.1048
  C  C58  1  0.903800  0.828100  0.880600  1.0  0.7312
  C  C59  1  0.563000  0.079200  0.215600  1.0  -0.1248
  C  C60  1  0.902800  0.418400  0.573500  1.0  -0.0534
  C  C61  1  0.706600  0.255600  0.502800  1.0  -0.0656
  C  C62  1  0.436400  0.100600  0.239900  1.0  -0.1021
  C  C63  1  0.768500  0.371800  0.522900  1.0  0.0397
  C  C64  1  0.978700  0.347600  0.602600  1.0  0.0469
  C  C65  1  0.688800  0.098400  0.269600  1.0  -0.1213
  C  C66  1  0.564800  0.038600  0.131600  1.0  0.7542
  C  C67  1  0.685400  0.139800  0.346300  1.0  0.0351
  C  C68  1  0.061500  0.739400  0.796600  1.0  -0.1014
  C  C69  1  0.921800  0.743600  0.808100  1.0  -0.1338
  C  C70  1  0.878700  0.146500  0.705100  1.0  0.0243
  C  C71  1  0.440100  0.140300  0.316800  1.0  0.0118
  C  C72  1  0.868100  0.132800  0.776100  1.0  -0.097
  C  C73  1  0.802000  0.677500  0.754200  1.0  -0.0973
  C  C74  1  0.122000  0.131400  0.795000  1.0  -0.0894
  C  C75  1  0.994000  0.122500  0.820900  1.0  -0.1248
  C  C76  1  0.783400  0.183600  0.529300  1.0  0.0377
  C  C77  1  0.122100  0.400100  0.657900  1.0  -0.3668
  C  C78  1  0.008300  0.155200  0.602100  1.0  -0.0936
  C  C79  1  0.073900  0.669500  0.726300  1.0  0.0282
  C  C80  1  0.974500  0.543400  0.597000  1.0  -0.0919
  C  C81  1  0.821400  0.610900  0.687300  1.0  0.0378
  C  C82  1  0.125000  0.143700  0.723600  1.0  0.0166
  C  C83  1  0.987000  0.102300  0.896100  1.0  0.7455
  C  C84  1  0.682400  0.447200  0.489800  1.0  -0.3562
  C  C85  1  0.556700  0.205100  0.451000  1.0  -0.1095
  C  C86  1  0.721500  0.058000  0.504300  1.0  -0.3629
  C  C87  1  0.080200  0.767600  0.421600  1.0  -0.1055
  C  C88  1  0.096200  0.171900  0.119400  1.0  0.7311
  C  C89  1  0.437000  0.920800  0.784400  1.0  -0.1226
  C  C90  1  0.097200  0.581600  0.426500  1.0  -0.0537
  C  C91  1  0.293400  0.744400  0.497200  1.0  -0.0639
  C  C92  1  0.563600  0.899400  0.760100  1.0  -0.1031
  C  C93  1  0.231500  0.628200  0.477100  1.0  0.04
  C  C94  1  0.021300  0.652400  0.397400  1.0  0.048
  C  C95  1  0.311200  0.901600  0.730400  1.0  -0.1211
  C  C96  1  0.435200  0.961400  0.868400  1.0  0.7406
  C  C97  1  0.314600  0.860200  0.653700  1.0  0.0354
  C  C98  1  0.938500  0.260600  0.203400  1.0  -0.1018
  C  C99  1  0.078200  0.256400  0.191900  1.0  -0.1356
  C  C100  1  0.121300  0.853500  0.294900  1.0  0.0241
  C  C101  1  0.559900  0.859700  0.683200  1.0  0.0114
  C  C102  1  0.131900  0.867200  0.223900  1.0  -0.0974
  C  C103  1  0.198000  0.322500  0.245800  1.0  -0.0965
  C  C104  1  0.878000  0.868600  0.205000  1.0  -0.0906
  C  C105  1  0.006000  0.877500  0.179100  1.0  -0.1246
  C  C106  1  0.216600  0.816400  0.470700  1.0  0.0366
  C  C107  1  0.877900  0.599900  0.342100  1.0  -0.3655
  C  C108  1  0.991700  0.844800  0.397900  1.0  -0.0929
  C  C109  1  0.926100  0.330500  0.273700  1.0  0.0307
  C  C110  1  0.025500  0.456600  0.403000  1.0  -0.0983
  C  C111  1  0.178600  0.389100  0.312700  1.0  0.0383
  C  C112  1  0.875000  0.856300  0.276400  1.0  0.0153
  C  C113  1  0.013000  0.897700  0.103900  1.0  0.7481
  C  C114  1  0.317600  0.552800  0.510200  1.0  -0.3585
  C  C115  1  0.443300  0.794900  0.549000  1.0  -0.1083
  C  C116  1  0.278500  0.942000  0.495700  1.0  -0.3621
  N  N117  1  0.005300  0.152100  0.682600  1.0  -0.0701
  N  N118  1  0.956400  0.608200  0.673200  1.0  0.0305
  N  N119  1  0.565900  0.165100  0.367100  1.0  -0.0017
  N  N120  1  0.994700  0.847900  0.317400  1.0  -0.0697
  N  N121  1  0.043600  0.391800  0.326800  1.0  0.031
  N  N122  1  0.434100  0.834900  0.632900  1.0  -0.0028
  O  O123  1  0.450500  0.028600  0.085700  1.0  -0.7827
  O  O124  1  0.682500  0.021200  0.115500  1.0  -0.708
  O  O125  1  0.776500  0.828700  0.889100  1.0  -0.7055
  O  O126  1  0.018300  0.891200  0.925100  1.0  -0.8067
  O  O127  1  0.862800  0.067200  0.907500  1.0  -0.7362
  O  O128  1  0.107900  0.121400  0.940900  1.0  -0.7751
  O  O129  1  0.549500  0.971400  0.914300  1.0  -0.7808
  O  O130  1  0.317500  0.978800  0.884500  1.0  -0.7064
  O  O131  1  0.223500  0.171300  0.110900  1.0  -0.7055
  O  O132  1  0.981700  0.108800  0.074900  1.0  -0.8082
  O  O133  1  0.137200  0.932800  0.092500  1.0  -0.7371
  O  O134  1  0.892100  0.878600  0.059100  1.0  -0.7751
