# generated using pymatgen
data_HoH27C30(NO2)3
_symmetry_space_group_name_H-M   'P 1'
_cell_length_a   9.46440000
_cell_length_b   12.72060000
_cell_length_c   18.55390000
_cell_angle_alpha   106.20600000
_cell_angle_beta   97.89300000
_cell_angle_gamma   100.26600000
_symmetry_Int_Tables_number   1
_chemical_formula_structural   HoH27C30(NO2)3
_chemical_formula_sum   'Ho2 H54 C60 N6 O12'
_cell_volume   2068.88283419
_cell_formula_units_Z   2
loop_
 _symmetry_equiv_pos_site_id
 _symmetry_equiv_pos_as_xyz
  1  'x, y, z'
loop_
 _atom_site_type_symbol
 _atom_site_label
 _atom_site_symmetry_multiplicity
 _atom_site_fract_x
 _atom_site_fract_y
 _atom_site_fract_z
 _atom_site_occupancy
 _atom_site_charge
  Ho  Ho1  1  0.263840  0.485090  0.497280  1.0  2.2009
  Ho  Ho2  1  0.736160  0.514910  0.502720  1.0  2.202
  H  H3  1  0.577400  0.048400  0.094800  1.0  0.0739
  H  H4  1  0.427500  0.071800  0.058600  1.0  0.0765
  H  H5  1  0.611500  0.681200  0.097400  1.0  0.0714
  H  H6  1  0.472100  0.577800  0.064100  1.0  0.0981
  H  H7  1  0.999200  0.768200  0.960000  1.0  0.0685
  H  H8  1  0.003100  0.647000  0.968500  1.0  0.0851
  H  H9  1  0.662200  0.835700  0.168500  1.0  0.0875
  H  H10  1  0.604700  0.945700  0.205500  1.0  0.0946
  H  H11  1  0.688800  0.939900  0.135700  1.0  0.0928
  H  H12  1  0.291400  0.519800  0.988400  1.0  0.082
  H  H13  1  0.134200  0.541700  0.961500  1.0  0.0845
  H  H14  1  0.182400  0.539500  0.047000  1.0  0.0959
  H  H15  1  0.133900  0.904600  0.938200  1.0  0.086
  H  H16  1  0.250000  0.014500  0.993700  1.0  0.0936
  H  H17  1  0.108000  0.964400  0.021900  1.0  0.1034
  H  H18  1  0.672200  0.162500  0.217000  1.0  0.0919
  H  H19  1  0.649000  0.276000  0.335300  1.0  0.0967
  H  H20  1  0.208300  0.180200  0.267100  1.0  0.0981
  H  H21  1  0.238000  0.063600  0.151600  1.0  0.0919
  H  H22  1  0.713900  0.643000  0.203300  1.0  0.0979
  H  H23  1  0.710100  0.620500  0.323000  1.0  0.0958
  H  H24  1  0.279900  0.625900  0.293500  1.0  0.0997
  H  H25  1  0.292800  0.653400  0.176600  1.0  0.0973
  H  H26  1  0.271500  0.657900  0.882500  1.0  0.096
  H  H27  1  0.272900  0.585700  0.752900  1.0  0.0938
  H  H28  1  0.844000  0.588300  0.704600  1.0  0.0868
  H  H29  1  0.850900  0.662500  0.835900  1.0  0.1067
  H  H30  1  0.422600  0.951600  0.905200  1.0  0.0746
  H  H31  1  0.572500  0.928200  0.941400  1.0  0.0763
  H  H32  1  0.388500  0.318800  0.902600  1.0  0.0697
  H  H33  1  0.527900  0.422200  0.935900  1.0  0.0984
  H  H34  1  0.000800  0.231800  0.040000  1.0  0.0699
  H  H35  1  0.996900  0.353000  0.031500  1.0  0.0843
  H  H36  1  0.337800  0.164300  0.831500  1.0  0.0876
  H  H37  1  0.395300  0.054300  0.794500  1.0  0.0941
  H  H38  1  0.311200  0.060100  0.864300  1.0  0.0914
  H  H39  1  0.708600  0.480200  0.011600  1.0  0.082
  H  H40  1  0.865800  0.458300  0.038500  1.0  0.0843
  H  H41  1  0.817600  0.460500  0.953000  1.0  0.0964
  H  H42  1  0.866100  0.095400  0.061800  1.0  0.0848
  H  H43  1  0.750000  0.985500  0.006300  1.0  0.0926
  H  H44  1  0.892000  0.035600  0.978100  1.0  0.1035
  H  H45  1  0.327800  0.837500  0.783000  1.0  0.0909
  H  H46  1  0.351000  0.724000  0.664700  1.0  0.0963
  H  H47  1  0.791700  0.819800  0.732900  1.0  0.0969
  H  H48  1  0.762000  0.936400  0.848400  1.0  0.0918
  H  H49  1  0.286100  0.357000  0.796700  1.0  0.0972
  H  H50  1  0.289900  0.379500  0.677000  1.0  0.0957
  H  H51  1  0.720100  0.374100  0.706500  1.0  0.0995
  H  H52  1  0.707200  0.346600  0.823400  1.0  0.0986
  H  H53  1  0.728500  0.342100  0.117500  1.0  0.0951
  H  H54  1  0.727100  0.414300  0.247100  1.0  0.0936
  H  H55  1  0.156000  0.411700  0.295400  1.0  0.0868
  H  H56  1  0.149100  0.337500  0.164100  1.0  0.1081
  C  C57  1  0.401700  0.916900  0.074000  1.0  -0.0934
  C  C58  1  0.477800  0.847000  0.102200  1.0  0.0706
  C  C59  1  0.418600  0.730600  0.078100  1.0  -0.0799
  C  C60  1  0.281900  0.685000  0.029900  1.0  0.0277
  C  C61  1  0.205900  0.756500  0.003800  1.0  -0.1479
  C  C62  1  0.266000  0.872100  0.023500  1.0  0.0644
  C  C63  1  0.472100  0.039900  0.096700  1.0  -0.0702
  C  C64  1  0.508500  0.654500  0.100800  1.0  -0.1227
  C  C65  1  0.055600  0.708800  0.952700  1.0  -0.1222
  C  C66  1  0.620700  0.896300  0.157800  1.0  -0.3746
  C  C67  1  0.216800  0.560700  0.004500  1.0  -0.3536
  C  C68  1  0.182100  0.945400  0.991500  1.0  -0.3577
  C  C69  1  0.577600  0.166900  0.227400  1.0  0.0437
  C  C70  1  0.564100  0.235400  0.297200  1.0  -0.1019
  C  C71  1  0.427400  0.244600  0.311400  1.0  -0.1387
  C  C72  1  0.303700  0.178000  0.257000  1.0  -0.0347
  C  C73  1  0.321600  0.109300  0.188800  1.0  0.0193
  C  C74  1  0.411300  0.328500  0.383800  1.0  0.7399
  C  C75  1  0.625800  0.639900  0.222600  1.0  0.0518
  C  C76  1  0.623300  0.625600  0.292900  1.0  -0.0855
  C  C77  1  0.494000  0.618800  0.320200  1.0  -0.1708
  C  C78  1  0.369600  0.629500  0.275700  1.0  -0.1041
  C  C79  1  0.377300  0.645300  0.206800  1.0  0.0074
  C  C80  1  0.487900  0.596400  0.395800  1.0  0.7334
  C  C81  1  0.184600  0.643500  0.845400  1.0  0.0372
  C  C82  1  0.185900  0.601700  0.769000  1.0  -0.131
  C  C83  1  0.059000  0.582800  0.715300  1.0  -0.144
  C  C84  1  0.932800  0.603400  0.740500  1.0  -0.1006
  C  C85  1  0.936500  0.646200  0.818200  1.0  -0.0009
  C  C86  1  0.061000  0.542000  0.629900  1.0  0.7303
  C  C87  1  0.598300  0.083100  0.926000  1.0  -0.094
  C  C88  1  0.522200  0.153000  0.897800  1.0  0.07
  C  C89  1  0.581400  0.269400  0.921900  1.0  -0.0804
  C  C90  1  0.718100  0.315000  0.970100  1.0  0.0274
  C  C91  1  0.794100  0.243500  0.996200  1.0  -0.1461
  C  C92  1  0.734000  0.127900  0.976500  1.0  0.0641
  C  C93  1  0.527900  0.960100  0.903300  1.0  -0.0762
  C  C94  1  0.491500  0.345500  0.899200  1.0  -0.1239
  C  C95  1  0.944400  0.291200  0.047300  1.0  -0.1219
  C  C96  1  0.379300  0.103700  0.842200  1.0  -0.3728
  C  C97  1  0.783200  0.439300  0.995500  1.0  -0.3536
  C  C98  1  0.817900  0.054600  0.008500  1.0  -0.3604
  C  C99  1  0.422400  0.833100  0.772600  1.0  0.0448
  C  C100  1  0.435900  0.764600  0.702800  1.0  -0.1
  C  C101  1  0.572600  0.755400  0.688600  1.0  -0.1383
  C  C102  1  0.696300  0.822000  0.743000  1.0  -0.0323
  C  C103  1  0.678400  0.890700  0.811200  1.0  0.0174
  C  C104  1  0.588700  0.671500  0.616200  1.0  0.7392
  C  C105  1  0.374200  0.360100  0.777400  1.0  0.0529
  C  C106  1  0.376700  0.374400  0.707100  1.0  -0.0854
  C  C107  1  0.506000  0.381200  0.679800  1.0  -0.1715
  C  C108  1  0.630400  0.370500  0.724300  1.0  -0.1029
  C  C109  1  0.622700  0.354700  0.793200  1.0  0.0076
  C  C110  1  0.512100  0.403600  0.604200  1.0  0.7357
  C  C111  1  0.815400  0.356500  0.154600  1.0  0.0398
  C  C112  1  0.814100  0.398300  0.231000  1.0  -0.1324
  C  C113  1  0.941000  0.417200  0.284700  1.0  -0.1434
  C  C114  1  0.067200  0.396600  0.259500  1.0  -0.1012
  C  C115  1  0.063500  0.353800  0.181800  1.0  -0.0015
  C  C116  1  0.939000  0.458000  0.370100  1.0  0.719
  N  N117  1  0.458100  0.106300  0.174100  1.0  0.0528
  N  N118  1  0.504100  0.649400  0.180800  1.0  -0.0126
  N  N119  1  0.060800  0.664300  0.868000  1.0  -0.0894
  N  N120  1  0.541900  0.893700  0.825900  1.0  0.053
  N  N121  1  0.495900  0.350600  0.819200  1.0  -0.0105
  N  N122  1  0.939200  0.335700  0.132000  1.0  -0.0903
  O  O123  1  0.284000  0.333333  0.394300  1.0  -0.6691
  O  O124  1  0.526700  0.391300  0.426900  1.0  -0.7855
  O  O125  1  0.364500  0.562000  0.407700  1.0  -0.7378
  O  O126  1  0.611000  0.613500  0.438700  1.0  -0.7368
  O  O127  1  0.179600  0.523800  0.613170  1.0  -0.7024
  O  O128  1  0.946800  0.532900  0.585290  1.0  -0.7496
  O  O129  1  0.716000  0.666667  0.605700  1.0  -0.6714
  O  O130  1  0.473300  0.608700  0.573100  1.0  -0.785
  O  O131  1  0.635500  0.438000  0.592300  1.0  -0.7379
  O  O132  1  0.389000  0.386500  0.561300  1.0  -0.7377
  O  O133  1  0.820400  0.476200  0.386830  1.0  -0.7014
  O  O134  1  0.053200  0.467100  0.414710  1.0  -0.7491
