# generated using pymatgen
data_DyH27C30(NO2)3
_symmetry_space_group_name_H-M   'P 1'
_cell_length_a   9.47270000
_cell_length_b   12.65200000
_cell_length_c   18.60170000
_cell_angle_alpha   106.10600000
_cell_angle_beta   98.08800000
_cell_angle_gamma   100.25500000
_symmetry_Int_Tables_number   1
_chemical_formula_structural   DyH27C30(NO2)3
_chemical_formula_sum   'Dy2 H54 C60 N6 O12'
_cell_volume   2064.62767617
_cell_formula_units_Z   2
loop_
 _symmetry_equiv_pos_site_id
 _symmetry_equiv_pos_as_xyz
  1  'x, y, z'
loop_
 _atom_site_type_symbol
 _atom_site_label
 _atom_site_symmetry_multiplicity
 _atom_site_fract_x
 _atom_site_fract_y
 _atom_site_fract_z
 _atom_site_occupancy
 _atom_site_charge
  Dy  Dy1  1  0.763840  0.484370  0.497150  1.0  2.2789
  Dy  Dy2  1  0.236160  0.515630  0.502850  1.0  2.2793
  H  H3  1  0.653800  0.410700  0.296300  1.0  0.0883
  H  H4  1  0.227700  0.419400  0.247200  1.0  0.0866
  H  H5  1  0.649300  0.344800  0.166100  1.0  0.1008
  H  H6  1  0.833000  0.163100  0.834600  1.0  0.0918
  H  H7  1  0.812800  0.053700  0.862700  1.0  0.0874
  H  H8  1  0.894800  0.057100  0.793500  1.0  0.0963
  H  H9  1  0.228000  0.345400  0.116700  1.0  0.0943
  H  H10  1  0.292700  0.819400  0.735200  1.0  0.0963
  H  H11  1  0.788600  0.374300  0.673900  1.0  0.0985
  H  H12  1  0.851800  0.720200  0.667100  1.0  0.0982
  H  H13  1  0.220100  0.371000  0.705700  1.0  0.0999
  H  H14  1  0.830700  0.837100  0.782900  1.0  0.0886
  H  H15  1  0.206500  0.346200  0.824100  1.0  0.0966
  H  H16  1  0.029200  0.422400  0.934500  1.0  0.075
  H  H17  1  0.888700  0.319100  0.902100  1.0  0.0617
  H  H18  1  0.222900  0.479900  0.030000  1.0  0.0952
  H  H19  1  0.272900  0.467500  0.949900  1.0  0.091
  H  H20  1  0.382200  0.459200  0.021000  1.0  0.0901
  H  H21  1  0.262400  0.935300  0.849500  1.0  0.0915
  H  H22  1  0.785600  0.354600  0.795100  1.0  0.0964
  H  H23  1  0.070300  0.925400  0.942000  1.0  0.0787
  H  H24  1  0.921400  0.949300  0.904600  1.0  0.0658
  H  H25  1  0.506800  0.239700  0.041300  1.0  0.0761
  H  H26  1  0.495700  0.361500  0.034600  1.0  0.0683
  H  H27  1  0.255700  0.980200  0.001200  1.0  0.0926
  H  H28  1  0.354800  0.091300  0.065300  1.0  0.0907
  H  H29  1  0.403000  0.045800  0.985300  1.0  0.1021
  H  H30  1  0.346200  0.589300  0.703700  1.0  0.0884
  H  H31  1  0.772300  0.580600  0.752800  1.0  0.0867
  H  H32  1  0.350700  0.655200  0.833900  1.0  0.0997
  H  H33  1  0.167000  0.836900  0.165400  1.0  0.0921
  H  H34  1  0.187200  0.946300  0.137300  1.0  0.0871
  H  H35  1  0.105200  0.942900  0.206500  1.0  0.0958
  H  H36  1  0.772000  0.654600  0.883300  1.0  0.0952
  H  H37  1  0.707300  0.180600  0.264800  1.0  0.0976
  H  H38  1  0.211400  0.625700  0.326100  1.0  0.0992
  H  H39  1  0.148200  0.279800  0.332900  1.0  0.0982
  H  H40  1  0.779900  0.629000  0.294300  1.0  0.0998
  H  H41  1  0.169300  0.162900  0.217100  1.0  0.0905
  H  H42  1  0.793500  0.653800  0.175900  1.0  0.0961
  H  H43  1  0.970800  0.577600  0.065500  1.0  0.0746
  H  H44  1  0.111300  0.680900  0.097900  1.0  0.0632
  H  H45  1  0.777100  0.520100  0.970000  1.0  0.095
  H  H46  1  0.727100  0.532500  0.050100  1.0  0.0921
  H  H47  1  0.617800  0.540800  0.979000  1.0  0.09
  H  H48  1  0.737600  0.064700  0.150500  1.0  0.0918
  H  H49  1  0.214400  0.645400  0.204900  1.0  0.0965
  H  H50  1  0.929700  0.074600  0.058000  1.0  0.0783
  H  H51  1  0.078600  0.050700  0.095400  1.0  0.0661
  H  H52  1  0.493200  0.760300  0.958700  1.0  0.0754
  H  H53  1  0.504300  0.638500  0.965400  1.0  0.0693
  H  H54  1  0.744300  0.019800  0.998800  1.0  0.0921
  H  H55  1  0.645200  0.908700  0.934700  1.0  0.0914
  H  H56  1  0.597000  0.954200  0.014700  1.0  0.0989
  C  C57  1  0.098700  0.081900  0.926400  1.0  -0.0715
  C  C58  1  0.439800  0.420100  0.285100  1.0  -0.1477
  C  C59  1  0.080400  0.268400  0.921300  1.0  -0.0777
  C  C60  1  0.090500  0.670700  0.617500  1.0  0.7375
  C  C61  1  0.439100  0.460900  0.370600  1.0  0.7269
  C  C62  1  0.565800  0.398100  0.260400  1.0  -0.1177
  C  C63  1  0.075200  0.756100  0.689500  1.0  -0.1541
  C  C64  1  0.218700  0.315600  0.970700  1.0  -0.0192
  C  C65  1  0.232900  0.127900  0.977100  1.0  0.0366
  C  C66  1  0.314200  0.402100  0.231200  1.0  -0.0369
  C  C67  1  0.295300  0.245500  0.997500  1.0  -0.0745
  C  C68  1  0.562500  0.357900  0.183500  1.0  0.0192
  C  C69  1  0.878100  0.102100  0.842400  1.0  -0.384
  C  C70  1  0.314200  0.359100  0.154000  1.0  0.0243
  C  C71  1  0.197100  0.821700  0.744500  1.0  -0.0855
  C  C72  1  0.875400  0.370400  0.704600  1.0  -0.0185
  C  C73  1  0.937000  0.762900  0.704300  1.0  -0.1606
  C  C74  1  0.130400  0.367700  0.723300  1.0  -0.044
  C  C75  1  0.925100  0.831800  0.772700  1.0  0.0643
  C  C76  1  0.011600  0.399200  0.602400  1.0  0.75
  C  C77  1  0.021600  0.151800  0.898000  1.0  0.0567
  C  C78  1  0.122200  0.353100  0.793000  1.0  0.0189
  C  C79  1  0.991600  0.345000  0.898400  1.0  -0.1167
  C  C80  1  0.279500  0.441600  0.995000  1.0  -0.3713
  C  C81  1  0.179000  0.889500  0.812100  1.0  0.018
  C  C82  1  0.873300  0.357300  0.775700  1.0  0.0149
  C  C83  1  0.005800  0.377800  0.678500  1.0  -0.1572
  C  C84  1  0.027000  0.957800  0.903800  1.0  -0.0999
  C  C85  1  0.446700  0.296900  0.049200  1.0  -0.1178
  C  C86  1  0.319400  0.054700  0.010200  1.0  -0.3499
  C  C87  1  0.901300  0.918100  0.073600  1.0  -0.0715
  C  C88  1  0.560200  0.579900  0.714900  1.0  -0.1477
  C  C89  1  0.919600  0.731600  0.078700  1.0  -0.0768
  C  C90  1  0.909500  0.329300  0.382500  1.0  0.7358
  C  C91  1  0.560900  0.539100  0.629400  1.0  0.7216
  C  C92  1  0.434200  0.601900  0.739600  1.0  -0.1173
  C  C93  1  0.924800  0.243900  0.310500  1.0  -0.1553
  C  C94  1  0.781300  0.684400  0.029300  1.0  -0.0194
  C  C95  1  0.767100  0.872100  0.022900  1.0  0.0359
  C  C96  1  0.685800  0.597900  0.768800  1.0  -0.0348
  C  C97  1  0.704700  0.754500  0.002500  1.0  -0.0764
  C  C98  1  0.437500  0.642100  0.816500  1.0  0.0197
  C  C99  1  0.121900  0.897900  0.157600  1.0  -0.3839
  C  C100  1  0.685800  0.640900  0.846000  1.0  0.0237
  C  C101  1  0.802900  0.178300  0.255500  1.0  -0.0889
  C  C102  1  0.124600  0.629600  0.295400  1.0  -0.0175
  C  C103  1  0.063000  0.237100  0.295700  1.0  -0.1615
  C  C104  1  0.869600  0.632300  0.276700  1.0  -0.0465
  C  C105  1  0.074900  0.168200  0.227300  1.0  0.0653
  C  C106  1  0.988400  0.600800  0.397600  1.0  0.7474
  C  C107  1  0.978400  0.848200  0.102000  1.0  0.0573
  C  C108  1  0.877800  0.646900  0.207000  1.0  0.0193
  C  C109  1  0.008400  0.655000  0.101600  1.0  -0.1163
  C  C110  1  0.720500  0.558400  0.005000  1.0  -0.3713
  C  C111  1  0.821000  0.110500  0.187900  1.0  0.0181
  C  C112  1  0.126700  0.642700  0.224300  1.0  0.0152
  C  C113  1  0.994200  0.622200  0.321500  1.0  -0.1574
  C  C114  1  0.973000  0.042200  0.096200  1.0  -0.0937
  C  C115  1  0.553300  0.703100  0.950800  1.0  -0.1191
  C  C116  1  0.680600  0.945300  0.989800  1.0  -0.3478
  N  N117  1  0.995600  0.348500  0.817200  1.0  -0.1099
  N  N118  1  0.438800  0.337200  0.133200  1.0  -0.1038
  N  N119  1  0.043900  0.892100  0.826200  1.0  0.0786
  N  N120  1  0.004400  0.651500  0.182800  1.0  -0.1098
  N  N121  1  0.561200  0.662800  0.866800  1.0  -0.1021
  N  N122  1  0.956100  0.107900  0.173800  1.0  0.0782
  O  O123  1  0.551600  0.468200  0.414700  1.0  -0.7463
  O  O124  1  0.975700  0.608100  0.574300  1.0  -0.7789
  O  O125  1  0.889500  0.383000  0.559700  1.0  -0.7645
  O  O126  1  0.319600  0.479100  0.386700  1.0  -0.7113
  O  O127  1  0.218500  0.667700  0.607700  1.0  -0.6675
  O  O128  1  0.136100  0.435300  0.591200  1.0  -0.7365
  O  O129  1  0.448400  0.531800  0.585300  1.0  -0.746
  O  O130  1  0.024300  0.391900  0.425700  1.0  -0.7784
  O  O131  1  0.110500  0.617000  0.440300  1.0  -0.7628
  O  O132  1  0.680400  0.520900  0.613300  1.0  -0.7134
  O  O133  1  0.781500  0.332300  0.392300  1.0  -0.6666
  O  O134  1  0.863900  0.564700  0.408800  1.0  -0.7366
