# generated using pymatgen
data_YbH27C30(NO2)3
_symmetry_space_group_name_H-M   'P 1'
_cell_length_a   9.49510000
_cell_length_b   12.55950000
_cell_length_c   18.91910000
_cell_angle_alpha   106.10700000
_cell_angle_beta   98.86900000
_cell_angle_gamma   100.65000000
_symmetry_Int_Tables_number   1
_chemical_formula_structural   YbH27C30(NO2)3
_chemical_formula_sum   'Yb2 H54 C60 N6 O12'
_cell_volume   2079.22834875
_cell_formula_units_Z   2
loop_
 _symmetry_equiv_pos_site_id
 _symmetry_equiv_pos_as_xyz
  1  'x, y, z'
loop_
 _atom_site_type_symbol
 _atom_site_label
 _atom_site_symmetry_multiplicity
 _atom_site_fract_x
 _atom_site_fract_y
 _atom_site_fract_z
 _atom_site_occupancy
 _atom_site_charge
  Yb  Yb1  1  0.234130  0.017810  0.003910  1.0  1.5007
  Yb  Yb2  1  0.765870  0.982190  0.996090  1.0  1.5021
  H  H3  1  0.352200  0.082200  0.204200  1.0  0.1007
  H  H4  1  0.780000  0.081200  0.256600  1.0  0.1031
  H  H5  1  0.354900  0.149100  0.331800  1.0  0.1166
  H  H6  1  0.776600  0.152900  0.384000  1.0  0.1064
  H  H7  1  0.794500  0.153300  0.672500  1.0  0.1019
  H  H8  1  0.115300  0.181400  0.600200  1.0  0.0886
  H  H9  1  0.973600  0.076700  0.567000  1.0  0.0913
  H  H10  1  0.208000  0.130000  0.826200  1.0  0.1024
  H  H11  1  0.778700  0.131600  0.789100  1.0  0.1108
  H  H12  1  0.163700  0.341700  0.673500  1.0  0.0939
  H  H13  1  0.108000  0.455000  0.704500  1.0  0.1113
  H  H14  1  0.195000  0.442900  0.637700  1.0  0.104
  H  H15  1  0.138500  0.784000  0.833900  1.0  0.117
  H  H16  1  0.701100  0.675900  0.757500  1.0  0.1057
  H  H17  1  0.168600  0.669400  0.720100  1.0  0.1044
  H  H18  1  0.735600  0.562400  0.645500  1.0  0.1007
  H  H19  1  0.081100  0.556300  0.598300  1.0  0.0803
  H  H20  1  0.931700  0.577200  0.558900  1.0  0.097
  H  H21  1  0.217000  0.148200  0.707600  1.0  0.1125
  H  H22  1  0.502400  0.260300  0.456900  1.0  0.0801
  H  H23  1  0.510300  0.137900  0.464800  1.0  0.0926
  H  H24  1  0.604200  0.456700  0.514200  1.0  0.1113
  H  H25  1  0.645000  0.404300  0.434800  1.0  0.0974
  H  H26  1  0.750700  0.517800  0.495300  1.0  0.1059
  H  H27  1  0.626100  0.036600  0.472100  1.0  0.1031
  H  H28  1  0.721700  0.030100  0.547500  1.0  0.1018
  H  H29  1  0.788500  0.017600  0.473800  1.0  0.1025
  H  H30  1  0.647800  0.917800  0.795800  1.0  0.1008
  H  H31  1  0.220000  0.918800  0.743400  1.0  0.1026
  H  H32  1  0.645100  0.850900  0.668200  1.0  0.1181
  H  H33  1  0.223400  0.847100  0.616000  1.0  0.1063
  H  H34  1  0.205500  0.846700  0.327500  1.0  0.1019
  H  H35  1  0.884700  0.818600  0.399800  1.0  0.0863
  H  H36  1  0.026400  0.923300  0.433000  1.0  0.092
  H  H37  1  0.792000  0.870000  0.173800  1.0  0.1022
  H  H38  1  0.221300  0.868400  0.210900  1.0  0.1104
  H  H39  1  0.836300  0.658300  0.326500  1.0  0.0944
  H  H40  1  0.892000  0.545000  0.295500  1.0  0.1097
  H  H41  1  0.805000  0.557100  0.362300  1.0  0.1022
  H  H42  1  0.861500  0.216000  0.166100  1.0  0.1169
  H  H43  1  0.298900  0.324100  0.242500  1.0  0.1051
  H  H44  1  0.831400  0.330600  0.279900  1.0  0.1037
  H  H45  1  0.264400  0.437600  0.354500  1.0  0.1011
  H  H46  1  0.918900  0.443700  0.401700  1.0  0.0802
  H  H47  1  0.068300  0.422800  0.441100  1.0  0.0967
  H  H48  1  0.783000  0.851800  0.292400  1.0  0.1103
  H  H49  1  0.497600  0.739700  0.543100  1.0  0.0804
  H  H50  1  0.489700  0.862100  0.535200  1.0  0.0923
  H  H51  1  0.395800  0.543300  0.485800  1.0  0.114
  H  H52  1  0.355000  0.595700  0.565200  1.0  0.0966
  H  H53  1  0.249300  0.482200  0.504700  1.0  0.1059
  H  H54  1  0.373900  0.963400  0.527900  1.0  0.1032
  H  H55  1  0.278300  0.969900  0.452500  1.0  0.1007
  H  H56  1  0.211500  0.982400  0.526200  1.0  0.103
  C  C57  1  0.924100  0.232300  0.578400  1.0  -0.0263
  C  C58  1  0.891600  0.823200  0.877000  1.0  0.764
  C  C59  1  0.565900  0.076400  0.217000  1.0  -0.1206
  C  C60  1  0.905500  0.419100  0.573300  1.0  -0.0853
  C  C61  1  0.569900  0.037900  0.134000  1.0  0.734
  C  C62  1  0.980800  0.348500  0.602200  1.0  0.0368
  C  C63  1  0.440400  0.096400  0.240400  1.0  -0.0966
  C  C64  1  0.711000  0.253500  0.501600  1.0  -0.1157
  C  C65  1  0.692400  0.096400  0.271200  1.0  -0.1233
  C  C66  1  0.442200  0.136700  0.315800  1.0  0.0388
  C  C67  1  0.770100  0.372000  0.522500  1.0  0.0711
  C  C68  1  0.690000  0.138500  0.346600  1.0  0.0415
  C  C69  1  0.916200  0.742500  0.805400  1.0  -0.133
  C  C70  1  0.991300  0.126500  0.819100  1.0  -0.1548
  C  C71  1  0.786500  0.183000  0.528400  1.0  0.0391
  C  C72  1  0.878700  0.147800  0.704400  1.0  0.0386
  C  C73  1  0.011700  0.155200  0.602600  1.0  -0.0796
  C  C74  1  0.122000  0.133500  0.794600  1.0  0.0119
  C  C75  1  0.869100  0.134800  0.773200  1.0  -0.0854
  C  C76  1  0.124500  0.401700  0.659500  1.0  -0.3588
  C  C77  1  0.055400  0.739800  0.795100  1.0  -0.0236
  C  C78  1  0.797700  0.675800  0.749900  1.0  -0.0813
  C  C79  1  0.072800  0.672400  0.727900  1.0  0.0926
  C  C80  1  0.818000  0.609400  0.683800  1.0  0.0111
  C  C81  1  0.974700  0.545300  0.597100  1.0  -0.0953
  C  C82  1  0.985600  0.107500  0.894700  1.0  0.7395
  C  C83  1  0.128200  0.145300  0.725100  1.0  0.0451
  C  C84  1  0.561000  0.202100  0.450200  1.0  -0.1239
  C  C85  1  0.684900  0.444100  0.488700  1.0  -0.3504
  C  C86  1  0.725400  0.055700  0.503300  1.0  -0.3553
  C  C87  1  0.075900  0.767700  0.421600  1.0  -0.0263
  C  C88  1  0.108400  0.176800  0.123000  1.0  0.7631
  C  C89  1  0.434100  0.923600  0.783000  1.0  -0.1209
  C  C90  1  0.094500  0.580900  0.426700  1.0  -0.0866
  C  C91  1  0.430100  0.962100  0.866000  1.0  0.7364
  C  C92  1  0.019200  0.651500  0.397800  1.0  0.0368
  C  C93  1  0.559600  0.903600  0.759600  1.0  -0.0982
  C  C94  1  0.289000  0.746500  0.498400  1.0  -0.115
  C  C95  1  0.307600  0.903600  0.728800  1.0  -0.1228
  C  C96  1  0.557800  0.863300  0.684200  1.0  0.037
  C  C97  1  0.229900  0.628000  0.477500  1.0  0.0714
  C  C98  1  0.310000  0.861500  0.653400  1.0  0.042
  C  C99  1  0.083800  0.257500  0.194600  1.0  -0.1343
  C  C100  1  0.008700  0.873500  0.180900  1.0  -0.154
  C  C101  1  0.213500  0.817000  0.471600  1.0  0.0394
  C  C102  1  0.121300  0.852200  0.295600  1.0  0.0384
  C  C103  1  0.988300  0.844800  0.397400  1.0  -0.0795
  C  C104  1  0.878000  0.866500  0.205400  1.0  0.0102
  C  C105  1  0.130900  0.865200  0.226800  1.0  -0.0852
  C  C106  1  0.875500  0.598300  0.340500  1.0  -0.3576
  C  C107  1  0.944600  0.260200  0.204900  1.0  -0.0236
  C  C108  1  0.202300  0.324200  0.250100  1.0  -0.0796
  C  C109  1  0.927200  0.327600  0.272100  1.0  0.0952
  C  C110  1  0.182000  0.390600  0.316200  1.0  0.0104
  C  C111  1  0.025300  0.454700  0.402900  1.0  -0.1019
  C  C112  1  0.014400  0.892500  0.105300  1.0  0.7412
  C  C113  1  0.871800  0.854700  0.274900  1.0  0.0466
  C  C114  1  0.439000  0.797900  0.549800  1.0  -0.1226
  C  C115  1  0.315100  0.555900  0.511300  1.0  -0.3529
  C  C116  1  0.274600  0.944300  0.496700  1.0  -0.3548
  N  N117  1  0.567800  0.158900  0.367300  1.0  -0.0015
  N  N118  1  0.005400  0.152900  0.681900  1.0  -0.1002
  N  N119  1  0.954500  0.610400  0.672700  1.0  0.0791
  N  N120  1  0.432200  0.841100  0.632700  1.0  -0.0021
  N  N121  1  0.994600  0.847100  0.318100  1.0  -0.099
  N  N122  1  0.045500  0.389600  0.327300  1.0  0.0809
  O  O123  1  0.457800  0.029500  0.087700  1.0  -0.7823
  O  O124  1  0.689000  0.020400  0.118800  1.0  -0.7143
  O  O125  1  0.002400  0.891200  0.924300  1.0  -0.7735
  O  O126  1  0.763500  0.818800  0.883700  1.0  -0.7038
  O  O127  1  0.106500  0.127100  0.938800  1.0  -0.7332
  O  O128  1  0.860500  0.071100  0.905000  1.0  -0.768
  O  O129  1  0.542200  0.970500  0.912300  1.0  -0.7824
  O  O130  1  0.311000  0.979600  0.881200  1.0  -0.7119
  O  O131  1  0.997600  0.108800  0.075700  1.0  -0.7738
  O  O132  1  0.236500  0.181200  0.116300  1.0  -0.7051
  O  O133  1  0.893500  0.872900  0.061200  1.0  -0.733
  O  O134  1  0.139500  0.928900  0.095000  1.0  -0.7658
