# generated using pymatgen
data_CoH9C13(N2O)2
_symmetry_space_group_name_H-M   'P 1'
_cell_length_a   19.48500000
_cell_length_b   7.08400000
_cell_length_c   12.13400000
_cell_angle_alpha   90.00000000
_cell_angle_beta   103.33000000
_cell_angle_gamma   90.00000000
_symmetry_Int_Tables_number   1
_chemical_formula_structural   CoH9C13(N2O)2
_chemical_formula_sum   'Co4 H36 C52 N16 O8'
_cell_volume   1629.75307182
_cell_formula_units_Z   4
loop_
 _symmetry_equiv_pos_site_id
 _symmetry_equiv_pos_as_xyz
  1  'x, y, z'
loop_
 _atom_site_type_symbol
 _atom_site_label
 _atom_site_symmetry_multiplicity
 _atom_site_fract_x
 _atom_site_fract_y
 _atom_site_fract_z
 _atom_site_occupancy
 _atom_site_charge
  Co  Co1  1  0.716170  0.856650  0.862770  1.0  0.8899
  Co  Co2  1  0.216170  0.356650  0.862770  1.0  0.8899
  Co  Co3  1  0.283830  0.856650  0.137230  1.0  0.8939
  Co  Co4  1  0.783830  0.356650  0.137230  1.0  0.8939
  H  H5  1  0.592400  0.732000  0.441700  1.0  0.0986
  H  H6  1  0.574600  0.805000  0.104300  1.0  0.0988
  H  H7  1  0.756500  0.949200  0.328100  1.0  0.0926
  H  H8  1  0.642500  0.902300  0.602500  1.0  0.0874
  H  H9  1  0.848700  0.843800  0.722500  1.0  0.0953
  H  H10  1  0.826800  0.817400  0.514300  1.0  0.1111
  H  H11  1  0.449000  0.919100  0.148900  1.0  0.0783
  H  H12  1  0.369700  0.500100  0.295300  1.0  0.0775
  H  H13  1  0.499400  0.469900  0.350900  1.0  0.1129
  H  H14  1  0.092400  0.232000  0.441700  1.0  0.0986
  H  H15  1  0.074600  0.305000  0.104300  1.0  0.0988
  H  H16  1  0.256500  0.449200  0.328100  1.0  0.0926
  H  H17  1  0.142500  0.402300  0.602500  1.0  0.0874
  H  H18  1  0.348700  0.343800  0.722500  1.0  0.0953
  H  H19  1  0.326800  0.317400  0.514300  1.0  0.1111
  H  H20  1  0.949000  0.419100  0.148900  1.0  0.0783
  H  H21  1  0.869700  0.000100  0.295300  1.0  0.0775
  H  H22  1  0.999400  0.969900  0.350900  1.0  0.1129
  H  H23  1  0.407600  0.732000  0.558300  1.0  0.0988
  H  H24  1  0.425400  0.805000  0.895700  1.0  0.0994
  H  H25  1  0.243500  0.949200  0.671900  1.0  0.0927
  H  H26  1  0.357500  0.902300  0.397500  1.0  0.0869
  H  H27  1  0.151300  0.843800  0.277500  1.0  0.0973
  H  H28  1  0.173200  0.817400  0.485700  1.0  0.1121
  H  H29  1  0.551000  0.919100  0.851100  1.0  0.0783
  H  H30  1  0.630300  0.500100  0.704700  1.0  0.0772
  H  H31  1  0.500600  0.469900  0.649100  1.0  0.1124
  H  H32  1  0.907600  0.232000  0.558300  1.0  0.0988
  H  H33  1  0.925400  0.305000  0.895700  1.0  0.0994
  H  H34  1  0.743500  0.449200  0.671900  1.0  0.0927
  H  H35  1  0.857500  0.402300  0.397500  1.0  0.0869
  H  H36  1  0.651300  0.343800  0.277500  1.0  0.0973
  H  H37  1  0.673200  0.317400  0.485700  1.0  0.1121
  H  H38  1  0.051000  0.419100  0.851100  1.0  0.0783
  H  H39  1  0.130300  0.000100  0.704700  1.0  0.0772
  H  H40  1  0.000600  0.969900  0.649100  1.0  0.1124
  C  C41  1  0.680870  0.841700  0.401200  1.0  0.1176
  C  C42  1  0.611870  0.772900  0.380900  1.0  -0.1988
  C  C43  1  0.572410  0.765700  0.270200  1.0  0.1477
  C  C44  1  0.601510  0.816000  0.180000  1.0  -0.1343
  C  C45  1  0.670690  0.882700  0.201900  1.0  -0.1087
  C  C46  1  0.710070  0.899100  0.313000  1.0  -0.1853
  C  C47  1  0.691350  0.882600  0.607100  1.0  0.1279
  C  C48  1  0.803730  0.851200  0.671500  1.0  0.0272
  C  C49  1  0.792320  0.836400  0.557300  1.0  -0.1249
  C  C50  1  0.444920  0.810400  0.192800  1.0  0.1269
  C  C51  1  0.402470  0.582600  0.272800  1.0  0.0071
  C  C52  1  0.473430  0.564300  0.303300  1.0  -0.1021
  C  C53  1  0.702040  0.941800  0.105000  1.0  0.6974
  C  C54  1  0.180870  0.341700  0.401200  1.0  0.1176
  C  C55  1  0.111870  0.272900  0.380900  1.0  -0.1988
  C  C56  1  0.072410  0.265700  0.270200  1.0  0.1477
  C  C57  1  0.101510  0.316000  0.180000  1.0  -0.1343
  C  C58  1  0.170690  0.382700  0.201900  1.0  -0.1087
  C  C59  1  0.210070  0.399100  0.313000  1.0  -0.1853
  C  C60  1  0.191350  0.382600  0.607100  1.0  0.1279
  C  C61  1  0.303730  0.351200  0.671500  1.0  0.0272
  C  C62  1  0.292320  0.336400  0.557300  1.0  -0.1249
  C  C63  1  0.944920  0.310400  0.192800  1.0  0.1269
  C  C64  1  0.902470  0.082600  0.272800  1.0  0.0071
  C  C65  1  0.973430  0.064300  0.303300  1.0  -0.1021
  C  C66  1  0.202040  0.441800  0.105000  1.0  0.6974
  C  C67  1  0.319130  0.841700  0.598800  1.0  0.118
  C  C68  1  0.388130  0.772900  0.619100  1.0  -0.1975
  C  C69  1  0.427590  0.765700  0.729800  1.0  0.1476
  C  C70  1  0.398490  0.816000  0.820000  1.0  -0.1322
  C  C71  1  0.329310  0.882700  0.798100  1.0  -0.1087
  C  C72  1  0.289930  0.899100  0.687000  1.0  -0.1849
  C  C73  1  0.308650  0.882600  0.392900  1.0  0.1303
  C  C74  1  0.196270  0.851200  0.328500  1.0  0.0255
  C  C75  1  0.207680  0.836400  0.442700  1.0  -0.126
  C  C76  1  0.555080  0.810400  0.807200  1.0  0.1263
  C  C77  1  0.597530  0.582600  0.727200  1.0  0.0084
  C  C78  1  0.526570  0.564300  0.696700  1.0  -0.1027
  C  C79  1  0.297960  0.941800  0.895000  1.0  0.6965
  C  C80  1  0.819130  0.341700  0.598800  1.0  0.118
  C  C81  1  0.888130  0.272900  0.619100  1.0  -0.1975
  C  C82  1  0.927590  0.265700  0.729800  1.0  0.1476
  C  C83  1  0.898490  0.316000  0.820000  1.0  -0.1322
  C  C84  1  0.829310  0.382700  0.798100  1.0  -0.1087
  C  C85  1  0.789930  0.399100  0.687000  1.0  -0.1849
  C  C86  1  0.808650  0.382600  0.392900  1.0  0.1303
  C  C87  1  0.696270  0.351200  0.328500  1.0  0.0255
  C  C88  1  0.707680  0.336400  0.442700  1.0  -0.126
  C  C89  1  0.055080  0.310400  0.807200  1.0  0.1263
  C  C90  1  0.097530  0.082600  0.727200  1.0  0.0084
  C  C91  1  0.026570  0.064300  0.696700  1.0  -0.1027
  C  C92  1  0.797960  0.441800  0.895000  1.0  0.6965
  N  N93  1  0.720120  0.854800  0.516170  1.0  -0.0218
  N  N94  1  0.740730  0.878500  0.703100  1.0  -0.412
  N  N95  1  0.500360  0.710200  0.251300  1.0  0.0225
  N  N96  1  0.384640  0.739200  0.203900  1.0  -0.3983
  N  N97  1  0.220120  0.354800  0.516170  1.0  -0.0218
  N  N98  1  0.240730  0.378500  0.703100  1.0  -0.412
  N  N99  1  0.000360  0.210200  0.251300  1.0  0.0225
  N  N100  1  0.884640  0.239200  0.203900  1.0  -0.3983
  N  N101  1  0.279880  0.854800  0.483830  1.0  -0.0221
  N  N102  1  0.259270  0.878500  0.296900  1.0  -0.4073
  N  N103  1  0.499640  0.710200  0.748700  1.0  0.0232
  N  N104  1  0.615360  0.739200  0.796100  1.0  -0.3985
  N  N105  1  0.779880  0.354800  0.483830  1.0  -0.0221
  N  N106  1  0.759270  0.378500  0.296900  1.0  -0.4073
  N  N107  1  0.999640  0.210200  0.748700  1.0  0.0232
  N  N108  1  0.115360  0.239200  0.796100  1.0  -0.3985
  O  O109  1  0.687790  0.835200  0.017640  1.0  -0.639
  O  O110  1  0.739580  0.085300  0.114900  1.0  -0.6989
  O  O111  1  0.187790  0.335200  0.017640  1.0  -0.639
  O  O112  1  0.239580  0.585300  0.114900  1.0  -0.6989
  O  O113  1  0.312210  0.835200  0.982360  1.0  -0.639
  O  O114  1  0.260420  0.085300  0.885100  1.0  -0.6987
  O  O115  1  0.812210  0.335200  0.982360  1.0  -0.639
  O  O116  1  0.760420  0.585300  0.885100  1.0  -0.6987
