# generated using pymatgen
data_Cu3P2H8C14O11
_symmetry_space_group_name_H-M   'P 1'
_cell_length_a   14.65600000
_cell_length_b   14.65600000
_cell_length_c   16.90500000
_cell_angle_alpha   90.00000000
_cell_angle_beta   90.00000000
_cell_angle_gamma   120.00000000
_symmetry_Int_Tables_number   1
_chemical_formula_structural   Cu3P2H8C14O11
_chemical_formula_sum   'Cu18 P12 H48 C84 O66'
_cell_volume   3144.68188884
_cell_formula_units_Z   6
loop_
 _symmetry_equiv_pos_site_id
 _symmetry_equiv_pos_as_xyz
  1  'x, y, z'
loop_
 _atom_site_type_symbol
 _atom_site_label
 _atom_site_symmetry_multiplicity
 _atom_site_fract_x
 _atom_site_fract_y
 _atom_site_fract_z
 _atom_site_occupancy
 _atom_site_charge
  Cu  Cu1  1  0.116740  0.439440  0.858310  1.0  1.0395
  Cu  Cu2  1  0.322700  0.883260  0.191640  1.0  1.0391
  Cu  Cu3  1  0.560560  0.677300  0.524980  1.0  1.038
  Cu  Cu4  1  0.883260  0.560560  0.358310  1.0  1.0385
  Cu  Cu5  1  0.677300  0.116740  0.691640  1.0  1.0399
  Cu  Cu6  1  0.439440  0.322700  0.024980  1.0  1.0394
  Cu  Cu7  1  0.677300  0.560560  0.475020  1.0  1.0391
  Cu  Cu8  1  0.439440  0.116740  0.141690  1.0  1.0405
  Cu  Cu9  1  0.883260  0.322700  0.808360  1.0  1.0383
  Cu  Cu10  1  0.322700  0.439440  0.975020  1.0  1.0399
  Cu  Cu11  1  0.560560  0.883260  0.641690  1.0  1.039
  Cu  Cu12  1  0.116740  0.677300  0.308360  1.0  1.0394
  Cu  Cu13  1  0.000000  0.163850  0.833330  1.0  1.1619
  Cu  Cu14  1  0.163850  0.000000  0.166670  1.0  1.1653
  Cu  Cu15  1  0.836150  0.836150  0.500000  1.0  1.1595
  Cu  Cu16  1  0.000000  0.836150  0.333333  1.0  1.1618
  Cu  Cu17  1  0.836150  0.000000  0.666667  1.0  1.1569
  Cu  Cu18  1  0.163850  0.163850  0.000000  1.0  1.1623
  P  P19  1  0.080620  0.315620  0.005770  1.0  1.4843
  P  P20  1  0.235000  0.919380  0.339100  1.0  1.4836
  P  P21  1  0.684380  0.765000  0.672440  1.0  1.4845
  P  P22  1  0.919380  0.684380  0.505770  1.0  1.4842
  P  P23  1  0.765000  0.080620  0.839100  1.0  1.4837
  P  P24  1  0.315620  0.235000  0.172440  1.0  1.4846
  P  P25  1  0.765000  0.684380  0.327560  1.0  1.4832
  P  P26  1  0.315620  0.080620  0.994230  1.0  1.4837
  P  P27  1  0.919380  0.235000  0.660900  1.0  1.4856
  P  P28  1  0.235000  0.315620  0.827560  1.0  1.4837
  P  P29  1  0.684380  0.919380  0.494230  1.0  1.4837
  P  P30  1  0.080620  0.765000  0.160900  1.0  1.4859
  H  H31  1  0.064500  0.442300  0.131600  1.0  0.0883
  H  H32  1  0.774000  0.316000  0.179000  1.0  0.0718
  H  H33  1  0.736000  0.213000  0.077000  1.0  0.1133
  H  H34  1  0.859000  0.211000  0.011000  1.0  0.0834
  H  H35  1  0.377800  0.935500  0.464930  1.0  0.0881
  H  H36  1  0.542000  0.226000  0.512330  1.0  0.0702
  H  H37  1  0.477000  0.264000  0.410330  1.0  0.1109
  H  H38  1  0.352000  0.141000  0.344330  1.0  0.0841
  H  H39  1  0.557700  0.622200  0.798270  1.0  0.0889
  H  H40  1  0.684000  0.458000  0.845670  1.0  0.0702
  H  H41  1  0.787000  0.523000  0.743670  1.0  0.1126
  H  H42  1  0.789000  0.648000  0.677670  1.0  0.0826
  H  H43  1  0.935500  0.557700  0.631600  1.0  0.0877
  H  H44  1  0.226000  0.684000  0.679000  1.0  0.0722
  H  H45  1  0.264000  0.787000  0.577000  1.0  0.1138
  H  H46  1  0.141000  0.789000  0.511000  1.0  0.0834
  H  H47  1  0.622200  0.064500  0.964930  1.0  0.0876
  H  H48  1  0.458000  0.774000  0.012330  1.0  0.0698
  H  H49  1  0.523000  0.736000  0.910330  1.0  0.1116
  H  H50  1  0.648000  0.859000  0.844330  1.0  0.083
  H  H51  1  0.442300  0.377800  0.298270  1.0  0.0911
  H  H52  1  0.316000  0.542000  0.345670  1.0  0.0707
  H  H53  1  0.213000  0.477000  0.243670  1.0  0.1124
  H  H54  1  0.211000  0.352000  0.177670  1.0  0.084
  H  H55  1  0.622200  0.557700  0.201730  1.0  0.0886
  H  H56  1  0.458000  0.684000  0.154330  1.0  0.0693
  H  H57  1  0.523000  0.787000  0.256330  1.0  0.1142
  H  H58  1  0.648000  0.789000  0.322330  1.0  0.0828
  H  H59  1  0.442300  0.064500  0.868400  1.0  0.0863
  H  H60  1  0.316000  0.774000  0.821000  1.0  0.0683
  H  H61  1  0.213000  0.736000  0.923000  1.0  0.1122
  H  H62  1  0.211000  0.859000  0.989000  1.0  0.0838
  H  H63  1  0.935500  0.377800  0.535070  1.0  0.089
  H  H64  1  0.226000  0.542000  0.487670  1.0  0.0694
  H  H65  1  0.264000  0.477000  0.589670  1.0  0.1137
  H  H66  1  0.141000  0.352000  0.655670  1.0  0.0836
  H  H67  1  0.377800  0.442300  0.701730  1.0  0.0866
  H  H68  1  0.542000  0.316000  0.654330  1.0  0.0714
  H  H69  1  0.477000  0.213000  0.756330  1.0  0.1153
  H  H70  1  0.352000  0.211000  0.822330  1.0  0.0834
  H  H71  1  0.557700  0.935500  0.368400  1.0  0.0876
  H  H72  1  0.684000  0.226000  0.321000  1.0  0.0704
  H  H73  1  0.787000  0.264000  0.423000  1.0  0.1117
  H  H74  1  0.789000  0.141000  0.489000  1.0  0.0835
  H  H75  1  0.064500  0.622200  0.035070  1.0  0.0886
  H  H76  1  0.774000  0.458000  0.987670  1.0  0.0694
  H  H77  1  0.736000  0.523000  0.089670  1.0  0.1141
  H  H78  1  0.859000  0.648000  0.155670  1.0  0.0834
  C  C79  1  0.979400  0.322200  0.064600  1.0  -0.3592
  C  C80  1  0.004600  0.397100  0.124900  1.0  0.1134
  C  C81  1  0.925100  0.395100  0.170900  1.0  -0.2088
  C  C82  1  0.819100  0.316900  0.157300  1.0  0.0634
  C  C83  1  0.794800  0.245400  0.097300  1.0  -0.1242
  C  C84  1  0.874300  0.247200  0.050200  1.0  0.101
  C  C85  1  0.950000  0.477600  0.233900  1.0  0.6833
  C  C86  1  0.342800  0.020600  0.397930  1.0  -0.361
  C  C87  1  0.392500  0.995400  0.458230  1.0  0.1143
  C  C88  1  0.470000  0.074900  0.504230  1.0  -0.2081
  C  C89  1  0.497800  0.180900  0.490630  1.0  0.065
  C  C90  1  0.450600  0.205200  0.430630  1.0  -0.1294
  C  C91  1  0.372900  0.125700  0.383530  1.0  0.1022
  C  C92  1  0.527600  0.050000  0.567230  1.0  0.6817
  C  C93  1  0.677800  0.657200  0.731270  1.0  -0.3613
  C  C94  1  0.602900  0.607500  0.791570  1.0  0.1128
  C  C95  1  0.604900  0.530000  0.837570  1.0  -0.2071
  C  C96  1  0.683100  0.502200  0.823970  1.0  0.0666
  C  C97  1  0.754600  0.549400  0.763970  1.0  -0.1264
  C  C98  1  0.752800  0.627100  0.716870  1.0  0.1004
  C  C99  1  0.522400  0.472400  0.900570  1.0  0.6827
  C  C100  1  0.020600  0.677800  0.564600  1.0  -0.3616
  C  C101  1  0.995400  0.602900  0.624900  1.0  0.1135
  C  C102  1  0.074900  0.604900  0.670900  1.0  -0.2075
  C  C103  1  0.180900  0.683100  0.657300  1.0  0.0643
  C  C104  1  0.205200  0.754600  0.597300  1.0  -0.1257
  C  C105  1  0.125700  0.752800  0.550200  1.0  0.1017
  C  C106  1  0.050000  0.522400  0.733900  1.0  0.6827
  C  C107  1  0.657200  0.979400  0.897930  1.0  -0.3586
  C  C108  1  0.607500  0.004600  0.958230  1.0  0.1139
  C  C109  1  0.530000  0.925100  0.004230  1.0  -0.2081
  C  C110  1  0.502200  0.819100  0.990630  1.0  0.0653
  C  C111  1  0.549400  0.794800  0.930630  1.0  -0.1246
  C  C112  1  0.627100  0.874300  0.883530  1.0  0.101
  C  C113  1  0.472400  0.950000  0.067230  1.0  0.682
  C  C114  1  0.322200  0.342800  0.231270  1.0  -0.3604
  C  C115  1  0.397100  0.392500  0.291570  1.0  0.1138
  C  C116  1  0.395100  0.470000  0.337570  1.0  -0.2084
  C  C117  1  0.316900  0.497800  0.323970  1.0  0.0663
  C  C118  1  0.245400  0.450600  0.263970  1.0  -0.1269
  C  C119  1  0.247200  0.372900  0.216870  1.0  0.1005
  C  C120  1  0.477600  0.527600  0.400570  1.0  0.6821
  C  C121  1  0.657200  0.677800  0.268730  1.0  -0.3585
  C  C122  1  0.607500  0.602900  0.208430  1.0  0.1139
  C  C123  1  0.530000  0.604900  0.162430  1.0  -0.2086
  C  C124  1  0.502200  0.683100  0.176030  1.0  0.0633
  C  C125  1  0.549400  0.754600  0.236030  1.0  -0.1271
  C  C126  1  0.627100  0.752800  0.283130  1.0  0.1028
  C  C127  1  0.472400  0.522400  0.099430  1.0  0.6835
  C  C128  1  0.322200  0.979400  0.935400  1.0  -0.3618
  C  C129  1  0.397100  0.004600  0.875100  1.0  0.1135
  C  C130  1  0.395100  0.925100  0.829100  1.0  -0.2081
  C  C131  1  0.316900  0.819100  0.842700  1.0  0.0648
  C  C132  1  0.245400  0.794800  0.902700  1.0  -0.1266
  C  C133  1  0.247200  0.874300  0.949800  1.0  0.1037
  C  C134  1  0.477600  0.950000  0.766100  1.0  0.6823
  C  C135  1  0.020600  0.342800  0.602070  1.0  -0.3604
  C  C136  1  0.995400  0.392500  0.541770  1.0  0.1135
  C  C137  1  0.074900  0.470000  0.495770  1.0  -0.208
  C  C138  1  0.180900  0.497800  0.509370  1.0  0.0654
  C  C139  1  0.205200  0.450600  0.569370  1.0  -0.127
  C  C140  1  0.125700  0.372900  0.616470  1.0  0.1016
  C  C141  1  0.050000  0.527600  0.432770  1.0  0.683
  C  C142  1  0.342800  0.322200  0.768730  1.0  -0.3621
  C  C143  1  0.392500  0.397100  0.708430  1.0  0.1132
  C  C144  1  0.470000  0.395100  0.662430  1.0  -0.2083
  C  C145  1  0.497800  0.316900  0.676030  1.0  0.0651
  C  C146  1  0.450600  0.245400  0.736030  1.0  -0.1251
  C  C147  1  0.372900  0.247200  0.783130  1.0  0.1033
  C  C148  1  0.527600  0.477600  0.599430  1.0  0.6828
  C  C149  1  0.677800  0.020600  0.435400  1.0  -0.3578
  C  C150  1  0.602900  0.995400  0.375100  1.0  0.114
  C  C151  1  0.604900  0.074900  0.329100  1.0  -0.2085
  C  C152  1  0.683100  0.180900  0.342700  1.0  0.0651
  C  C153  1  0.754600  0.205200  0.402700  1.0  -0.1289
  C  C154  1  0.752800  0.125700  0.449800  1.0  0.1016
  C  C155  1  0.522400  0.050000  0.266100  1.0  0.6824
  C  C156  1  0.979400  0.657200  0.102070  1.0  -0.3613
  C  C157  1  0.004600  0.607500  0.041770  1.0  0.1143
  C  C158  1  0.925100  0.530000  0.995770  1.0  -0.2086
  C  C159  1  0.819100  0.502200  0.009370  1.0  0.0666
  C  C160  1  0.794800  0.549400  0.069370  1.0  -0.1272
  C  C161  1  0.874300  0.627100  0.116470  1.0  0.1035
  C  C162  1  0.950000  0.472400  0.932770  1.0  0.6831
  O  O163  1  0.046500  0.301800  0.917500  1.0  -0.8968
  O  O164  1  0.188200  0.414600  0.019000  1.0  -0.8057
  O  O165  1  0.078900  0.217000  0.036500  1.0  -0.7468
  O  O166  1  0.046700  0.547800  0.244200  1.0  -0.5875
  O  O167  1  0.872000  0.472900  0.269900  1.0  -0.5414
  O  O168  1  0.255300  0.953500  0.250830  1.0  -0.8972
  O  O169  1  0.226400  0.811800  0.352330  1.0  -0.8043
  O  O170  1  0.138100  0.921100  0.369830  1.0  -0.7439
  O  O171  1  0.501100  0.953300  0.577530  1.0  -0.5897
  O  O172  1  0.600900  0.128000  0.603230  1.0  -0.5427
  O  O173  1  0.698200  0.744700  0.584170  1.0  -0.8963
  O  O174  1  0.585400  0.773600  0.685670  1.0  -0.8046
  O  O175  1  0.783000  0.861900  0.703170  1.0  -0.7426
  O  O176  1  0.452200  0.498900  0.910870  1.0  -0.5896
  O  O177  1  0.527100  0.399100  0.936570  1.0  -0.5411
  O  O178  1  0.953500  0.698200  0.417500  1.0  -0.8965
  O  O179  1  0.811800  0.585400  0.519000  1.0  -0.805
  O  O180  1  0.921100  0.783000  0.536500  1.0  -0.7452
  O  O181  1  0.953300  0.452200  0.744200  1.0  -0.5884
  O  O182  1  0.128000  0.527100  0.769900  1.0  -0.5413
  O  O183  1  0.744700  0.046500  0.750830  1.0  -0.8967
  O  O184  1  0.773600  0.188200  0.852330  1.0  -0.8057
  O  O185  1  0.861900  0.078900  0.869830  1.0  -0.7428
  O  O186  1  0.498900  0.046700  0.077530  1.0  -0.5889
  O  O187  1  0.399100  0.872000  0.103230  1.0  -0.5421
  O  O188  1  0.301800  0.255300  0.084170  1.0  -0.896
  O  O189  1  0.414600  0.226400  0.185670  1.0  -0.8046
  O  O190  1  0.217000  0.138100  0.203170  1.0  -0.7418
  O  O191  1  0.547800  0.501100  0.410870  1.0  -0.5887
  O  O192  1  0.472900  0.600900  0.436570  1.0  -0.5407
  O  O193  1  0.744700  0.698200  0.415830  1.0  -0.8968
  O  O194  1  0.773600  0.585400  0.314330  1.0  -0.8049
  O  O195  1  0.861900  0.783000  0.296830  1.0  -0.7447
  O  O196  1  0.498900  0.452200  0.089130  1.0  -0.5884
  O  O197  1  0.399100  0.527100  0.063430  1.0  -0.5408
  O  O198  1  0.301800  0.046500  0.082500  1.0  -0.8977
  O  O199  1  0.414600  0.188200  0.981000  1.0  -0.8049
  O  O200  1  0.217000  0.078900  0.963500  1.0  -0.7453
  O  O201  1  0.547800  0.046700  0.755800  1.0  -0.59
  O  O202  1  0.472900  0.872000  0.730100  1.0  -0.5436
  O  O203  1  0.953500  0.255300  0.749170  1.0  -0.8953
  O  O204  1  0.811800  0.226400  0.647670  1.0  -0.8049
  O  O205  1  0.921100  0.138100  0.630170  1.0  -0.7419
  O  O206  1  0.953300  0.501100  0.422470  1.0  -0.5905
  O  O207  1  0.128000  0.600900  0.396770  1.0  -0.5418
  O  O208  1  0.255300  0.301800  0.915830  1.0  -0.8967
  O  O209  1  0.226400  0.414600  0.814330  1.0  -0.8056
  O  O210  1  0.138100  0.217000  0.796830  1.0  -0.7449
  O  O211  1  0.501100  0.547800  0.589130  1.0  -0.5888
  O  O212  1  0.600900  0.472900  0.563430  1.0  -0.5408
  O  O213  1  0.698200  0.953500  0.582500  1.0  -0.8967
  O  O214  1  0.585400  0.811800  0.481000  1.0  -0.8042
  O  O215  1  0.783000  0.921100  0.463500  1.0  -0.7427
  O  O216  1  0.452200  0.953300  0.255800  1.0  -0.5897
  O  O217  1  0.527100  0.128000  0.230100  1.0  -0.5438
  O  O218  1  0.046500  0.744700  0.249170  1.0  -0.8957
  O  O219  1  0.188200  0.773600  0.147670  1.0  -0.8047
  O  O220  1  0.078900  0.861900  0.130170  1.0  -0.7425
  O  O221  1  0.046700  0.498900  0.922470  1.0  -0.5885
  O  O222  1  0.872000  0.399100  0.896770  1.0  -0.5427
  O  O223  1  0.033800  0.067600  0.916670  1.0  -0.2996
  O  O224  1  0.033800  0.966200  0.250000  1.0  -0.3046
  O  O225  1  0.932400  0.966200  0.583330  1.0  -0.3024
  O  O226  1  0.966200  0.932400  0.416670  1.0  -0.2956
  O  O227  1  0.966200  0.033800  0.750000  1.0  -0.306
  O  O228  1  0.067600  0.033800  0.083330  1.0  -0.3042
