# generated using pymatgen
data_ZnH8C12(IN2)2
_symmetry_space_group_name_H-M   'P 1'
_cell_length_a   34.30700000
_cell_length_b   14.39200000
_cell_length_c   34.93100000
_cell_angle_alpha   90.00000000
_cell_angle_beta   106.22000000
_cell_angle_gamma   90.00000000
_symmetry_Int_Tables_number   1
_chemical_formula_structural   ZnH8C12(IN2)2
_chemical_formula_sum   'Zn24 H192 C288 I48 N96'
_cell_volume   16560.55597800
_cell_formula_units_Z   24
loop_
 _symmetry_equiv_pos_site_id
 _symmetry_equiv_pos_as_xyz
  1  'x, y, z'
loop_
 _atom_site_type_symbol
 _atom_site_label
 _atom_site_symmetry_multiplicity
 _atom_site_fract_x
 _atom_site_fract_y
 _atom_site_fract_z
 _atom_site_occupancy
 _atom_site_charge
  Zn  Zn1  1  0.141030  0.616170  0.074960  1.0  0.8443
  Zn  Zn2  1  0.161820  0.842800  0.261280  1.0  0.8792
  Zn  Zn3  1  0.884470  0.087010  0.437440  1.0  0.886
  Zn  Zn4  1  0.641030  0.116170  0.074960  1.0  0.8443
  Zn  Zn5  1  0.661820  0.342800  0.261280  1.0  0.8792
  Zn  Zn6  1  0.384470  0.587010  0.437440  1.0  0.886
  Zn  Zn7  1  0.141030  0.383830  0.574960  1.0  0.8458
  Zn  Zn8  1  0.161820  0.157200  0.761280  1.0  0.8794
  Zn  Zn9  1  0.884470  0.912990  0.937440  1.0  0.8899
  Zn  Zn10  1  0.641030  0.883830  0.574960  1.0  0.8458
  Zn  Zn11  1  0.661820  0.657200  0.761280  1.0  0.8794
  Zn  Zn12  1  0.384470  0.412990  0.937440  1.0  0.8899
  Zn  Zn13  1  0.858970  0.616170  0.425040  1.0  0.8452
  Zn  Zn14  1  0.838180  0.842800  0.238720  1.0  0.8809
  Zn  Zn15  1  0.115530  0.087010  0.062560  1.0  0.8858
  Zn  Zn16  1  0.358970  0.116170  0.425040  1.0  0.8452
  Zn  Zn17  1  0.338180  0.342800  0.238720  1.0  0.8809
  Zn  Zn18  1  0.615530  0.587010  0.062560  1.0  0.8858
  Zn  Zn19  1  0.858970  0.383830  0.925040  1.0  0.8475
  Zn  Zn20  1  0.838180  0.157200  0.738720  1.0  0.8805
  Zn  Zn21  1  0.115530  0.912990  0.562560  1.0  0.889
  Zn  Zn22  1  0.358970  0.883830  0.925040  1.0  0.8475
  Zn  Zn23  1  0.338180  0.657200  0.738720  1.0  0.8805
  Zn  Zn24  1  0.615530  0.412990  0.562560  1.0  0.889
  H  H25  1  0.172900  0.663600  0.162600  1.0  0.0916
  H  H26  1  0.198600  0.589700  0.223100  1.0  0.1082
  H  H27  1  0.165000  0.342700  0.168100  1.0  0.1181
  H  H28  1  0.142700  0.422100  0.109000  1.0  0.0913
  H  H29  1  0.218900  0.975700  0.319800  1.0  0.0758
  H  H30  1  0.235800  0.130700  0.326800  1.0  0.1189
  H  H31  1  0.151900  0.177900  0.220800  1.0  0.113
  H  H32  1  0.135400  0.021200  0.217600  1.0  0.0942
  H  H33  1  0.344600  0.397400  0.418000  1.0  0.0865
  H  H34  1  0.294500  0.324400  0.369400  1.0  0.1132
  H  H35  1  0.273700  0.567000  0.308300  1.0  0.1205
  H  H36  1  0.323500  0.635000  0.360300  1.0  0.0817
  H  H37  1  0.106500  0.948400  0.298900  1.0  0.0935
  H  H38  1  0.076700  0.935600  0.350900  1.0  0.1166
  H  H39  1  0.119800  0.672200  0.368200  1.0  0.1212
  H  H40  1  0.147700  0.693300  0.315500  1.0  0.0889
  H  H41  1  0.943800  0.952900  0.492700  1.0  0.0853
  H  H42  1  0.998800  0.859100  0.491500  1.0  0.1216
  H  H43  1  0.986600  0.947200  0.378500  1.0  0.1228
  H  H44  1  0.932700  0.037200  0.383500  1.0  0.077
  H  H45  1  0.066100  0.496800  0.544400  1.0  0.0875
  H  H46  1  0.041700  0.625000  0.503600  1.0  0.1139
  H  H47  1  0.148700  0.629900  0.474900  1.0  0.1203
  H  H48  1  0.171500  0.508200  0.519900  1.0  0.0974
  H  H49  1  0.672900  0.163600  0.162600  1.0  0.0916
  H  H50  1  0.698600  0.089700  0.223100  1.0  0.1082
  H  H51  1  0.665000  0.842700  0.168100  1.0  0.1181
  H  H52  1  0.642700  0.922100  0.109000  1.0  0.0913
  H  H53  1  0.718900  0.475700  0.319800  1.0  0.0758
  H  H54  1  0.735800  0.630700  0.326800  1.0  0.1189
  H  H55  1  0.651900  0.677900  0.220800  1.0  0.113
  H  H56  1  0.635400  0.521200  0.217600  1.0  0.0942
  H  H57  1  0.844600  0.897400  0.418000  1.0  0.0865
  H  H58  1  0.794500  0.824400  0.369400  1.0  0.1132
  H  H59  1  0.773700  0.067000  0.308300  1.0  0.1205
  H  H60  1  0.823500  0.135000  0.360300  1.0  0.0817
  H  H61  1  0.606500  0.448400  0.298900  1.0  0.0935
  H  H62  1  0.576700  0.435600  0.350900  1.0  0.1164
  H  H63  1  0.619800  0.172200  0.368200  1.0  0.1225
  H  H64  1  0.647700  0.193300  0.315500  1.0  0.0889
  H  H65  1  0.443800  0.452900  0.492700  1.0  0.0853
  H  H66  1  0.498800  0.359100  0.491500  1.0  0.1216
  H  H67  1  0.486600  0.447200  0.378500  1.0  0.1228
  H  H68  1  0.432700  0.537200  0.383500  1.0  0.077
  H  H69  1  0.566100  0.996800  0.544400  1.0  0.0875
  H  H70  1  0.541700  0.125000  0.503600  1.0  0.1139
  H  H71  1  0.648700  0.129900  0.474900  1.0  0.1203
  H  H72  1  0.671500  0.008200  0.519900  1.0  0.0975
  H  H73  1  0.172900  0.336400  0.662600  1.0  0.0923
  H  H74  1  0.198600  0.410300  0.723100  1.0  0.1082
  H  H75  1  0.165000  0.657300  0.668100  1.0  0.1183
  H  H76  1  0.142700  0.577900  0.609000  1.0  0.0914
  H  H77  1  0.218900  0.024300  0.819800  1.0  0.0754
  H  H78  1  0.235800  0.869300  0.826800  1.0  0.1193
  H  H79  1  0.151900  0.822100  0.720800  1.0  0.1129
  H  H80  1  0.135400  0.978800  0.717600  1.0  0.0942
  H  H81  1  0.344600  0.602600  0.918000  1.0  0.0862
  H  H82  1  0.294500  0.675600  0.869400  1.0  0.1133
  H  H83  1  0.273700  0.433000  0.808300  1.0  0.1203
  H  H84  1  0.323500  0.365000  0.860300  1.0  0.0823
  H  H85  1  0.106500  0.051600  0.798900  1.0  0.0928
  H  H86  1  0.076700  0.064400  0.850900  1.0  0.1165
  H  H87  1  0.119800  0.327800  0.868200  1.0  0.1229
  H  H88  1  0.147700  0.306700  0.815500  1.0  0.089
  H  H89  1  0.943800  0.047100  0.992700  1.0  0.0855
  H  H90  1  0.998800  0.140900  0.991500  1.0  0.1218
  H  H91  1  0.986600  0.052800  0.878500  1.0  0.1225
  H  H92  1  0.932700  0.962800  0.883500  1.0  0.077
  H  H93  1  0.066100  0.503200  0.044400  1.0  0.0871
  H  H94  1  0.041700  0.375000  0.003600  1.0  0.114
  H  H95  1  0.148700  0.370100  0.974900  1.0  0.1204
  H  H96  1  0.171500  0.491800  0.019900  1.0  0.0979
  H  H97  1  0.672900  0.836400  0.662600  1.0  0.0923
  H  H98  1  0.698600  0.910300  0.723100  1.0  0.1082
  H  H99  1  0.665000  0.157300  0.668100  1.0  0.1183
  H  H100  1  0.642700  0.077900  0.609000  1.0  0.0914
  H  H101  1  0.718900  0.524300  0.819800  1.0  0.0754
  H  H102  1  0.735800  0.369300  0.826800  1.0  0.1193
  H  H103  1  0.651900  0.322100  0.720800  1.0  0.1125
  H  H104  1  0.635400  0.478800  0.717600  1.0  0.0942
  H  H105  1  0.844600  0.102600  0.918000  1.0  0.0862
  H  H106  1  0.794500  0.175600  0.869400  1.0  0.1133
  H  H107  1  0.773700  0.933000  0.808300  1.0  0.1203
  H  H108  1  0.823500  0.865000  0.860300  1.0  0.0823
  H  H109  1  0.606500  0.551600  0.798900  1.0  0.0928
  H  H110  1  0.576700  0.564400  0.850900  1.0  0.1152
  H  H111  1  0.619800  0.827800  0.868200  1.0  0.1228
  H  H112  1  0.647700  0.806700  0.815500  1.0  0.089
  H  H113  1  0.443800  0.547100  0.992700  1.0  0.0855
  H  H114  1  0.498800  0.640900  0.991500  1.0  0.1218
  H  H115  1  0.486600  0.552800  0.878500  1.0  0.1225
  H  H116  1  0.432700  0.462800  0.883500  1.0  0.077
  H  H117  1  0.566100  0.003200  0.044400  1.0  0.0871
  H  H118  1  0.541700  0.875000  0.003600  1.0  0.114
  H  H119  1  0.648700  0.870100  0.974900  1.0  0.1204
  H  H120  1  0.671500  0.991800  0.019900  1.0  0.0978
  H  H121  1  0.827100  0.663600  0.337400  1.0  0.0917
  H  H122  1  0.801400  0.589700  0.276900  1.0  0.109
  H  H123  1  0.835000  0.342700  0.331900  1.0  0.1184
  H  H124  1  0.857300  0.422100  0.391000  1.0  0.0904
  H  H125  1  0.781100  0.975700  0.180200  1.0  0.0752
  H  H126  1  0.764200  0.130700  0.173200  1.0  0.1195
  H  H127  1  0.848100  0.177900  0.279200  1.0  0.1128
  H  H128  1  0.864600  0.021200  0.282400  1.0  0.0943
  H  H129  1  0.655400  0.397400  0.082000  1.0  0.0854
  H  H130  1  0.705500  0.324400  0.130600  1.0  0.1126
  H  H131  1  0.726300  0.567000  0.191700  1.0  0.1191
  H  H132  1  0.676500  0.635000  0.139700  1.0  0.0818
  H  H133  1  0.893500  0.948400  0.201100  1.0  0.0928
  H  H134  1  0.923300  0.935600  0.149100  1.0  0.1174
  H  H135  1  0.880200  0.672200  0.131800  1.0  0.1221
  H  H136  1  0.852300  0.693300  0.184500  1.0  0.0895
  H  H137  1  0.056200  0.952900  0.007300  1.0  0.0843
  H  H138  1  0.001200  0.859100  0.008500  1.0  0.1212
  H  H139  1  0.013400  0.947200  0.121500  1.0  0.1226
  H  H140  1  0.067300  0.037200  0.116500  1.0  0.0768
  H  H141  1  0.933900  0.496800  0.955600  1.0  0.0869
  H  H142  1  0.958300  0.625000  0.996400  1.0  0.1133
  H  H143  1  0.851300  0.629900  0.025100  1.0  0.1196
  H  H144  1  0.828500  0.508200  0.980100  1.0  0.0982
  H  H145  1  0.327100  0.163600  0.337400  1.0  0.0917
  H  H146  1  0.301400  0.089700  0.276900  1.0  0.109
  H  H147  1  0.335000  0.842700  0.331900  1.0  0.1184
  H  H148  1  0.357300  0.922100  0.391000  1.0  0.0904
  H  H149  1  0.281100  0.475700  0.180200  1.0  0.0752
  H  H150  1  0.264200  0.630700  0.173200  1.0  0.1195
  H  H151  1  0.348100  0.677900  0.279200  1.0  0.1125
  H  H152  1  0.364600  0.521200  0.282400  1.0  0.0943
  H  H153  1  0.155400  0.897400  0.082000  1.0  0.0854
  H  H154  1  0.205500  0.824400  0.130600  1.0  0.1126
  H  H155  1  0.226300  0.067000  0.191700  1.0  0.1191
  H  H156  1  0.176500  0.135000  0.139700  1.0  0.0818
  H  H157  1  0.393500  0.448400  0.201100  1.0  0.0928
  H  H158  1  0.423300  0.435600  0.149100  1.0  0.1162
  H  H159  1  0.380200  0.172200  0.131800  1.0  0.1223
  H  H160  1  0.352300  0.193300  0.184500  1.0  0.0895
  H  H161  1  0.556200  0.452900  0.007300  1.0  0.0843
  H  H162  1  0.501200  0.359100  0.008500  1.0  0.1212
  H  H163  1  0.513400  0.447200  0.121500  1.0  0.1226
  H  H164  1  0.567300  0.537200  0.116500  1.0  0.0768
  H  H165  1  0.433900  0.996800  0.955600  1.0  0.0869
  H  H166  1  0.458300  0.125000  0.996400  1.0  0.1133
  H  H167  1  0.351300  0.129900  0.025100  1.0  0.1196
  H  H168  1  0.328500  0.008200  0.980100  1.0  0.0983
  H  H169  1  0.827100  0.336400  0.837400  1.0  0.0927
  H  H170  1  0.801400  0.410300  0.776900  1.0  0.1088
  H  H171  1  0.835000  0.657300  0.831900  1.0  0.1183
  H  H172  1  0.857300  0.577900  0.891000  1.0  0.0898
  H  H173  1  0.781100  0.024300  0.680200  1.0  0.0753
  H  H174  1  0.764200  0.869300  0.673200  1.0  0.1193
  H  H175  1  0.848100  0.822100  0.779200  1.0  0.1126
  H  H176  1  0.864600  0.978800  0.782400  1.0  0.0941
  H  H177  1  0.655400  0.602600  0.582000  1.0  0.0856
  H  H178  1  0.705500  0.675600  0.630600  1.0  0.1128
  H  H179  1  0.726300  0.433000  0.691700  1.0  0.1196
  H  H180  1  0.676500  0.365000  0.639700  1.0  0.0826
  H  H181  1  0.893500  0.051600  0.701100  1.0  0.0927
  H  H182  1  0.923300  0.064400  0.649100  1.0  0.1155
  H  H183  1  0.880200  0.327800  0.631800  1.0  0.1217
  H  H184  1  0.852300  0.306700  0.684500  1.0  0.0893
  H  H185  1  0.056200  0.047100  0.507300  1.0  0.0842
  H  H186  1  0.001200  0.140900  0.508500  1.0  0.1214
  H  H187  1  0.013400  0.052800  0.621500  1.0  0.1224
  H  H188  1  0.067300  0.962800  0.616500  1.0  0.0774
  H  H189  1  0.933900  0.503200  0.455600  1.0  0.0872
  H  H190  1  0.958300  0.375000  0.496400  1.0  0.1135
  H  H191  1  0.851300  0.370100  0.525100  1.0  0.1198
  H  H192  1  0.828500  0.491800  0.480100  1.0  0.0975
  H  H193  1  0.327100  0.836400  0.837400  1.0  0.0927
  H  H194  1  0.301400  0.910300  0.776900  1.0  0.1088
  H  H195  1  0.335000  0.157300  0.831900  1.0  0.1183
  H  H196  1  0.357300  0.077900  0.891000  1.0  0.0898
  H  H197  1  0.281100  0.524300  0.680200  1.0  0.0753
  H  H198  1  0.264200  0.369300  0.673200  1.0  0.1193
  H  H199  1  0.348100  0.322100  0.779200  1.0  0.1126
  H  H200  1  0.364600  0.478800  0.782400  1.0  0.0941
  H  H201  1  0.155400  0.102600  0.582000  1.0  0.0856
  H  H202  1  0.205500  0.175600  0.630600  1.0  0.1128
  H  H203  1  0.226300  0.933000  0.691700  1.0  0.1196
  H  H204  1  0.176500  0.865000  0.639700  1.0  0.0826
  H  H205  1  0.393500  0.551600  0.701100  1.0  0.0927
  H  H206  1  0.423300  0.564400  0.649100  1.0  0.1153
  H  H207  1  0.380200  0.827800  0.631800  1.0  0.1227
  H  H208  1  0.352300  0.806700  0.684500  1.0  0.0893
  H  H209  1  0.556200  0.547100  0.507300  1.0  0.0842
  H  H210  1  0.501200  0.640900  0.508500  1.0  0.1214
  H  H211  1  0.513400  0.552800  0.621500  1.0  0.1224
  H  H212  1  0.567300  0.462800  0.616500  1.0  0.0774
  H  H213  1  0.433900  0.003200  0.455600  1.0  0.0872
  H  H214  1  0.458300  0.875000  0.496400  1.0  0.1135
  H  H215  1  0.351300  0.870100  0.525100  1.0  0.1198
  H  H216  1  0.328500  0.991800  0.480100  1.0  0.0979
  C  C217  1  0.172300  0.597700  0.163600  1.0  0.1365
  C  C218  1  0.186800  0.553900  0.199900  1.0  -0.1134
  C  C219  1  0.184400  0.458300  0.202900  1.0  -0.0795
  C  C220  1  0.167400  0.408400  0.167600  1.0  -0.1442
  C  C221  1  0.154500  0.456300  0.132700  1.0  0.1569
  C  C222  1  0.205000  0.017800  0.299700  1.0  0.143
  C  C223  1  0.215500  0.109400  0.304100  1.0  -0.1284
  C  C224  1  0.195200  0.171800  0.273800  1.0  -0.0847
  C  C225  1  0.165700  0.137300  0.241600  1.0  -0.0831
  C  C226  1  0.156300  0.043900  0.239600  1.0  0.1249
  C  C227  1  0.330000  0.432400  0.395600  1.0  0.1457
  C  C228  1  0.300100  0.388300  0.366600  1.0  -0.1211
  C  C229  1  0.278300  0.437200  0.333800  1.0  -0.0926
  C  C230  1  0.287600  0.531200  0.330800  1.0  -0.1429
  C  C231  1  0.317900  0.570700  0.361800  1.0  0.1528
  C  C232  1  0.201100  0.407000  0.240300  1.0  0.4043
  C  C233  1  0.207100  0.272900  0.274200  1.0  0.3751
  C  C234  1  0.246200  0.394400  0.301100  1.0  0.3382
  C  C235  1  0.109900  0.892300  0.313800  1.0  0.1479
  C  C236  1  0.091700  0.885200  0.344500  1.0  -0.1523
  C  C237  1  0.095800  0.803600  0.365400  1.0  -0.0749
  C  C238  1  0.117100  0.730000  0.354600  1.0  -0.1513
  C  C239  1  0.133900  0.743700  0.323500  1.0  0.1424
  C  C240  1  0.952700  0.951300  0.469300  1.0  0.1268
  C  C241  1  0.985600  0.895400  0.468900  1.0  -0.1488
  C  C242  1  0.998600  0.893500  0.435500  1.0  -0.0825
  C  C243  1  0.978300  0.947500  0.402300  1.0  -0.1548
  C  C244  1  0.946300  0.000100  0.405600  1.0  0.147
  C  C245  1  0.083200  0.525600  0.530600  1.0  0.1383
  C  C246  1  0.068000  0.600900  0.505600  1.0  -0.1266
  C  C247  1  0.091500  0.639100  0.484000  1.0  -0.0745
  C  C248  1  0.131500  0.604100  0.489200  1.0  -0.0927
  C  C249  1  0.144800  0.531300  0.515800  1.0  0.1157
  C  C250  1  0.078800  0.791700  0.400000  1.0  0.3897
  C  C251  1  0.033500  0.833100  0.432400  1.0  0.3498
  C  C252  1  0.076200  0.715800  0.454700  1.0  0.3947
  C  C253  1  0.672300  0.097700  0.163600  1.0  0.1365
  C  C254  1  0.686800  0.053900  0.199900  1.0  -0.1134
  C  C255  1  0.684400  0.958300  0.202900  1.0  -0.0795
  C  C256  1  0.667400  0.908400  0.167600  1.0  -0.1442
  C  C257  1  0.654500  0.956300  0.132700  1.0  0.1569
  C  C258  1  0.705000  0.517800  0.299700  1.0  0.143
  C  C259  1  0.715500  0.609400  0.304100  1.0  -0.1284
  C  C260  1  0.695200  0.671800  0.273800  1.0  -0.0847
  C  C261  1  0.665700  0.637300  0.241600  1.0  -0.0831
  C  C262  1  0.656300  0.543900  0.239600  1.0  0.1249
  C  C263  1  0.830000  0.932400  0.395600  1.0  0.1457
  C  C264  1  0.800100  0.888300  0.366600  1.0  -0.1211
  C  C265  1  0.778300  0.937200  0.333800  1.0  -0.0926
  C  C266  1  0.787600  0.031200  0.330800  1.0  -0.1429
  C  C267  1  0.817900  0.070700  0.361800  1.0  0.1528
  C  C268  1  0.701100  0.907000  0.240300  1.0  0.4043
  C  C269  1  0.707100  0.772900  0.274200  1.0  0.3751
  C  C270  1  0.746200  0.894400  0.301100  1.0  0.3382
  C  C271  1  0.609900  0.392300  0.313800  1.0  0.1479
  C  C272  1  0.591700  0.385200  0.344500  1.0  -0.1523
  C  C273  1  0.595800  0.303600  0.365400  1.0  -0.0749
  C  C274  1  0.617100  0.230000  0.354600  1.0  -0.1513
  C  C275  1  0.633900  0.243700  0.323500  1.0  0.1424
  C  C276  1  0.452700  0.451300  0.469300  1.0  0.1268
  C  C277  1  0.485600  0.395400  0.468900  1.0  -0.1488
  C  C278  1  0.498600  0.393500  0.435500  1.0  -0.0825
  C  C279  1  0.478300  0.447500  0.402300  1.0  -0.1548
  C  C280  1  0.446300  0.500100  0.405600  1.0  0.147
  C  C281  1  0.583200  0.025600  0.530600  1.0  0.1383
  C  C282  1  0.568000  0.100900  0.505600  1.0  -0.1266
  C  C283  1  0.591500  0.139100  0.484000  1.0  -0.0745
  C  C284  1  0.631500  0.104100  0.489200  1.0  -0.0933
  C  C285  1  0.644800  0.031300  0.515800  1.0  0.1309
  C  C286  1  0.578800  0.291700  0.400000  1.0  0.3897
  C  C287  1  0.533500  0.333100  0.432400  1.0  0.3498
  C  C288  1  0.576200  0.215800  0.454700  1.0  0.3947
  C  C289  1  0.172300  0.402300  0.663600  1.0  0.1364
  C  C290  1  0.186800  0.446100  0.699900  1.0  -0.1125
  C  C291  1  0.184400  0.541700  0.702900  1.0  -0.0797
  C  C292  1  0.167400  0.591600  0.667600  1.0  -0.1441
  C  C293  1  0.154500  0.543700  0.632700  1.0  0.1571
  C  C294  1  0.205000  0.982200  0.799700  1.0  0.1417
  C  C295  1  0.215500  0.890600  0.804100  1.0  -0.1285
  C  C296  1  0.195200  0.828200  0.773800  1.0  -0.086
  C  C297  1  0.165700  0.862700  0.741600  1.0  -0.0833
  C  C298  1  0.156300  0.956100  0.739600  1.0  0.1249
  C  C299  1  0.330000  0.567600  0.895600  1.0  0.1454
  C  C300  1  0.300100  0.611700  0.866600  1.0  -0.1222
  C  C301  1  0.278300  0.562800  0.833800  1.0  -0.0928
  C  C302  1  0.287600  0.468800  0.830800  1.0  -0.143
  C  C303  1  0.317900  0.429300  0.861800  1.0  0.1518
  C  C304  1  0.201100  0.593000  0.740300  1.0  0.4042
  C  C305  1  0.207100  0.727100  0.774200  1.0  0.3749
  C  C306  1  0.246200  0.605600  0.801100  1.0  0.3383
  C  C307  1  0.109900  0.107700  0.813800  1.0  0.1486
  C  C308  1  0.091700  0.114800  0.844500  1.0  -0.1505
  C  C309  1  0.095800  0.196400  0.865400  1.0  -0.0748
  C  C310  1  0.117100  0.270000  0.854600  1.0  -0.15
  C  C311  1  0.133900  0.256300  0.823500  1.0  0.1413
  C  C312  1  0.952700  0.048700  0.969300  1.0  0.1268
  C  C313  1  0.985600  0.104600  0.968900  1.0  -0.1493
  C  C314  1  0.998600  0.106500  0.935500  1.0  -0.0832
  C  C315  1  0.978300  0.052500  0.902300  1.0  -0.1544
  C  C316  1  0.946300  0.999900  0.905600  1.0  0.147
  C  C317  1  0.083200  0.474400  0.030600  1.0  0.1377
  C  C318  1  0.068000  0.399100  0.005600  1.0  -0.1265
  C  C319  1  0.091500  0.360900  0.984000  1.0  -0.075
  C  C320  1  0.131500  0.395900  0.989200  1.0  -0.0917
  C  C321  1  0.144800  0.468700  0.015800  1.0  0.1161
  C  C322  1  0.078800  0.208300  0.900000  1.0  0.3896
  C  C323  1  0.033500  0.166900  0.932400  1.0  0.3497
  C  C324  1  0.076200  0.284200  0.954700  1.0  0.3949
  C  C325  1  0.672300  0.902300  0.663600  1.0  0.1364
  C  C326  1  0.686800  0.946100  0.699900  1.0  -0.1125
  C  C327  1  0.684400  0.041700  0.702900  1.0  -0.0797
  C  C328  1  0.667400  0.091600  0.667600  1.0  -0.1441
  C  C329  1  0.654500  0.043700  0.632700  1.0  0.1571
  C  C330  1  0.705000  0.482200  0.799700  1.0  0.1417
  C  C331  1  0.715500  0.390600  0.804100  1.0  -0.1285
  C  C332  1  0.695200  0.328200  0.773800  1.0  -0.086
  C  C333  1  0.665700  0.362700  0.741600  1.0  -0.0833
  C  C334  1  0.656300  0.456100  0.739600  1.0  0.1249
  C  C335  1  0.830000  0.067600  0.895600  1.0  0.1454
  C  C336  1  0.800100  0.111700  0.866600  1.0  -0.1222
  C  C337  1  0.778300  0.062800  0.833800  1.0  -0.0928
  C  C338  1  0.787600  0.968800  0.830800  1.0  -0.143
  C  C339  1  0.817900  0.929300  0.861800  1.0  0.1518
  C  C340  1  0.701100  0.093000  0.740300  1.0  0.4042
  C  C341  1  0.707100  0.227100  0.774200  1.0  0.3749
  C  C342  1  0.746200  0.105600  0.801100  1.0  0.3383
  C  C343  1  0.609900  0.607700  0.813800  1.0  0.1486
  C  C344  1  0.591700  0.614800  0.844500  1.0  -0.1505
  C  C345  1  0.595800  0.696400  0.865400  1.0  -0.0748
  C  C346  1  0.617100  0.770000  0.854600  1.0  -0.15
  C  C347  1  0.633900  0.756300  0.823500  1.0  0.1413
  C  C348  1  0.452700  0.548700  0.969300  1.0  0.1268
  C  C349  1  0.485600  0.604600  0.968900  1.0  -0.1493
  C  C350  1  0.498600  0.606500  0.935500  1.0  -0.0832
  C  C351  1  0.478300  0.552500  0.902300  1.0  -0.1544
  C  C352  1  0.446300  0.499900  0.905600  1.0  0.147
  C  C353  1  0.583200  0.974400  0.030600  1.0  0.1377
  C  C354  1  0.568000  0.899100  0.005600  1.0  -0.1265
  C  C355  1  0.591500  0.860900  0.984000  1.0  -0.075
  C  C356  1  0.631500  0.895900  0.989200  1.0  -0.0923
  C  C357  1  0.644800  0.968700  0.015800  1.0  0.1232
  C  C358  1  0.578800  0.708300  0.900000  1.0  0.3896
  C  C359  1  0.533500  0.666900  0.932400  1.0  0.3497
  C  C360  1  0.576200  0.784200  0.954700  1.0  0.3949
  C  C361  1  0.827700  0.597700  0.336400  1.0  0.1343
  C  C362  1  0.813200  0.553900  0.300100  1.0  -0.1108
  C  C363  1  0.815600  0.458300  0.297100  1.0  -0.078
  C  C364  1  0.832600  0.408400  0.332400  1.0  -0.1438
  C  C365  1  0.845500  0.456300  0.367300  1.0  0.1578
  C  C366  1  0.795000  0.017800  0.200300  1.0  0.1421
  C  C367  1  0.784500  0.109400  0.195900  1.0  -0.1282
  C  C368  1  0.804800  0.171800  0.226200  1.0  -0.0848
  C  C369  1  0.834300  0.137300  0.258400  1.0  -0.0818
  C  C370  1  0.843700  0.043900  0.260400  1.0  0.1258
  C  C371  1  0.670000  0.432400  0.104400  1.0  0.1445
  C  C372  1  0.699900  0.388300  0.133400  1.0  -0.1202
  C  C373  1  0.721700  0.437200  0.166200  1.0  -0.0912
  C  C374  1  0.712400  0.531200  0.169200  1.0  -0.1431
  C  C375  1  0.682100  0.570700  0.138200  1.0  0.1519
  C  C376  1  0.798900  0.407000  0.259700  1.0  0.4033
  C  C377  1  0.792900  0.272900  0.225800  1.0  0.3736
  C  C378  1  0.753800  0.394400  0.198900  1.0  0.3387
  C  C379  1  0.890100  0.892300  0.186200  1.0  0.1481
  C  C380  1  0.908300  0.885200  0.155500  1.0  -0.1512
  C  C381  1  0.904200  0.803600  0.134600  1.0  -0.0749
  C  C382  1  0.882900  0.730000  0.145400  1.0  -0.1493
  C  C383  1  0.866100  0.743700  0.176500  1.0  0.1427
  C  C384  1  0.047300  0.951300  0.030700  1.0  0.1286
  C  C385  1  0.014400  0.895400  0.031100  1.0  -0.1495
  C  C386  1  0.001400  0.893500  0.064500  1.0  -0.0821
  C  C387  1  0.021700  0.947500  0.097700  1.0  -0.155
  C  C388  1  0.053700  0.000100  0.094400  1.0  0.1474
  C  C389  1  0.916800  0.525600  0.969400  1.0  0.1376
  C  C390  1  0.932000  0.600900  0.994400  1.0  -0.1264
  C  C391  1  0.908500  0.639100  0.016000  1.0  -0.0754
  C  C392  1  0.868500  0.604100  0.010800  1.0  -0.0938
  C  C393  1  0.855200  0.531300  0.984200  1.0  0.1159
  C  C394  1  0.921200  0.791700  0.100000  1.0  0.3898
  C  C395  1  0.966500  0.833100  0.067600  1.0  0.3503
  C  C396  1  0.923800  0.715800  0.045300  1.0  0.3935
  C  C397  1  0.327700  0.097700  0.336400  1.0  0.1343
  C  C398  1  0.313200  0.053900  0.300100  1.0  -0.1108
  C  C399  1  0.315600  0.958300  0.297100  1.0  -0.078
  C  C400  1  0.332600  0.908400  0.332400  1.0  -0.1438
  C  C401  1  0.345500  0.956300  0.367300  1.0  0.1578
  C  C402  1  0.295000  0.517800  0.200300  1.0  0.1421
  C  C403  1  0.284500  0.609400  0.195900  1.0  -0.1282
  C  C404  1  0.304800  0.671800  0.226200  1.0  -0.0848
  C  C405  1  0.334300  0.637300  0.258400  1.0  -0.0818
  C  C406  1  0.343700  0.543900  0.260400  1.0  0.1258
  C  C407  1  0.170000  0.932400  0.104400  1.0  0.1445
  C  C408  1  0.199900  0.888300  0.133400  1.0  -0.1202
  C  C409  1  0.221700  0.937200  0.166200  1.0  -0.0912
  C  C410  1  0.212400  0.031200  0.169200  1.0  -0.1431
  C  C411  1  0.182100  0.070700  0.138200  1.0  0.1519
  C  C412  1  0.298900  0.907000  0.259700  1.0  0.4033
  C  C413  1  0.292900  0.772900  0.225800  1.0  0.3736
  C  C414  1  0.253800  0.894400  0.198900  1.0  0.3387
  C  C415  1  0.390100  0.392300  0.186200  1.0  0.1481
  C  C416  1  0.408300  0.385200  0.155500  1.0  -0.1512
  C  C417  1  0.404200  0.303600  0.134600  1.0  -0.0749
  C  C418  1  0.382900  0.230000  0.145400  1.0  -0.1493
  C  C419  1  0.366100  0.243700  0.176500  1.0  0.1427
  C  C420  1  0.547300  0.451300  0.030700  1.0  0.1286
  C  C421  1  0.514400  0.395400  0.031100  1.0  -0.1495
  C  C422  1  0.501400  0.393500  0.064500  1.0  -0.0821
  C  C423  1  0.521700  0.447500  0.097700  1.0  -0.155
  C  C424  1  0.553700  0.500100  0.094400  1.0  0.1474
  C  C425  1  0.416800  0.025600  0.969400  1.0  0.1376
  C  C426  1  0.432000  0.100900  0.994400  1.0  -0.1264
  C  C427  1  0.408500  0.139100  0.016000  1.0  -0.0754
  C  C428  1  0.368500  0.104100  0.010800  1.0  -0.0942
  C  C429  1  0.355200  0.031300  0.984200  1.0  0.1222
  C  C430  1  0.421200  0.291700  0.100000  1.0  0.3898
  C  C431  1  0.466500  0.333100  0.067600  1.0  0.3503
  C  C432  1  0.423800  0.215800  0.045300  1.0  0.3935
  C  C433  1  0.827700  0.402300  0.836400  1.0  0.135
  C  C434  1  0.813200  0.446100  0.800100  1.0  -0.1109
  C  C435  1  0.815600  0.541700  0.797100  1.0  -0.0777
  C  C436  1  0.832600  0.591600  0.832400  1.0  -0.145
  C  C437  1  0.845500  0.543700  0.867300  1.0  0.1576
  C  C438  1  0.795000  0.982200  0.700300  1.0  0.1426
  C  C439  1  0.784500  0.890600  0.695900  1.0  -0.1282
  C  C440  1  0.804800  0.828200  0.726200  1.0  -0.085
  C  C441  1  0.834300  0.862700  0.758400  1.0  -0.0821
  C  C442  1  0.843700  0.956100  0.760400  1.0  0.1254
  C  C443  1  0.670000  0.567600  0.604400  1.0  0.1446
  C  C444  1  0.699900  0.611700  0.633400  1.0  -0.1219
  C  C445  1  0.721700  0.562800  0.666200  1.0  -0.0912
  C  C446  1  0.712400  0.468800  0.669200  1.0  -0.1426
  C  C447  1  0.682100  0.429300  0.638200  1.0  0.1508
  C  C448  1  0.798900  0.593000  0.759700  1.0  0.4028
  C  C449  1  0.792900  0.727100  0.725800  1.0  0.3738
  C  C450  1  0.753800  0.605600  0.698900  1.0  0.3386
  C  C451  1  0.890100  0.107700  0.686200  1.0  0.1492
  C  C452  1  0.908300  0.114800  0.655500  1.0  -0.1504
  C  C453  1  0.904200  0.196400  0.634600  1.0  -0.0748
  C  C454  1  0.882900  0.270000  0.645400  1.0  -0.1492
  C  C455  1  0.866100  0.256300  0.676500  1.0  0.141
  C  C456  1  0.047300  0.048700  0.530700  1.0  0.1285
  C  C457  1  0.014400  0.104600  0.531100  1.0  -0.1488
  C  C458  1  0.001400  0.106500  0.564500  1.0  -0.0826
  C  C459  1  0.021700  0.052500  0.597700  1.0  -0.1545
  C  C460  1  0.053700  0.999900  0.594400  1.0  0.1482
  C  C461  1  0.916800  0.474400  0.469400  1.0  0.1381
  C  C462  1  0.932000  0.399100  0.494400  1.0  -0.126
  C  C463  1  0.908500  0.360900  0.516000  1.0  -0.0757
  C  C464  1  0.868500  0.395900  0.510800  1.0  -0.0927
  C  C465  1  0.855200  0.468700  0.484200  1.0  0.1168
  C  C466  1  0.921200  0.208300  0.600000  1.0  0.3897
  C  C467  1  0.966500  0.166900  0.567600  1.0  0.3503
  C  C468  1  0.923800  0.284200  0.545300  1.0  0.3937
  C  C469  1  0.327700  0.902300  0.836400  1.0  0.135
  C  C470  1  0.313200  0.946100  0.800100  1.0  -0.1109
  C  C471  1  0.315600  0.041700  0.797100  1.0  -0.0777
  C  C472  1  0.332600  0.091600  0.832400  1.0  -0.145
  C  C473  1  0.345500  0.043700  0.867300  1.0  0.1576
  C  C474  1  0.295000  0.482200  0.700300  1.0  0.1426
  C  C475  1  0.284500  0.390600  0.695900  1.0  -0.1282
  C  C476  1  0.304800  0.328200  0.726200  1.0  -0.085
  C  C477  1  0.334300  0.362700  0.758400  1.0  -0.0821
  C  C478  1  0.343700  0.456100  0.760400  1.0  0.1254
  C  C479  1  0.170000  0.067600  0.604400  1.0  0.1446
  C  C480  1  0.199900  0.111700  0.633400  1.0  -0.1219
  C  C481  1  0.221700  0.062800  0.666200  1.0  -0.0912
  C  C482  1  0.212400  0.968800  0.669200  1.0  -0.1426
  C  C483  1  0.182100  0.929300  0.638200  1.0  0.1508
  C  C484  1  0.298900  0.093000  0.759700  1.0  0.4028
  C  C485  1  0.292900  0.227100  0.725800  1.0  0.3738
  C  C486  1  0.253800  0.105600  0.698900  1.0  0.3386
  C  C487  1  0.390100  0.607700  0.686200  1.0  0.1492
  C  C488  1  0.408300  0.614800  0.655500  1.0  -0.1504
  C  C489  1  0.404200  0.696400  0.634600  1.0  -0.0748
  C  C490  1  0.382900  0.770000  0.645400  1.0  -0.1492
  C  C491  1  0.366100  0.756300  0.676500  1.0  0.141
  C  C492  1  0.547300  0.548700  0.530700  1.0  0.1285
  C  C493  1  0.514400  0.604600  0.531100  1.0  -0.1488
  C  C494  1  0.501400  0.606500  0.564500  1.0  -0.0826
  C  C495  1  0.521700  0.552500  0.597700  1.0  -0.1545
  C  C496  1  0.553700  0.499900  0.594400  1.0  0.1482
  C  C497  1  0.416800  0.974400  0.469400  1.0  0.1381
  C  C498  1  0.432000  0.899100  0.494400  1.0  -0.126
  C  C499  1  0.408500  0.860900  0.516000  1.0  -0.0757
  C  C500  1  0.368500  0.895900  0.510800  1.0  -0.0931
  C  C501  1  0.355200  0.968700  0.484200  1.0  0.1301
  C  C502  1  0.421200  0.708300  0.600000  1.0  0.3897
  C  C503  1  0.466500  0.666900  0.567600  1.0  0.3503
  C  C504  1  0.423800  0.784200  0.545300  1.0  0.3937
  I  I505  1  0.081100  0.717610  0.073180  1.0  -0.3858
  I  I506  1  0.207400  0.676160  0.065100  1.0  -0.3168
  I  I507  1  0.226960  0.751180  0.288720  1.0  -0.491
  I  I508  1  0.116600  0.817070  0.191280  1.0  -0.4129
  I  I509  1  0.864120  0.074520  0.501270  1.0  -0.3528
  I  I510  1  0.901230  0.236230  0.406620  1.0  -0.4208
  I  I511  1  0.581100  0.217610  0.073180  1.0  -0.3858
  I  I512  1  0.707400  0.176160  0.065100  1.0  -0.3168
  I  I513  1  0.726960  0.251180  0.288720  1.0  -0.491
  I  I514  1  0.616600  0.317070  0.191280  1.0  -0.4129
  I  I515  1  0.364120  0.574520  0.501270  1.0  -0.3528
  I  I516  1  0.401230  0.736230  0.406620  1.0  -0.4208
  I  I517  1  0.081100  0.282390  0.573180  1.0  -0.3853
  I  I518  1  0.207400  0.323840  0.565100  1.0  -0.3165
  I  I519  1  0.226960  0.248820  0.788720  1.0  -0.4908
  I  I520  1  0.116600  0.182930  0.691280  1.0  -0.413
  I  I521  1  0.864120  0.925480  0.001270  1.0  -0.3527
  I  I522  1  0.901230  0.763770  0.906620  1.0  -0.4207
  I  I523  1  0.581100  0.782390  0.573180  1.0  -0.3853
  I  I524  1  0.707400  0.823840  0.565100  1.0  -0.3165
  I  I525  1  0.726960  0.748820  0.788720  1.0  -0.4908
  I  I526  1  0.616600  0.682930  0.691280  1.0  -0.413
  I  I527  1  0.364120  0.425480  0.001270  1.0  -0.3527
  I  I528  1  0.401230  0.263770  0.906620  1.0  -0.4207
  I  I529  1  0.918900  0.717610  0.426820  1.0  -0.3869
  I  I530  1  0.792600  0.676160  0.434900  1.0  -0.3174
  I  I531  1  0.773040  0.751180  0.211280  1.0  -0.4923
  I  I532  1  0.883400  0.817070  0.308720  1.0  -0.4139
  I  I533  1  0.135880  0.074520  0.998730  1.0  -0.3524
  I  I534  1  0.098770  0.236230  0.093380  1.0  -0.4207
  I  I535  1  0.418900  0.217610  0.426820  1.0  -0.3872
  I  I536  1  0.292600  0.176160  0.434900  1.0  -0.3174
  I  I537  1  0.273040  0.251180  0.211280  1.0  -0.4923
  I  I538  1  0.383400  0.317070  0.308720  1.0  -0.4139
  I  I539  1  0.635880  0.574520  0.998730  1.0  -0.3524
  I  I540  1  0.598770  0.736230  0.093380  1.0  -0.4207
  I  I541  1  0.918900  0.282390  0.926820  1.0  -0.3864
  I  I542  1  0.792600  0.323840  0.934900  1.0  -0.3175
  I  I543  1  0.773040  0.248820  0.711280  1.0  -0.4924
  I  I544  1  0.883400  0.182930  0.808720  1.0  -0.4139
  I  I545  1  0.135880  0.925480  0.498730  1.0  -0.3523
  I  I546  1  0.098770  0.763770  0.593380  1.0  -0.421
  I  I547  1  0.418900  0.782390  0.926820  1.0  -0.3864
  I  I548  1  0.292600  0.823840  0.934900  1.0  -0.3175
  I  I549  1  0.273040  0.748820  0.711280  1.0  -0.4924
  I  I550  1  0.383400  0.682930  0.808720  1.0  -0.4139
  I  I551  1  0.635880  0.425480  0.498730  1.0  -0.3523
  I  I552  1  0.598770  0.263770  0.593380  1.0  -0.421
  N  N553  1  0.157400  0.549700  0.129800  1.0  -0.3378
  N  N554  1  0.176300  0.983700  0.268400  1.0  -0.321
  N  N555  1  0.339600  0.523000  0.393500  1.0  -0.3397
  N  N556  1  0.188000  0.320000  0.242300  1.0  -0.4111
  N  N557  1  0.236500  0.303900  0.305500  1.0  -0.4411
  N  N558  1  0.230000  0.448200  0.269000  1.0  -0.4655
  N  N559  1  0.131900  0.824200  0.304100  1.0  -0.3276
  N  N560  1  0.933100  0.002900  0.438100  1.0  -0.3046
  N  N561  1  0.120500  0.492600  0.536000  1.0  -0.3265
  N  N562  1  0.049000  0.849600  0.402000  1.0  -0.4392
  N  N563  1  0.045400  0.765800  0.459700  1.0  -0.4213
  N  N564  1  0.094000  0.724900  0.425800  1.0  -0.4412
  N  N565  1  0.657400  0.049700  0.129800  1.0  -0.3378
  N  N566  1  0.676300  0.483700  0.268400  1.0  -0.321
  N  N567  1  0.839600  0.023000  0.393500  1.0  -0.3397
  N  N568  1  0.688000  0.820000  0.242300  1.0  -0.4111
  N  N569  1  0.736500  0.803900  0.305500  1.0  -0.4411
  N  N570  1  0.730000  0.948200  0.269000  1.0  -0.4655
  N  N571  1  0.631900  0.324200  0.304100  1.0  -0.3276
  N  N572  1  0.433100  0.502900  0.438100  1.0  -0.3046
  N  N573  1  0.620500  0.992600  0.536000  1.0  -0.3265
  N  N574  1  0.549000  0.349600  0.402000  1.0  -0.4392
  N  N575  1  0.545400  0.265800  0.459700  1.0  -0.4213
  N  N576  1  0.594000  0.224900  0.425800  1.0  -0.4412
  N  N577  1  0.157400  0.450300  0.629800  1.0  -0.3399
  N  N578  1  0.176300  0.016300  0.768400  1.0  -0.3202
  N  N579  1  0.339600  0.477000  0.893500  1.0  -0.3386
  N  N580  1  0.188000  0.680000  0.742300  1.0  -0.4108
  N  N581  1  0.236500  0.696100  0.805500  1.0  -0.4418
  N  N582  1  0.230000  0.551800  0.769000  1.0  -0.4642
  N  N583  1  0.131900  0.175800  0.804100  1.0  -0.3272
  N  N584  1  0.933100  0.997100  0.938100  1.0  -0.3047
  N  N585  1  0.120500  0.507400  0.036000  1.0  -0.3281
  N  N586  1  0.049000  0.150400  0.902000  1.0  -0.4398
  N  N587  1  0.045400  0.234200  0.959700  1.0  -0.4211
  N  N588  1  0.094000  0.275100  0.925800  1.0  -0.4413
  N  N589  1  0.657400  0.950300  0.629800  1.0  -0.3399
  N  N590  1  0.676300  0.516300  0.768400  1.0  -0.3202
  N  N591  1  0.839600  0.977000  0.893500  1.0  -0.3386
  N  N592  1  0.688000  0.180000  0.742300  1.0  -0.4108
  N  N593  1  0.736500  0.196100  0.805500  1.0  -0.4418
  N  N594  1  0.730000  0.051800  0.769000  1.0  -0.4642
  N  N595  1  0.631900  0.675800  0.804100  1.0  -0.3272
  N  N596  1  0.433100  0.497100  0.938100  1.0  -0.3047
  N  N597  1  0.620500  0.007400  0.036000  1.0  -0.3281
  N  N598  1  0.549000  0.650400  0.902000  1.0  -0.4398
  N  N599  1  0.545400  0.734200  0.959700  1.0  -0.4211
  N  N600  1  0.594000  0.775100  0.925800  1.0  -0.4413
  N  N601  1  0.842600  0.549700  0.370200  1.0  -0.3393
  N  N602  1  0.823700  0.983700  0.231600  1.0  -0.3204
  N  N603  1  0.660400  0.523000  0.106500  1.0  -0.3396
  N  N604  1  0.812000  0.320000  0.257700  1.0  -0.4108
  N  N605  1  0.763500  0.303900  0.194500  1.0  -0.4448
  N  N606  1  0.770000  0.448200  0.231000  1.0  -0.4651
  N  N607  1  0.868100  0.824200  0.195900  1.0  -0.3244
  N  N608  1  0.066900  0.002900  0.061900  1.0  -0.3049
  N  N609  1  0.879500  0.492600  0.964000  1.0  -0.3259
  N  N610  1  0.951000  0.849600  0.098000  1.0  -0.439
  N  N611  1  0.954600  0.765800  0.040300  1.0  -0.4213
  N  N612  1  0.906000  0.724900  0.074200  1.0  -0.443
  N  N613  1  0.342600  0.049700  0.370200  1.0  -0.3393
  N  N614  1  0.323700  0.483700  0.231600  1.0  -0.3204
  N  N615  1  0.160400  0.023000  0.106500  1.0  -0.3396
  N  N616  1  0.312000  0.820000  0.257700  1.0  -0.4108
  N  N617  1  0.263500  0.803900  0.194500  1.0  -0.4448
  N  N618  1  0.270000  0.948200  0.231000  1.0  -0.4651
  N  N619  1  0.368100  0.324200  0.195900  1.0  -0.3244
  N  N620  1  0.566900  0.502900  0.061900  1.0  -0.3049
  N  N621  1  0.379500  0.992600  0.964000  1.0  -0.3259
  N  N622  1  0.451000  0.349600  0.098000  1.0  -0.439
  N  N623  1  0.454600  0.265800  0.040300  1.0  -0.4213
  N  N624  1  0.406000  0.224900  0.074200  1.0  -0.443
  N  N625  1  0.842600  0.450300  0.870200  1.0  -0.3385
  N  N626  1  0.823700  0.016300  0.731600  1.0  -0.3216
  N  N627  1  0.660400  0.477000  0.606500  1.0  -0.3412
  N  N628  1  0.812000  0.680000  0.757700  1.0  -0.4106
  N  N629  1  0.763500  0.696100  0.694500  1.0  -0.4439
  N  N630  1  0.770000  0.551800  0.731000  1.0  -0.4644
  N  N631  1  0.868100  0.175800  0.695900  1.0  -0.3236
  N  N632  1  0.066900  0.997100  0.561900  1.0  -0.3041
  N  N633  1  0.879500  0.507400  0.464000  1.0  -0.3262
  N  N634  1  0.951000  0.150400  0.598000  1.0  -0.4391
  N  N635  1  0.954600  0.234200  0.540300  1.0  -0.4206
  N  N636  1  0.906000  0.275100  0.574200  1.0  -0.4435
  N  N637  1  0.342600  0.950300  0.870200  1.0  -0.3385
  N  N638  1  0.323700  0.516300  0.731600  1.0  -0.3216
  N  N639  1  0.160400  0.977000  0.606500  1.0  -0.3412
  N  N640  1  0.312000  0.180000  0.757700  1.0  -0.4106
  N  N641  1  0.263500  0.196100  0.694500  1.0  -0.4439
  N  N642  1  0.270000  0.051800  0.731000  1.0  -0.4644
  N  N643  1  0.368100  0.675800  0.695900  1.0  -0.3236
  N  N644  1  0.566900  0.497100  0.561900  1.0  -0.3041
  N  N645  1  0.379500  0.007400  0.464000  1.0  -0.3262
  N  N646  1  0.451000  0.650400  0.598000  1.0  -0.4391
  N  N647  1  0.454600  0.734200  0.540300  1.0  -0.4206
  N  N648  1  0.406000  0.775100  0.574200  1.0  -0.4435
