# generated using pymatgen
data_ZnH4(C3O)4
_symmetry_space_group_name_H-M   'P 1'
_cell_length_a   30.29490000
_cell_length_b   30.29490000
_cell_length_c   30.29490000
_cell_angle_alpha   60.00000000
_cell_angle_beta   60.00000000
_cell_angle_gamma   60.00000000
_symmetry_Int_Tables_number   1
_chemical_formula_structural   ZnH4(C3O)4
_chemical_formula_sum   'Zn24 H96 C288 O96'
_cell_volume   19660.45534206
_cell_formula_units_Z   24
loop_
 _symmetry_equiv_pos_site_id
 _symmetry_equiv_pos_as_xyz
  1  'x, y, z'
loop_
 _atom_site_type_symbol
 _atom_site_label
 _atom_site_symmetry_multiplicity
 _atom_site_fract_x
 _atom_site_fract_y
 _atom_site_fract_z
 _atom_site_occupancy
 _atom_site_charge
  Zn  Zn1  1  0.742270  0.000000  0.000000  1.0  1.0908
  Zn  Zn2  1  0.642210  0.000000  0.000000  1.0  1.0947
  Zn  Zn3  1  0.000000  0.742270  0.257730  1.0  1.0869
  Zn  Zn4  1  0.000000  0.642210  0.357790  1.0  1.0918
  Zn  Zn5  1  0.000000  0.257730  0.742270  1.0  1.0896
  Zn  Zn6  1  0.000000  0.357790  0.642210  1.0  1.0917
  Zn  Zn7  1  0.257730  0.000000  0.000000  1.0  1.0903
  Zn  Zn8  1  0.357790  0.000000  0.000000  1.0  1.0955
  Zn  Zn9  1  0.742270  0.000000  0.257730  1.0  1.0906
  Zn  Zn10  1  0.642210  0.000000  0.357790  1.0  1.0951
  Zn  Zn11  1  0.000000  0.257730  0.000000  1.0  1.0895
  Zn  Zn12  1  0.000000  0.357790  0.000000  1.0  1.0916
  Zn  Zn13  1  0.000000  0.742270  0.000000  1.0  1.0877
  Zn  Zn14  1  0.000000  0.642210  0.000000  1.0  1.0923
  Zn  Zn15  1  0.257730  0.000000  0.742270  1.0  1.0916
  Zn  Zn16  1  0.357790  0.000000  0.642210  1.0  1.096
  Zn  Zn17  1  0.742270  0.257730  0.000000  1.0  1.089
  Zn  Zn18  1  0.642210  0.357790  0.000000  1.0  1.0924
  Zn  Zn19  1  0.000000  0.000000  0.742270  1.0  1.0881
  Zn  Zn20  1  0.000000  0.000000  0.642210  1.0  1.0902
  Zn  Zn21  1  0.000000  0.000000  0.257730  1.0  1.087
  Zn  Zn22  1  0.000000  0.000000  0.357790  1.0  1.0914
  Zn  Zn23  1  0.257730  0.742270  0.000000  1.0  1.0873
  Zn  Zn24  1  0.357790  0.642210  0.000000  1.0  1.0939
  H  H25  1  0.558300  0.966100  0.170700  1.0  0.1034
  H  H26  1  0.966100  0.558300  0.304900  1.0  0.1034
  H  H27  1  0.170700  0.304900  0.558300  1.0  0.1038
  H  H28  1  0.304900  0.170700  0.966100  1.0  0.1039
  H  H29  1  0.558300  0.170700  0.304900  1.0  0.1031
  H  H30  1  0.966100  0.304900  0.170700  1.0  0.1047
  H  H31  1  0.170700  0.558300  0.966100  1.0  0.1031
  H  H32  1  0.304900  0.966100  0.558300  1.0  0.1039
  H  H33  1  0.558300  0.304900  0.966100  1.0  0.1043
  H  H34  1  0.966100  0.170700  0.558300  1.0  0.1033
  H  H35  1  0.170700  0.966100  0.304900  1.0  0.103
  H  H36  1  0.304900  0.558300  0.170700  1.0  0.1033
  H  H37  1  0.033900  0.441700  0.829300  1.0  0.1033
  H  H38  1  0.441700  0.033900  0.695100  1.0  0.1033
  H  H39  1  0.695100  0.829300  0.441700  1.0  0.1038
  H  H40  1  0.829300  0.695100  0.033900  1.0  0.1032
  H  H41  1  0.829300  0.441700  0.695100  1.0  0.1029
  H  H42  1  0.695100  0.033900  0.829300  1.0  0.1031
  H  H43  1  0.441700  0.829300  0.033900  1.0  0.1029
  H  H44  1  0.033900  0.695100  0.441700  1.0  0.1042
  H  H45  1  0.695100  0.441700  0.033900  1.0  0.1036
  H  H46  1  0.829300  0.033900  0.441700  1.0  0.1026
  H  H47  1  0.033900  0.829300  0.695100  1.0  0.1034
  H  H48  1  0.441700  0.695100  0.829300  1.0  0.1038
  H  H49  1  0.441700  0.033900  0.829300  1.0  0.1029
  H  H50  1  0.033900  0.441700  0.695100  1.0  0.1031
  H  H51  1  0.829300  0.695100  0.441700  1.0  0.1035
  H  H52  1  0.695100  0.829300  0.033900  1.0  0.1036
  H  H53  1  0.441700  0.829300  0.695100  1.0  0.1034
  H  H54  1  0.033900  0.695100  0.829300  1.0  0.1035
  H  H55  1  0.829300  0.441700  0.033900  1.0  0.1027
  H  H56  1  0.695100  0.033900  0.441700  1.0  0.1037
  H  H57  1  0.441700  0.695100  0.033900  1.0  0.1039
  H  H58  1  0.033900  0.829300  0.441700  1.0  0.1026
  H  H59  1  0.829300  0.033900  0.695100  1.0  0.1035
  H  H60  1  0.695100  0.441700  0.829300  1.0  0.1034
  H  H61  1  0.966100  0.558300  0.170700  1.0  0.1031
  H  H62  1  0.558300  0.966100  0.304900  1.0  0.1036
  H  H63  1  0.304900  0.170700  0.558300  1.0  0.1035
  H  H64  1  0.170700  0.304900  0.966100  1.0  0.1041
  H  H65  1  0.170700  0.558300  0.304900  1.0  0.103
  H  H66  1  0.304900  0.966100  0.170700  1.0  0.1044
  H  H67  1  0.558300  0.170700  0.966100  1.0  0.103
  H  H68  1  0.966100  0.304900  0.558300  1.0  0.1039
  H  H69  1  0.304900  0.558300  0.966100  1.0  0.1032
  H  H70  1  0.170700  0.966100  0.558300  1.0  0.1036
  H  H71  1  0.966100  0.170700  0.304900  1.0  0.1028
  H  H72  1  0.558300  0.304900  0.170700  1.0  0.1043
  H  H73  1  0.686500  0.982500  0.165500  1.0  0.099
  H  H74  1  0.982500  0.686500  0.165500  1.0  0.1005
  H  H75  1  0.165500  0.165500  0.686500  1.0  0.099
  H  H76  1  0.165500  0.165500  0.982500  1.0  0.0989
  H  H77  1  0.686500  0.165500  0.165500  1.0  0.0981
  H  H78  1  0.982500  0.165500  0.165500  1.0  0.0991
  H  H79  1  0.165500  0.686500  0.982500  1.0  0.0997
  H  H80  1  0.165500  0.982500  0.686500  1.0  0.0994
  H  H81  1  0.686500  0.165500  0.982500  1.0  0.098
  H  H82  1  0.982500  0.165500  0.686500  1.0  0.0992
  H  H83  1  0.165500  0.982500  0.165500  1.0  0.0991
  H  H84  1  0.165500  0.686500  0.165500  1.0  0.0999
  H  H85  1  0.017500  0.313500  0.834500  1.0  0.1003
  H  H86  1  0.313500  0.017500  0.834500  1.0  0.0989
  H  H87  1  0.834500  0.834500  0.313500  1.0  0.0989
  H  H88  1  0.834500  0.834500  0.017500  1.0  0.0987
  H  H89  1  0.834500  0.313500  0.834500  1.0  0.0993
  H  H90  1  0.834500  0.017500  0.834500  1.0  0.0991
  H  H91  1  0.313500  0.834500  0.017500  1.0  0.0985
  H  H92  1  0.017500  0.834500  0.313500  1.0  0.0988
  H  H93  1  0.834500  0.313500  0.017500  1.0  0.0997
  H  H94  1  0.834500  0.017500  0.313500  1.0  0.0987
  H  H95  1  0.017500  0.834500  0.834500  1.0  0.0992
  H  H96  1  0.313500  0.834500  0.834500  1.0  0.0982
  H  H97  1  0.399400  0.935600  0.265600  1.0  0.1063
  H  H98  1  0.935600  0.399400  0.399400  1.0  0.1055
  H  H99  1  0.265600  0.399400  0.399400  1.0  0.1066
  H  H100  1  0.399400  0.265600  0.935600  1.0  0.108
  H  H101  1  0.399400  0.265600  0.399400  1.0  0.1086
  H  H102  1  0.935600  0.399400  0.265600  1.0  0.1053
  H  H103  1  0.265600  0.399400  0.935600  1.0  0.1058
  H  H104  1  0.399400  0.935600  0.399400  1.0  0.1059
  H  H105  1  0.399400  0.399400  0.935600  1.0  0.1061
  H  H106  1  0.935600  0.265600  0.399400  1.0  0.1078
  H  H107  1  0.265600  0.935600  0.399400  1.0  0.1069
  H  H108  1  0.399400  0.399400  0.265600  1.0  0.1056
  H  H109  1  0.064400  0.600600  0.734400  1.0  0.1057
  H  H110  1  0.600600  0.064400  0.600600  1.0  0.1063
  H  H111  1  0.600600  0.734400  0.600600  1.0  0.1076
  H  H112  1  0.734400  0.600600  0.064400  1.0  0.1062
  H  H113  1  0.734400  0.600600  0.600600  1.0  0.1058
  H  H114  1  0.600600  0.064400  0.734400  1.0  0.1065
  H  H115  1  0.600600  0.734400  0.064400  1.0  0.1086
  H  H116  1  0.064400  0.600600  0.600600  1.0  0.1056
  H  H117  1  0.600600  0.600600  0.064400  1.0  0.1053
  H  H118  1  0.734400  0.064400  0.600600  1.0  0.1056
  H  H119  1  0.064400  0.734400  0.600600  1.0  0.1075
  H  H120  1  0.600600  0.600600  0.734400  1.0  0.1067
  C  C121  1  0.649670  0.983630  0.102430  1.0  0.7064
  C  C122  1  0.624840  0.977340  0.159780  1.0  -0.1617
  C  C123  1  0.575240  0.968440  0.188320  1.0  -0.1021
  C  C124  1  0.983630  0.649670  0.264270  1.0  0.7067
  C  C125  1  0.977340  0.624840  0.238040  1.0  -0.1623
  C  C126  1  0.968440  0.575240  0.268000  1.0  -0.102
  C  C127  1  0.102430  0.264270  0.649670  1.0  0.7044
  C  C128  1  0.159780  0.238040  0.624840  1.0  -0.1631
  C  C129  1  0.188320  0.268000  0.575240  1.0  -0.1013
  C  C130  1  0.264270  0.102430  0.983630  1.0  0.7052
  C  C131  1  0.238040  0.159780  0.977340  1.0  -0.1622
  C  C132  1  0.268000  0.188320  0.968440  1.0  -0.1003
  C  C133  1  0.649670  0.102430  0.264270  1.0  0.705
  C  C134  1  0.624840  0.159780  0.238040  1.0  -0.1622
  C  C135  1  0.575240  0.188320  0.268000  1.0  -0.1011
  C  C136  1  0.983630  0.264270  0.102430  1.0  0.7062
  C  C137  1  0.977340  0.238040  0.159780  1.0  -0.1616
  C  C138  1  0.968440  0.268000  0.188320  1.0  -0.1021
  C  C139  1  0.102430  0.649670  0.983630  1.0  0.7052
  C  C140  1  0.159780  0.624840  0.977340  1.0  -0.1624
  C  C141  1  0.188320  0.575240  0.968440  1.0  -0.1019
  C  C142  1  0.264270  0.983630  0.649670  1.0  0.7066
  C  C143  1  0.238040  0.977340  0.624840  1.0  -0.1629
  C  C144  1  0.268000  0.968440  0.575240  1.0  -0.0983
  C  C145  1  0.649670  0.264270  0.983630  1.0  0.7048
  C  C146  1  0.624840  0.238040  0.977340  1.0  -0.1619
  C  C147  1  0.575240  0.268000  0.968440  1.0  -0.1005
  C  C148  1  0.983630  0.102430  0.649670  1.0  0.705
  C  C149  1  0.977340  0.159780  0.624840  1.0  -0.162
  C  C150  1  0.968440  0.188320  0.575240  1.0  -0.1037
  C  C151  1  0.102430  0.983630  0.264270  1.0  0.7056
  C  C152  1  0.159780  0.977340  0.238040  1.0  -0.1625
  C  C153  1  0.188320  0.968440  0.268000  1.0  -0.1027
  C  C154  1  0.264270  0.649670  0.102430  1.0  0.7055
  C  C155  1  0.238040  0.624840  0.159780  1.0  -0.1627
  C  C156  1  0.268000  0.575240  0.188320  1.0  -0.0989
  C  C157  1  0.016370  0.350330  0.897570  1.0  0.7077
  C  C158  1  0.022660  0.375160  0.840220  1.0  -0.1627
  C  C159  1  0.031560  0.424760  0.811680  1.0  -0.0999
  C  C160  1  0.350330  0.016370  0.735730  1.0  0.707
  C  C161  1  0.375160  0.022660  0.761960  1.0  -0.1623
  C  C162  1  0.424760  0.031560  0.732000  1.0  -0.1021
  C  C163  1  0.735730  0.897570  0.350330  1.0  0.7055
  C  C164  1  0.761960  0.840220  0.375160  1.0  -0.1618
  C  C165  1  0.732000  0.811680  0.424760  1.0  -0.1015
  C  C166  1  0.897570  0.735730  0.016370  1.0  0.7042
  C  C167  1  0.840220  0.761960  0.022660  1.0  -0.1623
  C  C168  1  0.811680  0.732000  0.031560  1.0  -0.1012
  C  C169  1  0.897570  0.350330  0.735730  1.0  0.7041
  C  C170  1  0.840220  0.375160  0.761960  1.0  -0.1623
  C  C171  1  0.811680  0.424760  0.732000  1.0  -0.1025
  C  C172  1  0.735730  0.016370  0.897570  1.0  0.7061
  C  C173  1  0.761960  0.022660  0.840220  1.0  -0.1623
  C  C174  1  0.732000  0.031560  0.811680  1.0  -0.1007
  C  C175  1  0.350330  0.897570  0.016370  1.0  0.7056
  C  C176  1  0.375160  0.840220  0.022660  1.0  -0.1622
  C  C177  1  0.424760  0.811680  0.031560  1.0  -0.0998
  C  C178  1  0.016370  0.735730  0.350330  1.0  0.707
  C  C179  1  0.022660  0.761960  0.375160  1.0  -0.1619
  C  C180  1  0.031560  0.732000  0.424760  1.0  -0.1029
  C  C181  1  0.735730  0.350330  0.016370  1.0  0.7053
  C  C182  1  0.761960  0.375160  0.022660  1.0  -0.162
  C  C183  1  0.732000  0.424760  0.031560  1.0  -0.1002
  C  C184  1  0.897570  0.016370  0.350330  1.0  0.7047
  C  C185  1  0.840220  0.022660  0.375160  1.0  -0.1623
  C  C186  1  0.811680  0.031560  0.424760  1.0  -0.1018
  C  C187  1  0.016370  0.897570  0.735730  1.0  0.7057
  C  C188  1  0.022660  0.840220  0.761960  1.0  -0.162
  C  C189  1  0.031560  0.811680  0.732000  1.0  -0.1035
  C  C190  1  0.350330  0.735730  0.897570  1.0  0.7046
  C  C191  1  0.375160  0.761960  0.840220  1.0  -0.162
  C  C192  1  0.424760  0.732000  0.811680  1.0  -0.1002
  C  C193  1  0.350330  0.016370  0.897570  1.0  0.7069
  C  C194  1  0.375160  0.022660  0.840220  1.0  -0.1629
  C  C195  1  0.424760  0.031560  0.811680  1.0  -0.0999
  C  C196  1  0.016370  0.350330  0.735730  1.0  0.7078
  C  C197  1  0.022660  0.375160  0.761960  1.0  -0.1622
  C  C198  1  0.031560  0.424760  0.732000  1.0  -0.1026
  C  C199  1  0.897570  0.735730  0.350330  1.0  0.7043
  C  C200  1  0.840220  0.761960  0.375160  1.0  -0.1621
  C  C201  1  0.811680  0.732000  0.424760  1.0  -0.1014
  C  C202  1  0.735730  0.897570  0.016370  1.0  0.7055
  C  C203  1  0.761960  0.840220  0.022660  1.0  -0.1619
  C  C204  1  0.732000  0.811680  0.031560  1.0  -0.1014
  C  C205  1  0.350330  0.897570  0.735730  1.0  0.7056
  C  C206  1  0.375160  0.840220  0.761960  1.0  -0.162
  C  C207  1  0.424760  0.811680  0.732000  1.0  -0.1027
  C  C208  1  0.016370  0.735730  0.897570  1.0  0.707
  C  C209  1  0.022660  0.761960  0.840220  1.0  -0.1622
  C  C210  1  0.031560  0.732000  0.811680  1.0  -0.1027
  C  C211  1  0.897570  0.350330  0.016370  1.0  0.7039
  C  C212  1  0.840220  0.375160  0.022660  1.0  -0.1624
  C  C213  1  0.811680  0.424760  0.031560  1.0  -0.0996
  C  C214  1  0.735730  0.016370  0.350330  1.0  0.7062
  C  C215  1  0.761960  0.022660  0.375160  1.0  -0.1618
  C  C216  1  0.732000  0.031560  0.424760  1.0  -0.1009
  C  C217  1  0.350330  0.735730  0.016370  1.0  0.705
  C  C218  1  0.375160  0.761960  0.022660  1.0  -0.1622
  C  C219  1  0.424760  0.732000  0.031560  1.0  -0.1003
  C  C220  1  0.016370  0.897570  0.350330  1.0  0.706
  C  C221  1  0.022660  0.840220  0.375160  1.0  -0.162
  C  C222  1  0.031560  0.811680  0.424760  1.0  -0.1019
  C  C223  1  0.897570  0.016370  0.735730  1.0  0.7047
  C  C224  1  0.840220  0.022660  0.761960  1.0  -0.1622
  C  C225  1  0.811680  0.031560  0.732000  1.0  -0.1031
  C  C226  1  0.735730  0.350330  0.897570  1.0  0.7049
  C  C227  1  0.761960  0.375160  0.840220  1.0  -0.162
  C  C228  1  0.732000  0.424760  0.811680  1.0  -0.1002
  C  C229  1  0.983630  0.649670  0.102430  1.0  0.7066
  C  C230  1  0.977340  0.624840  0.159780  1.0  -0.1617
  C  C231  1  0.968440  0.575240  0.188320  1.0  -0.1027
  C  C232  1  0.649670  0.983630  0.264270  1.0  0.7068
  C  C233  1  0.624840  0.977340  0.238040  1.0  -0.1622
  C  C234  1  0.575240  0.968440  0.268000  1.0  -0.102
  C  C235  1  0.264270  0.102430  0.649670  1.0  0.7051
  C  C236  1  0.238040  0.159780  0.624840  1.0  -0.1623
  C  C237  1  0.268000  0.188320  0.575240  1.0  -0.1005
  C  C238  1  0.102430  0.264270  0.983630  1.0  0.7045
  C  C239  1  0.159780  0.238040  0.977340  1.0  -0.1629
  C  C240  1  0.188320  0.268000  0.968440  1.0  -0.1014
  C  C241  1  0.102430  0.649670  0.264270  1.0  0.7049
  C  C242  1  0.159780  0.624840  0.238040  1.0  -0.1626
  C  C243  1  0.188320  0.575240  0.268000  1.0  -0.1007
  C  C244  1  0.264270  0.983630  0.102430  1.0  0.7062
  C  C245  1  0.238040  0.977340  0.159780  1.0  -0.1623
  C  C246  1  0.268000  0.968440  0.188320  1.0  -0.0985
  C  C247  1  0.649670  0.102430  0.983630  1.0  0.7053
  C  C248  1  0.624840  0.159780  0.977340  1.0  -0.1621
  C  C249  1  0.575240  0.188320  0.968440  1.0  -0.1019
  C  C250  1  0.983630  0.264270  0.649670  1.0  0.7062
  C  C251  1  0.977340  0.238040  0.624840  1.0  -0.1623
  C  C252  1  0.968440  0.268000  0.575240  1.0  -0.1019
  C  C253  1  0.264270  0.649670  0.983630  1.0  0.7051
  C  C254  1  0.238040  0.624840  0.977340  1.0  -0.1627
  C  C255  1  0.268000  0.575240  0.968440  1.0  -0.0984
  C  C256  1  0.102430  0.983630  0.649670  1.0  0.7055
  C  C257  1  0.159780  0.977340  0.624840  1.0  -0.1625
  C  C258  1  0.188320  0.968440  0.575240  1.0  -0.1028
  C  C259  1  0.983630  0.102430  0.264270  1.0  0.705
  C  C260  1  0.977340  0.159780  0.238040  1.0  -0.1621
  C  C261  1  0.968440  0.188320  0.268000  1.0  -0.1032
  C  C262  1  0.649670  0.264270  0.102430  1.0  0.7053
  C  C263  1  0.624840  0.238040  0.159780  1.0  -0.1619
  C  C264  1  0.575240  0.268000  0.188320  1.0  -0.1005
  C  C265  1  0.651400  0.979520  0.184540  1.0  -0.0798
  C  C266  1  0.551240  0.963160  0.242800  1.0  0.0907
  C  C267  1  0.503140  0.955060  0.270900  1.0  0.1268
  C  C268  1  0.459700  0.948100  0.296100  1.0  -0.0598
  C  C269  1  0.405260  0.940140  0.327300  1.0  0.1289
  C  C270  1  0.979520  0.651400  0.184540  1.0  -0.0821
  C  C271  1  0.963160  0.551240  0.242800  1.0  0.0919
  C  C272  1  0.955060  0.503140  0.270900  1.0  0.1278
  C  C273  1  0.948100  0.459700  0.296100  1.0  -0.0609
  C  C274  1  0.940140  0.405260  0.327300  1.0  0.13
  C  C275  1  0.184540  0.184540  0.651400  1.0  -0.0823
  C  C276  1  0.242800  0.242800  0.551240  1.0  0.0918
  C  C277  1  0.270900  0.270900  0.503140  1.0  0.1277
  C  C278  1  0.296100  0.296100  0.459700  1.0  -0.0639
  C  C279  1  0.327300  0.327300  0.405260  1.0  0.1276
  C  C280  1  0.184540  0.184540  0.979520  1.0  -0.0829
  C  C281  1  0.242800  0.242800  0.963160  1.0  0.0918
  C  C282  1  0.270900  0.270900  0.955060  1.0  0.1278
  C  C283  1  0.296100  0.296100  0.948100  1.0  -0.0633
  C  C284  1  0.327300  0.327300  0.940140  1.0  0.1276
  C  C285  1  0.651400  0.184540  0.184540  1.0  -0.0811
  C  C286  1  0.551240  0.242800  0.242800  1.0  0.09
  C  C287  1  0.503140  0.270900  0.270900  1.0  0.1271
  C  C288  1  0.459700  0.296100  0.296100  1.0  -0.0595
  C  C289  1  0.405260  0.327300  0.327300  1.0  0.1299
  C  C290  1  0.979520  0.184540  0.184540  1.0  -0.0822
  C  C291  1  0.963160  0.242800  0.242800  1.0  0.0924
  C  C292  1  0.955060  0.270900  0.270900  1.0  0.1257
  C  C293  1  0.948100  0.296100  0.296100  1.0  -0.0595
  C  C294  1  0.940140  0.327300  0.327300  1.0  0.1284
  C  C295  1  0.184540  0.651400  0.979520  1.0  -0.0817
  C  C296  1  0.242800  0.551240  0.963160  1.0  0.0905
  C  C297  1  0.270900  0.503140  0.955060  1.0  0.1264
  C  C298  1  0.296100  0.459700  0.948100  1.0  -0.061
  C  C299  1  0.327300  0.405260  0.940140  1.0  0.1296
  C  C300  1  0.184540  0.979520  0.651400  1.0  -0.0834
  C  C301  1  0.242800  0.963160  0.551240  1.0  0.0942
  C  C302  1  0.270900  0.955060  0.503140  1.0  0.1271
  C  C303  1  0.296100  0.948100  0.459700  1.0  -0.0628
  C  C304  1  0.327300  0.940140  0.405260  1.0  0.1302
  C  C305  1  0.651400  0.184540  0.979520  1.0  -0.0809
  C  C306  1  0.551240  0.242800  0.963160  1.0  0.0898
  C  C307  1  0.503140  0.270900  0.955060  1.0  0.126
  C  C308  1  0.459700  0.296100  0.948100  1.0  -0.0597
  C  C309  1  0.405260  0.327300  0.940140  1.0  0.1293
  C  C310  1  0.979520  0.184540  0.651400  1.0  -0.0822
  C  C311  1  0.963160  0.242800  0.551240  1.0  0.0945
  C  C312  1  0.955060  0.270900  0.503140  1.0  0.1269
  C  C313  1  0.948100  0.296100  0.459700  1.0  -0.0605
  C  C314  1  0.940140  0.327300  0.405260  1.0  0.1305
  C  C315  1  0.184540  0.979520  0.184540  1.0  -0.0829
  C  C316  1  0.242800  0.963160  0.242800  1.0  0.0926
  C  C317  1  0.270900  0.955060  0.270900  1.0  0.1264
  C  C318  1  0.296100  0.948100  0.296100  1.0  -0.0618
  C  C319  1  0.327300  0.940140  0.327300  1.0  0.1282
  C  C320  1  0.184540  0.651400  0.184540  1.0  -0.0814
  C  C321  1  0.242800  0.551240  0.242800  1.0  0.0916
  C  C322  1  0.270900  0.503140  0.270900  1.0  0.1273
  C  C323  1  0.296100  0.459700  0.296100  1.0  -0.0607
  C  C324  1  0.327300  0.405260  0.327300  1.0  0.1302
  C  C325  1  0.020480  0.348600  0.815460  1.0  -0.0815
  C  C326  1  0.036840  0.448760  0.757200  1.0  0.0915
  C  C327  1  0.044940  0.496860  0.729100  1.0  0.1284
  C  C328  1  0.051900  0.540300  0.703900  1.0  -0.0607
  C  C329  1  0.059860  0.594740  0.672700  1.0  0.1311
  C  C330  1  0.348600  0.020480  0.815460  1.0  -0.0834
  C  C331  1  0.448760  0.036840  0.757200  1.0  0.0922
  C  C332  1  0.496860  0.044940  0.729100  1.0  0.128
  C  C333  1  0.540300  0.051900  0.703900  1.0  -0.0631
  C  C334  1  0.594740  0.059860  0.672700  1.0  0.1272
  C  C335  1  0.815460  0.815460  0.348600  1.0  -0.0836
  C  C336  1  0.757200  0.757200  0.448760  1.0  0.091
  C  C337  1  0.729100  0.729100  0.496860  1.0  0.128
  C  C338  1  0.703900  0.703900  0.540300  1.0  -0.0598
  C  C339  1  0.672700  0.672700  0.594740  1.0  0.1299
  C  C340  1  0.815460  0.815460  0.020480  1.0  -0.0829
  C  C341  1  0.757200  0.757200  0.036840  1.0  0.0908
  C  C342  1  0.729100  0.729100  0.044940  1.0  0.128
  C  C343  1  0.703900  0.703900  0.051900  1.0  -0.0603
  C  C344  1  0.672700  0.672700  0.059860  1.0  0.1289
  C  C345  1  0.815460  0.348600  0.815460  1.0  -0.0808
  C  C346  1  0.757200  0.448760  0.757200  1.0  0.0893
  C  C347  1  0.729100  0.496860  0.729100  1.0  0.127
  C  C348  1  0.703900  0.540300  0.703900  1.0  -0.0601
  C  C349  1  0.672700  0.594740  0.672700  1.0  0.1308
  C  C350  1  0.815460  0.020480  0.815460  1.0  -0.0828
  C  C351  1  0.757200  0.036840  0.757200  1.0  0.0935
  C  C352  1  0.729100  0.044940  0.729100  1.0  0.1277
  C  C353  1  0.703900  0.051900  0.703900  1.0  -0.0611
  C  C354  1  0.672700  0.059860  0.672700  1.0  0.1303
  C  C355  1  0.348600  0.815460  0.020480  1.0  -0.0818
  C  C356  1  0.448760  0.757200  0.036840  1.0  0.0912
  C  C357  1  0.496860  0.729100  0.044940  1.0  0.1272
  C  C358  1  0.540300  0.703900  0.051900  1.0  -0.0626
  C  C359  1  0.594740  0.672700  0.059860  1.0  0.127
  C  C360  1  0.020480  0.815460  0.348600  1.0  -0.0833
  C  C361  1  0.036840  0.757200  0.448760  1.0  0.0929
  C  C362  1  0.044940  0.729100  0.496860  1.0  0.1263
  C  C363  1  0.051900  0.703900  0.540300  1.0  -0.0591
  C  C364  1  0.059860  0.672700  0.594740  1.0  0.129
  C  C365  1  0.815460  0.348600  0.020480  1.0  -0.081
  C  C366  1  0.757200  0.448760  0.036840  1.0  0.0895
  C  C367  1  0.729100  0.496860  0.044940  1.0  0.1279
  C  C368  1  0.703900  0.540300  0.051900  1.0  -0.0599
  C  C369  1  0.672700  0.594740  0.059860  1.0  0.1314
  C  C370  1  0.815460  0.020480  0.348600  1.0  -0.0835
  C  C371  1  0.757200  0.036840  0.448760  1.0  0.0912
  C  C372  1  0.729100  0.044940  0.496860  1.0  0.1263
  C  C373  1  0.703900  0.051900  0.540300  1.0  -0.06
  C  C374  1  0.672700  0.059860  0.594740  1.0  0.1285
  C  C375  1  0.020480  0.815460  0.815460  1.0  -0.0826
  C  C376  1  0.036840  0.757200  0.757200  1.0  0.094
  C  C377  1  0.044940  0.729100  0.729100  1.0  0.1273
  C  C378  1  0.051900  0.703900  0.703900  1.0  -0.0602
  C  C379  1  0.059860  0.672700  0.672700  1.0  0.1304
  C  C380  1  0.348600  0.815460  0.815460  1.0  -0.0816
  C  C381  1  0.448760  0.757200  0.757200  1.0  0.0901
  C  C382  1  0.496860  0.729100  0.729100  1.0  0.1264
  C  C383  1  0.540300  0.703900  0.703900  1.0  -0.0629
  C  C384  1  0.594740  0.672700  0.672700  1.0  0.1267
  C  C385  1  0.380500  0.938300  0.300700  1.0  0.0367
  C  C386  1  0.938300  0.380500  0.380500  1.0  0.0374
  C  C387  1  0.300700  0.380500  0.380500  1.0  0.0365
  C  C388  1  0.380500  0.300700  0.938300  1.0  0.0353
  C  C389  1  0.380500  0.300700  0.380500  1.0  0.0366
  C  C390  1  0.938300  0.380500  0.300700  1.0  0.0357
  C  C391  1  0.300700  0.380500  0.938300  1.0  0.0355
  C  C392  1  0.380500  0.938300  0.380500  1.0  0.0382
  C  C393  1  0.380500  0.380500  0.938300  1.0  0.0383
  C  C394  1  0.938300  0.300700  0.380500  1.0  0.0368
  C  C395  1  0.300700  0.938300  0.380500  1.0  0.0384
  C  C396  1  0.380500  0.380500  0.300700  1.0  0.0378
  C  C397  1  0.061700  0.619500  0.699300  1.0  0.0382
  C  C398  1  0.619500  0.061700  0.619500  1.0  0.0374
  C  C399  1  0.619500  0.699300  0.619500  1.0  0.0344
  C  C400  1  0.699300  0.619500  0.061700  1.0  0.0393
  C  C401  1  0.699300  0.619500  0.619500  1.0  0.0373
  C  C402  1  0.619500  0.061700  0.699300  1.0  0.037
  C  C403  1  0.619500  0.699300  0.061700  1.0  0.0351
  C  C404  1  0.061700  0.619500  0.619500  1.0  0.037
  C  C405  1  0.619500  0.619500  0.061700  1.0  0.0361
  C  C406  1  0.699300  0.061700  0.619500  1.0  0.0393
  C  C407  1  0.061700  0.699300  0.619500  1.0  0.0373
  C  C408  1  0.619500  0.619500  0.699300  1.0  0.0375
  O  O409  1  0.696170  0.986670  0.079030  1.0  -0.6447
  O  O410  1  0.623710  0.986030  0.079190  1.0  -0.6692
  O  O411  1  0.986670  0.696170  0.238130  1.0  -0.6452
  O  O412  1  0.986030  0.623710  0.311070  1.0  -0.6705
  O  O413  1  0.079030  0.238130  0.696170  1.0  -0.6446
  O  O414  1  0.079190  0.311070  0.623710  1.0  -0.6712
  O  O415  1  0.238130  0.079030  0.986670  1.0  -0.6435
  O  O416  1  0.311070  0.079190  0.986030  1.0  -0.6704
  O  O417  1  0.696170  0.079030  0.238130  1.0  -0.6446
  O  O418  1  0.623710  0.079190  0.311070  1.0  -0.6694
  O  O419  1  0.986670  0.238130  0.079030  1.0  -0.6451
  O  O420  1  0.986030  0.311070  0.079190  1.0  -0.6706
  O  O421  1  0.079030  0.696170  0.986670  1.0  -0.6456
  O  O422  1  0.079190  0.623710  0.986030  1.0  -0.6697
  O  O423  1  0.238130  0.986670  0.696170  1.0  -0.6422
  O  O424  1  0.311070  0.986030  0.623710  1.0  -0.671
  O  O425  1  0.696170  0.238130  0.986670  1.0  -0.6462
  O  O426  1  0.623710  0.311070  0.986030  1.0  -0.6719
  O  O427  1  0.986670  0.079030  0.696170  1.0  -0.6438
  O  O428  1  0.986030  0.079190  0.623710  1.0  -0.6693
  O  O429  1  0.079030  0.986670  0.238130  1.0  -0.6446
  O  O430  1  0.079190  0.986030  0.311070  1.0  -0.6688
  O  O431  1  0.238130  0.696170  0.079030  1.0  -0.6465
  O  O432  1  0.311070  0.623710  0.079190  1.0  -0.6717
  O  O433  1  0.013330  0.303830  0.920970  1.0  -0.6453
  O  O434  1  0.013970  0.376290  0.920810  1.0  -0.6708
  O  O435  1  0.303830  0.013330  0.761870  1.0  -0.6435
  O  O436  1  0.376290  0.013970  0.688930  1.0  -0.6689
  O  O437  1  0.761870  0.920970  0.303830  1.0  -0.6443
  O  O438  1  0.688930  0.920810  0.376290  1.0  -0.6688
  O  O439  1  0.920970  0.761870  0.013330  1.0  -0.6453
  O  O440  1  0.920810  0.688930  0.013970  1.0  -0.671
  O  O441  1  0.920970  0.303830  0.761870  1.0  -0.6454
  O  O442  1  0.920810  0.376290  0.688930  1.0  -0.6709
  O  O443  1  0.761870  0.013330  0.920970  1.0  -0.6438
  O  O444  1  0.688930  0.013970  0.920810  1.0  -0.6704
  O  O445  1  0.303830  0.920970  0.013330  1.0  -0.6438
  O  O446  1  0.376290  0.920810  0.013970  1.0  -0.669
  O  O447  1  0.013330  0.761870  0.303830  1.0  -0.6457
  O  O448  1  0.013970  0.688930  0.376290  1.0  -0.6699
  O  O449  1  0.761870  0.303830  0.013330  1.0  -0.6458
  O  O450  1  0.688930  0.376290  0.013970  1.0  -0.6716
  O  O451  1  0.920970  0.013330  0.303830  1.0  -0.6446
  O  O452  1  0.920810  0.013970  0.376290  1.0  -0.6683
  O  O453  1  0.013330  0.920970  0.761870  1.0  -0.6434
  O  O454  1  0.013970  0.920810  0.688930  1.0  -0.6681
  O  O455  1  0.303830  0.761870  0.920970  1.0  -0.6459
  O  O456  1  0.376290  0.688930  0.920810  1.0  -0.6713
  O  O457  1  0.303830  0.013330  0.920970  1.0  -0.644
  O  O458  1  0.376290  0.013970  0.920810  1.0  -0.6694
  O  O459  1  0.013330  0.303830  0.761870  1.0  -0.6448
  O  O460  1  0.013970  0.376290  0.688930  1.0  -0.6703
  O  O461  1  0.920970  0.761870  0.303830  1.0  -0.6458
  O  O462  1  0.920810  0.688930  0.376290  1.0  -0.6708
  O  O463  1  0.761870  0.920970  0.013330  1.0  -0.6444
  O  O464  1  0.688930  0.920810  0.013970  1.0  -0.6696
  O  O465  1  0.303830  0.920970  0.761870  1.0  -0.6427
  O  O466  1  0.376290  0.920810  0.688930  1.0  -0.6695
  O  O467  1  0.013330  0.761870  0.920970  1.0  -0.6451
  O  O468  1  0.013970  0.688930  0.920810  1.0  -0.6698
  O  O469  1  0.920970  0.303830  0.013330  1.0  -0.646
  O  O470  1  0.920810  0.376290  0.013970  1.0  -0.6707
  O  O471  1  0.761870  0.013330  0.303830  1.0  -0.6438
  O  O472  1  0.688930  0.013970  0.376290  1.0  -0.67
  O  O473  1  0.303830  0.761870  0.013330  1.0  -0.6461
  O  O474  1  0.376290  0.688930  0.013970  1.0  -0.671
  O  O475  1  0.013330  0.920970  0.303830  1.0  -0.6443
  O  O476  1  0.013970  0.920810  0.376290  1.0  -0.6668
  O  O477  1  0.920970  0.013330  0.761870  1.0  -0.6438
  O  O478  1  0.920810  0.013970  0.688930  1.0  -0.6691
  O  O479  1  0.761870  0.303830  0.920970  1.0  -0.6456
  O  O480  1  0.688930  0.376290  0.920810  1.0  -0.6713
  O  O481  1  0.986670  0.696170  0.079030  1.0  -0.6451
  O  O482  1  0.986030  0.623710  0.079190  1.0  -0.6699
  O  O483  1  0.696170  0.986670  0.238130  1.0  -0.6445
  O  O484  1  0.623710  0.986030  0.311070  1.0  -0.6694
  O  O485  1  0.238130  0.079030  0.696170  1.0  -0.6432
  O  O486  1  0.311070  0.079190  0.623710  1.0  -0.6705
  O  O487  1  0.079030  0.238130  0.986670  1.0  -0.6445
  O  O488  1  0.079190  0.311070  0.986030  1.0  -0.6712
  O  O489  1  0.079030  0.696170  0.238130  1.0  -0.6455
  O  O490  1  0.079190  0.623710  0.311070  1.0  -0.6696
  O  O491  1  0.238130  0.986670  0.079030  1.0  -0.6433
  O  O492  1  0.311070  0.986030  0.079190  1.0  -0.6707
  O  O493  1  0.696170  0.079030  0.986670  1.0  -0.6446
  O  O494  1  0.623710  0.079190  0.986030  1.0  -0.6699
  O  O495  1  0.986670  0.238130  0.696170  1.0  -0.6445
  O  O496  1  0.986030  0.311070  0.623710  1.0  -0.671
  O  O497  1  0.238130  0.696170  0.986670  1.0  -0.6461
  O  O498  1  0.311070  0.623710  0.986030  1.0  -0.6716
  O  O499  1  0.079030  0.986670  0.696170  1.0  -0.6436
  O  O500  1  0.079190  0.986030  0.623710  1.0  -0.6701
  O  O501  1  0.986670  0.079030  0.238130  1.0  -0.6446
  O  O502  1  0.986030  0.079190  0.311070  1.0  -0.6682
  O  O503  1  0.696170  0.238130  0.079030  1.0  -0.6464
  O  O504  1  0.623710  0.311070  0.079190  1.0  -0.6721
