# generated using pymatgen
data_Ag2H8C17(O2F3)2
_symmetry_space_group_name_H-M   'P 1'
_cell_length_a   6.76810000
_cell_length_b   30.98400000
_cell_length_c   30.98400000
_cell_angle_alpha   90.00000000
_cell_angle_beta   90.00000000
_cell_angle_gamma   90.00000000
_symmetry_Int_Tables_number   1
_chemical_formula_structural   Ag2H8C17(O2F3)2
_chemical_formula_sum   'Ag16 H64 C136 O32 F48'
_cell_volume   6497.43187743
_cell_formula_units_Z   8
loop_
 _symmetry_equiv_pos_site_id
 _symmetry_equiv_pos_as_xyz
  1  'x, y, z'
loop_
 _atom_site_type_symbol
 _atom_site_label
 _atom_site_symmetry_multiplicity
 _atom_site_fract_x
 _atom_site_fract_y
 _atom_site_fract_z
 _atom_site_occupancy
 _atom_site_charge
  Ag  Ag1  1  0.075330  0.558720  0.520250  1.0  0.2926
  Ag  Ag2  1  0.637250  0.543290  0.490460  1.0  0.4368
  Ag  Ag3  1  0.075330  0.941280  0.979750  1.0  0.293
  Ag  Ag4  1  0.637250  0.956710  0.009540  1.0  0.4363
  Ag  Ag5  1  0.424670  0.520250  0.941280  1.0  0.2991
  Ag  Ag6  1  0.862750  0.490460  0.956710  1.0  0.4368
  Ag  Ag7  1  0.424670  0.979750  0.558720  1.0  0.3014
  Ag  Ag8  1  0.862750  0.009540  0.543290  1.0  0.4366
  Ag  Ag9  1  0.575330  0.479750  0.058720  1.0  0.301
  Ag  Ag10  1  0.137250  0.509540  0.043280  1.0  0.4374
  Ag  Ag11  1  0.575330  0.020250  0.441280  1.0  0.2987
  Ag  Ag12  1  0.137250  0.990460  0.456710  1.0  0.4369
  Ag  Ag13  1  0.924670  0.441280  0.479750  1.0  0.2939
  Ag  Ag14  1  0.362750  0.456710  0.509540  1.0  0.4362
  Ag  Ag15  1  0.924670  0.058720  0.020250  1.0  0.2927
  Ag  Ag16  1  0.362750  0.043280  0.990460  1.0  0.4371
  H  H17  1  0.050300  0.700800  0.449800  1.0  0.1324
  H  H18  1  0.952400  0.766100  0.419700  1.0  0.1171
  H  H19  1  0.436500  0.713300  0.384400  1.0  0.118
  H  H20  1  0.533600  0.648800  0.413700  1.0  0.121
  H  H21  1  0.627600  0.795000  0.466400  1.0  0.1299
  H  H22  1  0.654300  0.852500  0.513200  1.0  0.1303
  H  H23  1  0.783200  0.930400  0.413800  1.0  0.1166
  H  H24  1  0.736200  0.874600  0.366500  1.0  0.1271
  H  H25  1  0.050300  0.799200  0.050200  1.0  0.1329
  H  H26  1  0.952400  0.733900  0.080300  1.0  0.1177
  H  H27  1  0.436500  0.786700  0.115600  1.0  0.118
  H  H28  1  0.533600  0.851200  0.086300  1.0  0.1212
  H  H29  1  0.627600  0.705000  0.033600  1.0  0.1307
  H  H30  1  0.654300  0.647500  0.986800  1.0  0.1311
  H  H31  1  0.783200  0.569600  0.086200  1.0  0.1167
  H  H32  1  0.736200  0.625400  0.133500  1.0  0.1268
  H  H33  1  0.449700  0.449800  0.799200  1.0  0.1325
  H  H34  1  0.547600  0.419700  0.733900  1.0  0.1169
  H  H35  1  0.063500  0.384400  0.786700  1.0  0.1182
  H  H36  1  0.966400  0.413700  0.851200  1.0  0.1194
  H  H37  1  0.872400  0.466400  0.705000  1.0  0.1306
  H  H38  1  0.845700  0.513200  0.647500  1.0  0.131
  H  H39  1  0.716800  0.413800  0.569600  1.0  0.1169
  H  H40  1  0.763800  0.366500  0.625400  1.0  0.1253
  H  H41  1  0.449700  0.050200  0.700800  1.0  0.133
  H  H42  1  0.547600  0.080300  0.766100  1.0  0.1168
  H  H43  1  0.063500  0.115600  0.713300  1.0  0.118
  H  H44  1  0.966400  0.086300  0.648800  1.0  0.1202
  H  H45  1  0.872400  0.033600  0.795000  1.0  0.1304
  H  H46  1  0.845700  0.986800  0.852500  1.0  0.1308
  H  H47  1  0.716800  0.086200  0.930400  1.0  0.1173
  H  H48  1  0.763800  0.133500  0.874600  1.0  0.125
  H  H49  1  0.550300  0.550200  0.200800  1.0  0.1324
  H  H50  1  0.452400  0.580300  0.266100  1.0  0.117
  H  H51  1  0.936500  0.615600  0.213300  1.0  0.1176
  H  H52  1  0.033600  0.586300  0.148800  1.0  0.12
  H  H53  1  0.127600  0.533600  0.295000  1.0  0.1304
  H  H54  1  0.154300  0.486800  0.352500  1.0  0.1307
  H  H55  1  0.283200  0.586200  0.430400  1.0  0.1168
  H  H56  1  0.236200  0.633500  0.374600  1.0  0.1249
  H  H57  1  0.550300  0.949800  0.299200  1.0  0.1321
  H  H58  1  0.452400  0.919700  0.233900  1.0  0.1172
  H  H59  1  0.936500  0.884400  0.286700  1.0  0.1179
  H  H60  1  0.033600  0.913700  0.351200  1.0  0.1194
  H  H61  1  0.127600  0.966400  0.205000  1.0  0.1306
  H  H62  1  0.154300  0.013200  0.147500  1.0  0.1312
  H  H63  1  0.283200  0.913800  0.069600  1.0  0.1163
  H  H64  1  0.236200  0.866500  0.125400  1.0  0.1252
  H  H65  1  0.949700  0.299200  0.550200  1.0  0.1332
  H  H66  1  0.047600  0.233900  0.580300  1.0  0.117
  H  H67  1  0.563500  0.286700  0.615600  1.0  0.118
  H  H68  1  0.466400  0.351200  0.586300  1.0  0.1212
  H  H69  1  0.372400  0.205000  0.533600  1.0  0.1309
  H  H70  1  0.345700  0.147500  0.486800  1.0  0.1312
  H  H71  1  0.216800  0.069600  0.586200  1.0  0.1162
  H  H72  1  0.263800  0.125400  0.633500  1.0  0.127
  H  H73  1  0.949700  0.200800  0.949800  1.0  0.1333
  H  H74  1  0.047600  0.266100  0.919700  1.0  0.1174
  H  H75  1  0.563500  0.213300  0.884400  1.0  0.1182
  H  H76  1  0.466400  0.148800  0.913700  1.0  0.121
  H  H77  1  0.372400  0.295000  0.966400  1.0  0.1298
  H  H78  1  0.345700  0.352500  0.013200  1.0  0.1303
  H  H79  1  0.216800  0.430400  0.913800  1.0  0.1163
  H  H80  1  0.263800  0.374600  0.866500  1.0  0.1272
  C  C81  1  0.848800  0.625190  0.455000  1.0  0.7611
  C  C82  1  0.800900  0.667830  0.435060  1.0  -0.1323
  C  C83  1  0.927000  0.703240  0.436800  1.0  -0.0328
  C  C84  1  0.867400  0.742510  0.418880  1.0  -0.1038
  C  C85  1  0.681600  0.746840  0.399680  1.0  0.0829
  C  C86  1  0.559400  0.711120  0.397690  1.0  -0.1399
  C  C87  1  0.618000  0.672390  0.415190  1.0  -0.0037
  C  C88  1  0.627000  0.790910  0.380210  1.0  -0.2861
  C  C89  1  0.404300  0.794800  0.370760  1.0  0.7011
  C  C90  1  0.739700  0.794090  0.336530  1.0  0.7126
  C  C91  1  0.676800  0.828370  0.410990  1.0  0.1024
  C  C92  1  0.654600  0.822420  0.455630  1.0  -0.123
  C  C93  1  0.672500  0.856760  0.483790  1.0  -0.0245
  C  C94  1  0.717800  0.897810  0.468160  1.0  -0.1111
  C  C95  1  0.722300  0.935350  0.498070  1.0  0.7224
  C  C96  1  0.746700  0.903400  0.424270  1.0  -0.0333
  C  C97  1  0.722300  0.869800  0.395960  1.0  -0.1408
  C  C98  1  0.848800  0.874810  0.045000  1.0  0.7559
  C  C99  1  0.800900  0.832170  0.064940  1.0  -0.1309
  C  C100  1  0.927000  0.796760  0.063200  1.0  -0.0266
  C  C101  1  0.867400  0.757490  0.081120  1.0  -0.1034
  C  C102  1  0.681600  0.753160  0.100320  1.0  0.0829
  C  C103  1  0.559400  0.788880  0.102310  1.0  -0.1398
  C  C104  1  0.618000  0.827610  0.084810  1.0  -0.0035
  C  C105  1  0.627000  0.709090  0.119790  1.0  -0.2861
  C  C106  1  0.404300  0.705200  0.129240  1.0  0.7017
  C  C107  1  0.739700  0.705910  0.163470  1.0  0.7123
  C  C108  1  0.676800  0.671630  0.089010  1.0  0.102
  C  C109  1  0.654600  0.677580  0.044370  1.0  -0.1174
  C  C110  1  0.672500  0.643240  0.016210  1.0  -0.0217
  C  C111  1  0.717800  0.602190  0.031840  1.0  -0.1117
  C  C112  1  0.722300  0.564650  0.001930  1.0  0.7229
  C  C113  1  0.746700  0.596600  0.075730  1.0  -0.0319
  C  C114  1  0.722300  0.630200  0.104040  1.0  -0.1446
  C  C115  1  0.651200  0.455000  0.874810  1.0  0.7543
  C  C116  1  0.699100  0.435060  0.832170  1.0  -0.1344
  C  C117  1  0.573000  0.436800  0.796760  1.0  -0.0322
  C  C118  1  0.632600  0.418880  0.757490  1.0  -0.107
  C  C119  1  0.818400  0.399680  0.753160  1.0  0.0819
  C  C120  1  0.940600  0.397690  0.788880  1.0  -0.143
  C  C121  1  0.882000  0.415190  0.827610  1.0  -0.0057
  C  C122  1  0.873000  0.380210  0.709090  1.0  -0.2856
  C  C123  1  0.095700  0.370760  0.705200  1.0  0.6985
  C  C124  1  0.760300  0.336530  0.705910  1.0  0.7127
  C  C125  1  0.823200  0.410990  0.671630  1.0  0.1036
  C  C126  1  0.845400  0.455630  0.677580  1.0  -0.1228
  C  C127  1  0.827500  0.483790  0.643240  1.0  -0.0164
  C  C128  1  0.782200  0.468160  0.602190  1.0  -0.1156
  C  C129  1  0.777700  0.498070  0.564650  1.0  0.7201
  C  C130  1  0.753300  0.424270  0.596600  1.0  -0.0347
  C  C131  1  0.777700  0.395960  0.630200  1.0  -0.1415
  C  C132  1  0.651200  0.045000  0.625190  1.0  0.753
  C  C133  1  0.699100  0.064940  0.667830  1.0  -0.1346
  C  C134  1  0.573000  0.063200  0.703240  1.0  -0.032
  C  C135  1  0.632600  0.081120  0.742510  1.0  -0.1071
  C  C136  1  0.818400  0.100320  0.746840  1.0  0.0824
  C  C137  1  0.940600  0.102310  0.711120  1.0  -0.143
  C  C138  1  0.882000  0.084810  0.672390  1.0  -0.0076
  C  C139  1  0.873000  0.119790  0.790910  1.0  -0.2856
  C  C140  1  0.095700  0.129240  0.794800  1.0  0.6984
  C  C141  1  0.760300  0.163470  0.794090  1.0  0.7124
  C  C142  1  0.823200  0.089010  0.828370  1.0  0.1029
  C  C143  1  0.845400  0.044370  0.822420  1.0  -0.1236
  C  C144  1  0.827500  0.016210  0.856760  1.0  -0.0209
  C  C145  1  0.782200  0.031840  0.897810  1.0  -0.1149
  C  C146  1  0.777700  0.001930  0.935350  1.0  0.7213
  C  C147  1  0.753300  0.075730  0.903400  1.0  -0.0345
  C  C148  1  0.777700  0.104040  0.869800  1.0  -0.1412
  C  C149  1  0.348800  0.545000  0.125190  1.0  0.753
  C  C150  1  0.300900  0.564940  0.167830  1.0  -0.1346
  C  C151  1  0.427000  0.563200  0.203240  1.0  -0.033
  C  C152  1  0.367400  0.581120  0.242510  1.0  -0.1073
  C  C153  1  0.181600  0.600320  0.246840  1.0  0.0825
  C  C154  1  0.059400  0.602310  0.211120  1.0  -0.1409
  C  C155  1  0.118000  0.584810  0.172390  1.0  -0.0065
  C  C156  1  0.127000  0.619790  0.290910  1.0  -0.2858
  C  C157  1  0.904300  0.629240  0.294800  1.0  0.7011
  C  C158  1  0.239700  0.663470  0.294090  1.0  0.7128
  C  C159  1  0.176800  0.589010  0.328370  1.0  0.1027
  C  C160  1  0.154600  0.544370  0.322420  1.0  -0.1223
  C  C161  1  0.172500  0.516210  0.356760  1.0  -0.0206
  C  C162  1  0.217800  0.531840  0.397810  1.0  -0.1158
  C  C163  1  0.222300  0.501930  0.435350  1.0  0.7211
  C  C164  1  0.246700  0.575730  0.403400  1.0  -0.0333
  C  C165  1  0.222300  0.604040  0.369800  1.0  -0.1413
  C  C166  1  0.348800  0.955000  0.374810  1.0  0.754
  C  C167  1  0.300900  0.935060  0.332170  1.0  -0.1344
  C  C168  1  0.427000  0.936800  0.296760  1.0  -0.0319
  C  C169  1  0.367400  0.918880  0.257490  1.0  -0.1062
  C  C170  1  0.181600  0.899680  0.253160  1.0  0.0821
  C  C171  1  0.059400  0.897690  0.288880  1.0  -0.1414
  C  C172  1  0.118000  0.915190  0.327610  1.0  -0.0054
  C  C173  1  0.127000  0.880210  0.209090  1.0  -0.2858
  C  C174  1  0.904300  0.870760  0.205200  1.0  0.7015
  C  C175  1  0.239700  0.836530  0.205910  1.0  0.7128
  C  C176  1  0.176800  0.910990  0.171630  1.0  0.1033
  C  C177  1  0.154600  0.955630  0.177580  1.0  -0.1221
  C  C178  1  0.172500  0.983790  0.143240  1.0  -0.0174
  C  C179  1  0.217800  0.968160  0.102190  1.0  -0.1164
  C  C180  1  0.222300  0.998070  0.064650  1.0  0.7198
  C  C181  1  0.246700  0.924270  0.096600  1.0  -0.0338
  C  C182  1  0.222300  0.895960  0.130200  1.0  -0.1415
  C  C183  1  0.151200  0.374810  0.545000  1.0  0.756
  C  C184  1  0.199100  0.332170  0.564940  1.0  -0.1301
  C  C185  1  0.073000  0.296760  0.563200  1.0  -0.026
  C  C186  1  0.132600  0.257490  0.581120  1.0  -0.1036
  C  C187  1  0.318400  0.253160  0.600320  1.0  0.0829
  C  C188  1  0.440600  0.288880  0.602310  1.0  -0.142
  C  C189  1  0.382000  0.327610  0.584810  1.0  -0.0043
  C  C190  1  0.373000  0.209090  0.619790  1.0  -0.2859
  C  C191  1  0.595700  0.205200  0.629240  1.0  0.6986
  C  C192  1  0.260300  0.205910  0.663470  1.0  0.7113
  C  C193  1  0.323200  0.171630  0.589010  1.0  0.1022
  C  C194  1  0.345400  0.177580  0.544370  1.0  -0.1186
  C  C195  1  0.327500  0.143240  0.516210  1.0  -0.0228
  C  C196  1  0.282200  0.102190  0.531840  1.0  -0.1113
  C  C197  1  0.277700  0.064650  0.501930  1.0  0.7233
  C  C198  1  0.253300  0.096600  0.575730  1.0  -0.0324
  C  C199  1  0.277700  0.130200  0.604040  1.0  -0.1446
  C  C200  1  0.151200  0.125190  0.955000  1.0  0.761
  C  C201  1  0.199100  0.167830  0.935060  1.0  -0.1323
  C  C202  1  0.073000  0.203240  0.936800  1.0  -0.0332
  C  C203  1  0.132600  0.242510  0.918880  1.0  -0.1042
  C  C204  1  0.318400  0.246840  0.899680  1.0  0.0827
  C  C205  1  0.440600  0.211120  0.897690  1.0  -0.142
  C  C206  1  0.382000  0.172390  0.915190  1.0  -0.0045
  C  C207  1  0.373000  0.290910  0.880210  1.0  -0.2858
  C  C208  1  0.595700  0.294800  0.870760  1.0  0.6985
  C  C209  1  0.260300  0.294090  0.836530  1.0  0.7126
  C  C210  1  0.323200  0.328370  0.910990  1.0  0.1028
  C  C211  1  0.345400  0.322420  0.955630  1.0  -0.1228
  C  C212  1  0.327500  0.356760  0.983790  1.0  -0.0244
  C  C213  1  0.282200  0.397810  0.968160  1.0  -0.111
  C  C214  1  0.277700  0.435350  0.998070  1.0  0.722
  C  C215  1  0.253300  0.403400  0.924270  1.0  -0.034
  C  C216  1  0.277700  0.369800  0.895960  1.0  -0.1408
  O  O217  1  0.738000  0.593880  0.445000  1.0  -0.6439
  O  O218  1  0.990500  0.621950  0.481040  1.0  -0.6531
  O  O219  1  0.665100  0.930770  0.536070  1.0  -0.5922
  O  O220  1  0.785000  0.971730  0.482560  1.0  -0.715
  O  O221  1  0.738000  0.906120  0.055000  1.0  -0.6447
  O  O222  1  0.990500  0.878050  0.018960  1.0  -0.6506
  O  O223  1  0.665100  0.569230  0.963930  1.0  -0.5926
  O  O224  1  0.785000  0.528270  0.017440  1.0  -0.7186
  O  O225  1  0.762000  0.445000  0.906120  1.0  -0.6467
  O  O226  1  0.509500  0.481040  0.878050  1.0  -0.6484
  O  O227  1  0.834900  0.536070  0.569230  1.0  -0.5906
  O  O228  1  0.715000  0.482560  0.528270  1.0  -0.7125
  O  O229  1  0.762000  0.055000  0.593880  1.0  -0.6477
  O  O230  1  0.509500  0.018960  0.621950  1.0  -0.6478
  O  O231  1  0.834900  0.963930  0.930770  1.0  -0.5909
  O  O232  1  0.715000  0.017440  0.971730  1.0  -0.714
  O  O233  1  0.238000  0.555000  0.093880  1.0  -0.6473
  O  O234  1  0.490500  0.518960  0.121950  1.0  -0.6481
  O  O235  1  0.165100  0.463930  0.430770  1.0  -0.5915
  O  O236  1  0.285000  0.517440  0.471730  1.0  -0.7151
  O  O237  1  0.238000  0.945000  0.406120  1.0  -0.6469
  O  O238  1  0.490500  0.981040  0.378050  1.0  -0.6491
  O  O239  1  0.165100  0.036070  0.069230  1.0  -0.5907
  O  O240  1  0.285000  0.982560  0.028270  1.0  -0.7138
  O  O241  1  0.262000  0.406120  0.555000  1.0  -0.6447
  O  O242  1  0.009500  0.378050  0.518960  1.0  -0.6479
  O  O243  1  0.334900  0.069230  0.463930  1.0  -0.5927
  O  O244  1  0.215000  0.028270  0.517440  1.0  -0.7171
  O  O245  1  0.262000  0.093880  0.945000  1.0  -0.6449
  O  O246  1  0.009500  0.121950  0.981040  1.0  -0.6515
  O  O247  1  0.334900  0.430770  0.036070  1.0  -0.5923
  O  O248  1  0.215000  0.471730  0.982560  1.0  -0.7139
  F  F249  1  0.343800  0.769770  0.338360  1.0  -0.174
  F  F250  1  0.298800  0.783860  0.405720  1.0  -0.1796
  F  F251  1  0.351400  0.835040  0.360560  1.0  -0.1889
  F  F252  1  0.728300  0.757510  0.314450  1.0  -0.1803
  F  F253  1  0.930300  0.802960  0.342860  1.0  -0.1615
  F  F254  1  0.667100  0.825490  0.310850  1.0  -0.1824
  F  F255  1  0.343800  0.730230  0.161640  1.0  -0.1751
  F  F256  1  0.298800  0.716140  0.094280  1.0  -0.1793
  F  F257  1  0.351400  0.664960  0.139440  1.0  -0.1877
  F  F258  1  0.728300  0.742490  0.185550  1.0  -0.1797
  F  F259  1  0.930300  0.697040  0.157140  1.0  -0.1621
  F  F260  1  0.667100  0.674510  0.189150  1.0  -0.1832
  F  F261  1  0.156200  0.338360  0.730230  1.0  -0.1729
  F  F262  1  0.201200  0.405720  0.716140  1.0  -0.1774
  F  F263  1  0.148600  0.360560  0.664960  1.0  -0.1895
  F  F264  1  0.771700  0.314450  0.742490  1.0  -0.1791
  F  F265  1  0.569700  0.342860  0.697040  1.0  -0.1627
  F  F266  1  0.832900  0.310850  0.674510  1.0  -0.1825
  F  F267  1  0.156200  0.161640  0.769770  1.0  -0.1715
  F  F268  1  0.201200  0.094280  0.783860  1.0  -0.1773
  F  F269  1  0.148600  0.139440  0.835040  1.0  -0.1892
  F  F270  1  0.771700  0.185550  0.757510  1.0  -0.1787
  F  F271  1  0.569700  0.157140  0.802960  1.0  -0.163
  F  F272  1  0.832900  0.189150  0.825490  1.0  -0.1834
  F  F273  1  0.843800  0.661640  0.269770  1.0  -0.1716
  F  F274  1  0.798800  0.594280  0.283860  1.0  -0.176
  F  F275  1  0.851400  0.639440  0.335040  1.0  -0.1895
  F  F276  1  0.228300  0.685550  0.257510  1.0  -0.1787
  F  F277  1  0.430300  0.657140  0.302960  1.0  -0.1624
  F  F278  1  0.167100  0.689150  0.325490  1.0  -0.1837
  F  F279  1  0.843800  0.838360  0.230230  1.0  -0.1726
  F  F280  1  0.798800  0.905720  0.216140  1.0  -0.1773
  F  F281  1  0.851400  0.860560  0.164960  1.0  -0.1894
  F  F282  1  0.228300  0.814450  0.242490  1.0  -0.1789
  F  F283  1  0.430300  0.842860  0.197040  1.0  -0.1626
  F  F284  1  0.167100  0.810850  0.174510  1.0  -0.1826
  F  F285  1  0.656200  0.230230  0.661640  1.0  -0.1743
  F  F286  1  0.701200  0.216140  0.594280  1.0  -0.1806
  F  F287  1  0.648600  0.164960  0.639440  1.0  -0.1878
  F  F288  1  0.271700  0.242490  0.685550  1.0  -0.1804
  F  F289  1  0.069700  0.197040  0.657140  1.0  -0.1628
  F  F290  1  0.332900  0.174510  0.689150  1.0  -0.1831
  F  F291  1  0.656200  0.269770  0.838360  1.0  -0.1736
  F  F292  1  0.701200  0.283860  0.905720  1.0  -0.1804
  F  F293  1  0.648600  0.335040  0.860560  1.0  -0.1882
  F  F294  1  0.271700  0.257510  0.814450  1.0  -0.1806
  F  F295  1  0.069700  0.302960  0.842860  1.0  -0.1626
  F  F296  1  0.332900  0.325490  0.810850  1.0  -0.1821
