# generated using pymatgen
data_Tb4H50C84O31
_symmetry_space_group_name_H-M   'P 1'
_cell_length_a   15.94510000
_cell_length_b   28.14800000
_cell_length_c   23.41600000
_cell_angle_alpha   90.00000000
_cell_angle_beta   107.83700000
_cell_angle_gamma   90.00000000
_symmetry_Int_Tables_number   1
_chemical_formula_structural   Tb4H50C84O31
_chemical_formula_sum   'Tb16 H200 C336 O124'
_cell_volume   10004.45251246
_cell_formula_units_Z   4
loop_
 _symmetry_equiv_pos_site_id
 _symmetry_equiv_pos_as_xyz
  1  'x, y, z'
loop_
 _atom_site_type_symbol
 _atom_site_label
 _atom_site_symmetry_multiplicity
 _atom_site_fract_x
 _atom_site_fract_y
 _atom_site_fract_z
 _atom_site_occupancy
 _atom_site_charge
  Tb  Tb1  1  0.606820  0.142520  0.694790  1.0  2.28
  Tb  Tb2  1  0.439870  0.140790  0.781220  1.0  2.2406
  Tb  Tb3  1  0.220240  0.105660  0.789910  1.0  2.2696
  Tb  Tb4  1  0.914840  0.130780  0.707010  1.0  2.2523
  Tb  Tb5  1  0.893180  0.642520  0.805210  1.0  2.2747
  Tb  Tb6  1  0.060130  0.640790  0.718780  1.0  2.2407
  Tb  Tb7  1  0.279760  0.605660  0.710090  1.0  2.2713
  Tb  Tb8  1  0.585160  0.630780  0.792990  1.0  2.2528
  Tb  Tb9  1  0.393180  0.857480  0.305210  1.0  2.2805
  Tb  Tb10  1  0.560130  0.859210  0.218780  1.0  2.2416
  Tb  Tb11  1  0.779760  0.894340  0.210090  1.0  2.2721
  Tb  Tb12  1  0.085160  0.869220  0.292990  1.0  2.2534
  Tb  Tb13  1  0.106820  0.357480  0.194790  1.0  2.2762
  Tb  Tb14  1  0.939870  0.359210  0.281220  1.0  2.2414
  Tb  Tb15  1  0.720240  0.394340  0.289910  1.0  2.2699
  Tb  Tb16  1  0.414840  0.369220  0.207010  1.0  2.2528
  H  H17  1  0.859100  0.989100  0.674600  1.0  0.0899
  H  H18  1  0.596900  0.006300  0.627500  1.0  0.0952
  H  H19  1  0.839800  0.907900  0.664200  1.0  0.1098
  H  H20  1  0.579000  0.925300  0.613000  1.0  0.1159
  H  H21  1  0.766100  0.820400  0.559800  1.0  0.1036
  H  H22  1  0.761500  0.826900  0.726400  1.0  0.1098
  H  H23  1  0.860100  0.755700  0.583300  1.0  0.1045
  H  H24  1  0.852400  0.761100  0.750300  1.0  0.0776
  H  H25  1  0.369400  0.067300  0.532400  1.0  0.0958
  H  H26  1  0.257800  0.140900  0.634100  1.0  0.0836
  H  H27  1  0.231300  0.052800  0.464300  1.0  0.0967
  H  H28  1  0.119200  0.127600  0.566200  1.0  0.1177
  H  H29  1  0.124600  0.996600  0.491100  1.0  0.1129
  H  H30  1  0.960600  0.081900  0.371900  1.0  0.119
  H  H31  1  0.062000  0.931700  0.433000  1.0  0.096
  H  H32  1  0.889700  0.016300  0.320700  1.0  0.0902
  H  H33  1  0.626400  0.008800  0.744800  1.0  0.0809
  H  H34  1  0.659700  0.037100  0.916600  1.0  0.1023
  H  H35  1  0.712300  0.940700  0.772800  1.0  0.1153
  H  H36  1  0.748200  0.971400  0.943900  1.0  0.112
  H  H37  1  0.899700  0.845600  0.895400  1.0  0.0998
  H  H38  1  0.641900  0.872700  0.824900  1.0  0.096
  H  H39  1  0.875000  0.766900  0.869600  1.0  0.1016
  H  H40  1  0.615700  0.792900  0.804200  1.0  0.0865
  H  H41  1  0.499600  0.171100  0.944700  1.0  0.1064
  H  H42  1  0.345100  0.083500  0.001900  1.0  0.0981
  H  H43  1  0.580900  0.186000  0.044100  1.0  0.1104
  H  H44  1  0.429400  0.095400  0.099400  1.0  0.1075
  H  H45  1  0.526700  0.238900  0.133700  1.0  0.121
  H  H46  1  0.716800  0.141500  0.191800  1.0  0.1285
  H  H47  1  0.625500  0.298800  0.177200  1.0  0.098
  H  H48  1  0.816100  0.201000  0.235500  1.0  0.1018
  H  H49  1  0.209300  0.261100  0.842900  1.0  0.0973
  H  H50  1  0.951700  0.243800  0.802800  1.0  0.0925
  H  H51  1  0.193200  0.340900  0.861200  1.0  0.1225
  H  H52  1  0.935500  0.322400  0.823000  1.0  0.1153
  H  H53  1  0.081300  0.382300  0.749600  1.0  0.0972
  H  H54  1  0.071200  0.472900  0.877400  1.0  0.1292
  H  H55  1  0.131600  0.442200  0.701400  1.0  0.0982
  H  H56  1  0.114800  0.532700  0.826500  1.0  0.0675
  H  H57  1  0.147900  0.028800  0.905900  1.0  0.0966
  H  H58  1  0.939600  0.974600  0.785100  1.0  0.0804
  H  H59  1  0.154300  0.962900  0.965600  1.0  0.0942
  H  H60  1  0.953300  0.905800  0.840400  1.0  0.1076
  H  H61  1  0.219900  0.868000  0.000900  1.0  0.1155
  H  H62  1  0.988900  0.903400  0.018700  1.0  0.1135
  H  H63  1  0.278800  0.860000  0.104800  1.0  0.088
  H  H64  1  0.044400  0.893300  0.122200  1.0  0.0899
  H  H65  1  0.884500  0.172100  0.571400  1.0  0.4231
  H  H66  1  0.835100  0.145700  0.598500  1.0  0.3976
  H  H67  1  0.640900  0.489100  0.825400  1.0  0.0899
  H  H68  1  0.903100  0.506300  0.872500  1.0  0.0959
  H  H69  1  0.660200  0.407900  0.835800  1.0  0.1094
  H  H70  1  0.921000  0.425300  0.887000  1.0  0.1167
  H  H71  1  0.733900  0.320400  0.940200  1.0  0.1035
  H  H72  1  0.738500  0.326900  0.773600  1.0  0.1104
  H  H73  1  0.639900  0.255700  0.916700  1.0  0.1045
  H  H74  1  0.647600  0.261100  0.749700  1.0  0.0776
  H  H75  1  0.130600  0.567300  0.967600  1.0  0.0962
  H  H76  1  0.242200  0.640900  0.865900  1.0  0.0838
  H  H77  1  0.268700  0.552800  0.035700  1.0  0.0963
  H  H78  1  0.380800  0.627600  0.933800  1.0  0.1184
  H  H79  1  0.375400  0.496600  0.008900  1.0  0.1129
  H  H80  1  0.539400  0.581900  0.128100  1.0  0.1183
  H  H81  1  0.438000  0.431700  0.067000  1.0  0.0959
  H  H82  1  0.610300  0.516300  0.179300  1.0  0.0906
  H  H83  1  0.873600  0.508800  0.755200  1.0  0.0818
  H  H84  1  0.840300  0.537100  0.583400  1.0  0.1025
  H  H85  1  0.787700  0.440700  0.727200  1.0  0.115
  H  H86  1  0.751800  0.471400  0.556100  1.0  0.1118
  H  H87  1  0.600300  0.345600  0.604600  1.0  0.0993
  H  H88  1  0.858100  0.372700  0.675100  1.0  0.0956
  H  H89  1  0.625000  0.266900  0.630400  1.0  0.1021
  H  H90  1  0.884300  0.292900  0.695800  1.0  0.0862
  H  H91  1  0.000400  0.671100  0.555300  1.0  0.1059
  H  H92  1  0.154900  0.583500  0.498100  1.0  0.0985
  H  H93  1  0.919100  0.686000  0.455900  1.0  0.1102
  H  H94  1  0.070600  0.595400  0.400600  1.0  0.1076
  H  H95  1  0.973300  0.738900  0.366300  1.0  0.1197
  H  H96  1  0.783200  0.641500  0.308200  1.0  0.1281
  H  H97  1  0.874500  0.798800  0.322800  1.0  0.0982
  H  H98  1  0.683900  0.701000  0.264500  1.0  0.101
  H  H99  1  0.290700  0.761100  0.657100  1.0  0.0953
  H  H100  1  0.548300  0.743800  0.697200  1.0  0.0931
  H  H101  1  0.306800  0.840900  0.638800  1.0  0.1225
  H  H102  1  0.564500  0.822400  0.677000  1.0  0.115
  H  H103  1  0.418700  0.882300  0.750400  1.0  0.0969
  H  H104  1  0.428800  0.972900  0.622600  1.0  0.1296
  H  H105  1  0.368400  0.942200  0.798600  1.0  0.0981
  H  H106  1  0.385200  0.032700  0.673500  1.0  0.0671
  H  H107  1  0.352100  0.528800  0.594100  1.0  0.0965
  H  H108  1  0.560400  0.474600  0.714900  1.0  0.0804
  H  H109  1  0.345700  0.462900  0.534400  1.0  0.0954
  H  H110  1  0.546700  0.405800  0.659600  1.0  0.108
  H  H111  1  0.280100  0.368000  0.499100  1.0  0.1157
  H  H112  1  0.511100  0.403400  0.481300  1.0  0.1122
  H  H113  1  0.221200  0.360000  0.395200  1.0  0.0871
  H  H114  1  0.455600  0.393300  0.377800  1.0  0.0897
  H  H115  1  0.615500  0.672100  0.928600  1.0  0.4227
  H  H116  1  0.664900  0.645700  0.901500  1.0  0.3978
  H  H117  1  0.140900  0.010900  0.325400  1.0  0.0901
  H  H118  1  0.403100  0.993700  0.372500  1.0  0.0959
  H  H119  1  0.160200  0.092100  0.335800  1.0  0.1096
  H  H120  1  0.421000  0.074700  0.387000  1.0  0.1162
  H  H121  1  0.233900  0.179600  0.440200  1.0  0.1027
  H  H122  1  0.238500  0.173100  0.273600  1.0  0.1109
  H  H123  1  0.139900  0.244300  0.416700  1.0  0.1043
  H  H124  1  0.147600  0.238900  0.249700  1.0  0.0776
  H  H125  1  0.630600  0.932700  0.467600  1.0  0.0957
  H  H126  1  0.742200  0.859100  0.365900  1.0  0.084
  H  H127  1  0.768700  0.947200  0.535700  1.0  0.0963
  H  H128  1  0.880800  0.872400  0.433800  1.0  0.1182
  H  H129  1  0.875400  0.003400  0.508900  1.0  0.1127
  H  H130  1  0.039400  0.918100  0.628100  1.0  0.1181
  H  H131  1  0.938000  0.068300  0.567000  1.0  0.096
  H  H132  1  0.110300  0.983700  0.679300  1.0  0.0908
  H  H133  1  0.373600  0.991200  0.255200  1.0  0.082
  H  H134  1  0.340300  0.962900  0.083400  1.0  0.1028
  H  H135  1  0.287700  0.059300  0.227200  1.0  0.1146
  H  H136  1  0.251800  0.028600  0.056100  1.0  0.1119
  H  H137  1  0.100300  0.154400  0.104600  1.0  0.0993
  H  H138  1  0.358100  0.127300  0.175100  1.0  0.0956
  H  H139  1  0.125000  0.233100  0.130400  1.0  0.1027
  H  H140  1  0.384300  0.207100  0.195800  1.0  0.0864
  H  H141  1  0.500400  0.828900  0.055300  1.0  0.1062
  H  H142  1  0.654900  0.916500  0.998100  1.0  0.0983
  H  H143  1  0.419100  0.814000  0.955900  1.0  0.1101
  H  H144  1  0.570600  0.904600  0.900600  1.0  0.1109
  H  H145  1  0.473300  0.761100  0.866300  1.0  0.1199
  H  H146  1  0.283200  0.858500  0.808200  1.0  0.128
  H  H147  1  0.374500  0.701200  0.822800  1.0  0.098
  H  H148  1  0.183900  0.799000  0.764500  1.0  0.1008
  H  H149  1  0.790700  0.738900  0.157100  1.0  0.0956
  H  H150  1  0.048300  0.756200  0.197200  1.0  0.0932
  H  H151  1  0.806800  0.659100  0.138800  1.0  0.1222
  H  H152  1  0.064500  0.677600  0.177000  1.0  0.1151
  H  H153  1  0.918700  0.617700  0.250400  1.0  0.0977
  H  H154  1  0.928800  0.527100  0.122600  1.0  0.1296
  H  H155  1  0.868400  0.557800  0.298600  1.0  0.098
  H  H156  1  0.885200  0.467300  0.173500  1.0  0.0666
  H  H157  1  0.852100  0.971200  0.094100  1.0  0.0963
  H  H158  1  0.060400  0.025400  0.214900  1.0  0.0801
  H  H159  1  0.845700  0.037100  0.034400  1.0  0.0951
  H  H160  1  0.046700  0.094200  0.159600  1.0  0.1075
  H  H161  1  0.780100  0.132000  0.999100  1.0  0.1157
  H  H162  1  0.011100  0.096600  0.981300  1.0  0.1123
  H  H163  1  0.721200  0.140000  0.895200  1.0  0.0871
  H  H164  1  0.955600  0.106700  0.877800  1.0  0.0898
  H  H165  1  0.115500  0.827900  0.428600  1.0  0.4214
  H  H166  1  0.164900  0.854300  0.401500  1.0  0.3967
  H  H167  1  0.359100  0.510900  0.174600  1.0  0.0902
  H  H168  1  0.096900  0.493700  0.127500  1.0  0.095
  H  H169  1  0.339800  0.592100  0.164200  1.0  0.1098
  H  H170  1  0.079000  0.574700  0.113000  1.0  0.1155
  H  H171  1  0.266100  0.679600  0.059800  1.0  0.1026
  H  H172  1  0.261500  0.673100  0.226400  1.0  0.1102
  H  H173  1  0.360100  0.744300  0.083300  1.0  0.1044
  H  H174  1  0.352400  0.738900  0.250300  1.0  0.0775
  H  H175  1  0.869400  0.432700  0.032400  1.0  0.0955
  H  H176  1  0.757800  0.359100  0.134100  1.0  0.084
  H  H177  1  0.731300  0.447200  0.964300  1.0  0.0968
  H  H178  1  0.619200  0.372400  0.066200  1.0  0.1182
  H  H179  1  0.624600  0.503400  0.991100  1.0  0.1128
  H  H180  1  0.460600  0.418100  0.871900  1.0  0.1189
  H  H181  1  0.562000  0.568300  0.933000  1.0  0.0958
  H  H182  1  0.389700  0.483700  0.820700  1.0  0.0903
  H  H183  1  0.126400  0.491200  0.244800  1.0  0.0807
  H  H184  1  0.159700  0.462900  0.416600  1.0  0.1023
  H  H185  1  0.212300  0.559300  0.272800  1.0  0.1149
  H  H186  1  0.248200  0.528600  0.443900  1.0  0.1119
  H  H187  1  0.399700  0.654400  0.395400  1.0  0.0997
  H  H188  1  0.141900  0.627300  0.324900  1.0  0.0957
  H  H189  1  0.375000  0.733100  0.369600  1.0  0.1018
  H  H190  1  0.115700  0.707100  0.304200  1.0  0.0866
  H  H191  1  0.999600  0.328900  0.444700  1.0  0.1066
  H  H192  1  0.845100  0.416500  0.501900  1.0  0.0982
  H  H193  1  0.080900  0.314000  0.544100  1.0  0.1103
  H  H194  1  0.929400  0.404600  0.599400  1.0  0.1108
  H  H195  1  0.026700  0.261100  0.633700  1.0  0.1211
  H  H196  1  0.216800  0.358500  0.691800  1.0  0.1281
  H  H197  1  0.125500  0.201200  0.677200  1.0  0.0978
  H  H198  1  0.316100  0.299000  0.735500  1.0  0.1022
  H  H199  1  0.709300  0.238900  0.342900  1.0  0.0968
  H  H200  1  0.451700  0.256200  0.302800  1.0  0.0924
  H  H201  1  0.693200  0.159100  0.361200  1.0  0.1223
  H  H202  1  0.435500  0.177600  0.323000  1.0  0.1153
  H  H203  1  0.581300  0.117700  0.249600  1.0  0.0978
  H  H204  1  0.571200  0.027100  0.377400  1.0  0.1293
  H  H205  1  0.631600  0.057800  0.201400  1.0  0.0982
  H  H206  1  0.614800  0.967300  0.326500  1.0  0.0669
  H  H207  1  0.647900  0.471200  0.405900  1.0  0.0971
  H  H208  1  0.439600  0.525400  0.285100  1.0  0.0805
  H  H209  1  0.654300  0.537100  0.465600  1.0  0.0947
  H  H210  1  0.453300  0.594200  0.340400  1.0  0.1078
  H  H211  1  0.719900  0.632000  0.500900  1.0  0.1155
  H  H212  1  0.488900  0.596600  0.518700  1.0  0.1135
  H  H213  1  0.778800  0.640000  0.604800  1.0  0.0882
  H  H214  1  0.544400  0.606700  0.622200  1.0  0.0898
  H  H215  1  0.384500  0.327900  0.071400  1.0  0.4224
  H  H216  1  0.335100  0.354300  0.098500  1.0  0.3964
  C  C217  1  0.739900  0.058700  0.661300  1.0  0.7438
  C  C218  1  0.730000  0.006330  0.652800  1.0  -0.1587
  C  C219  1  0.802600  0.976400  0.662900  1.0  -0.0452
  C  C220  1  0.646000  0.986730  0.634300  1.0  -0.0608
  C  C221  1  0.791100  0.927950  0.655800  1.0  -0.1432
  C  C222  1  0.635200  0.938340  0.625900  1.0  -0.2179
  C  C223  1  0.707900  0.909590  0.636500  1.0  0.2836
  C  C224  1  0.752800  0.827800  0.640000  1.0  0.3376
  C  C225  1  0.782900  0.808100  0.598500  1.0  -0.2041
  C  C226  1  0.779700  0.811900  0.696900  1.0  -0.263
  C  C227  1  0.839300  0.769300  0.612500  1.0  -0.0781
  C  C228  1  0.835200  0.772600  0.711100  1.0  -0.0396
  C  C229  1  0.864400  0.750830  0.670000  1.0  -0.1358
  C  C230  1  0.923600  0.708960  0.685200  1.0  0.6623
  C  C231  1  0.415900  0.116890  0.633500  1.0  0.6759
  C  C232  1  0.327500  0.106630  0.589800  1.0  -0.1481
  C  C233  1  0.319300  0.079700  0.539300  1.0  -0.0523
  C  C234  1  0.252900  0.123500  0.599500  1.0  0.0046
  C  C235  1  0.236500  0.070900  0.498400  1.0  -0.2449
  C  C236  1  0.169300  0.115400  0.559100  1.0  -0.1758
  C  C237  1  0.163000  0.089000  0.508900  1.0  0.312
  C  C238  1  0.048300  0.044900  0.437800  1.0  0.2967
  C  C239  1  0.078400  0.000800  0.455900  1.0  -0.2119
  C  C240  1  0.979300  0.051400  0.385500  1.0  -0.1894
  C  C241  1  0.040000  0.962000  0.421500  1.0  -0.0455
  C  C242  1  0.939000  0.012200  0.354000  1.0  -0.0492
  C  C243  1  0.969200  0.967700  0.370300  1.0  -0.1164
  C  C244  1  0.930100  0.925200  0.332800  1.0  0.6913
  C  C245  1  0.570700  0.070230  0.810900  1.0  0.6658
  C  C246  1  0.632600  0.028850  0.828100  1.0  -0.1305
  C  C247  1  0.649700  0.000900  0.785200  1.0  -0.0511
  C  C248  1  0.670000  0.017840  0.887200  1.0  -0.0676
  C  C249  1  0.702000  0.960400  0.801900  1.0  -0.1886
  C  C250  1  0.737800  0.950230  0.861200  1.0  0.2965
  C  C251  1  0.722700  0.978590  0.903500  1.0  -0.1616
  C  C252  1  0.772900  0.866980  0.862200  1.0  0.3115
  C  C253  1  0.842800  0.835030  0.876000  1.0  -0.2613
  C  C254  1  0.688500  0.851250  0.834600  1.0  -0.207
  C  C255  1  0.827800  0.787970  0.861200  1.0  -0.0316
  C  C256  1  0.742300  0.771230  0.833400  1.0  -0.1678
  C  C257  1  0.673100  0.803490  0.821400  1.0  -0.0232
  C  C258  1  0.726900  0.720290  0.816800  1.0  0.7046
  C  C259  1  0.353000  0.120020  0.902100  1.0  0.6889
  C  C260  1  0.412800  0.127450  0.963500  1.0  -0.1213
  C  C261  1  0.483800  0.156800  0.975800  1.0  -0.0343
  C  C262  1  0.392700  0.104300  0.010400  1.0  -0.0354
  C  C263  1  0.532800  0.165500  0.035100  1.0  -0.1205
  C  C264  1  0.442000  0.111700  0.068500  1.0  -0.2717
  C  C265  1  0.509300  0.143100  0.080800  1.0  0.3124
  C  C266  1  0.613000  0.185800  0.159800  1.0  0.3005
  C  C267  1  0.585000  0.231600  0.154400  1.0  -0.2358
  C  C268  1  0.699100  0.173100  0.189300  1.0  -0.242
  C  C269  1  0.643900  0.267300  0.180000  1.0  -0.0045
  C  C270  1  0.758000  0.208600  0.214800  1.0  -0.0266
  C  C271  1  0.731000  0.255780  0.209900  1.0  -0.1579
  C  C272  1  0.796800  0.293250  0.238500  1.0  0.6681
  C  C273  1  0.091900  0.194010  0.801400  1.0  0.7347
  C  C274  1  0.082000  0.244410  0.819300  1.0  -0.0999
  C  C275  1  0.153300  0.273500  0.837800  1.0  -0.0307
  C  C276  1  0.001100  0.263300  0.814400  1.0  -0.0567
  C  C277  1  0.144000  0.321300  0.849000  1.0  -0.2079
  C  C278  1  0.991000  0.310300  0.826000  1.0  -0.2247
  C  C279  1  0.062800  0.339050  0.842000  1.0  0.2617
  C  C280  1  0.078200  0.421150  0.819900  1.0  0.3222
  C  C281  1  0.091400  0.412400  0.766500  1.0  -0.2243
  C  C282  1  0.084600  0.466410  0.842200  1.0  -0.2751
  C  C283  1  0.120100  0.448560  0.737300  1.0  -0.0563
  C  C284  1  0.111000  0.501840  0.811700  1.0  -0.0364
  C  C285  1  0.132100  0.493710  0.760300  1.0  -0.0843
  C  C286  1  0.168800  0.532110  0.731900  1.0  0.6815
  C  C287  1  0.038600  0.050910  0.801100  1.0  0.6945
  C  C288  1  0.042400  0.008200  0.839600  1.0  -0.1436
  C  C289  1  0.107000  0.004500  0.893000  1.0  -0.0548
  C  C290  1  0.984800  0.971900  0.821200  1.0  -0.0315
  C  C291  1  0.111800  0.964800  0.928200  1.0  -0.1269
  C  C292  1  0.991500  0.931100  0.854500  1.0  -0.2079
  C  C293  1  0.054900  0.928500  0.908500  1.0  0.319
  C  C294  1  0.097900  0.884900  0.001600  1.0  0.2962
  C  C295  1  0.184700  0.872900  0.025600  1.0  -0.2081
  C  C296  1  0.046900  0.893600  0.036000  1.0  -0.1791
  C  C297  1  0.219800  0.868000  0.087800  1.0  -0.0081
  C  C298  1  0.080500  0.888100  0.098300  1.0  -0.0432
  C  C299  1  0.167000  0.875000  0.124000  1.0  -0.1328
  C  C300  1  0.204100  0.869620  0.191100  1.0  0.6649
  C  C301  1  0.760100  0.558700  0.838700  1.0  0.7426
  C  C302  1  0.770000  0.506330  0.847200  1.0  -0.1577
  C  C303  1  0.697400  0.476400  0.837100  1.0  -0.0428
  C  C304  1  0.854000  0.486730  0.865700  1.0  -0.0613
  C  C305  1  0.708900  0.427950  0.844200  1.0  -0.142
  C  C306  1  0.864800  0.438340  0.874100  1.0  -0.2173
  C  C307  1  0.792100  0.409590  0.863500  1.0  0.2835
  C  C308  1  0.747200  0.327800  0.860000  1.0  0.3397
  C  C309  1  0.717100  0.308100  0.901500  1.0  -0.2025
  C  C310  1  0.720300  0.311900  0.803100  1.0  -0.2631
  C  C311  1  0.660700  0.269300  0.887500  1.0  -0.0769
  C  C312  1  0.664800  0.272600  0.788900  1.0  -0.0387
  C  C313  1  0.635600  0.250830  0.830000  1.0  -0.1363
  C  C314  1  0.576400  0.208960  0.814800  1.0  0.665
  C  C315  1  0.084100  0.616890  0.866500  1.0  0.6739
  C  C316  1  0.172500  0.606630  0.910200  1.0  -0.1459
  C  C317  1  0.180700  0.579700  0.960700  1.0  -0.053
  C  C318  1  0.247100  0.623500  0.900500  1.0  0.0044
  C  C319  1  0.263500  0.570900  0.001600  1.0  -0.245
  C  C320  1  0.330700  0.615400  0.940900  1.0  -0.1757
  C  C321  1  0.337000  0.589000  0.991100  1.0  0.312
  C  C322  1  0.451700  0.544900  0.062200  1.0  0.2972
  C  C323  1  0.421600  0.500800  0.044100  1.0  -0.2139
  C  C324  1  0.520700  0.551400  0.114500  1.0  -0.187
  C  C325  1  0.460000  0.462000  0.078500  1.0  -0.0446
  C  C326  1  0.561000  0.512200  0.146000  1.0  -0.0479
  C  C327  1  0.530800  0.467700  0.129700  1.0  -0.1168
  C  C328  1  0.569900  0.425200  0.167200  1.0  0.691
  C  C329  1  0.929300  0.570230  0.689100  1.0  0.6657
  C  C330  1  0.867400  0.528850  0.671900  1.0  -0.131
  C  C331  1  0.850300  0.500900  0.714800  1.0  -0.0526
  C  C332  1  0.830000  0.517840  0.612800  1.0  -0.0682
  C  C333  1  0.798000  0.460400  0.698100  1.0  -0.1893
  C  C334  1  0.762200  0.450230  0.638800  1.0  0.2952
  C  C335  1  0.777300  0.478590  0.596500  1.0  -0.1628
  C  C336  1  0.727100  0.366980  0.637800  1.0  0.3118
  C  C337  1  0.657200  0.335030  0.624000  1.0  -0.2627
  C  C338  1  0.811500  0.351250  0.665400  1.0  -0.2083
  C  C339  1  0.672200  0.287970  0.638800  1.0  -0.0285
  C  C340  1  0.757700  0.271230  0.666667  1.0  -0.172
  C  C341  1  0.826900  0.303490  0.678600  1.0  -0.026
  C  C342  1  0.773100  0.220290  0.683200  1.0  0.704
  C  C343  1  0.147000  0.620020  0.597900  1.0  0.692
  C  C344  1  0.087200  0.627450  0.536500  1.0  -0.1223
  C  C345  1  0.016200  0.656800  0.524200  1.0  -0.0355
  C  C346  1  0.107300  0.604300  0.489600  1.0  -0.0351
  C  C347  1  0.967200  0.665500  0.464900  1.0  -0.122
  C  C348  1  0.058000  0.611700  0.431500  1.0  -0.2708
  C  C349  1  0.990700  0.643100  0.419200  1.0  0.3149
  C  C350  1  0.887000  0.685800  0.340200  1.0  0.3007
  C  C351  1  0.915000  0.731600  0.345600  1.0  -0.2367
  C  C352  1  0.800900  0.673100  0.310700  1.0  -0.2405
  C  C353  1  0.856100  0.767300  0.320000  1.0  -0.0052
  C  C354  1  0.742000  0.708600  0.285200  1.0  -0.0255
  C  C355  1  0.769000  0.755780  0.290100  1.0  -0.1575
  C  C356  1  0.703200  0.793250  0.261500  1.0  0.6651
  C  C357  1  0.408100  0.694010  0.698600  1.0  0.7335
  C  C358  1  0.418000  0.744410  0.680700  1.0  -0.1069
  C  C359  1  0.346700  0.773500  0.662200  1.0  -0.0284
  C  C360  1  0.498900  0.763300  0.685600  1.0  -0.056
  C  C361  1  0.356000  0.821300  0.651000  1.0  -0.2098
  C  C362  1  0.509000  0.810300  0.674000  1.0  -0.2246
  C  C363  1  0.437200  0.839050  0.658000  1.0  0.2603
  C  C364  1  0.421800  0.921150  0.680100  1.0  0.3213
  C  C365  1  0.408600  0.912400  0.733500  1.0  -0.2243
  C  C366  1  0.415400  0.966410  0.657800  1.0  -0.2759
  C  C367  1  0.379900  0.948560  0.762700  1.0  -0.0556
  C  C368  1  0.389000  0.001840  0.688300  1.0  -0.0359
  C  C369  1  0.367900  0.993710  0.739700  1.0  -0.0834
  C  C370  1  0.331200  0.032110  0.768100  1.0  0.6809
  C  C371  1  0.461400  0.550910  0.698900  1.0  0.6947
  C  C372  1  0.457600  0.508200  0.660400  1.0  -0.1436
  C  C373  1  0.393000  0.504500  0.607000  1.0  -0.0546
  C  C374  1  0.515200  0.471900  0.678800  1.0  -0.0321
  C  C375  1  0.388200  0.464800  0.571800  1.0  -0.1262
  C  C376  1  0.508500  0.431100  0.645500  1.0  -0.208
  C  C377  1  0.445100  0.428500  0.591500  1.0  0.3192
  C  C378  1  0.402100  0.384900  0.498400  1.0  0.2952
  C  C379  1  0.315300  0.372900  0.474400  1.0  -0.2085
  C  C380  1  0.453100  0.393600  0.464000  1.0  -0.178
  C  C381  1  0.280200  0.368000  0.412200  1.0  -0.0071
  C  C382  1  0.419500  0.388100  0.401700  1.0  -0.0446
  C  C383  1  0.333000  0.375000  0.376000  1.0  -0.1334
  C  C384  1  0.295900  0.369620  0.308900  1.0  0.6627
  C  C385  1  0.260100  0.941300  0.338700  1.0  0.7384
  C  C386  1  0.270000  0.993670  0.347200  1.0  -0.1591
  C  C387  1  0.197400  0.023600  0.337100  1.0  -0.0423
  C  C388  1  0.354000  0.013270  0.365700  1.0  -0.0619
  C  C389  1  0.208900  0.072050  0.344200  1.0  -0.1421
  C  C390  1  0.364800  0.061660  0.374100  1.0  -0.2173
  C  C391  1  0.292100  0.090410  0.363500  1.0  0.2832
  C  C392  1  0.247200  0.172200  0.360000  1.0  0.3396
  C  C393  1  0.217100  0.191900  0.401500  1.0  -0.202
  C  C394  1  0.220300  0.188100  0.303100  1.0  -0.2632
  C  C395  1  0.160700  0.230700  0.387500  1.0  -0.0771
  C  C396  1  0.164800  0.227400  0.288900  1.0  -0.0384
  C  C397  1  0.135600  0.249170  0.330000  1.0  -0.1368
  C  C398  1  0.076400  0.291040  0.314800  1.0  0.665
  C  C399  1  0.584100  0.883110  0.366500  1.0  0.6729
  C  C400  1  0.672500  0.893370  0.410200  1.0  -0.1475
  C  C401  1  0.680700  0.920300  0.460700  1.0  -0.0529
  C  C402  1  0.747100  0.876500  0.400500  1.0  0.0043
  C  C403  1  0.763500  0.929100  0.501600  1.0  -0.2448
  C  C404  1  0.830700  0.884600  0.440900  1.0  -0.175
  C  C405  1  0.837000  0.911000  0.491100  1.0  0.3124
  C  C406  1  0.951700  0.955100  0.562200  1.0  0.2972
  C  C407  1  0.921600  0.999200  0.544100  1.0  -0.2139
  C  C408  1  0.020700  0.948600  0.614500  1.0  -0.1873
  C  C409  1  0.960000  0.038000  0.578500  1.0  -0.045
  C  C410  1  0.061000  0.987800  0.646000  1.0  -0.0479
  C  C411  1  0.030800  0.032300  0.629700  1.0  -0.1164
  C  C412  1  0.069900  0.074800  0.667200  1.0  0.6911
  C  C413  1  0.429300  0.929770  0.189100  1.0  0.6655
  C  C414  1  0.367400  0.971150  0.171900  1.0  -0.1303
  C  C415  1  0.350300  0.999100  0.214800  1.0  -0.0528
  C  C416  1  0.330000  0.982160  0.112800  1.0  -0.0682
  C  C417  1  0.298000  0.039600  0.198100  1.0  -0.1894
  C  C418  1  0.262200  0.049770  0.138800  1.0  0.295
  C  C419  1  0.277300  0.021410  0.096500  1.0  -0.1631
  C  C420  1  0.227100  0.133020  0.137800  1.0  0.3112
  C  C421  1  0.157200  0.164970  0.124000  1.0  -0.2628
  C  C422  1  0.311500  0.148750  0.165400  1.0  -0.2085
  C  C423  1  0.172200  0.212030  0.138800  1.0  -0.0287
  C  C424  1  0.257700  0.228770  0.166600  1.0  -0.1676
  C  C425  1  0.326900  0.196510  0.178600  1.0  -0.0252
  C  C426  1  0.273100  0.279710  0.183200  1.0  0.7058
  C  C427  1  0.647000  0.879980  0.097900  1.0  0.6921
  C  C428  1  0.587200  0.872550  0.036500  1.0  -0.1222
  C  C429  1  0.516200  0.843200  0.024200  1.0  -0.0354
  C  C430  1  0.607300  0.895700  0.989600  1.0  -0.0346
  C  C431  1  0.467200  0.834500  0.964900  1.0  -0.1209
  C  C432  1  0.558000  0.888300  0.931500  1.0  -0.2697
  C  C433  1  0.490700  0.856900  0.919200  1.0  0.3149
  C  C434  1  0.387000  0.814200  0.840200  1.0  0.3007
  C  C435  1  0.415000  0.768400  0.845600  1.0  -0.2356
  C  C436  1  0.300900  0.826900  0.810700  1.0  -0.2415
  C  C437  1  0.356100  0.732700  0.820000  1.0  -0.0044
  C  C438  1  0.242000  0.791400  0.785200  1.0  -0.0263
  C  C439  1  0.269000  0.744220  0.790100  1.0  -0.1576
  C  C440  1  0.203200  0.706750  0.761500  1.0  0.6647
  C  C441  1  0.908100  0.805990  0.198600  1.0  0.7369
  C  C442  1  0.918000  0.755590  0.180700  1.0  -0.105
  C  C443  1  0.846700  0.726500  0.162200  1.0  -0.0286
  C  C444  1  0.998900  0.736700  0.185600  1.0  -0.0558
  C  C445  1  0.856000  0.678700  0.151000  1.0  -0.209
  C  C446  1  0.009000  0.689700  0.174000  1.0  -0.2245
  C  C447  1  0.937200  0.660950  0.158000  1.0  0.2589
  C  C448  1  0.921800  0.578850  0.180100  1.0  0.3222
  C  C449  1  0.908600  0.587600  0.233500  1.0  -0.2255
  C  C450  1  0.915400  0.533590  0.157800  1.0  -0.2758
  C  C451  1  0.879900  0.551440  0.262700  1.0  -0.0551
  C  C452  1  0.889000  0.498160  0.188300  1.0  -0.0361
  C  C453  1  0.867900  0.506290  0.239700  1.0  -0.0832
  C  C454  1  0.831200  0.467890  0.268100  1.0  0.6809
  C  C455  1  0.961400  0.949090  0.198900  1.0  0.6946
  C  C456  1  0.957600  0.991800  0.160400  1.0  -0.1432
  C  C457  1  0.893000  0.995500  0.107000  1.0  -0.054
  C  C458  1  0.015200  0.028100  0.178800  1.0  -0.0322
  C  C459  1  0.888200  0.035200  0.071800  1.0  -0.1261
  C  C460  1  0.008500  0.068900  0.145500  1.0  -0.2105
  C  C461  1  0.945100  0.071500  0.091500  1.0  0.3197
  C  C462  1  0.902100  0.115100  0.998400  1.0  0.296
  C  C463  1  0.815300  0.127100  0.974400  1.0  -0.2098
  C  C464  1  0.953100  0.106400  0.964000  1.0  -0.1778
  C  C465  1  0.780200  0.132000  0.912200  1.0  -0.0076
  C  C466  1  0.919500  0.111900  0.901700  1.0  -0.045
  C  C467  1  0.833000  0.125000  0.876000  1.0  -0.1324
  C  C468  1  0.795900  0.130380  0.808900  1.0  0.6624
  C  C469  1  0.239900  0.441300  0.161300  1.0  0.7393
  C  C470  1  0.230000  0.493670  0.152800  1.0  -0.1596
  C  C471  1  0.302600  0.523600  0.162900  1.0  -0.0451
  C  C472  1  0.146000  0.513270  0.134300  1.0  -0.0617
  C  C473  1  0.291100  0.572050  0.155800  1.0  -0.1429
  C  C474  1  0.135200  0.561660  0.125900  1.0  -0.2182
  C  C475  1  0.207900  0.590410  0.136500  1.0  0.2838
  C  C476  1  0.252800  0.672200  0.140000  1.0  0.3377
  C  C477  1  0.282900  0.691900  0.098500  1.0  -0.2036
  C  C478  1  0.279700  0.688100  0.196900  1.0  -0.2628
  C  C479  1  0.339300  0.730700  0.112500  1.0  -0.0784
  C  C480  1  0.335200  0.727400  0.211100  1.0  -0.0398
  C  C481  1  0.364400  0.749170  0.170000  1.0  -0.1368
  C  C482  1  0.423600  0.791040  0.185200  1.0  0.662
  C  C483  1  0.915900  0.383110  0.133500  1.0  0.6747
  C  C484  1  0.827500  0.393370  0.089800  1.0  -0.1482
  C  C485  1  0.819300  0.420300  0.039300  1.0  -0.0526
  C  C486  1  0.752900  0.376500  0.099500  1.0  0.0045
  C  C487  1  0.736500  0.429100  0.998400  1.0  -0.2448
  C  C488  1  0.669300  0.384600  0.059100  1.0  -0.1741
  C  C489  1  0.663000  0.411000  0.008900  1.0  0.3123
  C  C490  1  0.548300  0.455100  0.937800  1.0  0.2966
  C  C491  1  0.578400  0.499200  0.955900  1.0  -0.2123
  C  C492  1  0.479300  0.448600  0.885500  1.0  -0.1888
  C  C493  1  0.540000  0.538000  0.921500  1.0  -0.0469
  C  C494  1  0.439000  0.487800  0.854000  1.0  -0.0496
  C  C495  1  0.469200  0.532300  0.870300  1.0  -0.1158
  C  C496  1  0.430100  0.574800  0.832800  1.0  0.6913
  C  C497  1  0.070700  0.429770  0.310900  1.0  0.6657
  C  C498  1  0.132600  0.471150  0.328100  1.0  -0.1297
  C  C499  1  0.149700  0.499100  0.285200  1.0  -0.0511
  C  C500  1  0.170000  0.482160  0.387200  1.0  -0.068
  C  C501  1  0.202000  0.539600  0.301900  1.0  -0.1888
  C  C502  1  0.237800  0.549770  0.361200  1.0  0.2963
  C  C503  1  0.222700  0.521410  0.403500  1.0  -0.1619
  C  C504  1  0.272900  0.633020  0.362200  1.0  0.3118
  C  C505  1  0.342800  0.664970  0.376000  1.0  -0.2616
  C  C506  1  0.188500  0.648750  0.334600  1.0  -0.2071
  C  C507  1  0.327800  0.712030  0.361200  1.0  -0.0308
  C  C508  1  0.242300  0.728770  0.333400  1.0  -0.1692
  C  C509  1  0.173100  0.696510  0.321400  1.0  -0.0237
  C  C510  1  0.226900  0.779710  0.316800  1.0  0.7057
  C  C511  1  0.853000  0.379980  0.402100  1.0  0.689
  C  C512  1  0.912800  0.372550  0.463500  1.0  -0.1209
  C  C513  1  0.983800  0.343200  0.475800  1.0  -0.035
  C  C514  1  0.892700  0.395700  0.510400  1.0  -0.0354
  C  C515  1  0.032800  0.334500  0.535100  1.0  -0.1203
  C  C516  1  0.942000  0.388300  0.568500  1.0  -0.2712
  C  C517  1  0.009300  0.356900  0.580800  1.0  0.3124
  C  C518  1  0.113000  0.314200  0.659800  1.0  0.3004
  C  C519  1  0.085000  0.268400  0.654400  1.0  -0.2351
  C  C520  1  0.199100  0.326900  0.689300  1.0  -0.2415
  C  C521  1  0.143900  0.232700  0.680000  1.0  -0.0043
  C  C522  1  0.258000  0.291400  0.714800  1.0  -0.0257
  C  C523  1  0.231000  0.244220  0.709900  1.0  -0.1583
  C  C524  1  0.296800  0.206750  0.738500  1.0  0.6675
  C  C525  1  0.591900  0.305990  0.301400  1.0  0.7373
  C  C526  1  0.582000  0.255590  0.319300  1.0  -0.1014
  C  C527  1  0.653300  0.226500  0.337800  1.0  -0.0296
  C  C528  1  0.501100  0.236700  0.314400  1.0  -0.0576
  C  C529  1  0.644000  0.178700  0.349000  1.0  -0.2082
  C  C530  1  0.491000  0.189700  0.326000  1.0  -0.2251
  C  C531  1  0.562800  0.160950  0.342000  1.0  0.262
  C  C532  1  0.578200  0.078850  0.319900  1.0  0.3214
  C  C533  1  0.591400  0.087600  0.266500  1.0  -0.2258
  C  C534  1  0.584600  0.033590  0.342200  1.0  -0.2759
  C  C535  1  0.620100  0.051440  0.237300  1.0  -0.0561
  C  C536  1  0.611000  0.998160  0.311700  1.0  -0.0375
  C  C537  1  0.632100  0.006290  0.260300  1.0  -0.0843
  C  C538  1  0.668800  0.967890  0.231900  1.0  0.6811
  C  C539  1  0.538600  0.449090  0.301100  1.0  0.6942
  C  C540  1  0.542400  0.491800  0.339600  1.0  -0.1435
  C  C541  1  0.607000  0.495500  0.393000  1.0  -0.054
  C  C542  1  0.484800  0.528100  0.321200  1.0  -0.0318
  C  C543  1  0.611800  0.535200  0.428200  1.0  -0.1271
  C  C544  1  0.491500  0.568900  0.354500  1.0  -0.2097
  C  C545  1  0.554900  0.571500  0.408500  1.0  0.3196
  C  C546  1  0.597900  0.615100  0.501600  1.0  0.2977
  C  C547  1  0.684700  0.627100  0.525600  1.0  -0.208
  C  C548  1  0.546900  0.606400  0.536000  1.0  -0.1791
  C  C549  1  0.719800  0.632000  0.587800  1.0  -0.0077
  C  C550  1  0.580500  0.611900  0.598300  1.0  -0.044
  C  C551  1  0.667000  0.625000  0.624000  1.0  -0.1329
  C  C552  1  0.704100  0.630380  0.691100  1.0  0.6644
  O  O553  1  0.809700  0.077730  0.658670  1.0  -0.6603
  O  O554  1  0.677000  0.080520  0.670700  1.0  -0.7294
  O  O555  1  0.688100  0.862540  0.622900  1.0  -0.2766
  O  O556  1  0.957300  0.692560  0.647950  1.0  -0.6717
  O  O557  1  0.942900  0.691310  0.738230  1.0  -0.8189
  O  O558  1  0.484300  0.102450  0.623840  1.0  -0.6678
  O  O559  1  0.418700  0.141390  0.679190  1.0  -0.7193
  O  O560  1  0.079100  0.086230  0.468800  1.0  -0.2763
  O  O561  1  0.851200  0.928940  0.300100  1.0  -0.6559
  O  O562  1  0.975800  0.889050  0.335010  1.0  -0.6837
  O  O563  1  0.551800  0.088080  0.757450  1.0  -0.7627
  O  O564  1  0.536700  0.086400  0.847950  1.0  -0.6134
  O  O565  1  0.795900  0.912610  0.881000  1.0  -0.2675
  O  O566  1  0.793700  0.694750  0.820420  1.0  -0.7357
  O  O567  1  0.650000  0.705100  0.802000  1.0  -0.6775
  O  O568  1  0.371100  0.138310  0.857170  1.0  -0.8099
  O  O569  1  0.284700  0.096360  0.894580  1.0  -0.5993
  O  O570  1  0.554600  0.148200  0.139700  1.0  -0.2756
  O  O571  1  0.875700  0.281600  0.261320  1.0  -0.6308
  O  O572  1  0.773400  0.336480  0.237310  1.0  -0.7507
  O  O573  1  0.167900  0.176940  0.815490  1.0  -0.6352
  O  O574  1  0.024100  0.172740  0.772450  1.0  -0.7082
  O  O575  1  0.050300  0.386900  0.853500  1.0  -0.2935
  O  O576  1  0.216500  0.523090  0.700240  1.0  -0.6281
  O  O577  1  0.153500  0.574880  0.743240  1.0  -0.7682
  O  O578  1  0.106600  0.076580  0.814070  1.0  -0.6971
  O  O579  1  0.971000  0.058750  0.758510  1.0  -0.6641
  O  O580  1  0.058600  0.885840  0.939300  1.0  -0.2843
  O  O581  1  0.284400  0.862900  0.212170  1.0  -0.6728
  O  O582  1  0.151400  0.873040  0.220440  1.0  -0.684
  O  O583  1  0.883000  0.161000  0.604900  1.0  -0.8033
  O  O584  1  0.690300  0.577730  0.841330  1.0  -0.6611
  O  O585  1  0.823000  0.580520  0.829300  1.0  -0.729
  O  O586  1  0.811900  0.362540  0.877100  1.0  -0.2753
  O  O587  1  0.542700  0.192560  0.852050  1.0  -0.6704
  O  O588  1  0.557100  0.191310  0.761770  1.0  -0.8184
  O  O589  1  0.015700  0.602450  0.876160  1.0  -0.6648
  O  O590  1  0.081300  0.641390  0.820810  1.0  -0.7204
  O  O591  1  0.420900  0.586230  0.031200  1.0  -0.2763
  O  O592  1  0.648800  0.428940  0.199900  1.0  -0.6578
  O  O593  1  0.524200  0.389050  0.164990  1.0  -0.6841
  O  O594  1  0.948200  0.588080  0.742550  1.0  -0.7631
  O  O595  1  0.963300  0.586400  0.652050  1.0  -0.6135
  O  O596  1  0.704100  0.412610  0.619000  1.0  -0.2669
  O  O597  1  0.706300  0.194750  0.679580  1.0  -0.7366
  O  O598  1  0.850000  0.205100  0.698000  1.0  -0.6785
  O  O599  1  0.128900  0.638310  0.642830  1.0  -0.8103
  O  O600  1  0.215300  0.596360  0.605420  1.0  -0.5992
  O  O601  1  0.945400  0.648200  0.360300  1.0  -0.2761
  O  O602  1  0.624300  0.781600  0.238680  1.0  -0.6296
  O  O603  1  0.726600  0.836480  0.262690  1.0  -0.7514
  O  O604  1  0.332100  0.676940  0.684510  1.0  -0.6353
  O  O605  1  0.475900  0.672740  0.727550  1.0  -0.7074
  O  O606  1  0.449700  0.886900  0.646500  1.0  -0.2921
  O  O607  1  0.283500  0.023090  0.799760  1.0  -0.6284
  O  O608  1  0.346500  0.074880  0.756760  1.0  -0.7683
  O  O609  1  0.393400  0.576580  0.685930  1.0  -0.6977
  O  O610  1  0.529000  0.558750  0.741490  1.0  -0.6643
  O  O611  1  0.441400  0.385840  0.560700  1.0  -0.284
  O  O612  1  0.215600  0.362900  0.287830  1.0  -0.6738
  O  O613  1  0.348600  0.373040  0.279560  1.0  -0.6843
  O  O614  1  0.617000  0.661000  0.895100  1.0  -0.8026
  O  O615  1  0.190300  0.922270  0.341330  1.0  -0.6615
  O  O616  1  0.323000  0.919480  0.329300  1.0  -0.7295
  O  O617  1  0.311900  0.137460  0.377100  1.0  -0.2757
  O  O618  1  0.042700  0.307440  0.352050  1.0  -0.6724
  O  O619  1  0.057100  0.308690  0.261770  1.0  -0.8187
  O  O620  1  0.515700  0.897550  0.376160  1.0  -0.6651
  O  O621  1  0.581300  0.858610  0.320810  1.0  -0.7206
  O  O622  1  0.920900  0.913770  0.531200  1.0  -0.2746
  O  O623  1  0.148800  0.071060  0.699900  1.0  -0.656
  O  O624  1  0.024200  0.110950  0.664990  1.0  -0.6845
  O  O625  1  0.448200  0.911920  0.242550  1.0  -0.7628
  O  O626  1  0.463300  0.913600  0.152050  1.0  -0.6136
  O  O627  1  0.204100  0.087390  0.119000  1.0  -0.2679
  O  O628  1  0.206300  0.305250  0.179580  1.0  -0.7376
  O  O629  1  0.350000  0.294900  0.198000  1.0  -0.6787
  O  O630  1  0.628900  0.861690  0.142830  1.0  -0.8092
  O  O631  1  0.715300  0.903640  0.105420  1.0  -0.5989
  O  O632  1  0.445400  0.851800  0.860300  1.0  -0.2773
  O  O633  1  0.124300  0.718400  0.738680  1.0  -0.6312
  O  O634  1  0.226600  0.663520  0.762690  1.0  -0.7503
  O  O635  1  0.832100  0.823060  0.184510  1.0  -0.6354
  O  O636  1  0.975900  0.827260  0.227550  1.0  -0.7071
  O  O637  1  0.949700  0.613100  0.146500  1.0  -0.2928
  O  O638  1  0.783500  0.476910  0.299760  1.0  -0.6294
  O  O639  1  0.846500  0.425120  0.256760  1.0  -0.7686
  O  O640  1  0.893400  0.923420  0.185930  1.0  -0.698
  O  O641  1  0.029000  0.941250  0.241490  1.0  -0.6646
  O  O642  1  0.941400  0.114160  0.060700  1.0  -0.2816
  O  O643  1  0.715600  0.137100  0.787830  1.0  -0.6736
  O  O644  1  0.848600  0.126960  0.779560  1.0  -0.6843
  O  O645  1  0.117000  0.839000  0.395100  1.0  -0.8032
  O  O646  1  0.309700  0.422270  0.158670  1.0  -0.661
  O  O647  1  0.177000  0.419480  0.170700  1.0  -0.7299
  O  O648  1  0.188100  0.637460  0.122900  1.0  -0.2765
  O  O649  1  0.457300  0.807440  0.147950  1.0  -0.6723
  O  O650  1  0.442900  0.808690  0.238230  1.0  -0.8181
  O  O651  1  0.984300  0.397550  0.123840  1.0  -0.6681
  O  O652  1  0.918700  0.358610  0.179190  1.0  -0.72
  O  O653  1  0.579100  0.413770  0.968800  1.0  -0.2763
  O  O654  1  0.351200  0.571060  0.800100  1.0  -0.6557
  O  O655  1  0.475800  0.610950  0.835010  1.0  -0.6841
  O  O656  1  0.051800  0.411920  0.257450  1.0  -0.7637
  O  O657  1  0.036700  0.413600  0.347950  1.0  -0.6131
  O  O658  1  0.295900  0.587390  0.381000  1.0  -0.2676
  O  O659  1  0.293700  0.805250  0.320420  1.0  -0.7369
  O  O660  1  0.150000  0.794900  0.302000  1.0  -0.6778
  O  O661  1  0.871100  0.361690  0.357170  1.0  -0.8097
  O  O662  1  0.784700  0.403640  0.394580  1.0  -0.599
  O  O663  1  0.054600  0.351800  0.639700  1.0  -0.2759
  O  O664  1  0.375700  0.218400  0.761320  1.0  -0.6316
  O  O665  1  0.273400  0.163520  0.737310  1.0  -0.7495
  O  O666  1  0.667900  0.323060  0.315490  1.0  -0.6357
  O  O667  1  0.524100  0.327260  0.272450  1.0  -0.7079
  O  O668  1  0.550300  0.113100  0.353500  1.0  -0.2928
  O  O669  1  0.716500  0.976910  0.200240  1.0  -0.628
  O  O670  1  0.653500  0.925120  0.243240  1.0  -0.7685
  O  O671  1  0.606600  0.423420  0.314070  1.0  -0.6978
  O  O672  1  0.471000  0.441250  0.258510  1.0  -0.6644
  O  O673  1  0.558600  0.614160  0.439300  1.0  -0.281
  O  O674  1  0.784400  0.637100  0.712170  1.0  -0.6735
  O  O675  1  0.651400  0.626960  0.720440  1.0  -0.684
  O  O676  1  0.383000  0.339000  0.104900  1.0  -0.8037
