# generated using pymatgen
data_Dy2H24(C14O5)3
_symmetry_space_group_name_H-M   'P 1'
_cell_length_a   15.97000000
_cell_length_b   28.16600000
_cell_length_c   23.58300000
_cell_angle_alpha   90.00000000
_cell_angle_beta   108.09200000
_cell_angle_gamma   90.00000000
_symmetry_Int_Tables_number   1
_chemical_formula_structural   Dy2H24(C14O5)3
_chemical_formula_sum   'Dy16 H192 C336 O120'
_cell_volume   10083.42950391
_cell_formula_units_Z   8
loop_
 _symmetry_equiv_pos_site_id
 _symmetry_equiv_pos_as_xyz
  1  'x, y, z'
loop_
 _atom_site_type_symbol
 _atom_site_label
 _atom_site_symmetry_multiplicity
 _atom_site_fract_x
 _atom_site_fract_y
 _atom_site_fract_z
 _atom_site_occupancy
 _atom_site_charge
  Dy  Dy1  1  0.221340  0.104910  0.790030  1.0  2.2773
  Dy  Dy2  1  0.440000  0.140550  0.781600  1.0  2.2503
  Dy  Dy3  1  0.606700  0.142270  0.695830  1.0  2.2924
  Dy  Dy4  1  0.914020  0.130290  0.707540  1.0  2.3165
  Dy  Dy5  1  0.278660  0.604910  0.709970  1.0  2.2762
  Dy  Dy6  1  0.060000  0.640550  0.718400  1.0  2.2503
  Dy  Dy7  1  0.893300  0.642270  0.804170  1.0  2.2888
  Dy  Dy8  1  0.585980  0.630290  0.792460  1.0  2.3195
  Dy  Dy9  1  0.778660  0.895090  0.209970  1.0  2.2763
  Dy  Dy10  1  0.560000  0.859450  0.218400  1.0  2.2515
  Dy  Dy11  1  0.393300  0.857730  0.304170  1.0  2.2929
  Dy  Dy12  1  0.085980  0.869710  0.292460  1.0  2.3198
  Dy  Dy13  1  0.721340  0.395090  0.290030  1.0  2.2758
  Dy  Dy14  1  0.940000  0.359450  0.281600  1.0  2.2514
  Dy  Dy15  1  0.106700  0.357730  0.195830  1.0  2.2892
  Dy  Dy16  1  0.414020  0.369710  0.207540  1.0  2.3167
  H  H17  1  0.368800  0.940200  0.798600  1.0  0.1026
  H  H18  1  0.384600  0.031800  0.674600  1.0  0.0687
  H  H19  1  0.418100  0.880700  0.750000  1.0  0.1003
  H  H20  1  0.429200  0.972100  0.623600  1.0  0.1233
  H  H21  1  0.305200  0.839300  0.639600  1.0  0.1295
  H  H22  1  0.564600  0.821500  0.678600  1.0  0.1101
  H  H23  1  0.291200  0.760500  0.658600  1.0  0.0923
  H  H24  1  0.548400  0.742300  0.696700  1.0  0.1003
  H  H25  1  0.314500  0.297900  0.734200  1.0  0.1028
  H  H26  1  0.125400  0.199500  0.677800  1.0  0.0927
  H  H27  1  0.211100  0.357700  0.692300  1.0  0.1276
  H  H28  1  0.024900  0.258100  0.634100  1.0  0.1256
  H  H29  1  0.926500  0.404100  0.598600  1.0  0.11
  H  H30  1  0.079300  0.312800  0.544200  1.0  0.1102
  H  H31  1  0.844000  0.415600  0.500900  1.0  0.0953
  H  H32  1  0.999800  0.328400  0.446200  1.0  0.1023
  H  H33  1  0.254300  0.138200  0.635600  1.0  0.0877
  H  H34  1  0.370100  0.070400  0.532500  1.0  0.096
  H  H35  1  0.117200  0.125200  0.565700  1.0  0.1104
  H  H36  1  0.234500  0.055600  0.463300  1.0  0.0921
  H  H37  1  0.960200  0.081700  0.370700  1.0  0.1152
  H  H38  1  0.126200  0.997000  0.489800  1.0  0.1166
  H  H39  1  0.891100  0.015800  0.318600  1.0  0.0896
  H  H40  1  0.062500  0.931500  0.431200  1.0  0.0977
  H  H41  1  0.625400  0.266900  0.630500  1.0  0.1004
  H  H42  1  0.884100  0.291800  0.695300  1.0  0.0869
  H  H43  1  0.600800  0.345300  0.604100  1.0  0.1016
  H  H44  1  0.859400  0.371100  0.674700  1.0  0.0882
  H  H45  1  0.748500  0.472000  0.555200  1.0  0.1148
  H  H46  1  0.786400  0.440500  0.726000  1.0  0.111
  H  H47  1  0.839700  0.537400  0.583100  1.0  0.0978
  H  H48  1  0.876100  0.506400  0.754700  1.0  0.083
  H  H49  1  0.595800  0.006100  0.630700  1.0  0.1045
  H  H50  1  0.857400  0.989100  0.674700  1.0  0.0925
  H  H51  1  0.577900  0.925800  0.614700  1.0  0.1022
  H  H52  1  0.839800  0.908200  0.664900  1.0  0.119
  H  H53  1  0.764100  0.828600  0.727000  1.0  0.1137
  H  H54  1  0.763600  0.818700  0.559500  1.0  0.1251
  H  H55  1  0.855900  0.762000  0.751300  1.0  0.0861
  H  H56  1  0.856800  0.754100  0.584200  1.0  0.0943
  H  H57  1  0.722400  0.141500  0.895800  1.0  0.0933
  H  H58  1  0.955400  0.103900  0.877200  1.0  0.0889
  H  H59  1  0.010500  0.094200  0.981500  1.0  0.0927
  H  H60  1  0.783900  0.132000  0.999500  1.0  0.1125
  H  H61  1  0.843400  0.037400  0.033700  1.0  0.1034
  H  H62  1  0.048300  0.093100  0.159500  1.0  0.1066
  H  H63  1  0.064600  0.023400  0.212700  1.0  0.0829
  H  H64  1  0.849000  0.972100  0.093800  1.0  0.0895
  H  H65  1  0.131200  0.440200  0.701400  1.0  0.1027
  H  H66  1  0.115400  0.531800  0.825400  1.0  0.0687
  H  H67  1  0.081900  0.380700  0.750000  1.0  0.1003
  H  H68  1  0.070800  0.472100  0.876400  1.0  0.1229
  H  H69  1  0.194800  0.339300  0.860400  1.0  0.1293
  H  H70  1  0.935400  0.321500  0.821400  1.0  0.1099
  H  H71  1  0.208800  0.260500  0.841400  1.0  0.0941
  H  H72  1  0.951600  0.242300  0.803300  1.0  0.1001
  H  H73  1  0.185500  0.797900  0.765800  1.0  0.1017
  H  H74  1  0.374600  0.699500  0.822200  1.0  0.0932
  H  H75  1  0.288900  0.857700  0.807700  1.0  0.1275
  H  H76  1  0.475100  0.758100  0.865900  1.0  0.1241
  H  H77  1  0.573500  0.904100  0.901400  1.0  0.1092
  H  H78  1  0.420700  0.812800  0.955800  1.0  0.1098
  H  H79  1  0.656000  0.915600  0.999100  1.0  0.0952
  H  H80  1  0.500200  0.828400  0.053800  1.0  0.1017
  H  H81  1  0.245700  0.638200  0.864400  1.0  0.0884
  H  H82  1  0.129900  0.570400  0.967500  1.0  0.0964
  H  H83  1  0.382800  0.625200  0.934300  1.0  0.1111
  H  H84  1  0.265500  0.555600  0.036700  1.0  0.0919
  H  H85  1  0.539800  0.581700  0.129300  1.0  0.1145
  H  H86  1  0.373800  0.497000  0.010200  1.0  0.116
  H  H87  1  0.608900  0.515800  0.181400  1.0  0.0897
  H  H88  1  0.437500  0.431500  0.068800  1.0  0.0971
  H  H89  1  0.874600  0.766900  0.869500  1.0  0.1004
  H  H90  1  0.615900  0.791800  0.804700  1.0  0.0866
  H  H91  1  0.899200  0.845300  0.895900  1.0  0.1024
  H  H92  1  0.640600  0.871100  0.825300  1.0  0.0885
  H  H93  1  0.751500  0.972000  0.944800  1.0  0.1153
  H  H94  1  0.713600  0.940500  0.774000  1.0  0.1117
  H  H95  1  0.660300  0.037400  0.916900  1.0  0.0981
  H  H96  1  0.623900  0.006400  0.745300  1.0  0.083
  H  H97  1  0.904200  0.506100  0.869300  1.0  0.1048
  H  H98  1  0.642600  0.489100  0.825300  1.0  0.0924
  H  H99  1  0.922100  0.425800  0.885300  1.0  0.1025
  H  H100  1  0.660200  0.408200  0.835100  1.0  0.1185
  H  H101  1  0.735900  0.328600  0.773000  1.0  0.1144
  H  H102  1  0.736400  0.318700  0.940500  1.0  0.1253
  H  H103  1  0.644100  0.262000  0.748700  1.0  0.0859
  H  H104  1  0.643200  0.254100  0.915800  1.0  0.0941
  H  H105  1  0.777600  0.641500  0.604200  1.0  0.0943
  H  H106  1  0.544600  0.603900  0.622800  1.0  0.0889
  H  H107  1  0.489500  0.594200  0.518500  1.0  0.0932
  H  H108  1  0.716100  0.632000  0.500500  1.0  0.1128
  H  H109  1  0.656600  0.537400  0.466300  1.0  0.1032
  H  H110  1  0.451700  0.593100  0.340500  1.0  0.1067
  H  H111  1  0.435400  0.523400  0.287300  1.0  0.0832
  H  H112  1  0.651000  0.472100  0.406200  1.0  0.0902
  H  H113  1  0.631200  0.059800  0.201400  1.0  0.1027
  H  H114  1  0.615400  0.968200  0.325400  1.0  0.0686
  H  H115  1  0.581900  0.119300  0.250000  1.0  0.1008
  H  H116  1  0.570800  0.027900  0.376400  1.0  0.123
  H  H117  1  0.694800  0.160700  0.360400  1.0  0.1294
  H  H118  1  0.435400  0.178500  0.321400  1.0  0.1098
  H  H119  1  0.708800  0.239500  0.341400  1.0  0.0939
  H  H120  1  0.451600  0.257700  0.303300  1.0  0.1
  H  H121  1  0.685500  0.702100  0.265800  1.0  0.1023
  H  H122  1  0.874600  0.800500  0.322200  1.0  0.0933
  H  H123  1  0.788900  0.642300  0.307700  1.0  0.1276
  H  H124  1  0.975100  0.741900  0.365900  1.0  0.1241
  H  H125  1  0.073500  0.595900  0.401400  1.0  0.1095
  H  H126  1  0.920700  0.687200  0.455800  1.0  0.1074
  H  H127  1  0.156000  0.584400  0.499100  1.0  0.0955
  H  H128  1  0.000200  0.671600  0.553800  1.0  0.0997
  H  H129  1  0.745700  0.861800  0.364400  1.0  0.0881
  H  H130  1  0.629900  0.929600  0.467500  1.0  0.0963
  H  H131  1  0.882800  0.874800  0.434300  1.0  0.1109
  H  H132  1  0.765500  0.944400  0.536700  1.0  0.0917
  H  H133  1  0.039800  0.918300  0.629300  1.0  0.1142
  H  H134  1  0.873800  0.003000  0.510200  1.0  0.1159
  H  H135  1  0.108900  0.984200  0.681400  1.0  0.0896
  H  H136  1  0.937500  0.068500  0.568800  1.0  0.098
  H  H137  1  0.374600  0.733100  0.369500  1.0  0.1004
  H  H138  1  0.115900  0.708200  0.304700  1.0  0.0864
  H  H139  1  0.399200  0.654700  0.395900  1.0  0.1024
  H  H140  1  0.140600  0.628900  0.325300  1.0  0.0882
  H  H141  1  0.251500  0.528000  0.444800  1.0  0.1152
  H  H142  1  0.213600  0.559500  0.274000  1.0  0.1115
  H  H143  1  0.160300  0.462600  0.416900  1.0  0.0982
  H  H144  1  0.123900  0.493600  0.245300  1.0  0.0827
  H  H145  1  0.404200  0.993900  0.369300  1.0  0.1051
  H  H146  1  0.142600  0.010900  0.325300  1.0  0.0926
  H  H147  1  0.422100  0.074200  0.385300  1.0  0.1022
  H  H148  1  0.160200  0.091800  0.335100  1.0  0.1187
  H  H149  1  0.235900  0.171400  0.273000  1.0  0.1144
  H  H150  1  0.236400  0.181300  0.440500  1.0  0.1245
  H  H151  1  0.144100  0.238000  0.248700  1.0  0.0858
  H  H152  1  0.143200  0.245900  0.415800  1.0  0.0937
  H  H153  1  0.277600  0.858500  0.104200  1.0  0.0942
  H  H154  1  0.044600  0.896100  0.122800  1.0  0.0892
  H  H155  1  0.989500  0.905800  0.018500  1.0  0.0932
  H  H156  1  0.216100  0.868000  0.000500  1.0  0.1127
  H  H157  1  0.156600  0.962600  0.966300  1.0  0.103
  H  H158  1  0.951700  0.906900  0.840500  1.0  0.1063
  H  H159  1  0.935400  0.976600  0.787300  1.0  0.083
  H  H160  1  0.151000  0.027900  0.906200  1.0  0.0894
  H  H161  1  0.868800  0.559800  0.298600  1.0  0.1024
  H  H162  1  0.884600  0.468200  0.174600  1.0  0.0686
  H  H163  1  0.918100  0.619300  0.250000  1.0  0.1008
  H  H164  1  0.929200  0.527900  0.123600  1.0  0.1235
  H  H165  1  0.805200  0.660700  0.139600  1.0  0.1293
  H  H166  1  0.064600  0.678500  0.178600  1.0  0.1102
  H  H167  1  0.791200  0.739500  0.158600  1.0  0.0925
  H  H168  1  0.048400  0.757700  0.196700  1.0  0.1004
  H  H169  1  0.814500  0.202100  0.234200  1.0  0.1025
  H  H170  1  0.625400  0.300500  0.177800  1.0  0.0929
  H  H171  1  0.711100  0.142300  0.192300  1.0  0.128
  H  H172  1  0.524900  0.241900  0.134100  1.0  0.1255
  H  H173  1  0.426500  0.095900  0.098600  1.0  0.1104
  H  H174  1  0.579300  0.187200  0.044200  1.0  0.1103
  H  H175  1  0.344000  0.084400  0.000900  1.0  0.0953
  H  H176  1  0.499800  0.171600  0.946200  1.0  0.1025
  H  H177  1  0.754300  0.361800  0.135600  1.0  0.0881
  H  H178  1  0.870100  0.429600  0.032500  1.0  0.0963
  H  H179  1  0.617200  0.374800  0.065700  1.0  0.1109
  H  H180  1  0.734500  0.444400  0.963300  1.0  0.0922
  H  H181  1  0.460200  0.418300  0.870700  1.0  0.1133
  H  H182  1  0.626200  0.503000  0.989800  1.0  0.1161
  H  H183  1  0.391100  0.484200  0.818600  1.0  0.0892
  H  H184  1  0.562500  0.568500  0.931200  1.0  0.0976
  H  H185  1  0.125400  0.233100  0.130500  1.0  0.1008
  H  H186  1  0.384100  0.208200  0.195300  1.0  0.0871
  H  H187  1  0.100800  0.154700  0.104100  1.0  0.1019
  H  H188  1  0.359400  0.128900  0.174700  1.0  0.0881
  H  H189  1  0.248500  0.028000  0.055200  1.0  0.1148
  H  H190  1  0.286400  0.059500  0.226000  1.0  0.1109
  H  H191  1  0.339700  0.962600  0.083100  1.0  0.098
  H  H192  1  0.376100  0.993600  0.254700  1.0  0.083
  H  H193  1  0.095800  0.493900  0.130700  1.0  0.1043
  H  H194  1  0.357400  0.510900  0.174700  1.0  0.0928
  H  H195  1  0.077900  0.574200  0.114700  1.0  0.1019
  H  H196  1  0.339800  0.591800  0.164900  1.0  0.119
  H  H197  1  0.264100  0.671400  0.227000  1.0  0.1137
  H  H198  1  0.263600  0.681300  0.059500  1.0  0.1246
  H  H199  1  0.355900  0.738000  0.251300  1.0  0.0859
  H  H200  1  0.356800  0.745900  0.084200  1.0  0.094
  H  H201  1  0.222400  0.358500  0.395800  1.0  0.0933
  H  H202  1  0.455400  0.396100  0.377200  1.0  0.0889
  H  H203  1  0.510500  0.405800  0.481500  1.0  0.093
  H  H204  1  0.283900  0.368000  0.499500  1.0  0.1125
  H  H205  1  0.343400  0.462600  0.533700  1.0  0.1036
  H  H206  1  0.548300  0.406900  0.659500  1.0  0.1068
  H  H207  1  0.564600  0.476600  0.712700  1.0  0.0827
  H  H208  1  0.349000  0.527900  0.593800  1.0  0.0897
  C  C209  1  0.331800  0.031000  0.769000  1.0  0.6927
  C  C210  1  0.369200  0.992700  0.739900  1.0  -0.0876
  C  C211  1  0.380400  0.946700  0.763100  1.0  -0.0223
  C  C212  1  0.389100  0.001000  0.689300  1.0  -0.0219
  C  C213  1  0.408400  0.911100  0.733800  1.0  -0.2297
  C  C214  1  0.415800  0.965500  0.658500  1.0  -0.2378
  C  C215  1  0.422100  0.920700  0.680400  1.0  0.297
  C  C216  1  0.436600  0.838100  0.658500  1.0  0.2904
  C  C217  1  0.354700  0.820000  0.651800  1.0  -0.2359
  C  C218  1  0.509100  0.809200  0.674900  1.0  -0.2168
  C  C219  1  0.346800  0.773000  0.663300  1.0  -0.0353
  C  C220  1  0.499300  0.762100  0.686000  1.0  -0.0388
  C  C221  1  0.418800  0.743900  0.681500  1.0  -0.1139
  C  C222  1  0.408800  0.693400  0.698600  1.0  0.7137
  C  C223  1  0.296100  0.206300  0.738800  1.0  0.6662
  C  C224  1  0.229500  0.243000  0.710700  1.0  -0.1671
  C  C225  1  0.256000  0.290100  0.714800  1.0  -0.0196
  C  C226  1  0.142900  0.231100  0.680600  1.0  -0.0154
  C  C227  1  0.194800  0.325900  0.689600  1.0  -0.2279
  C  C228  1  0.082800  0.266000  0.655000  1.0  -0.2502
  C  C229  1  0.108900  0.311900  0.660400  1.0  0.3009
  C  C230  1  0.007500  0.355000  0.580900  1.0  0.3132
  C  C231  1  0.939500  0.387600  0.568200  1.0  -0.2668
  C  C232  1  0.031500  0.333400  0.535300  1.0  -0.1475
  C  C233  1  0.891900  0.395100  0.510000  1.0  -0.041
  C  C234  1  0.983800  0.342700  0.476800  1.0  -0.0183
  C  C235  1  0.913900  0.372500  0.463600  1.0  -0.1419
  C  C236  1  0.854300  0.379600  0.401700  1.0  0.6775
  C  C237  1  0.413500  0.116700  0.635700  1.0  0.678
  C  C238  1  0.326400  0.106100  0.590900  1.0  -0.1718
  C  C239  1  0.250500  0.121900  0.600600  1.0  -0.0115
  C  C240  1  0.319400  0.081400  0.539500  1.0  -0.044
  C  C241  1  0.167900  0.114000  0.558900  1.0  -0.2255
  C  C242  1  0.237900  0.072600  0.497700  1.0  -0.2511
  C  C243  1  0.162600  0.089100  0.507300  1.0  0.297
  C  C244  1  0.048600  0.044800  0.436400  1.0  0.2921
  C  C245  1  0.979300  0.051400  0.384100  1.0  -0.2424
  C  C246  1  0.079700  0.001100  0.454800  1.0  -0.2291
  C  C247  1  0.939500  0.011800  0.352500  1.0  -0.0335
  C  C248  1  0.040000  0.961600  0.419700  1.0  -0.048
  C  C249  1  0.969700  0.966600  0.369700  1.0  -0.0884
  C  C250  1  0.929500  0.925700  0.332400  1.0  0.6986
  C  C251  1  0.772300  0.219800  0.684100  1.0  0.7574
  C  C252  1  0.757600  0.271100  0.667900  1.0  -0.1688
  C  C253  1  0.672700  0.287900  0.639300  1.0  -0.0206
  C  C254  1  0.826700  0.302700  0.678700  1.0  -0.0355
  C  C255  1  0.657700  0.334800  0.623800  1.0  -0.2626
  C  C256  1  0.812200  0.350100  0.665200  1.0  -0.1987
  C  C257  1  0.727700  0.366900  0.637500  1.0  0.2909
  C  C258  1  0.763300  0.449400  0.638300  1.0  0.2962
  C  C259  1  0.775700  0.478600  0.595400  1.0  -0.2043
  C  C260  1  0.798100  0.459800  0.697400  1.0  -0.1983
  C  C261  1  0.829400  0.518100  0.612300  1.0  -0.0333
  C  C262  1  0.851200  0.499500  0.714400  1.0  -0.0306
  C  C263  1  0.867800  0.529300  0.671900  1.0  -0.1346
  C  C264  1  0.928800  0.570900  0.688900  1.0  0.6716
  C  C265  1  0.739600  0.057800  0.663300  1.0  0.7273
  C  C266  1  0.728500  0.005800  0.654100  1.0  -0.167
  C  C267  1  0.644700  0.986600  0.636500  1.0  -0.1069
  C  C268  1  0.801100  0.976100  0.663600  1.0  -0.0314
  C  C269  1  0.634300  0.938600  0.627700  1.0  -0.1629
  C  C270  1  0.790900  0.928000  0.656900  1.0  -0.1907
  C  C271  1  0.706000  0.909200  0.637800  1.0  0.2873
  C  C272  1  0.752600  0.826900  0.640500  1.0  0.3005
  C  C273  1  0.781000  0.812700  0.697800  1.0  -0.2061
  C  C274  1  0.781100  0.806800  0.598200  1.0  -0.1798
  C  C275  1  0.836800  0.772900  0.712100  1.0  -0.028
  C  C276  1  0.836800  0.768200  0.613300  1.0  -0.0452
  C  C277  1  0.863500  0.750100  0.669900  1.0  -0.1103
  C  C278  1  0.923200  0.708500  0.685500  1.0  0.6662
  C  C279  1  0.796200  0.129600  0.808500  1.0  0.6768
  C  C280  1  0.834600  0.124200  0.875200  1.0  -0.1138
  C  C281  1  0.781000  0.132600  0.912300  1.0  -0.0375
  C  C282  1  0.919500  0.110100  0.900800  1.0  -0.0541
  C  C283  1  0.953100  0.104800  0.964200  1.0  -0.192
  C  C284  1  0.818300  0.127100  0.974700  1.0  -0.1695
  C  C285  1  0.904100  0.114800  0.998300  1.0  0.3597
  C  C286  1  0.947500  0.070700  0.090600  1.0  0.3057
  C  C287  1  0.886700  0.035000  0.070600  1.0  -0.1209
  C  C288  1  0.010600  0.067700  0.144900  1.0  -0.1934
  C  C289  1  0.017900  0.026900  0.177700  1.0  -0.0783
  C  C290  1  0.891200  0.995900  0.106100  1.0  -0.0343
  C  C291  1  0.957000  0.991300  0.159300  1.0  -0.1329
  C  C292  1  0.960300  0.949500  0.198600  1.0  0.688
  C  C293  1  0.168200  0.531000  0.731000  1.0  0.693
  C  C294  1  0.130800  0.492700  0.760100  1.0  -0.0875
  C  C295  1  0.119600  0.446700  0.736900  1.0  -0.0245
  C  C296  1  0.110900  0.501000  0.810700  1.0  -0.0225
  C  C297  1  0.091600  0.411100  0.766200  1.0  -0.2281
  C  C298  1  0.084200  0.465500  0.841500  1.0  -0.2394
  C  C299  1  0.077900  0.420700  0.819600  1.0  0.2974
  C  C300  1  0.063400  0.338100  0.841500  1.0  0.2901
  C  C301  1  0.145300  0.320000  0.848200  1.0  -0.2358
  C  C302  1  0.990900  0.309200  0.825100  1.0  -0.219
  C  C303  1  0.153200  0.273000  0.836700  1.0  -0.0362
  C  C304  1  0.000700  0.262100  0.814000  1.0  -0.0388
  C  C305  1  0.081200  0.243900  0.818500  1.0  -0.11
  C  C306  1  0.091200  0.193400  0.801400  1.0  0.7141
  C  C307  1  0.203900  0.706300  0.761200  1.0  0.663
  C  C308  1  0.270500  0.743000  0.789300  1.0  -0.1654
  C  C309  1  0.244000  0.790100  0.785200  1.0  -0.0192
  C  C310  1  0.357100  0.731100  0.819400  1.0  -0.0145
  C  C311  1  0.305200  0.825900  0.810400  1.0  -0.2298
  C  C312  1  0.417200  0.766000  0.845000  1.0  -0.2486
  C  C313  1  0.391100  0.811900  0.839600  1.0  0.301
  C  C314  1  0.492500  0.855000  0.919100  1.0  0.3159
  C  C315  1  0.560500  0.887600  0.931800  1.0  -0.2664
  C  C316  1  0.468500  0.833400  0.964700  1.0  -0.1477
  C  C317  1  0.608100  0.895100  0.990000  1.0  -0.0398
  C  C318  1  0.516200  0.842700  0.023200  1.0  -0.0185
  C  C319  1  0.586100  0.872500  0.036400  1.0  -0.1437
  C  C320  1  0.645700  0.879600  0.098300  1.0  0.6779
  C  C321  1  0.086500  0.616700  0.864300  1.0  0.6765
  C  C322  1  0.173600  0.606100  0.909100  1.0  -0.1706
  C  C323  1  0.249500  0.621900  0.899400  1.0  -0.0114
  C  C324  1  0.180600  0.581400  0.960500  1.0  -0.0443
  C  C325  1  0.332100  0.614000  0.941100  1.0  -0.2259
  C  C326  1  0.262100  0.572600  0.002300  1.0  -0.252
  C  C327  1  0.337400  0.589100  0.992700  1.0  0.2962
  C  C328  1  0.451400  0.544800  0.063600  1.0  0.293
  C  C329  1  0.520700  0.551400  0.115900  1.0  -0.2427
  C  C330  1  0.420300  0.501100  0.045200  1.0  -0.2326
  C  C331  1  0.560500  0.511800  0.147500  1.0  -0.0339
  C  C332  1  0.460000  0.461600  0.080300  1.0  -0.0474
  C  C333  1  0.530300  0.466600  0.130300  1.0  -0.0883
  C  C334  1  0.570500  0.425700  0.167600  1.0  0.6986
  C  C335  1  0.727700  0.719800  0.815900  1.0  0.7574
  C  C336  1  0.742400  0.771100  0.832100  1.0  -0.1646
  C  C337  1  0.827300  0.787900  0.860700  1.0  -0.0221
  C  C338  1  0.673300  0.802700  0.821300  1.0  -0.0351
  C  C339  1  0.842300  0.834800  0.876200  1.0  -0.2628
  C  C340  1  0.687800  0.850100  0.834800  1.0  -0.1959
  C  C341  1  0.772300  0.866900  0.862500  1.0  0.2907
  C  C342  1  0.736700  0.949400  0.861700  1.0  0.2962
  C  C343  1  0.724300  0.978600  0.904600  1.0  -0.2036
  C  C344  1  0.701900  0.959800  0.802600  1.0  -0.1972
  C  C345  1  0.670600  0.018100  0.887700  1.0  -0.0331
  C  C346  1  0.648800  0.999500  0.785600  1.0  -0.0299
  C  C347  1  0.632200  0.029300  0.828100  1.0  -0.1347
  C  C348  1  0.571200  0.070900  0.811100  1.0  0.6725
  C  C349  1  0.760400  0.557800  0.836700  1.0  0.7252
  C  C350  1  0.771500  0.505800  0.845900  1.0  -0.1659
  C  C351  1  0.855300  0.486600  0.863500  1.0  -0.1087
  C  C352  1  0.698900  0.476100  0.836400  1.0  -0.0286
  C  C353  1  0.865700  0.438600  0.872300  1.0  -0.1643
  C  C354  1  0.709100  0.428000  0.843100  1.0  -0.1886
  C  C355  1  0.794000  0.409200  0.862200  1.0  0.2875
  C  C356  1  0.747400  0.326900  0.859500  1.0  0.3018
  C  C357  1  0.719000  0.312700  0.802200  1.0  -0.2067
  C  C358  1  0.718900  0.306800  0.901800  1.0  -0.1785
  C  C359  1  0.663200  0.272900  0.787900  1.0  -0.0258
  C  C360  1  0.663200  0.268200  0.886700  1.0  -0.0447
  C  C361  1  0.636500  0.250100  0.830100  1.0  -0.1149
  C  C362  1  0.576800  0.208500  0.814500  1.0  0.6668
  C  C363  1  0.703800  0.629600  0.691500  1.0  0.6772
  C  C364  1  0.665400  0.624200  0.624800  1.0  -0.1154
  C  C365  1  0.719000  0.632600  0.587700  1.0  -0.0382
  C  C366  1  0.580500  0.610100  0.599200  1.0  -0.0537
  C  C367  1  0.546900  0.604800  0.535800  1.0  -0.1915
  C  C368  1  0.681700  0.627100  0.525300  1.0  -0.166
  C  C369  1  0.595900  0.614800  0.501700  1.0  0.3602
  C  C370  1  0.552500  0.570700  0.409400  1.0  0.306
  C  C371  1  0.613300  0.535000  0.429400  1.0  -0.1215
  C  C372  1  0.489400  0.567700  0.355100  1.0  -0.1913
  C  C373  1  0.482100  0.526900  0.322300  1.0  -0.0782
  C  C374  1  0.608800  0.495900  0.393900  1.0  -0.0346
  C  C375  1  0.543000  0.491300  0.340700  1.0  -0.1328
  C  C376  1  0.539700  0.449500  0.301400  1.0  0.6881
  C  C377  1  0.668200  0.969000  0.231000  1.0  0.6925
  C  C378  1  0.630800  0.007300  0.260100  1.0  -0.088
  C  C379  1  0.619600  0.053300  0.236900  1.0  -0.0244
  C  C380  1  0.610900  0.999000  0.310700  1.0  -0.0232
  C  C381  1  0.591600  0.088900  0.266200  1.0  -0.2281
  C  C382  1  0.584200  0.034500  0.341500  1.0  -0.2397
  C  C383  1  0.577900  0.079300  0.319600  1.0  0.2966
  C  C384  1  0.563400  0.161900  0.341500  1.0  0.2907
  C  C385  1  0.645300  0.180000  0.348200  1.0  -0.2363
  C  C386  1  0.490900  0.190800  0.325100  1.0  -0.2192
  C  C387  1  0.653200  0.227000  0.336700  1.0  -0.0352
  C  C388  1  0.500700  0.237900  0.314000  1.0  -0.0393
  C  C389  1  0.581200  0.256100  0.318500  1.0  -0.1126
  C  C390  1  0.591200  0.306600  0.301400  1.0  0.7144
  C  C391  1  0.703900  0.793700  0.261200  1.0  0.6632
  C  C392  1  0.770500  0.757000  0.289300  1.0  -0.1654
  C  C393  1  0.744000  0.709900  0.285200  1.0  -0.0177
  C  C394  1  0.857100  0.768900  0.319400  1.0  -0.0144
  C  C395  1  0.805200  0.674100  0.310400  1.0  -0.2279
  C  C396  1  0.917200  0.734000  0.345000  1.0  -0.2496
  C  C397  1  0.891100  0.688100  0.339600  1.0  0.3005
  C  C398  1  0.992500  0.645000  0.419100  1.0  0.3144
  C  C399  1  0.060500  0.612400  0.431800  1.0  -0.267
  C  C400  1  0.968500  0.666667  0.464700  1.0  -0.147
  C  C401  1  0.108100  0.604900  0.490000  1.0  -0.0407
  C  C402  1  0.016200  0.657300  0.523200  1.0  -0.0172
  C  C403  1  0.086100  0.627500  0.536400  1.0  -0.1438
  C  C404  1  0.145700  0.620400  0.598300  1.0  0.6777
  C  C405  1  0.586500  0.883300  0.364300  1.0  0.6761
  C  C406  1  0.673600  0.893900  0.409100  1.0  -0.1721
  C  C407  1  0.749500  0.878100  0.399400  1.0  -0.0116
  C  C408  1  0.680600  0.918600  0.460500  1.0  -0.0441
  C  C409  1  0.832100  0.886000  0.441100  1.0  -0.2255
  C  C410  1  0.762100  0.927400  0.502300  1.0  -0.2518
  C  C411  1  0.837400  0.910900  0.492700  1.0  0.2964
  C  C412  1  0.951400  0.955200  0.563600  1.0  0.2929
  C  C413  1  0.020700  0.948600  0.615900  1.0  -0.2437
  C  C414  1  0.920300  0.998900  0.545200  1.0  -0.2329
  C  C415  1  0.060500  0.988200  0.647500  1.0  -0.0334
  C  C416  1  0.960000  0.038400  0.580300  1.0  -0.0473
  C  C417  1  0.030300  0.033400  0.630300  1.0  -0.0885
  C  C418  1  0.070500  0.074300  0.667600  1.0  0.6986
  C  C419  1  0.227700  0.780200  0.315900  1.0  0.7601
  C  C420  1  0.242400  0.728900  0.332100  1.0  -0.1656
  C  C421  1  0.327300  0.712100  0.360700  1.0  -0.0221
  C  C422  1  0.173300  0.697300  0.321300  1.0  -0.0354
  C  C423  1  0.342300  0.665200  0.376200  1.0  -0.2632
  C  C424  1  0.187800  0.649900  0.334800  1.0  -0.1956
  C  C425  1  0.272300  0.633100  0.362500  1.0  0.2912
  C  C426  1  0.236700  0.550600  0.361700  1.0  0.296
  C  C427  1  0.224300  0.521400  0.404600  1.0  -0.2035
  C  C428  1  0.201900  0.540200  0.302600  1.0  -0.1975
  C  C429  1  0.170600  0.481900  0.387700  1.0  -0.033
  C  C430  1  0.148800  0.500500  0.285600  1.0  -0.03
  C  C431  1  0.132200  0.470700  0.328100  1.0  -0.1349
  C  C432  1  0.071200  0.429100  0.311100  1.0  0.673
  C  C433  1  0.260400  0.942200  0.336700  1.0  0.7256
  C  C434  1  0.271500  0.994200  0.345900  1.0  -0.1673
  C  C435  1  0.355300  0.013400  0.363500  1.0  -0.1088
  C  C436  1  0.198900  0.023900  0.336400  1.0  -0.028
  C  C437  1  0.365700  0.061400  0.372300  1.0  -0.1646
  C  C438  1  0.209100  0.072000  0.343100  1.0  -0.1884
  C  C439  1  0.294000  0.090800  0.362200  1.0  0.2873
  C  C440  1  0.247400  0.173100  0.359500  1.0  0.3019
  C  C441  1  0.219000  0.187300  0.302200  1.0  -0.2068
  C  C442  1  0.218900  0.193200  0.401800  1.0  -0.179
  C  C443  1  0.163200  0.227100  0.287900  1.0  -0.0255
  C  C444  1  0.163200  0.231800  0.386700  1.0  -0.0452
  C  C445  1  0.136500  0.249900  0.330100  1.0  -0.1151
  C  C446  1  0.076800  0.291500  0.314500  1.0  0.6674
  C  C447  1  0.203800  0.870400  0.191500  1.0  0.6775
  C  C448  1  0.165400  0.875800  0.124800  1.0  -0.1157
  C  C449  1  0.219000  0.867400  0.087700  1.0  -0.0385
  C  C450  1  0.080500  0.889900  0.099200  1.0  -0.053
  C  C451  1  0.046900  0.895200  0.035800  1.0  -0.1912
  C  C452  1  0.181700  0.872900  0.025300  1.0  -0.1672
  C  C453  1  0.095900  0.885200  0.001700  1.0  0.3588
  C  C454  1  0.052500  0.929300  0.909400  1.0  0.3053
  C  C455  1  0.113300  0.965000  0.929400  1.0  -0.1213
  C  C456  1  0.989400  0.932300  0.855100  1.0  -0.1909
  C  C457  1  0.982100  0.973100  0.822300  1.0  -0.0783
  C  C458  1  0.108800  0.004100  0.893900  1.0  -0.0348
  C  C459  1  0.043000  0.008700  0.840700  1.0  -0.1321
  C  C460  1  0.039700  0.050500  0.801400  1.0  0.6885
  C  C461  1  0.831800  0.469000  0.269000  1.0  0.6925
  C  C462  1  0.869200  0.507300  0.239900  1.0  -0.0867
  C  C463  1  0.880400  0.553300  0.263100  1.0  -0.0222
  C  C464  1  0.889100  0.499000  0.189300  1.0  -0.0218
  C  C465  1  0.908400  0.588900  0.233800  1.0  -0.2297
  C  C466  1  0.915800  0.534500  0.158500  1.0  -0.2377
  C  C467  1  0.922100  0.579300  0.180400  1.0  0.2978
  C  C468  1  0.936600  0.661900  0.158500  1.0  0.2891
  C  C469  1  0.854700  0.680000  0.151800  1.0  -0.2347
  C  C470  1  0.009100  0.690800  0.174900  1.0  -0.217
  C  C471  1  0.846800  0.727000  0.163300  1.0  -0.0362
  C  C472  1  0.999300  0.737900  0.186000  1.0  -0.0388
  C  C473  1  0.918800  0.756100  0.181500  1.0  -0.1132
  C  C474  1  0.908800  0.806600  0.198600  1.0  0.7171
  C  C475  1  0.796100  0.293700  0.238800  1.0  0.6668
  C  C476  1  0.729500  0.257000  0.210700  1.0  -0.1664
  C  C477  1  0.756000  0.209900  0.214800  1.0  -0.0203
  C  C478  1  0.642900  0.268900  0.180600  1.0  -0.0149
  C  C479  1  0.694800  0.174100  0.189600  1.0  -0.2274
  C  C480  1  0.582800  0.234000  0.155000  1.0  -0.2505
  C  C481  1  0.608900  0.188100  0.160400  1.0  0.3007
  C  C482  1  0.507500  0.145000  0.080900  1.0  0.3132
  C  C483  1  0.439500  0.112400  0.068200  1.0  -0.2669
  C  C484  1  0.531500  0.166600  0.035300  1.0  -0.1476
  C  C485  1  0.391900  0.104900  0.010000  1.0  -0.0415
  C  C486  1  0.483800  0.157300  0.976800  1.0  -0.018
  C  C487  1  0.413900  0.127500  0.963600  1.0  -0.1425
  C  C488  1  0.354300  0.120400  0.901700  1.0  0.6773
  C  C489  1  0.913500  0.383300  0.135700  1.0  0.6765
  C  C490  1  0.826400  0.393900  0.090900  1.0  -0.1715
  C  C491  1  0.750500  0.378100  0.100600  1.0  -0.0118
  C  C492  1  0.819400  0.418600  0.039500  1.0  -0.0444
  C  C493  1  0.667900  0.386000  0.058900  1.0  -0.2254
  C  C494  1  0.737900  0.427400  0.997700  1.0  -0.2508
  C  C495  1  0.662600  0.410900  0.007300  1.0  0.2971
  C  C496  1  0.548600  0.455200  0.936400  1.0  0.2921
  C  C497  1  0.479300  0.448600  0.884100  1.0  -0.2439
  C  C498  1  0.579700  0.498900  0.954800  1.0  -0.2303
  C  C499  1  0.439500  0.488200  0.852500  1.0  -0.0336
  C  C500  1  0.540000  0.538400  0.919700  1.0  -0.0474
  C  C501  1  0.469700  0.533400  0.869700  1.0  -0.0884
  C  C502  1  0.429500  0.574300  0.832400  1.0  0.6991
  C  C503  1  0.272300  0.280200  0.184100  1.0  0.7615
  C  C504  1  0.257600  0.228900  0.167900  1.0  -0.1668
  C  C505  1  0.172700  0.212100  0.139300  1.0  -0.0209
  C  C506  1  0.326700  0.197300  0.178700  1.0  -0.0353
  C  C507  1  0.157700  0.165200  0.123800  1.0  -0.2621
  C  C508  1  0.312200  0.149900  0.165200  1.0  -0.1986
  C  C509  1  0.227700  0.133100  0.137500  1.0  0.2906
  C  C510  1  0.263300  0.050600  0.138300  1.0  0.296
  C  C511  1  0.275700  0.021400  0.095400  1.0  -0.2045
  C  C512  1  0.298100  0.040200  0.197400  1.0  -0.1986
  C  C513  1  0.329400  0.981900  0.112300  1.0  -0.033
  C  C514  1  0.351200  0.000500  0.214400  1.0  -0.031
  C  C515  1  0.367800  0.970700  0.171900  1.0  -0.1347
  C  C516  1  0.428800  0.929100  0.188900  1.0  0.672
  C  C517  1  0.239600  0.442200  0.163300  1.0  0.7258
  C  C518  1  0.228500  0.494200  0.154100  1.0  -0.1682
  C  C519  1  0.144700  0.513400  0.136500  1.0  -0.1077
  C  C520  1  0.301100  0.523900  0.163600  1.0  -0.0312
  C  C521  1  0.134300  0.561400  0.127700  1.0  -0.1633
  C  C522  1  0.290900  0.572000  0.156900  1.0  -0.1902
  C  C523  1  0.206000  0.590800  0.137800  1.0  0.2876
  C  C524  1  0.252600  0.673100  0.140500  1.0  0.3009
  C  C525  1  0.281000  0.687300  0.197800  1.0  -0.206
  C  C526  1  0.281100  0.693200  0.098200  1.0  -0.1797
  C  C527  1  0.336800  0.727100  0.212100  1.0  -0.028
  C  C528  1  0.336800  0.731800  0.113300  1.0  -0.0453
  C  C529  1  0.363500  0.749900  0.169900  1.0  -0.1113
  C  C530  1  0.423200  0.791500  0.185500  1.0  0.6671
  C  C531  1  0.296200  0.370400  0.308500  1.0  0.6771
  C  C532  1  0.334600  0.375800  0.375200  1.0  -0.1146
  C  C533  1  0.281000  0.367400  0.412300  1.0  -0.0373
  C  C534  1  0.419500  0.389900  0.400800  1.0  -0.054
  C  C535  1  0.453100  0.395200  0.464200  1.0  -0.1922
  C  C536  1  0.318300  0.372900  0.474700  1.0  -0.1687
  C  C537  1  0.404100  0.385200  0.498300  1.0  0.3593
  C  C538  1  0.447500  0.429300  0.590600  1.0  0.3047
  C  C539  1  0.386700  0.465000  0.570600  1.0  -0.1212
  C  C540  1  0.510600  0.432300  0.644900  1.0  -0.1918
  C  C541  1  0.517900  0.473100  0.677700  1.0  -0.078
  C  C542  1  0.391200  0.504100  0.606100  1.0  -0.0344
  C  C543  1  0.457000  0.508700  0.659300  1.0  -0.1321
  C  C544  1  0.460300  0.550500  0.698600  1.0  0.688
  O  O545  1  0.282600  0.022350  0.799600  1.0  -0.6349
  O  O546  1  0.347400  0.074180  0.758100  1.0  -0.7853
  O  O547  1  0.448100  0.885620  0.647300  1.0  -0.2864
  O  O548  1  0.476700  0.671670  0.727000  1.0  -0.7255
  O  O549  1  0.332200  0.675600  0.685200  1.0  -0.648
  O  O550  1  0.274900  0.162240  0.737800  1.0  -0.7312
  O  O551  1  0.375100  0.217650  0.761000  1.0  -0.6238
  O  O552  1  0.050400  0.349400  0.640000  1.0  -0.2751
  O  O553  1  0.872200  0.361810  0.357000  1.0  -0.8096
  O  O554  1  0.785400  0.404270  0.393500  1.0  -0.6709
  O  O555  1  0.415400  0.141270  0.681100  1.0  -0.7249
  O  O556  1  0.483200  0.102830  0.626400  1.0  -0.65
  O  O557  1  0.079600  0.086400  0.466900  1.0  -0.293
  O  O558  1  0.976000  0.889700  0.334000  1.0  -0.6984
  O  O559  1  0.850800  0.928500  0.300200  1.0  -0.6495
  O  O560  1  0.706100  0.194700  0.680700  1.0  -0.7604
  O  O561  1  0.850200  0.204540  0.699700  1.0  -0.6782
  O  O562  1  0.705500  0.412150  0.617400  1.0  -0.261
  O  O563  1  0.948000  0.588090  0.741600  1.0  -0.7682
  O  O564  1  0.961500  0.586620  0.651500  1.0  -0.6107
  O  O565  1  0.676800  0.079790  0.673200  1.0  -0.7286
  O  O566  1  0.808500  0.077410  0.660200  1.0  -0.7115
  O  O567  1  0.687700  0.862230  0.623800  1.0  -0.2825
  O  O568  1  0.943100  0.690980  0.737630  1.0  -0.7842
  O  O569  1  0.957400  0.692850  0.648400  1.0  -0.6732
  O  O570  1  0.848200  0.126900  0.779500  1.0  -0.6761
  O  O571  1  0.716000  0.137390  0.788300  1.0  -0.6759
  O  O572  1  0.944300  0.113300  0.058700  1.0  -0.2799
  O  O573  1  0.891900  0.924640  0.186800  1.0  -0.6865
  O  O574  1  0.028400  0.940850  0.240700  1.0  -0.6714
  O  O575  1  0.217400  0.522350  0.700400  1.0  -0.635
  O  O576  1  0.152600  0.574180  0.741900  1.0  -0.7857
  O  O577  1  0.051900  0.385620  0.852700  1.0  -0.2903
  O  O578  1  0.023300  0.171670  0.773000  1.0  -0.7261
  O  O579  1  0.167800  0.175600  0.814800  1.0  -0.6458
  O  O580  1  0.225100  0.662240  0.762200  1.0  -0.7319
  O  O581  1  0.124900  0.717650  0.739000  1.0  -0.6223
  O  O582  1  0.449600  0.849400  0.860000  1.0  -0.276
  O  O583  1  0.627800  0.861810  0.143000  1.0  -0.8084
  O  O584  1  0.714600  0.904270  0.106500  1.0  -0.6717
  O  O585  1  0.084600  0.641270  0.818900  1.0  -0.725
  O  O586  1  0.016800  0.602830  0.873600  1.0  -0.6484
  O  O587  1  0.420400  0.586400  0.033100  1.0  -0.2924
  O  O588  1  0.524000  0.389700  0.166000  1.0  -0.6987
  O  O589  1  0.649200  0.428500  0.199800  1.0  -0.6495
  O  O590  1  0.793900  0.694700  0.819300  1.0  -0.7606
  O  O591  1  0.649800  0.704540  0.800300  1.0  -0.6765
  O  O592  1  0.794500  0.912150  0.882600  1.0  -0.2614
  O  O593  1  0.552000  0.088090  0.758400  1.0  -0.7662
  O  O594  1  0.538500  0.086620  0.848500  1.0  -0.6108
  O  O595  1  0.823200  0.579790  0.826800  1.0  -0.7282
  O  O596  1  0.691500  0.577410  0.839800  1.0  -0.7105
  O  O597  1  0.812300  0.362230  0.876200  1.0  -0.2822
  O  O598  1  0.556900  0.190980  0.762370  1.0  -0.7849
  O  O599  1  0.542600  0.192850  0.851600  1.0  -0.6749
  O  O600  1  0.651800  0.626900  0.720500  1.0  -0.6762
  O  O601  1  0.784000  0.637390  0.711700  1.0  -0.6767
  O  O602  1  0.555700  0.613300  0.441300  1.0  -0.2801
  O  O603  1  0.608100  0.424640  0.313200  1.0  -0.686
  O  O604  1  0.471600  0.440850  0.259300  1.0  -0.6704
  O  O605  1  0.717400  0.977650  0.200400  1.0  -0.6353
  O  O606  1  0.652600  0.925820  0.241900  1.0  -0.785
  O  O607  1  0.551900  0.114380  0.352700  1.0  -0.2899
  O  O608  1  0.523300  0.328330  0.273000  1.0  -0.7265
  O  O609  1  0.667800  0.324400  0.314800  1.0  -0.6459
  O  O610  1  0.725100  0.837760  0.262200  1.0  -0.7329
  O  O611  1  0.624900  0.782350  0.239000  1.0  -0.6216
  O  O612  1  0.949600  0.650600  0.360000  1.0  -0.2756
  O  O613  1  0.127800  0.638190  0.643000  1.0  -0.8083
  O  O614  1  0.214600  0.595730  0.606500  1.0  -0.6711
  O  O615  1  0.584600  0.858730  0.318900  1.0  -0.7245
  O  O616  1  0.516800  0.897170  0.373600  1.0  -0.6483
  O  O617  1  0.920400  0.913600  0.533100  1.0  -0.2918
  O  O618  1  0.024000  0.110300  0.666000  1.0  -0.6979
  O  O619  1  0.149200  0.071500  0.699800  1.0  -0.6492
  O  O620  1  0.293900  0.805300  0.319300  1.0  -0.761
  O  O621  1  0.149800  0.795460  0.300300  1.0  -0.6773
  O  O622  1  0.294500  0.587850  0.382600  1.0  -0.2612
  O  O623  1  0.052000  0.411910  0.258400  1.0  -0.7677
  O  O624  1  0.038500  0.413380  0.348500  1.0  -0.6103
  O  O625  1  0.323200  0.920210  0.326800  1.0  -0.7288
  O  O626  1  0.191500  0.922590  0.339800  1.0  -0.7103
  O  O627  1  0.312300  0.137770  0.376200  1.0  -0.2815
  O  O628  1  0.056900  0.309020  0.262370  1.0  -0.7851
  O  O629  1  0.042600  0.307150  0.351600  1.0  -0.67
  O  O630  1  0.151800  0.873100  0.220500  1.0  -0.6756
  O  O631  1  0.284000  0.862610  0.211700  1.0  -0.6763
  O  O632  1  0.055700  0.886700  0.941300  1.0  -0.2812
  O  O633  1  0.108100  0.075360  0.813200  1.0  -0.6862
  O  O634  1  0.971600  0.059150  0.759300  1.0  -0.67
  O  O635  1  0.782600  0.477650  0.299600  1.0  -0.6364
  O  O636  1  0.847400  0.425820  0.258100  1.0  -0.7849
  O  O637  1  0.948100  0.614380  0.147300  1.0  -0.287
  O  O638  1  0.976700  0.828330  0.227000  1.0  -0.7261
  O  O639  1  0.832200  0.824400  0.185200  1.0  -0.6481
  O  O640  1  0.774900  0.337760  0.237800  1.0  -0.7326
  O  O641  1  0.875100  0.282350  0.261000  1.0  -0.6234
  O  O642  1  0.550400  0.150600  0.140000  1.0  -0.2749
  O  O643  1  0.372200  0.138190  0.857000  1.0  -0.8092
  O  O644  1  0.285400  0.095730  0.893500  1.0  -0.6699
  O  O645  1  0.915400  0.358730  0.181100  1.0  -0.724
  O  O646  1  0.983200  0.397170  0.126400  1.0  -0.6505
  O  O647  1  0.579600  0.413600  0.966900  1.0  -0.2939
  O  O648  1  0.476000  0.610300  0.834000  1.0  -0.6973
  O  O649  1  0.350800  0.571500  0.800200  1.0  -0.6494
  O  O650  1  0.206100  0.305300  0.180700  1.0  -0.7595
  O  O651  1  0.350200  0.295460  0.199700  1.0  -0.679
  O  O652  1  0.205500  0.087850  0.117400  1.0  -0.2614
  O  O653  1  0.448000  0.911910  0.241600  1.0  -0.7681
  O  O654  1  0.461500  0.913380  0.151500  1.0  -0.6109
  O  O655  1  0.176800  0.420210  0.173200  1.0  -0.7293
  O  O656  1  0.308500  0.422590  0.160200  1.0  -0.711
  O  O657  1  0.187700  0.637770  0.123800  1.0  -0.2819
  O  O658  1  0.443100  0.809020  0.237630  1.0  -0.7839
  O  O659  1  0.457400  0.807150  0.148400  1.0  -0.675
  O  O660  1  0.348200  0.373100  0.279500  1.0  -0.6759
  O  O661  1  0.216000  0.362610  0.288300  1.0  -0.6759
  O  O662  1  0.444300  0.386700  0.558700  1.0  -0.2812
  O  O663  1  0.391900  0.575360  0.686800  1.0  -0.6864
  O  O664  1  0.528400  0.559150  0.740700  1.0  -0.671
