# generated using pymatgen
data_NiH12C15NO4
_symmetry_space_group_name_H-M   'P 1'
_cell_length_a   9.47780000
_cell_length_b   11.06570000
_cell_length_c   12.69360000
_cell_angle_alpha   101.54400000
_cell_angle_beta   92.06540000
_cell_angle_gamma   100.59100000
_symmetry_Int_Tables_number   1
_chemical_formula_structural   NiH12C15NO4
_chemical_formula_sum   'Ni2 H24 C30 N2 O8'
_cell_volume   1278.46427941
_cell_formula_units_Z   2
loop_
 _symmetry_equiv_pos_site_id
 _symmetry_equiv_pos_as_xyz
  1  'x, y, z'
loop_
 _atom_site_type_symbol
 _atom_site_label
 _atom_site_symmetry_multiplicity
 _atom_site_fract_x
 _atom_site_fract_y
 _atom_site_fract_z
 _atom_site_occupancy
 _atom_site_charge
  Ni  Ni1  1  0.167620  0.266340  0.454720  1.0  0.7507
  Ni  Ni2  1  0.904800  0.273670  0.477090  1.0  0.7703
  H  H3  1  0.247310  0.324450  0.133390  1.0  0.1245
  H  H4  1  0.328760  0.285900  0.948320  1.0  0.1251
  H  H5  1  0.795040  0.286290  0.174700  1.0  0.1123
  H  H6  1  0.825400  0.227910  0.796660  1.0  0.1212
  H  H7  1  0.743030  0.243000  0.979010  1.0  0.1308
  H  H8  1  0.276640  0.245800  0.754120  1.0  0.119
  H  H9  1  0.891440  0.604190  0.584490  1.0  0.104
  H  H10  1  0.756910  0.764710  0.566710  1.0  0.114
  H  H11  1  0.308690  0.597680  0.452500  1.0  0.1121
  H  H12  1  0.151690  0.953240  0.354860  1.0  0.1215
  H  H13  1  0.289770  0.791760  0.374860  1.0  0.1263
  H  H14  1  0.732980  0.954890  0.483210  1.0  0.1171
  H  H15  1  0.431750  0.368860  0.633280  1.0  0.1009
  H  H16  1  0.457010  0.474020  0.535590  1.0  0.1012
  H  H17  1  0.380630  0.072140  0.427300  1.0  0.1327
  H  H18  1  0.391540  0.145420  0.573440  1.0  0.1046
  H  H19  1  0.438930  0.379100  0.344360  1.0  0.1039
  H  H20  1  0.411470  0.206150  0.298310  1.0  0.1085
  H  H21  1  0.698020  0.480420  0.547910  1.0  0.1412
  H  H22  1  0.673050  0.374670  0.645240  1.0  0.1097
  H  H23  1  0.630970  0.156470  0.582710  1.0  0.1097
  H  H24  1  0.614840  0.080560  0.438170  1.0  0.1221
  H  H25  1  0.647000  0.217350  0.303990  1.0  0.0997
  H  H26  1  0.675300  0.389970  0.354280  1.0  0.1023
  C  C27  1  0.475850  0.380770  0.552820  1.0  -0.0012
  C  C28  1  0.433460  0.156980  0.492260  1.0  -0.0167
  C  C29  1  0.461900  0.289030  0.365870  1.0  -0.0059
  C  C30  1  0.054720  0.333260  0.286880  1.0  0.6334
  C  C31  1  0.025850  0.307000  0.168800  1.0  -0.1101
  C  C32  1  0.137880  0.308780  0.099430  1.0  -0.1376
  C  C33  1  0.108050  0.281070  0.986620  1.0  0.0595
  C  C34  1  0.218850  0.273570  0.916930  1.0  -0.1088
  C  C35  1  0.883540  0.286070  0.123710  1.0  -0.1
  C  C36  1  0.104590  0.470490  0.546280  1.0  0.4136
  C  C37  1  0.092960  0.591480  0.510380  1.0  -0.0237
  C  C38  1  0.977260  0.646900  0.534710  1.0  -0.054
  C  C39  1  0.966850  0.751850  0.499040  1.0  0.01
  C  C40  1  0.844130  0.806170  0.517350  1.0  -0.1233
  C  C41  1  0.210030  0.643310  0.460550  1.0  -0.1157
  C  C42  1  0.639820  0.385410  0.560910  1.0  -0.0146
  C  C43  1  0.595110  0.165910  0.498530  1.0  -0.0027
  C  C44  1  0.622280  0.294900  0.370340  1.0  -0.0055
  C  C45  1  0.021950  0.206940  0.643110  1.0  0.6392
  C  C46  1  0.047590  0.235160  0.760900  1.0  -0.1143
  C  C47  1  0.935040  0.238660  0.830090  1.0  -0.1137
  C  C48  1  0.964570  0.260220  0.942540  1.0  0.0617
  C  C49  1  0.853470  0.263070  0.011860  1.0  -0.0742
  C  C50  1  0.188870  0.250140  0.805510  1.0  -0.1152
  C  C51  1  0.952210  0.081880  0.388660  1.0  0.6213
  C  C52  1  0.945330  0.955980  0.421080  1.0  -0.0711
  C  C53  1  0.065430  0.907950  0.402940  1.0  -0.1067
  C  C54  1  0.080610  0.804790  0.443280  1.0  0.0254
  C  C55  1  0.200490  0.749980  0.422460  1.0  -0.1415
  C  C56  1  0.831220  0.908680  0.475330  1.0  -0.0791
  N  N57  1  0.397630  0.274160  0.464950  1.0  -0.2391
  N  N58  1  0.682410  0.279890  0.476250  1.0  -0.2513
  O  O59  1  0.178910  0.337500  0.333190  1.0  -0.583
  O  O60  1  0.942410  0.327010  0.340250  1.0  -0.5956
  O  O61  1  0.982710  0.422770  0.570720  1.0  -0.6126
  O  O62  1  0.849940  0.135300  0.393580  1.0  -0.5184
  O  O63  1  0.899280  0.205510  0.597320  1.0  -0.5717
  O  O64  1  0.133890  0.208930  0.589250  1.0  -0.6066
  O  O65  1  0.076540  0.117920  0.359720  1.0  -0.5865
  O  O66  1  0.209420  0.402320  0.543070  1.0  -0.5488
