# generated using pymatgen
data_NiH12C15NO4
_symmetry_space_group_name_H-M   'P 1'
_cell_length_a   20.40510000
_cell_length_b   16.49690000
_cell_length_c   9.34690000
_cell_angle_alpha   90.00000000
_cell_angle_beta   94.12210000
_cell_angle_gamma   90.00000000
_symmetry_Int_Tables_number   1
_chemical_formula_structural   NiH12C15NO4
_chemical_formula_sum   'Ni4 H48 C60 N4 O16'
_cell_volume   3138.22260969
_cell_formula_units_Z   4
loop_
 _symmetry_equiv_pos_site_id
 _symmetry_equiv_pos_as_xyz
  1  'x, y, z'
loop_
 _atom_site_type_symbol
 _atom_site_label
 _atom_site_symmetry_multiplicity
 _atom_site_fract_x
 _atom_site_fract_y
 _atom_site_fract_z
 _atom_site_occupancy
 _atom_site_charge
  Ni  Ni1  1  0.251770  0.250000  0.637250  1.0  0.763
  Ni  Ni2  1  0.250090  0.250000  0.392370  1.0  0.8376
  Ni  Ni3  1  0.748230  0.750000  0.362750  1.0  0.7646
  Ni  Ni4  1  0.749910  0.750000  0.607630  1.0  0.8381
  H  H5  1  0.083220  0.075940  0.708530  1.0  0.1186
  H  H6  1  0.354400  0.068460  0.300690  1.0  0.1262
  H  H7  1  0.992860  0.988450  0.790950  1.0  0.1232
  H  H8  1  0.338280  0.302930  0.144220  1.0  0.1002
  H  H9  1  0.341040  0.196600  0.894920  1.0  0.1111
  H  H10  1  0.456970  0.103170  0.712320  1.0  0.1215
  H  H11  1  0.101300  0.100460  0.256000  1.0  0.1045
  H  H12  1  0.443350  0.981400  0.229090  1.0  0.1257
  H  H13  1  0.234590  0.121420  0.124700  1.0  0.1116
  H  H14  1  0.159820  0.174980  0.110610  1.0  0.1179
  H  H15  1  0.160820  0.176800  0.863280  1.0  0.1047
  H  H16  1  0.234560  0.121450  0.872360  1.0  0.109
  H  H17  1  0.916780  0.575940  0.291470  1.0  0.1199
  H  H18  1  0.645600  0.568460  0.699310  1.0  0.1263
  H  H19  1  0.007140  0.488450  0.209050  1.0  0.1239
  H  H20  1  0.661720  0.802930  0.855780  1.0  0.1001
  H  H21  1  0.658960  0.696600  0.105080  1.0  0.1108
  H  H22  1  0.543030  0.603170  0.287680  1.0  0.1216
  H  H23  1  0.898700  0.600460  0.744000  1.0  0.1044
  H  H24  1  0.556650  0.481400  0.770910  1.0  0.1256
  H  H25  1  0.765410  0.621420  0.875300  1.0  0.1104
  H  H26  1  0.840180  0.674980  0.889390  1.0  0.119
  H  H27  1  0.839180  0.676800  0.136720  1.0  0.1048
  H  H28  1  0.765440  0.621450  0.127640  1.0  0.1095
  H  H29  1  0.916780  0.924060  0.291470  1.0  0.1201
  H  H30  1  0.645600  0.931540  0.699310  1.0  0.1258
  H  H31  1  0.007140  0.011550  0.209050  1.0  0.1237
  H  H32  1  0.661720  0.697070  0.855780  1.0  0.1002
  H  H33  1  0.658960  0.803400  0.105080  1.0  0.1105
  H  H34  1  0.543030  0.896830  0.287680  1.0  0.1214
  H  H35  1  0.898700  0.899540  0.744000  1.0  0.1046
  H  H36  1  0.556650  0.018600  0.770910  1.0  0.1257
  H  H37  1  0.765410  0.878580  0.875300  1.0  0.1106
  H  H38  1  0.840180  0.825020  0.889390  1.0  0.1177
  H  H39  1  0.839180  0.823200  0.136720  1.0  0.1048
  H  H40  1  0.765440  0.878550  0.127640  1.0  0.1081
  H  H41  1  0.083220  0.424060  0.708530  1.0  0.1185
  H  H42  1  0.354400  0.431540  0.300690  1.0  0.1258
  H  H43  1  0.992860  0.511550  0.790950  1.0  0.1233
  H  H44  1  0.338280  0.197070  0.144220  1.0  0.1005
  H  H45  1  0.341040  0.303400  0.894920  1.0  0.11
  H  H46  1  0.456970  0.396830  0.712320  1.0  0.1214
  H  H47  1  0.101300  0.399540  0.256000  1.0  0.1045
  H  H48  1  0.443350  0.518600  0.229090  1.0  0.1256
  H  H49  1  0.234590  0.378580  0.124700  1.0  0.1112
  H  H50  1  0.159820  0.325020  0.110610  1.0  0.1168
  H  H51  1  0.160820  0.323200  0.863280  1.0  0.1054
  H  H52  1  0.234560  0.378550  0.872360  1.0  0.1091
  C  C53  1  0.158190  0.147830  0.503690  1.0  0.7053
  C  C54  1  0.100370  0.097620  0.485810  1.0  -0.0559
  C  C55  1  0.066800  0.062040  0.598930  1.0  -0.1129
  C  C56  1  0.394760  0.055750  0.377750  1.0  -0.1033
  C  C57  1  0.977760  0.974450  0.681830  1.0  -0.092
  C  C58  1  0.011630  0.008790  0.570920  1.0  -0.0002
  C  C59  1  0.341820  0.150430  0.528330  1.0  0.6634
  C  C60  1  0.396110  0.091750  0.514640  1.0  -0.0845
  C  C61  1  0.451740  0.073280  0.609050  1.0  -0.0817
  C  C62  1  0.076880  0.076890  0.345680  1.0  -0.085
  C  C63  1  0.444840  0.003350  0.337060  1.0  -0.0808
  C  C64  1  0.501730  0.017850  0.568550  1.0  -0.0103
  C  C65  1  0.211100  0.177730  0.080850  1.0  -0.0824
  C  C66  1  0.212100  0.178140  0.909650  1.0  -0.073
  C  C67  1  0.841810  0.647830  0.496310  1.0  0.7054
  C  C68  1  0.899630  0.597620  0.514190  1.0  -0.0554
  C  C69  1  0.933200  0.562040  0.401070  1.0  -0.116
  C  C70  1  0.605240  0.555750  0.622250  1.0  -0.1022
  C  C71  1  0.022240  0.474450  0.318170  1.0  -0.0917
  C  C72  1  0.988370  0.508790  0.429080  1.0  0.0007
  C  C73  1  0.658180  0.650430  0.471670  1.0  0.6617
  C  C74  1  0.603890  0.591750  0.485360  1.0  -0.0811
  C  C75  1  0.548260  0.573280  0.390950  1.0  -0.081
  C  C76  1  0.923120  0.576890  0.654320  1.0  -0.0864
  C  C77  1  0.555160  0.503350  0.662940  1.0  -0.0802
  C  C78  1  0.498270  0.517850  0.431450  1.0  -0.0109
  C  C79  1  0.788900  0.677730  0.919150  1.0  -0.0809
  C  C80  1  0.787900  0.678140  0.090350  1.0  -0.0718
  C  C81  1  0.841810  0.852170  0.496310  1.0  0.7054
  C  C82  1  0.899630  0.902380  0.514190  1.0  -0.0555
  C  C83  1  0.933200  0.937960  0.401070  1.0  -0.1233
  C  C84  1  0.605240  0.944250  0.622250  1.0  -0.1011
  C  C85  1  0.022240  0.025550  0.318170  1.0  -0.0918
  C  C86  1  0.988370  0.991210  0.429080  1.0  0.0008
  C  C87  1  0.658180  0.849570  0.471670  1.0  0.6615
  C  C88  1  0.603890  0.908250  0.485360  1.0  -0.0829
  C  C89  1  0.548260  0.926720  0.390950  1.0  -0.0801
  C  C90  1  0.923120  0.923110  0.654320  1.0  -0.0873
  C  C91  1  0.555160  0.996650  0.662940  1.0  -0.0794
  C  C92  1  0.498270  0.982150  0.431450  1.0  -0.0115
  C  C93  1  0.788900  0.822270  0.919150  1.0  -0.083
  C  C94  1  0.787900  0.821860  0.090350  1.0  -0.0712
  C  C95  1  0.158190  0.352170  0.503690  1.0  0.7055
  C  C96  1  0.100370  0.402380  0.485810  1.0  -0.0562
  C  C97  1  0.066800  0.437960  0.598930  1.0  -0.1198
  C  C98  1  0.394760  0.444250  0.377750  1.0  -0.1023
  C  C99  1  0.977760  0.525550  0.681830  1.0  -0.0916
  C  C100  1  0.011630  0.491210  0.570920  1.0  -0.0002
  C  C101  1  0.341820  0.349570  0.528330  1.0  0.6622
  C  C102  1  0.396110  0.408250  0.514640  1.0  -0.083
  C  C103  1  0.451740  0.426720  0.609050  1.0  -0.0814
  C  C104  1  0.076880  0.423110  0.345680  1.0  -0.0849
  C  C105  1  0.444840  0.496650  0.337060  1.0  -0.0801
  C  C106  1  0.501730  0.482150  0.568550  1.0  -0.0104
  C  C107  1  0.211100  0.322270  0.080850  1.0  -0.0829
  C  C108  1  0.212100  0.321860  0.909650  1.0  -0.0721
  C  C109  1  0.311150  0.250000  0.099540  1.0  -0.0743
  C  C110  1  0.313010  0.250000  0.928410  1.0  -0.0634
  C  C111  1  0.688850  0.750000  0.900460  1.0  -0.0754
  C  C112  1  0.686990  0.750000  0.071590  1.0  -0.0669
  N  N113  1  0.246500  0.250000  0.851990  1.0  -0.1585
  N  N114  1  0.243620  0.250000  0.150640  1.0  -0.2508
  N  N115  1  0.753500  0.750000  0.148010  1.0  -0.1588
  N  N116  1  0.756380  0.750000  0.849360  1.0  -0.2506
  O  O117  1  0.311530  0.172960  0.408710  1.0  -0.5884
  O  O118  1  0.184910  0.169810  0.627290  1.0  -0.6273
  O  O119  1  0.184450  0.170900  0.388100  1.0  -0.5968
  O  O120  1  0.320590  0.175100  0.649220  1.0  -0.5931
  O  O121  1  0.688470  0.672960  0.591290  1.0  -0.5886
  O  O122  1  0.815090  0.669810  0.372710  1.0  -0.6266
  O  O123  1  0.815550  0.670900  0.611900  1.0  -0.5974
  O  O124  1  0.679410  0.675100  0.350780  1.0  -0.5929
  O  O125  1  0.688470  0.827040  0.591290  1.0  -0.5881
  O  O126  1  0.815090  0.830190  0.372710  1.0  -0.6259
  O  O127  1  0.815550  0.829100  0.611900  1.0  -0.5967
  O  O128  1  0.679410  0.824900  0.350780  1.0  -0.5938
  O  O129  1  0.311530  0.327040  0.408710  1.0  -0.5877
  O  O130  1  0.184910  0.330190  0.627290  1.0  -0.6265
  O  O131  1  0.184450  0.329100  0.388100  1.0  -0.5961
  O  O132  1  0.320590  0.324900  0.649220  1.0  -0.5948
