# generated using pymatgen
data_Zn3H8(C6O5)4
_symmetry_space_group_name_H-M   'P 1'
_cell_length_a   9.34680000
_cell_length_b   15.22670000
_cell_length_c   17.65170000
_cell_angle_alpha   90.00000000
_cell_angle_beta   95.59900000
_cell_angle_gamma   90.00000000
_symmetry_Int_Tables_number   1
_chemical_formula_structural   Zn3H8(C6O5)4
_chemical_formula_sum   'Zn6 H16 C48 O40'
_cell_volume   2500.22069882
_cell_formula_units_Z   2
loop_
 _symmetry_equiv_pos_site_id
 _symmetry_equiv_pos_as_xyz
  1  'x, y, z'
loop_
 _atom_site_type_symbol
 _atom_site_label
 _atom_site_symmetry_multiplicity
 _atom_site_fract_x
 _atom_site_fract_y
 _atom_site_fract_z
 _atom_site_occupancy
 _atom_site_charge
  Zn  Zn1  1  0.927420  0.609630  0.337700  1.0  1.068
  Zn  Zn2  1  0.072580  0.109630  0.162300  1.0  1.0673
  Zn  Zn3  1  0.072580  0.390370  0.662300  1.0  1.0673
  Zn  Zn4  1  0.927420  0.890370  0.837700  1.0  1.0683
  Zn  Zn5  1  0.000000  0.500000  0.500000  1.0  1.0281
  Zn  Zn6  1  0.000000  0.000000  0.000000  1.0  1.0281
  H  H7  1  0.543800  0.357800  0.454200  1.0  0.1553
  H  H8  1  0.274100  0.383700  0.437100  1.0  0.1452
  H  H9  1  0.886400  0.896500  0.429000  1.0  0.1453
  H  H10  1  0.862600  0.995800  0.540800  1.0  0.1359
  H  H11  1  0.456200  0.857800  0.045800  1.0  0.1557
  H  H12  1  0.725900  0.883700  0.062900  1.0  0.1456
  H  H13  1  0.113600  0.396500  0.071000  1.0  0.1445
  H  H14  1  0.137400  0.495800  0.959200  1.0  0.1359
  H  H15  1  0.456200  0.642200  0.545800  1.0  0.1562
  H  H16  1  0.725900  0.616300  0.562900  1.0  0.1456
  H  H17  1  0.113600  0.103500  0.571000  1.0  0.1448
  H  H18  1  0.137400  0.004200  0.459200  1.0  0.1363
  H  H19  1  0.543800  0.142200  0.954200  1.0  0.155
  H  H20  1  0.274100  0.116300  0.937100  1.0  0.1457
  H  H21  1  0.886400  0.603500  0.929000  1.0  0.1454
  H  H22  1  0.862600  0.504200  0.040800  1.0  0.1365
  C  C23  1  0.710600  0.504900  0.400400  1.0  0.7269
  C  C24  1  0.558600  0.479700  0.403600  1.0  0.0805
  C  C25  1  0.496500  0.406900  0.432600  1.0  -0.1492
  C  C26  1  0.345100  0.421400  0.422900  1.0  -0.1249
  C  C27  1  0.324800  0.500500  0.389000  1.0  0.0443
  C  C28  1  0.195900  0.554300  0.364700  1.0  0.701
  C  C29  1  0.938200  0.711800  0.470800  1.0  0.6894
  C  C30  1  0.916000  0.798600  0.507900  1.0  0.0591
  C  C31  1  0.892400  0.880000  0.480000  1.0  -0.1293
  C  C32  1  0.878500  0.935500  0.542600  1.0  -0.138
  C  C33  1  0.892200  0.886000  0.604400  1.0  0.0748
  C  C34  1  0.895300  0.907400  0.686900  1.0  0.6982
  C  C35  1  0.289400  0.004900  0.099600  1.0  0.7253
  C  C36  1  0.441400  0.979700  0.096400  1.0  0.0785
  C  C37  1  0.503500  0.906900  0.067400  1.0  -0.1495
  C  C38  1  0.654900  0.921400  0.077100  1.0  -0.1255
  C  C39  1  0.675200  0.000500  0.111000  1.0  0.046
  C  C40  1  0.804100  0.054300  0.135300  1.0  0.6989
  C  C41  1  0.061800  0.211800  0.029200  1.0  0.69
  C  C42  1  0.084000  0.298600  0.992100  1.0  0.0586
  C  C43  1  0.107600  0.380000  0.020000  1.0  -0.1298
  C  C44  1  0.121500  0.435500  0.957400  1.0  -0.1386
  C  C45  1  0.107800  0.386000  0.895600  1.0  0.0731
  C  C46  1  0.104700  0.407400  0.813100  1.0  0.6984
  C  C47  1  0.289400  0.495100  0.599600  1.0  0.7248
  C  C48  1  0.441400  0.520300  0.596400  1.0  0.0788
  C  C49  1  0.503500  0.593100  0.567400  1.0  -0.1493
  C  C50  1  0.654900  0.578600  0.577100  1.0  -0.1233
  C  C51  1  0.675200  0.499500  0.611000  1.0  0.0467
  C  C52  1  0.804100  0.445700  0.635300  1.0  0.7001
  C  C53  1  0.061800  0.288200  0.529200  1.0  0.6902
  C  C54  1  0.084000  0.201400  0.492100  1.0  0.0586
  C  C55  1  0.107600  0.120000  0.520000  1.0  -0.1295
  C  C56  1  0.121500  0.064500  0.457400  1.0  -0.1393
  C  C57  1  0.107800  0.114000  0.395600  1.0  0.0731
  C  C58  1  0.104700  0.092600  0.313100  1.0  0.698
  C  C59  1  0.710600  0.995100  0.900400  1.0  0.7272
  C  C60  1  0.558600  0.020300  0.903600  1.0  0.0806
  C  C61  1  0.496500  0.093100  0.932600  1.0  -0.1486
  C  C62  1  0.345100  0.078600  0.922900  1.0  -0.1231
  C  C63  1  0.324800  0.999500  0.889000  1.0  0.0433
  C  C64  1  0.195900  0.945700  0.864700  1.0  0.7012
  C  C65  1  0.938200  0.788200  0.970800  1.0  0.6897
  C  C66  1  0.916000  0.701400  0.007900  1.0  0.0591
  C  C67  1  0.892400  0.620000  0.980000  1.0  -0.1288
  C  C68  1  0.878500  0.564500  0.042600  1.0  -0.1383
  C  C69  1  0.892200  0.614000  0.104400  1.0  0.0748
  C  C70  1  0.895300  0.592600  0.186900  1.0  0.698
  O  O71  1  0.733200  0.569400  0.358800  1.0  -0.5578
  O  O72  1  0.803200  0.462200  0.441800  1.0  -0.5884
  O  O73  1  0.454700  0.537700  0.375200  1.0  -0.0996
  O  O74  1  0.203400  0.620300  0.327000  1.0  -0.4473
  O  O75  1  0.074900  0.523600  0.383500  1.0  -0.6516
  O  O76  1  0.941600  0.719200  0.398300  1.0  -0.5773
  O  O77  1  0.945700  0.643500  0.508400  1.0  -0.605
  O  O78  1  0.916100  0.798800  0.585400  1.0  -0.1426
  O  O79  1  0.880200  0.984300  0.705700  1.0  -0.4767
  O  O80  1  0.910100  0.843400  0.733200  1.0  -0.5473
  O  O81  1  0.266800  0.069400  0.141200  1.0  -0.5561
  O  O82  1  0.196800  0.962200  0.058200  1.0  -0.5884
  O  O83  1  0.545300  0.037700  0.124800  1.0  -0.099
  O  O84  1  0.796600  0.120300  0.173000  1.0  -0.4469
  O  O85  1  0.925100  0.023600  0.116500  1.0  -0.6514
  O  O86  1  0.058400  0.219200  0.101700  1.0  -0.5765
  O  O87  1  0.054300  0.143500  0.991600  1.0  -0.6052
  O  O88  1  0.083900  0.298800  0.914600  1.0  -0.1423
  O  O89  1  0.119800  0.484300  0.794300  1.0  -0.476
  O  O90  1  0.089900  0.343400  0.766800  1.0  -0.548
  O  O91  1  0.266800  0.430600  0.641200  1.0  -0.5575
  O  O92  1  0.196800  0.537800  0.558200  1.0  -0.5875
  O  O93  1  0.545300  0.462300  0.624800  1.0  -0.1019
  O  O94  1  0.796600  0.379700  0.673000  1.0  -0.4469
  O  O95  1  0.925100  0.476400  0.616500  1.0  -0.6527
  O  O96  1  0.058400  0.280800  0.601700  1.0  -0.5776
  O  O97  1  0.054300  0.356500  0.491600  1.0  -0.6053
  O  O98  1  0.083900  0.201200  0.414600  1.0  -0.1418
  O  O99  1  0.119800  0.015700  0.294300  1.0  -0.4776
  O  O100  1  0.089900  0.156600  0.266800  1.0  -0.5488
  O  O101  1  0.733200  0.930600  0.858800  1.0  -0.5584
  O  O102  1  0.803200  0.037800  0.941800  1.0  -0.5883
  O  O103  1  0.454700  0.962300  0.875200  1.0  -0.1012
  O  O104  1  0.203400  0.879700  0.827000  1.0  -0.4473
  O  O105  1  0.074900  0.976400  0.883500  1.0  -0.6517
  O  O106  1  0.941600  0.780800  0.898300  1.0  -0.5767
  O  O107  1  0.945700  0.856500  0.008400  1.0  -0.6048
  O  O108  1  0.916100  0.701200  0.085400  1.0  -0.1423
  O  O109  1  0.880200  0.515700  0.205700  1.0  -0.4775
  O  O110  1  0.910100  0.656600  0.233200  1.0  -0.5483
