# generated using pymatgen
data_NiH12C15NO4
_symmetry_space_group_name_H-M   'P 1'
_cell_length_a   18.65690000
_cell_length_b   18.73590000
_cell_length_c   9.43310000
_cell_angle_alpha   90.00000000
_cell_angle_beta   94.42430000
_cell_angle_gamma   90.00000000
_symmetry_Int_Tables_number   1
_chemical_formula_structural   NiH12C15NO4
_chemical_formula_sum   'Ni4 H48 C60 N4 O16'
_cell_volume   3287.55030171
_cell_formula_units_Z   4
loop_
 _symmetry_equiv_pos_site_id
 _symmetry_equiv_pos_as_xyz
  1  'x, y, z'
loop_
 _atom_site_type_symbol
 _atom_site_label
 _atom_site_symmetry_multiplicity
 _atom_site_fract_x
 _atom_site_fract_y
 _atom_site_fract_z
 _atom_site_occupancy
 _atom_site_charge
  Ni  Ni1  1  0.237550  0.250000  0.618720  1.0  0.753
  Ni  Ni2  1  0.255510  0.250000  0.349870  1.0  0.7943
  Ni  Ni3  1  0.762450  0.750000  0.381280  1.0  0.7476
  Ni  Ni4  1  0.744490  0.750000  0.650130  1.0  0.795
  H  H5  1  0.063580  0.103610  0.683560  1.0  0.1173
  H  H6  1  0.393180  0.072830  0.767650  1.0  0.1152
  H  H7  1  0.967960  0.025890  0.776250  1.0  0.1272
  H  H8  1  0.350230  0.297260  0.107680  1.0  0.1112
  H  H9  1  0.349640  0.202730  0.860520  1.0  0.0994
  H  H10  1  0.405550  0.079210  0.315340  1.0  0.12
  H  H11  1  0.116090  0.074760  0.250520  1.0  0.1141
  H  H12  1  0.494140  0.989210  0.790790  1.0  0.1245
  H  H13  1  0.234380  0.136820  0.092330  1.0  0.119
  H  H14  1  0.152150  0.184920  0.078490  1.0  0.1063
  H  H15  1  0.150610  0.185680  0.833790  1.0  0.1103
  H  H16  1  0.232220  0.137210  0.840100  1.0  0.1108
  H  H17  1  0.936420  0.603610  0.316440  1.0  0.1165
  H  H18  1  0.606820  0.572830  0.232350  1.0  0.1155
  H  H19  1  0.032040  0.525890  0.223750  1.0  0.1269
  H  H20  1  0.649770  0.797260  0.892320  1.0  0.1127
  H  H21  1  0.650360  0.702730  0.139480  1.0  0.1016
  H  H22  1  0.594450  0.579210  0.684660  1.0  0.1202
  H  H23  1  0.883910  0.574760  0.749480  1.0  0.1138
  H  H24  1  0.505860  0.489210  0.209210  1.0  0.1242
  H  H25  1  0.765620  0.636820  0.907670  1.0  0.1186
  H  H26  1  0.847850  0.684920  0.921510  1.0  0.1067
  H  H27  1  0.849390  0.685680  0.166210  1.0  0.11
  H  H28  1  0.767780  0.637210  0.159900  1.0  0.1109
  H  H29  1  0.936420  0.896390  0.316440  1.0  0.1167
  H  H30  1  0.606820  0.927170  0.232350  1.0  0.115
  H  H31  1  0.032040  0.974110  0.223750  1.0  0.1268
  H  H32  1  0.649770  0.702740  0.892320  1.0  0.1133
  H  H33  1  0.650360  0.797270  0.139480  1.0  0.102
  H  H34  1  0.594450  0.920790  0.684660  1.0  0.1198
  H  H35  1  0.883910  0.925240  0.749480  1.0  0.1144
  H  H36  1  0.505860  0.010790  0.209210  1.0  0.1247
  H  H37  1  0.765620  0.863180  0.907670  1.0  0.1183
  H  H38  1  0.847850  0.815080  0.921510  1.0  0.1075
  H  H39  1  0.849390  0.814320  0.166210  1.0  0.1104
  H  H40  1  0.767780  0.862790  0.159900  1.0  0.1111
  H  H41  1  0.063580  0.396390  0.683560  1.0  0.1175
  H  H42  1  0.393180  0.427170  0.767650  1.0  0.1148
  H  H43  1  0.967960  0.474110  0.776250  1.0  0.1271
  H  H44  1  0.350230  0.202740  0.107680  1.0  0.113
  H  H45  1  0.349640  0.297270  0.860520  1.0  0.0995
  H  H46  1  0.405550  0.420790  0.315340  1.0  0.12
  H  H47  1  0.116090  0.425240  0.250520  1.0  0.1141
  H  H48  1  0.494140  0.510790  0.790790  1.0  0.1248
  H  H49  1  0.234380  0.363180  0.092330  1.0  0.118
  H  H50  1  0.152150  0.315080  0.078490  1.0  0.1057
  H  H51  1  0.150610  0.314320  0.833790  1.0  0.1095
  H  H52  1  0.232220  0.362790  0.840100  1.0  0.1109
  C  C53  1  0.153500  0.150290  0.477940  1.0  0.6942
  C  C54  1  0.097560  0.098380  0.468940  1.0  -0.0673
  C  C55  1  0.056180  0.076130  0.582290  1.0  -0.0651
  C  C56  1  0.417600  0.056850  0.672370  1.0  -0.0877
  C  C57  1  0.962810  0.997610  0.676010  1.0  -0.0855
  C  C58  1  0.004800  0.018720  0.565140  1.0  -0.0053
  C  C59  1  0.334990  0.148710  0.515800  1.0  0.6279
  C  C60  1  0.391030  0.085470  0.539880  1.0  -0.1004
  C  C61  1  0.425870  0.060880  0.419200  1.0  -0.0849
  C  C62  1  0.086220  0.060150  0.340060  1.0  -0.0674
  C  C63  1  0.476560  0.008760  0.685930  1.0  -0.095
  C  C64  1  0.486990  0.013080  0.432610  1.0  -0.0366
  C  C65  1  0.208850  0.186690  0.049110  1.0  -0.0889
  C  C66  1  0.207820  0.186940  0.878160  1.0  -0.0662
  C  C67  1  0.846500  0.650290  0.522060  1.0  0.6952
  C  C68  1  0.902440  0.598380  0.531060  1.0  -0.0672
  C  C69  1  0.943820  0.576130  0.417710  1.0  -0.0659
  C  C70  1  0.582400  0.556850  0.327630  1.0  -0.0855
  C  C71  1  0.037190  0.497610  0.323990  1.0  -0.0854
  C  C72  1  0.995200  0.518720  0.434860  1.0  -0.0015
  C  C73  1  0.665010  0.648710  0.484200  1.0  0.6275
  C  C74  1  0.608970  0.585470  0.460120  1.0  -0.1004
  C  C75  1  0.574130  0.560880  0.580800  1.0  -0.0844
  C  C76  1  0.913780  0.560150  0.659940  1.0  -0.0667
  C  C77  1  0.523440  0.508760  0.314070  1.0  -0.0949
  C  C78  1  0.513010  0.513080  0.567390  1.0  -0.0366
  C  C79  1  0.791150  0.686690  0.950890  1.0  -0.0878
  C  C80  1  0.792180  0.686940  0.121840  1.0  -0.0665
  C  C81  1  0.846500  0.849710  0.522060  1.0  0.695
  C  C82  1  0.902440  0.901620  0.531060  1.0  -0.0674
  C  C83  1  0.943820  0.923870  0.417710  1.0  -0.0675
  C  C84  1  0.582400  0.943150  0.327630  1.0  -0.0861
  C  C85  1  0.037190  0.002390  0.323990  1.0  -0.0851
  C  C86  1  0.995200  0.981280  0.434860  1.0  -0.0047
  C  C87  1  0.665010  0.851290  0.484200  1.0  0.6272
  C  C88  1  0.608970  0.914530  0.460120  1.0  -0.1
  C  C89  1  0.574130  0.939120  0.580800  1.0  -0.0863
  C  C90  1  0.913780  0.939850  0.659940  1.0  -0.0669
  C  C91  1  0.523440  0.991240  0.314070  1.0  -0.0931
  C  C92  1  0.513010  0.986920  0.567390  1.0  -0.0365
  C  C93  1  0.791150  0.813310  0.950890  1.0  -0.0891
  C  C94  1  0.792180  0.813060  0.121840  1.0  -0.0668
  C  C95  1  0.153500  0.349710  0.477940  1.0  0.6943
  C  C96  1  0.097560  0.401620  0.468940  1.0  -0.0675
  C  C97  1  0.056180  0.423870  0.582290  1.0  -0.0667
  C  C98  1  0.417600  0.443150  0.672370  1.0  -0.0884
  C  C99  1  0.962810  0.502390  0.676010  1.0  -0.0848
  C  C100  1  0.004800  0.481280  0.565140  1.0  -0.0033
  C  C101  1  0.334990  0.351290  0.515800  1.0  0.6276
  C  C102  1  0.391030  0.414530  0.539880  1.0  -0.0999
  C  C103  1  0.425870  0.439120  0.419200  1.0  -0.0868
  C  C104  1  0.086220  0.439850  0.340060  1.0  -0.0681
  C  C105  1  0.476560  0.491240  0.685930  1.0  -0.0935
  C  C106  1  0.486990  0.486920  0.432610  1.0  -0.0367
  C  C107  1  0.208850  0.313310  0.049110  1.0  -0.0899
  C  C108  1  0.207820  0.313060  0.878160  1.0  -0.0659
  C  C109  1  0.319770  0.250000  0.064890  1.0  -0.0589
  C  C110  1  0.319200  0.250000  0.894200  1.0  -0.0593
  C  C111  1  0.680230  0.750000  0.935110  1.0  -0.0611
  C  C112  1  0.680800  0.750000  0.105800  1.0  -0.0594
  N  N113  1  0.245030  0.250000  0.819460  1.0  -0.1406
  N  N114  1  0.246170  0.250000  0.118500  1.0  -0.1809
  N  N115  1  0.754970  0.750000  0.180540  1.0  -0.1408
  N  N116  1  0.753830  0.750000  0.881500  1.0  -0.1771
  O  O117  1  0.322220  0.178910  0.391850  1.0  -0.5875
  O  O118  1  0.173080  0.174230  0.604210  1.0  -0.6048
  O  O119  1  0.184250  0.175020  0.368790  1.0  -0.6214
  O  O120  1  0.303640  0.173460  0.624890  1.0  -0.5921
  O  O121  1  0.677780  0.678910  0.608150  1.0  -0.5858
  O  O122  1  0.826920  0.674230  0.395790  1.0  -0.6017
  O  O123  1  0.815750  0.675020  0.631210  1.0  -0.6212
  O  O124  1  0.696360  0.673460  0.375110  1.0  -0.5929
  O  O125  1  0.677780  0.821090  0.608150  1.0  -0.5862
  O  O126  1  0.826920  0.825770  0.395790  1.0  -0.6026
  O  O127  1  0.815750  0.824980  0.631210  1.0  -0.6213
  O  O128  1  0.696360  0.826540  0.375110  1.0  -0.591
  O  O129  1  0.322220  0.321090  0.391850  1.0  -0.5877
  O  O130  1  0.173080  0.325770  0.604210  1.0  -0.6052
  O  O131  1  0.184250  0.324980  0.368790  1.0  -0.6214
  O  O132  1  0.303640  0.326540  0.624890  1.0  -0.5909
