# generated using pymatgen
data_Gd2H24(C14O5)3
_symmetry_space_group_name_H-M   'P 1'
_cell_length_a   14.62600000
_cell_length_b   15.29700000
_cell_length_c   23.00900000
_cell_angle_alpha   84.81700000
_cell_angle_beta   83.60500000
_cell_angle_gamma   86.48800000
_symmetry_Int_Tables_number   1
_chemical_formula_structural   Gd2H24(C14O5)3
_chemical_formula_sum   'Gd8 H96 C168 O60'
_cell_volume   5088.12330124
_cell_formula_units_Z   4
loop_
 _symmetry_equiv_pos_site_id
 _symmetry_equiv_pos_as_xyz
  1  'x, y, z'
loop_
 _atom_site_type_symbol
 _atom_site_label
 _atom_site_symmetry_multiplicity
 _atom_site_fract_x
 _atom_site_fract_y
 _atom_site_fract_z
 _atom_site_occupancy
 _atom_site_charge
  Gd  Gd1  1  0.182420  0.870770  0.717790  1.0  2.207
  Gd  Gd2  1  0.209640  0.119460  0.759790  1.0  2.1733
  Gd  Gd3  1  0.329850  0.332780  0.772770  1.0  2.2197
  Gd  Gd4  1  0.293430  0.597710  0.764500  1.0  2.2251
  Gd  Gd5  1  0.817580  0.129230  0.282210  1.0  2.2065
  Gd  Gd6  1  0.790360  0.880540  0.240210  1.0  2.1725
  Gd  Gd7  1  0.670150  0.667220  0.227230  1.0  2.2192
  Gd  Gd8  1  0.706570  0.402290  0.235500  1.0  2.2273
  H  H9  1  0.352100  0.982200  0.592700  1.0  0.0899
  H  H10  1  0.143700  0.142200  0.543100  1.0  0.1067
  H  H11  1  0.405100  0.966100  0.495400  1.0  0.1119
  H  H12  1  0.191200  0.121900  0.446300  1.0  0.1203
  H  H13  1  0.203500  0.355100  0.641400  1.0  0.0926
  H  H14  1  0.210600  0.280800  0.559100  1.0  0.1157
  H  H15  1  0.390000  0.518100  0.561800  1.0  0.1026
  H  H16  1  0.400600  0.440700  0.479200  1.0  0.1199
  H  H17  1  0.530700  0.431300  0.669800  1.0  0.1022
  H  H18  1  0.639000  0.568000  0.782900  1.0  0.0974
  H  H19  1  0.672000  0.421500  0.614000  1.0  0.13
  H  H20  1  0.782300  0.551500  0.731700  1.0  0.1162
  H  H21  1  0.910300  0.126400  0.934900  1.0  0.113
  H  H22  1  0.737400  0.982100  0.863400  1.0  0.1221
  H  H23  1  0.029900  0.079000  0.868600  1.0  0.0956
  H  H24  1  0.859600  0.935300  0.798600  1.0  0.1042
  H  H25  1  0.146900  0.161900  0.975900  1.0  0.1153
  H  H26  1  0.410000  0.182700  0.909600  1.0  0.1016
  H  H27  1  0.452700  0.192000  0.003500  1.0  0.1297
  H  H28  1  0.187300  0.174400  0.068900  1.0  0.1276
  H  H29  1  0.309200  0.352200  0.974000  1.0  0.0884
  H  H30  1  0.165200  0.574200  0.933200  1.0  0.1066
  H  H31  1  0.278100  0.373000  0.072900  1.0  0.1229
  H  H32  1  0.435300  0.047600  0.083200  1.0  0.1255
  H  H33  1  0.556600  0.208300  0.214500  1.0  0.092
  H  H34  1  0.563500  0.993100  0.127200  1.0  0.0938
  H  H35  1  0.429600  0.265000  0.168100  1.0  0.123
  H  H36  1  0.077600  0.497100  0.708200  1.0  0.0923
  H  H37  1  0.966500  0.723700  0.638000  1.0  0.1098
  H  H38  1  0.961400  0.422000  0.677100  1.0  0.1223
  H  H39  1  0.840900  0.083300  0.114600  1.0  0.0931
  H  H40  1  0.822600  0.020300  0.030100  1.0  0.1196
  H  H41  1  0.689300  0.296000  0.061400  1.0  0.1053
  H  H42  1  0.675000  0.234100  0.975300  1.0  0.119
  H  H43  1  0.360300  0.327200  0.353800  1.0  0.1105
  H  H44  1  0.501500  0.300100  0.303200  1.0  0.0994
  H  H45  1  0.597000  0.200300  0.453400  1.0  0.1026
  H  H46  1  0.455500  0.233900  0.503800  1.0  0.1195
  H  H47  1  0.850700  0.649100  0.609700  1.0  0.1185
  H  H48  1  0.132200  0.594000  0.031700  1.0  0.1061
  H  H49  1  0.087200  0.739100  0.196300  1.0  0.1166
  H  H50  1  0.201300  0.645000  0.153700  1.0  0.1295
  H  H51  1  0.014500  0.475100  0.137200  1.0  0.1131
  H  H52  1  0.898600  0.567000  0.181300  1.0  0.1103
  H  H53  1  0.482300  0.053400  0.345700  1.0  0.1234
  H  H54  1  0.323100  0.862200  0.419800  1.0  0.1257
  H  H55  1  0.590900  0.948500  0.310900  1.0  0.0875
  H  H56  1  0.433500  0.757300  0.383900  1.0  0.1009
  H  H57  1  0.647900  0.017800  0.407300  1.0  0.0895
  H  H58  1  0.856300  0.857800  0.456900  1.0  0.1068
  H  H59  1  0.594900  0.033900  0.504600  1.0  0.1115
  H  H60  1  0.808800  0.878100  0.553700  1.0  0.1198
  H  H61  1  0.796500  0.644900  0.358600  1.0  0.0926
  H  H62  1  0.789400  0.719200  0.440900  1.0  0.1161
  H  H63  1  0.610000  0.481900  0.438200  1.0  0.1025
  H  H64  1  0.599400  0.559300  0.520800  1.0  0.1201
  H  H65  1  0.469300  0.568700  0.330200  1.0  0.102
  H  H66  1  0.361000  0.432000  0.217100  1.0  0.0968
  H  H67  1  0.328000  0.578500  0.386000  1.0  0.1308
  H  H68  1  0.217700  0.448500  0.268300  1.0  0.1158
  H  H69  1  0.089700  0.873600  0.065100  1.0  0.1125
  H  H70  1  0.262600  0.017900  0.136600  1.0  0.1223
  H  H71  1  0.970100  0.921000  0.131400  1.0  0.0955
  H  H72  1  0.140400  0.064700  0.201400  1.0  0.1047
  H  H73  1  0.853100  0.838100  0.024100  1.0  0.1157
  H  H74  1  0.590000  0.817300  0.090400  1.0  0.1019
  H  H75  1  0.547300  0.808000  0.996500  1.0  0.1315
  H  H76  1  0.812700  0.825600  0.931100  1.0  0.1278
  H  H77  1  0.690800  0.647800  0.026000  1.0  0.0872
  H  H78  1  0.834800  0.425800  0.066800  1.0  0.1066
  H  H79  1  0.721900  0.627000  0.927100  1.0  0.1219
  H  H80  1  0.564700  0.952400  0.916800  1.0  0.1257
  H  H81  1  0.443400  0.791700  0.785500  1.0  0.0917
  H  H82  1  0.436500  0.006900  0.872800  1.0  0.0941
  H  H83  1  0.570400  0.735000  0.831900  1.0  0.1242
  H  H84  1  0.922400  0.502900  0.291800  1.0  0.0921
  H  H85  1  0.033500  0.276300  0.362000  1.0  0.1101
  H  H86  1  0.038600  0.578000  0.322900  1.0  0.1232
  H  H87  1  0.159100  0.916700  0.885400  1.0  0.0932
  H  H88  1  0.177400  0.979700  0.969900  1.0  0.1192
  H  H89  1  0.310700  0.704000  0.938600  1.0  0.1057
  H  H90  1  0.325000  0.765900  0.024700  1.0  0.1187
  H  H91  1  0.639700  0.672800  0.646200  1.0  0.1106
  H  H92  1  0.498500  0.699900  0.696800  1.0  0.0993
  H  H93  1  0.403000  0.799700  0.546600  1.0  0.1024
  H  H94  1  0.544500  0.766100  0.496200  1.0  0.12
  H  H95  1  0.149300  0.350900  0.390300  1.0  0.1185
  H  H96  1  0.867800  0.406000  0.968300  1.0  0.1071
  H  H97  1  0.912800  0.260900  0.803700  1.0  0.1166
  H  H98  1  0.798700  0.355000  0.846300  1.0  0.1296
  H  H99  1  0.985500  0.524900  0.862800  1.0  0.1133
  H  H100  1  0.101400  0.433000  0.818700  1.0  0.1101
  H  H101  1  0.517700  0.946600  0.654300  1.0  0.1242
  H  H102  1  0.676900  0.137800  0.580200  1.0  0.1257
  H  H103  1  0.409100  0.051500  0.689100  1.0  0.0882
  H  H104  1  0.566500  0.242700  0.616100  1.0  0.1
  C  C105  1  0.213200  0.077600  0.640700  1.0  0.6716
  C  C106  1  0.243500  0.064900  0.577900  1.0  -0.1296
  C  C107  1  0.320600  0.011300  0.563100  1.0  -0.0234
  C  C108  1  0.195700  0.106100  0.533600  1.0  -0.0798
  C  C109  1  0.302000  0.040600  0.461600  1.0  0.2864
  C  C110  1  0.351600  0.000200  0.505000  1.0  -0.2257
  C  C111  1  0.224000  0.094200  0.475700  1.0  -0.2302
  C  C112  1  0.297200  0.443500  0.611400  1.0  -0.1613
  C  C113  1  0.292700  0.490200  0.665200  1.0  0.6879
  C  C114  1  0.243700  0.372600  0.608800  1.0  -0.0107
  C  C115  1  0.307700  0.352200  0.511900  1.0  0.2901
  C  C116  1  0.248000  0.327700  0.559900  1.0  -0.1828
  C  C117  1  0.354900  0.469400  0.561800  1.0  -0.05
  C  C118  1  0.360900  0.423500  0.512100  1.0  -0.2025
  C  C119  1  0.476000  0.517400  0.762400  1.0  0.718
  C  C120  1  0.581100  0.456900  0.681300  1.0  -0.0287
  C  C121  1  0.646000  0.537500  0.749400  1.0  -0.0643
  C  C122  1  0.665200  0.450800  0.648000  1.0  -0.2291
  C  C123  1  0.739500  0.489000  0.666000  1.0  0.2363
  C  C124  1  0.570900  0.501300  0.732200  1.0  -0.1063
  C  C125  1  0.731100  0.529900  0.718300  1.0  -0.1982
  C  C126  1  0.032700  0.967100  0.786100  1.0  0.6899
  C  C127  1  0.899300  0.088200  0.907500  1.0  -0.2266
  C  C128  1  0.958000  0.001600  0.827200  1.0  -0.1278
  C  C129  1  0.812100  0.060400  0.906000  1.0  0.2881
  C  C130  1  0.796100  0.001700  0.864700  1.0  -0.2106
  C  C131  1  0.971300  0.059000  0.867700  1.0  -0.0353
  C  C132  1  0.869700  0.973700  0.826000  1.0  -0.0392
  C  C133  1  0.749100  0.122600  0.993900  1.0  0.2736
  C  C134  1  0.248300  0.166300  0.873500  1.0  0.6824
  C  C135  1  0.275500  0.172400  0.932500  1.0  -0.0952
  C  C136  1  0.322200  0.184000  0.044500  1.0  0.3091
  C  C137  1  0.208100  0.168800  0.981300  1.0  -0.0372
  C  C138  1  0.365100  0.180800  0.941600  1.0  -0.0441
  C  C139  1  0.391400  0.186600  0.997700  1.0  -0.1929
  C  C140  1  0.232100  0.175600  0.036800  1.0  -0.2197
  C  C141  1  0.273500  0.401300  0.985600  1.0  -0.003
  C  C142  1  0.239900  0.460700  0.944100  1.0  -0.1362
  C  C143  1  0.261900  0.445200  0.880500  1.0  0.7167
  C  C144  1  0.187600  0.533200  0.961200  1.0  -0.0304
  C  C145  1  0.254900  0.413400  0.044900  1.0  -0.1729
  C  C146  1  0.459700  0.079800  0.109700  1.0  -0.2725
  C  C147  1  0.420500  0.160900  0.122400  1.0  0.3137
  C  C148  1  0.571200  0.092600  0.178000  1.0  -0.1163
  C  C149  1  0.531900  0.175300  0.188500  1.0  0.0053
  C  C150  1  0.535500  0.046900  0.136700  1.0  -0.0193
  C  C151  1  0.650200  0.056100  0.208000  1.0  0.6804
  C  C152  1  0.455900  0.209700  0.160700  1.0  -0.207
  C  C153  1  0.031400  0.619300  0.679200  1.0  -0.1316
  C  C154  1  0.031200  0.527800  0.689200  1.0  -0.0149
  C  C155  1  0.964400  0.663400  0.647400  1.0  -0.0634
  C  C156  1  0.962000  0.482900  0.670700  1.0  -0.1792
  C  C157  1  0.097500  0.668200  0.704800  1.0  0.7184
  C  C158  1  0.893900  0.530000  0.642600  1.0  0.2699
  C  C159  1  0.806700  0.113600  0.086700  1.0  -0.0073
  C  C160  1  0.797000  0.076300  0.036000  1.0  -0.1785
  C  C161  1  0.766100  0.196000  0.097100  1.0  -0.1383
  C  C162  1  0.716900  0.240800  0.055100  1.0  -0.0171
  C  C163  1  0.708400  0.203800  0.003600  1.0  -0.1799
  C  C164  1  0.396800  0.286500  0.433600  1.0  0.2662
  C  C165  1  0.409200  0.303600  0.373800  1.0  -0.1804
  C  C166  1  0.565500  0.248200  0.372400  1.0  -0.1059
  C  C167  1  0.493000  0.286300  0.343600  1.0  -0.0347
  C  C168  1  0.549800  0.227600  0.433200  1.0  -0.037
  C  C169  1  0.465300  0.247300  0.463500  1.0  -0.2053
  C  C170  1  0.896000  0.619000  0.630100  1.0  -0.1986
  C  C171  1  0.777800  0.236800  0.153400  1.0  0.7293
  C  C172  1  0.657800  0.229400  0.340500  1.0  0.6817
  C  C173  1  0.201800  0.485900  0.061600  1.0  0.2934
  C  C174  1  0.168300  0.545200  0.020200  1.0  -0.0848
  C  C175  1  0.118200  0.550800  0.143300  1.0  0.2863
  C  C176  1  0.072100  0.685400  0.185000  1.0  -0.0393
  C  C177  1  0.140500  0.629000  0.159600  1.0  -0.1934
  C  C178  1  0.029300  0.528000  0.150000  1.0  -0.1776
  C  C179  1  0.982600  0.661100  0.193200  1.0  -0.1128
  C  C180  1  0.910800  0.723900  0.220200  1.0  0.6694
  C  C181  1  0.959400  0.583200  0.176000  1.0  -0.0896
  C  C182  1  0.471900  0.994000  0.353500  1.0  -0.2258
  C  C183  1  0.392900  0.967500  0.385000  1.0  0.2881
  C  C184  1  0.377000  0.879600  0.397600  1.0  -0.1563
  C  C185  1  0.523500  0.843100  0.344400  1.0  -0.1284
  C  C186  1  0.537000  0.930700  0.332900  1.0  -0.0092
  C  C187  1  0.443600  0.816800  0.376300  1.0  -0.0244
  C  C188  1  0.591300  0.776300  0.318100  1.0  0.6951
  C  C189  1  0.786800  0.922400  0.359300  1.0  0.6726
  C  C190  1  0.756500  0.935100  0.422100  1.0  -0.1304
  C  C191  1  0.679400  0.988700  0.436900  1.0  -0.0226
  C  C192  1  0.804300  0.893900  0.466400  1.0  -0.0803
  C  C193  1  0.698000  0.959400  0.538400  1.0  0.2854
  C  C194  1  0.648400  0.999800  0.495000  1.0  -0.2255
  C  C195  1  0.776000  0.905800  0.524300  1.0  -0.2306
  C  C196  1  0.702800  0.556500  0.388600  1.0  -0.1623
  C  C197  1  0.707300  0.509800  0.334800  1.0  0.6877
  C  C198  1  0.756300  0.627400  0.391200  1.0  -0.0111
  C  C199  1  0.692300  0.647800  0.488100  1.0  0.2913
  C  C200  1  0.752000  0.672300  0.440100  1.0  -0.184
  C  C201  1  0.645100  0.530600  0.438200  1.0  -0.0496
  C  C202  1  0.639100  0.576500  0.487900  1.0  -0.2024
  C  C203  1  0.524000  0.482600  0.237600  1.0  0.7174
  C  C204  1  0.418900  0.543100  0.318700  1.0  -0.0292
  C  C205  1  0.354000  0.462500  0.250600  1.0  -0.0658
  C  C206  1  0.334800  0.549200  0.352000  1.0  -0.2286
  C  C207  1  0.260500  0.511000  0.334000  1.0  0.236
  C  C208  1  0.429100  0.498700  0.267800  1.0  -0.1042
  C  C209  1  0.268900  0.470100  0.281700  1.0  -0.1974
  C  C210  1  0.967300  0.032900  0.213900  1.0  0.6906
  C  C211  1  0.100700  0.911800  0.092500  1.0  -0.2289
  C  C212  1  0.042000  0.998400  0.172800  1.0  -0.1275
  C  C213  1  0.187900  0.939600  0.094000  1.0  0.2886
  C  C214  1  0.203900  0.998300  0.135300  1.0  -0.2072
  C  C215  1  0.028700  0.941000  0.132300  1.0  -0.0339
  C  C216  1  0.130300  0.026300  0.174000  1.0  -0.0387
  C  C217  1  0.250900  0.877400  0.006100  1.0  0.2738
  C  C218  1  0.751700  0.833700  0.126500  1.0  0.6822
  C  C219  1  0.724500  0.827600  0.067500  1.0  -0.0954
  C  C220  1  0.677800  0.816000  0.955500  1.0  0.3097
  C  C221  1  0.791900  0.831200  0.018700  1.0  -0.0378
  C  C222  1  0.634900  0.819200  0.058400  1.0  -0.0443
  C  C223  1  0.608600  0.813400  0.002300  1.0  -0.1935
  C  C224  1  0.767900  0.824400  0.963200  1.0  -0.22
  C  C225  1  0.726500  0.598700  0.014400  1.0  -0.0033
  C  C226  1  0.760100  0.539300  0.055900  1.0  -0.1356
  C  C227  1  0.738100  0.554800  0.119500  1.0  0.7346
  C  C228  1  0.812400  0.466800  0.038800  1.0  -0.0297
  C  C229  1  0.745100  0.586600  0.955100  1.0  -0.1718
  C  C230  1  0.540300  0.920200  0.890300  1.0  -0.2691
  C  C231  1  0.579500  0.839100  0.877600  1.0  0.3126
  C  C232  1  0.428800  0.907400  0.822000  1.0  -0.1173
  C  C233  1  0.468100  0.824700  0.811500  1.0  0.0068
  C  C234  1  0.464500  0.953100  0.863300  1.0  -0.0184
  C  C235  1  0.349800  0.943900  0.792000  1.0  0.681
  C  C236  1  0.544100  0.790300  0.839300  1.0  -0.2074
  C  C237  1  0.968600  0.380700  0.320800  1.0  -0.133
  C  C238  1  0.968800  0.472200  0.310800  1.0  -0.0156
  C  C239  1  0.035600  0.336600  0.352600  1.0  -0.0643
  C  C240  1  0.038000  0.517100  0.329300  1.0  -0.1794
  C  C241  1  0.902500  0.331800  0.295200  1.0  0.7195
  C  C242  1  0.106100  0.470000  0.357400  1.0  0.2681
  C  C243  1  0.193300  0.886400  0.913300  1.0  -0.0051
  C  C244  1  0.203000  0.923700  0.964000  1.0  -0.1782
  C  C245  1  0.233900  0.804000  0.902900  1.0  -0.1399
  C  C246  1  0.283100  0.759200  0.944900  1.0  -0.0171
  C  C247  1  0.291600  0.796200  0.996400  1.0  -0.1805
  C  C248  1  0.603200  0.713500  0.566400  1.0  0.267
  C  C249  1  0.590800  0.696400  0.626200  1.0  -0.1819
  C  C250  1  0.434500  0.751800  0.627600  1.0  -0.106
  C  C251  1  0.507000  0.713700  0.656400  1.0  -0.0358
  C  C252  1  0.450200  0.772400  0.566800  1.0  -0.0358
  C  C253  1  0.534700  0.752700  0.536500  1.0  -0.2042
  C  C254  1  0.104000  0.381000  0.369900  1.0  -0.1982
  C  C255  1  0.222200  0.763200  0.846600  1.0  0.7286
  C  C256  1  0.342200  0.770600  0.659500  1.0  0.6811
  C  C257  1  0.798200  0.514100  0.938400  1.0  0.2966
  C  C258  1  0.831700  0.454800  0.979800  1.0  -0.0837
  C  C259  1  0.881800  0.449200  0.856700  1.0  0.287
  C  C260  1  0.927900  0.314600  0.815000  1.0  -0.0376
  C  C261  1  0.859500  0.371000  0.840400  1.0  -0.1955
  C  C262  1  0.970700  0.472000  0.850000  1.0  -0.1751
  C  C263  1  0.017400  0.338900  0.806800  1.0  -0.1136
  C  C264  1  0.089200  0.276100  0.779800  1.0  0.6713
  C  C265  1  0.040600  0.416800  0.824000  1.0  -0.0877
  C  C266  1  0.528100  0.006000  0.646500  1.0  -0.2255
  C  C267  1  0.607100  0.032500  0.615000  1.0  0.288
  C  C268  1  0.623000  0.120400  0.602400  1.0  -0.1553
  C  C269  1  0.476500  0.156900  0.655600  1.0  -0.1284
  C  C270  1  0.463000  0.069300  0.667100  1.0  -0.0091
  C  C271  1  0.556400  0.183200  0.623700  1.0  -0.0256
  C  C272  1  0.408700  0.223700  0.681900  1.0  0.6949
  O  O273  1  0.240700  0.020200  0.679990  1.0  -0.7404
  O  O274  1  0.327200  0.032600  0.402300  1.0  -0.2778
  O  O275  1  0.260300  0.450800  0.714090  1.0  -0.7633
  O  O276  1  0.325500  0.565300  0.663600  1.0  -0.6331
  O  O277  1  0.309800  0.305900  0.462600  1.0  -0.2633
  O  O278  1  0.415000  0.463400  0.761800  1.0  -0.7679
  O  O279  1  0.455600  0.589800  0.785200  1.0  -0.6948
  O  O280  1  0.820800  0.483100  0.628700  1.0  -0.2911
  O  O281  1  0.022100  0.902600  0.758200  1.0  -0.6939
  O  O282  1  0.113700  0.000400  0.781350  1.0  -0.8079
  O  O283  1  0.736200  0.086500  0.941700  1.0  -0.2947
  O  O284  1  0.301400  0.195800  0.828100  1.0  -0.8291
  O  O285  1  0.175900  0.130300  0.865890  1.0  -0.7001
  O  O286  1  0.238600  0.504100  0.842900  1.0  -0.7011
  O  O287  1  0.301400  0.373600  0.867700  1.0  -0.6371
  O  O288  1  0.186600  0.492500  0.121500  1.0  -0.2742
  O  O289  1  0.169000  0.144700  0.656340  1.0  -0.6217
  O  O290  1  0.341200  0.196800  0.101100  1.0  -0.2576
  O  O291  1  0.682500  0.103900  0.242500  1.0  -0.7157
  O  O292  1  0.681400  0.979400  0.200500  1.0  -0.6941
  O  O293  1  0.148400  0.625400  0.741800  1.0  -0.6977
  O  O294  1  0.106100  0.749400  0.691800  1.0  -0.7654
  O  O295  1  0.729900  0.307200  0.162410  1.0  -0.6933
  O  O296  1  0.831100  0.199000  0.187700  1.0  -0.7038
  O  O297  1  0.712200  0.171700  0.363200  1.0  -0.6435
  O  O298  1  0.679100  0.266400  0.289690  1.0  -0.7712
  O  O299  1  0.934600  0.796800  0.232900  1.0  -0.6423
  O  O300  1  0.827300  0.706300  0.228500  1.0  -0.8054
  O  O301  1  0.570800  0.697000  0.318900  1.0  -0.6794
  O  O302  1  0.666400  0.800800  0.289640  1.0  -0.7951
  O  O303  1  0.759300  0.979800  0.320010  1.0  -0.741
  O  O304  1  0.672800  0.967400  0.597700  1.0  -0.2849
  O  O305  1  0.739700  0.549200  0.285910  1.0  -0.7627
  O  O306  1  0.674500  0.434700  0.336400  1.0  -0.633
  O  O307  1  0.690200  0.694100  0.537400  1.0  -0.2631
  O  O308  1  0.585000  0.536600  0.238200  1.0  -0.7681
  O  O309  1  0.544400  0.410200  0.214800  1.0  -0.6946
  O  O310  1  0.179200  0.516900  0.371300  1.0  -0.2935
  O  O311  1  0.977900  0.097400  0.241800  1.0  -0.6919
  O  O312  1  0.886300  0.999600  0.218650  1.0  -0.8055
  O  O313  1  0.263800  0.913500  0.058300  1.0  -0.2943
  O  O314  1  0.698600  0.804200  0.171900  1.0  -0.8294
  O  O315  1  0.824100  0.869700  0.134110  1.0  -0.7001
  O  O316  1  0.761400  0.495900  0.157100  1.0  -0.7007
  O  O317  1  0.698600  0.626400  0.132300  1.0  -0.6391
  O  O318  1  0.813400  0.507500  0.878500  1.0  -0.276
  O  O319  1  0.831000  0.855300  0.343660  1.0  -0.6206
  O  O320  1  0.658800  0.803200  0.898900  1.0  -0.2568
  O  O321  1  0.317500  0.896100  0.757500  1.0  -0.7172
  O  O322  1  0.318600  0.020600  0.799500  1.0  -0.6933
  O  O323  1  0.851600  0.374600  0.258200  1.0  -0.6984
  O  O324  1  0.893900  0.250600  0.308200  1.0  -0.764
  O  O325  1  0.270100  0.692800  0.837590  1.0  -0.6934
  O  O326  1  0.168900  0.801000  0.812300  1.0  -0.7034
  O  O327  1  0.287800  0.828300  0.636800  1.0  -0.6421
  O  O328  1  0.320900  0.733600  0.710310  1.0  -0.7736
  O  O329  1  0.065400  0.203200  0.767100  1.0  -0.6417
  O  O330  1  0.172700  0.293700  0.771500  1.0  -0.8054
  O  O331  1  0.429200  0.303000  0.681100  1.0  -0.6795
  O  O332  1  0.333600  0.199200  0.710360  1.0  -0.7956
