# generated using pymatgen
data_Eu2H24(C14O5)3
_symmetry_space_group_name_H-M   'P 1'
_cell_length_a   14.58900000
_cell_length_b   15.28500000
_cell_length_c   22.75800000
_cell_angle_alpha   84.67900000
_cell_angle_beta   84.32300000
_cell_angle_gamma   86.39600000
_symmetry_Int_Tables_number   1
_chemical_formula_structural   Eu2H24(C14O5)3
_chemical_formula_sum   'Eu8 H96 C168 O60'
_cell_volume   5020.83284398
_cell_formula_units_Z   4
loop_
 _symmetry_equiv_pos_site_id
 _symmetry_equiv_pos_as_xyz
  1  'x, y, z'
loop_
 _atom_site_type_symbol
 _atom_site_label
 _atom_site_symmetry_multiplicity
 _atom_site_fract_x
 _atom_site_fract_y
 _atom_site_fract_z
 _atom_site_occupancy
 _atom_site_charge
  Eu  Eu1  1  0.178490  0.872160  0.715230  1.0  2.147
  Eu  Eu2  1  0.327170  0.333670  0.772220  1.0  2.1844
  Eu  Eu3  1  0.206150  0.120890  0.757490  1.0  2.0938
  Eu  Eu4  1  0.289590  0.599510  0.763870  1.0  2.1519
  Eu  Eu5  1  0.821510  0.127840  0.284770  1.0  2.1461
  Eu  Eu6  1  0.672830  0.666330  0.227780  1.0  2.1819
  Eu  Eu7  1  0.793850  0.879110  0.242510  1.0  2.0915
  Eu  Eu8  1  0.710410  0.400490  0.236130  1.0  2.1542
  H  H9  1  0.094900  0.734300  0.199100  1.0  0.1019
  H  H10  1  0.958000  0.727900  0.640000  1.0  0.1071
  H  H11  1  0.073900  0.500700  0.710100  1.0  0.1095
  H  H12  1  0.840800  0.653100  0.610500  1.0  0.1257
  H  H13  1  0.963500  0.425700  0.673300  1.0  0.1112
  H  H14  1  0.899600  0.568700  0.181200  1.0  0.1089
  H  H15  1  0.014900  0.474000  0.136600  1.0  0.1193
  H  H16  1  0.973600  0.919600  0.131400  1.0  0.116
  H  H17  1  0.150500  0.059900  0.204600  1.0  0.1102
  H  H18  1  0.266500  0.018300  0.136400  1.0  0.1201
  H  H19  1  0.091700  0.875200  0.065500  1.0  0.1146
  H  H20  1  0.563100  0.210800  0.211900  1.0  0.1088
  H  H21  1  0.426700  0.757000  0.377600  1.0  0.122
  H  H22  1  0.432100  0.262900  0.171700  1.0  0.121
  H  H23  1  0.145300  0.143800  0.536800  1.0  0.0989
  H  H24  1  0.160500  0.918500  0.886600  1.0  0.0942
  H  H25  1  0.450600  0.192700  0.006300  1.0  0.1337
  H  H26  1  0.408100  0.182300  0.911800  1.0  0.1052
  H  H27  1  0.188400  0.120300  0.439800  1.0  0.1265
  H  H28  1  0.142000  0.163400  0.976100  1.0  0.146
  H  H29  1  0.173900  0.977700  0.972200  1.0  0.1167
  H  H30  1  0.634500  0.565700  0.784700  1.0  0.11
  H  H31  1  0.495000  0.701500  0.697500  1.0  0.0953
  H  H32  1  0.348000  0.982400  0.590100  1.0  0.091
  H  H33  1  0.612600  0.482200  0.440300  1.0  0.0981
  H  H34  1  0.789300  0.717900  0.445700  1.0  0.0933
  H  H35  1  0.800000  0.644900  0.360800  1.0  0.0982
  H  H36  1  0.482200  0.054100  0.343700  1.0  0.1063
  H  H37  1  0.187300  0.173500  0.068500  1.0  0.0966
  H  H38  1  0.400600  0.804300  0.545600  1.0  0.0951
  H  H39  1  0.528200  0.431800  0.670200  1.0  0.0799
  H  H40  1  0.315200  0.706700  0.938600  1.0  0.1025
  H  H41  1  0.404000  0.968900  0.491400  1.0  0.1012
  H  H42  1  0.594600  0.564500  0.520800  1.0  0.1196
  H  H43  1  0.637800  0.674100  0.648500  1.0  0.1112
  H  H44  1  0.330700  0.767600  0.026000  1.0  0.1312
  H  H45  1  0.322700  0.864700  0.413000  1.0  0.1119
  H  H46  1  0.562300  0.993600  0.130100  1.0  0.0695
  H  H47  1  0.436200  0.047000  0.083500  1.0  0.1342
  H  H48  1  0.666300  0.423300  0.613900  1.0  0.1347
  H  H49  1  0.595000  0.948500  0.310900  1.0  0.1
  H  H50  1  0.782100  0.547300  0.732800  1.0  0.1207
  H  H51  1  0.162400  0.570700  0.934900  1.0  0.0799
  H  H52  1  0.284200  0.376300  0.071600  1.0  0.1165
  H  H53  1  0.540800  0.763400  0.493800  1.0  0.1204
  H  H54  1  0.308000  0.354000  0.975500  1.0  0.1022
  H  H55  1  0.207100  0.639200  0.156000  1.0  0.1312
  H  H56  1  0.140300  0.598800  0.033000  1.0  0.1261
  H  H57  1  0.905100  0.265700  0.800900  1.0  0.1021
  H  H58  1  0.042000  0.272100  0.360000  1.0  0.1072
  H  H59  1  0.926100  0.499300  0.289900  1.0  0.1089
  H  H60  1  0.159200  0.346900  0.389500  1.0  0.1247
  H  H61  1  0.036500  0.574300  0.326700  1.0  0.1112
  H  H62  1  0.100400  0.431300  0.818800  1.0  0.1094
  H  H63  1  0.985100  0.526000  0.863400  1.0  0.1194
  H  H64  1  0.026400  0.080400  0.868600  1.0  0.116
  H  H65  1  0.849500  0.940100  0.795400  1.0  0.11
  H  H66  1  0.733500  0.981700  0.863600  1.0  0.1202
  H  H67  1  0.908300  0.124800  0.934500  1.0  0.1144
  H  H68  1  0.436900  0.789200  0.788100  1.0  0.1085
  H  H69  1  0.573300  0.243000  0.622400  1.0  0.1218
  H  H70  1  0.567900  0.737100  0.828300  1.0  0.1226
  H  H71  1  0.854700  0.856200  0.463200  1.0  0.099
  H  H72  1  0.839500  0.081500  0.113400  1.0  0.0933
  H  H73  1  0.549400  0.807300  0.993700  1.0  0.1341
  H  H74  1  0.591900  0.817700  0.088200  1.0  0.1054
  H  H75  1  0.811600  0.879700  0.560200  1.0  0.126
  H  H76  1  0.858000  0.836600  0.023900  1.0  0.1458
  H  H77  1  0.826100  0.022300  0.027800  1.0  0.1174
  H  H78  1  0.365500  0.434300  0.215300  1.0  0.11
  H  H79  1  0.505000  0.298500  0.302500  1.0  0.0957
  H  H80  1  0.652000  0.017600  0.409900  1.0  0.0905
  H  H81  1  0.387400  0.517800  0.559700  1.0  0.0977
  H  H82  1  0.210700  0.282100  0.554300  1.0  0.0927
  H  H83  1  0.200000  0.355100  0.639200  1.0  0.0983
  H  H84  1  0.517800  0.945900  0.656300  1.0  0.1068
  H  H85  1  0.812700  0.826500  0.931500  1.0  0.097
  H  H86  1  0.599400  0.195700  0.454400  1.0  0.0956
  H  H87  1  0.471800  0.568200  0.329800  1.0  0.08
  H  H88  1  0.684800  0.293300  0.061400  1.0  0.1023
  H  H89  1  0.596000  0.031100  0.508600  1.0  0.1006
  H  H90  1  0.405400  0.435500  0.479200  1.0  0.1197
  H  H91  1  0.362200  0.325900  0.351500  1.0  0.1112
  H  H92  1  0.669300  0.232400  0.974000  1.0  0.132
  H  H93  1  0.677300  0.135300  0.587000  1.0  0.1113
  H  H94  1  0.437700  0.006400  0.869900  1.0  0.0693
  H  H95  1  0.563800  0.953000  0.916500  1.0  0.1341
  H  H96  1  0.333700  0.576700  0.386100  1.0  0.1348
  H  H97  1  0.405000  0.051500  0.689100  1.0  0.1005
  H  H98  1  0.217900  0.452700  0.267200  1.0  0.1201
  H  H99  1  0.837600  0.429300  0.065100  1.0  0.0796
  H  H100  1  0.715800  0.623700  0.928400  1.0  0.1157
  H  H101  1  0.459200  0.236600  0.506200  1.0  0.1203
  H  H102  1  0.692000  0.646000  0.024500  1.0  0.101
  H  H103  1  0.792900  0.360800  0.844000  1.0  0.1308
  H  H104  1  0.859700  0.401200  0.967000  1.0  0.1265
  C  C105  1  0.078400  0.681500  0.186900  1.0  -0.0181
  C  C106  1  0.092500  0.670800  0.701800  1.0  0.692
  C  C107  1  0.027100  0.620900  0.678900  1.0  -0.0982
  C  C108  1  0.957000  0.667200  0.648000  1.0  -0.0691
  C  C109  1  0.028200  0.531100  0.689400  1.0  -0.1774
  C  C110  1  0.887900  0.623000  0.630100  1.0  -0.2228
  C  C111  1  0.960500  0.486900  0.668800  1.0  -0.1279
  C  C112  1  0.913600  0.720400  0.223300  1.0  0.6698
  C  C113  1  0.986500  0.659700  0.194900  1.0  -0.1302
  C  C114  1  0.960900  0.583300  0.176400  1.0  -0.0285
  C  C115  1  0.030300  0.526600  0.149600  1.0  -0.1921
  C  C116  1  0.975200  0.033300  0.216300  1.0  0.648
  C  C117  1  0.049600  0.997100  0.174200  1.0  -0.1246
  C  C118  1  0.032400  0.939300  0.132400  1.0  -0.0151
  C  C119  1  0.138500  0.023800  0.175900  1.0  -0.0259
  C  C120  1  0.207700  0.998000  0.136300  1.0  -0.1989
  C  C121  1  0.102400  0.912800  0.093700  1.0  -0.2076
  C  C122  1  0.649200  0.059400  0.208200  1.0  0.6477
  C  C123  1  0.571300  0.089100  0.178000  1.0  -0.0479
  C  C124  1  0.534600  0.176800  0.188000  1.0  -0.0955
  C  C125  1  0.592300  0.775600  0.317100  1.0  0.6871
  C  C126  1  0.523100  0.842900  0.342900  1.0  -0.1343
  C  C127  1  0.439900  0.816100  0.371800  1.0  -0.1247
  C  C128  1  0.459500  0.208500  0.162900  1.0  -0.2192
  C  C129  1  0.708400  0.509000  0.336200  1.0  0.6896
  C  C130  1  0.226400  0.759400  0.847700  1.0  0.6848
  C  C131  1  0.430200  0.753000  0.627500  1.0  -0.0915
  C  C132  1  0.214200  0.076600  0.637300  1.0  0.6636
  C  C133  1  0.242100  0.066500  0.574000  1.0  -0.0233
  C  C134  1  0.271200  0.172200  0.934400  1.0  -0.1265
  C  C135  1  0.196600  0.106400  0.528000  1.0  -0.1003
  C  C136  1  0.193500  0.886800  0.915300  1.0  -0.0287
  C  C137  1  0.336500  0.772900  0.659100  1.0  0.6984
  C  C138  1  0.320100  0.184600  0.045400  1.0  0.3
  C  C139  1  0.389400  0.187100  0.999700  1.0  -0.149
  C  C140  1  0.363400  0.180800  0.943900  1.0  -0.0734
  C  C141  1  0.222900  0.093900  0.469400  1.0  -0.2242
  C  C142  1  0.203600  0.169400  0.981600  1.0  -0.14
  C  C143  1  0.689700  0.650600  0.489600  1.0  0.3634
  C  C144  1  0.300200  0.042200  0.455500  1.0  0.332
  C  C145  1  0.704700  0.556400  0.389000  1.0  -0.0992
  C  C146  1  0.201500  0.922400  0.965900  1.0  -0.1912
  C  C147  1  0.641800  0.536000  0.750500  1.0  -0.1063
  C  C148  1  0.503700  0.715500  0.656800  1.0  -0.0361
  C  C149  1  0.474300  0.521700  0.766200  1.0  0.6617
  C  C150  1  0.317300  0.012900  0.559900  1.0  -0.0603
  C  C151  1  0.646100  0.532100  0.439600  1.0  -0.0335
  C  C152  1  0.751000  0.672200  0.443600  1.0  -0.1761
  C  C153  1  0.758500  0.627200  0.392700  1.0  -0.0642
  C  C154  1  0.393000  0.969000  0.380900  1.0  0.1963
  C  C155  1  0.471900  0.994500  0.351300  1.0  -0.1542
  C  C156  1  0.231400  0.175600  0.036000  1.0  -0.1881
  C  C157  1  0.447000  0.774800  0.566100  1.0  -0.0335
  C  C158  1  0.232800  0.804100  0.903900  1.0  -0.1131
  C  C159  1  0.603600  0.716600  0.566300  1.0  0.2857
  C  C160  1  0.578200  0.458300  0.682000  1.0  -0.0437
  C  C161  1  0.285600  0.760900  0.945800  1.0  0.0344
  C  C162  1  0.248600  0.878800  0.006800  1.0  0.2978
  C  C163  1  0.349800  0.002300  0.500400  1.0  -0.2021
  C  C164  1  0.566400  0.500200  0.731100  1.0  -0.058
  C  C165  1  0.636700  0.580000  0.488700  1.0  -0.2469
  C  C166  1  0.589500  0.698100  0.627400  1.0  -0.1649
  C  C167  1  0.422900  0.160600  0.124000  1.0  0.3248
  C  C168  1  0.295000  0.796500  0.997700  1.0  -0.1818
  C  C169  1  0.377500  0.881200  0.391600  1.0  -0.1244
  C  C170  1  0.247400  0.169600  0.874700  1.0  0.6803
  C  C171  1  0.262100  0.444200  0.882900  1.0  0.7037
  C  C172  1  0.236200  0.460700  0.944600  1.0  -0.1023
  C  C173  1  0.535100  0.048000  0.139000  1.0  -0.0395
  C  C174  1  0.460500  0.079000  0.110500  1.0  -0.2105
  C  C175  1  0.660800  0.452400  0.648300  1.0  -0.2574
  C  C176  1  0.734400  0.489300  0.665300  1.0  0.288
  C  C177  1  0.539900  0.931100  0.331400  1.0  -0.0171
  C  C178  1  0.189800  0.941400  0.095800  1.0  0.2937
  C  C179  1  0.729800  0.527900  0.718700  1.0  -0.1509
  C  C180  1  0.187000  0.530400  0.963100  1.0  -0.0267
  C  C181  1  0.889300  0.529700  0.642100  1.0  0.1573
  C  C182  1  0.199400  0.483300  0.062700  1.0  0.3276
  C  C183  1  0.256100  0.415000  0.043900  1.0  -0.1786
  C  C184  1  0.532500  0.753200  0.534900  1.0  -0.1953
  C  C185  1  0.271800  0.402900  0.987000  1.0  -0.1135
  C  C186  1  0.120400  0.549900  0.143000  1.0  0.3186
  C  C187  1  0.145600  0.625000  0.160900  1.0  -0.2225
  C  C188  1  0.170300  0.546600  0.021800  1.0  -0.2413
  C  C189  1  0.921600  0.318500  0.813100  1.0  -0.018
  C  C190  1  0.907500  0.329200  0.298200  1.0  0.6937
  C  C191  1  0.972900  0.379100  0.321100  1.0  -0.0975
  C  C192  1  0.043000  0.332800  0.352000  1.0  -0.0694
  C  C193  1  0.971800  0.468900  0.310600  1.0  -0.179
  C  C194  1  0.112100  0.377000  0.369900  1.0  -0.2221
  C  C195  1  0.039500  0.513100  0.331200  1.0  -0.1271
  C  C196  1  0.086400  0.279600  0.776700  1.0  0.6713
  C  C197  1  0.013500  0.340300  0.805100  1.0  -0.1321
  C  C198  1  0.039100  0.416700  0.823600  1.0  -0.0262
  C  C199  1  0.969700  0.473400  0.850400  1.0  -0.192
  C  C200  1  0.024800  0.966700  0.783700  1.0  0.649
  C  C201  1  0.950400  0.002900  0.825800  1.0  -0.123
  C  C202  1  0.967600  0.060700  0.867600  1.0  -0.0148
  C  C203  1  0.861500  0.976200  0.824100  1.0  -0.0262
  C  C204  1  0.792300  0.002000  0.863700  1.0  -0.2016
  C  C205  1  0.897600  0.087200  0.906300  1.0  -0.2077
  C  C206  1  0.350800  0.940600  0.791800  1.0  0.65
  C  C207  1  0.428700  0.910900  0.822000  1.0  -0.0505
  C  C208  1  0.465400  0.823200  0.812000  1.0  -0.0936
  C  C209  1  0.407700  0.224400  0.682900  1.0  0.6866
  C  C210  1  0.476900  0.157100  0.657100  1.0  -0.1355
  C  C211  1  0.560100  0.183900  0.628200  1.0  -0.1251
  C  C212  1  0.540500  0.791500  0.837100  1.0  -0.2211
  C  C213  1  0.291600  0.491000  0.663800  1.0  0.6893
  C  C214  1  0.773600  0.240600  0.152300  1.0  0.6846
  C  C215  1  0.569800  0.247000  0.372500  1.0  -0.091
  C  C216  1  0.785800  0.923400  0.362700  1.0  0.6611
  C  C217  1  0.757900  0.933500  0.426000  1.0  -0.026
  C  C218  1  0.728800  0.827800  0.065600  1.0  -0.1266
  C  C219  1  0.803400  0.893600  0.472000  1.0  -0.0988
  C  C220  1  0.806500  0.113200  0.084700  1.0  -0.0283
  C  C221  1  0.663500  0.227100  0.340900  1.0  0.6996
  C  C222  1  0.679900  0.815400  0.954600  1.0  0.3013
  C  C223  1  0.610600  0.812900  0.000300  1.0  -0.15
  C  C224  1  0.636600  0.819200  0.056100  1.0  -0.0724
  C  C225  1  0.777100  0.906100  0.530600  1.0  -0.2271
  C  C226  1  0.796400  0.830600  0.018400  1.0  -0.141
  C  C227  1  0.310300  0.349400  0.510400  1.0  0.3618
  C  C228  1  0.699800  0.957800  0.544500  1.0  0.3287
  C  C229  1  0.295300  0.443600  0.611000  1.0  -0.0979
  C  C230  1  0.798500  0.077600  0.034100  1.0  -0.1921
  C  C231  1  0.358200  0.464000  0.249500  1.0  -0.1071
  C  C232  1  0.496300  0.284500  0.343200  1.0  -0.0364
  C  C233  1  0.525700  0.478300  0.233800  1.0  0.6619
  C  C234  1  0.682700  0.987100  0.440100  1.0  -0.0596
  C  C235  1  0.353900  0.467900  0.560400  1.0  -0.0329
  C  C236  1  0.249000  0.327800  0.556400  1.0  -0.1767
  C  C237  1  0.241500  0.372800  0.607300  1.0  -0.0628
  C  C238  1  0.607000  0.031000  0.619100  1.0  0.1996
  C  C239  1  0.528100  0.005500  0.648700  1.0  -0.153
  C  C240  1  0.768600  0.824400  0.964000  1.0  -0.1876
  C  C241  1  0.553000  0.225200  0.433900  1.0  -0.0339
  C  C242  1  0.767200  0.195900  0.096100  1.0  -0.111
  C  C243  1  0.396400  0.283400  0.433700  1.0  0.285
  C  C244  1  0.421800  0.541700  0.318000  1.0  -0.0441
  C  C245  1  0.714400  0.239100  0.054200  1.0  0.033
  C  C246  1  0.751400  0.121200  0.993200  1.0  0.2986
  C  C247  1  0.650200  0.997700  0.499600  1.0  -0.2018
  C  C248  1  0.433600  0.499800  0.268900  1.0  -0.0576
  C  C249  1  0.363300  0.420000  0.511300  1.0  -0.2481
  C  C250  1  0.410500  0.301900  0.372600  1.0  -0.1631
  C  C251  1  0.577100  0.839400  0.876000  1.0  0.3256
  C  C252  1  0.705000  0.203500  0.002300  1.0  -0.1801
  C  C253  1  0.622500  0.118800  0.608400  1.0  -0.1222
  C  C254  1  0.752600  0.830400  0.125300  1.0  0.6811
  C  C255  1  0.737900  0.555800  0.117100  1.0  0.7047
  C  C256  1  0.763800  0.539300  0.055400  1.0  -0.1031
  C  C257  1  0.464900  0.952000  0.861000  1.0  -0.0396
  C  C258  1  0.539500  0.921000  0.889500  1.0  -0.2094
  C  C259  1  0.339200  0.547600  0.351700  1.0  -0.2582
  C  C260  1  0.265600  0.510700  0.334700  1.0  0.2874
  C  C261  1  0.460100  0.068900  0.668600  1.0  -0.015
  C  C262  1  0.810200  0.058600  0.904200  1.0  0.2944
  C  C263  1  0.270200  0.472100  0.281300  1.0  -0.1505
  C  C264  1  0.813000  0.469600  0.036900  1.0  -0.0255
  C  C265  1  0.110700  0.470300  0.357900  1.0  0.1571
  C  C266  1  0.800600  0.516700  0.937300  1.0  0.3311
  C  C267  1  0.743900  0.585000  0.956100  1.0  -0.1792
  C  C268  1  0.467500  0.246800  0.465100  1.0  -0.1944
  C  C269  1  0.728200  0.597100  0.013000  1.0  -0.1138
  C  C270  1  0.879600  0.450100  0.857000  1.0  0.3182
  C  C271  1  0.854400  0.375000  0.839100  1.0  -0.2249
  C  C272  1  0.829700  0.453400  0.978200  1.0  -0.239
  O  O273  1  0.098600  0.750000  0.687200  1.0  -0.6796
  O  O274  1  0.144600  0.623700  0.739900  1.0  -0.6902
  O  O275  1  0.829900  0.704900  0.231400  1.0  -0.7675
  O  O276  1  0.940200  0.795100  0.236700  1.0  -0.6868
  O  O277  1  0.984200  0.093400  0.247800  1.0  -0.6029
  O  O278  1  0.890500  0.999100  0.219100  1.0  -0.7509
  O  O279  1  0.683500  0.980100  0.201300  1.0  -0.6931
  O  O280  1  0.686400  0.101200  0.242200  1.0  -0.6555
  O  O281  1  0.668300  0.800400  0.291700  1.0  -0.7667
  O  O282  1  0.572200  0.697200  0.318200  1.0  -0.659
  O  O283  1  0.743900  0.548500  0.286300  1.0  -0.747
  O  O284  1  0.680300  0.433600  0.338400  1.0  -0.6218
  O  O285  1  0.236400  0.503800  0.844700  1.0  -0.7122
  O  O286  1  0.236500  0.021600  0.676300  1.0  -0.6777
  O  O287  1  0.316700  0.735100  0.710100  1.0  -0.7456
  O  O288  1  0.165200  0.146500  0.651800  1.0  -0.6525
  O  O289  1  0.300200  0.195600  0.827800  1.0  -0.7871
  O  O290  1  0.172200  0.134000  0.865200  1.0  -0.6969
  O  O291  1  0.268100  0.692900  0.838300  1.0  -0.6569
  O  O292  1  0.282200  0.829700  0.634200  1.0  -0.6334
  O  O293  1  0.170000  0.800200  0.813600  1.0  -0.712
  O  O294  1  0.295400  0.375500  0.867500  1.0  -0.5743
  O  O295  1  0.341600  0.195200  0.101700  1.0  -0.2615
  O  O296  1  0.688300  0.697000  0.537900  1.0  -0.249
  O  O297  1  0.264400  0.916100  0.058900  1.0  -0.2779
  O  O298  1  0.325500  0.033500  0.397500  1.0  -0.3007
  O  O299  1  0.412800  0.466800  0.762500  1.0  -0.8303
  O  O300  1  0.451800  0.593400  0.785800  1.0  -0.5935
  O  O301  1  0.815200  0.484500  0.627400  1.0  -0.3086
  O  O302  1  0.188900  0.492000  0.122300  1.0  -0.2756
  O  O303  1  0.901400  0.250000  0.312800  1.0  -0.6777
  O  O304  1  0.855400  0.376300  0.260100  1.0  -0.6907
  O  O305  1  0.170100  0.295100  0.768600  1.0  -0.768
  O  O306  1  0.059800  0.204900  0.763300  1.0  -0.6858
  O  O307  1  0.015800  0.906600  0.752200  1.0  -0.6
  O  O308  1  0.109500  0.000900  0.780900  1.0  -0.7537
  O  O309  1  0.316500  0.019900  0.798700  1.0  -0.6929
  O  O310  1  0.313600  0.898800  0.757800  1.0  -0.6565
  O  O311  1  0.331700  0.199600  0.708300  1.0  -0.7673
  O  O312  1  0.427800  0.302800  0.681800  1.0  -0.6589
  O  O313  1  0.256100  0.451500  0.713700  1.0  -0.748
  O  O314  1  0.319700  0.566400  0.661600  1.0  -0.6225
  O  O315  1  0.763600  0.496200  0.155300  1.0  -0.7121
  O  O316  1  0.763500  0.978400  0.323700  1.0  -0.681
  O  O317  1  0.683300  0.264900  0.289900  1.0  -0.7433
  O  O318  1  0.834800  0.853500  0.348200  1.0  -0.6512
  O  O319  1  0.699800  0.804400  0.172200  1.0  -0.7871
  O  O320  1  0.827800  0.866000  0.134800  1.0  -0.697
  O  O321  1  0.731900  0.307100  0.161700  1.0  -0.6561
  O  O322  1  0.717800  0.170300  0.365800  1.0  -0.6341
  O  O323  1  0.830000  0.199800  0.186400  1.0  -0.7145
  O  O324  1  0.704600  0.624500  0.132500  1.0  -0.5751
  O  O325  1  0.658400  0.804800  0.898300  1.0  -0.2611
  O  O326  1  0.311700  0.303000  0.462100  1.0  -0.251
  O  O327  1  0.735600  0.083900  0.941100  1.0  -0.2776
  O  O328  1  0.674500  0.966500  0.602500  1.0  -0.3022
  O  O329  1  0.587200  0.533200  0.237500  1.0  -0.8337
  O  O330  1  0.548200  0.406600  0.214200  1.0  -0.5929
  O  O331  1  0.184800  0.515500  0.372600  1.0  -0.311
  O  O332  1  0.811100  0.508000  0.877700  1.0  -0.2757
