# generated using pymatgen
data_Dy2H24(C14O5)3
_symmetry_space_group_name_H-M   'P 1'
_cell_length_a   15.18900000
_cell_length_b   15.23200000
_cell_length_c   23.85500000
_cell_angle_alpha   85.89000000
_cell_angle_beta   79.97100000
_cell_angle_gamma   86.84200000
_symmetry_Int_Tables_number   1
_chemical_formula_structural   Dy2H24(C14O5)3
_chemical_formula_sum   'Dy8 H96 C168 O60'
_cell_volume   5415.65289483
_cell_formula_units_Z   4
loop_
 _symmetry_equiv_pos_site_id
 _symmetry_equiv_pos_as_xyz
  1  'x, y, z'
loop_
 _atom_site_type_symbol
 _atom_site_label
 _atom_site_symmetry_multiplicity
 _atom_site_fract_x
 _atom_site_fract_y
 _atom_site_fract_z
 _atom_site_occupancy
 _atom_site_charge
  Dy  Dy1  1  0.327040  0.087120  0.776150  1.0  2.2977
  Dy  Dy2  1  0.356130  0.831290  0.787880  1.0  2.3027
  Dy  Dy3  1  0.240100  0.607430  0.770000  1.0  2.2317
  Dy  Dy4  1  0.213940  0.360150  0.731250  1.0  2.2873
  Dy  Dy5  1  0.672960  0.912880  0.223850  1.0  2.2964
  Dy  Dy6  1  0.643870  0.168710  0.212120  1.0  2.3034
  Dy  Dy7  1  0.759900  0.392570  0.230000  1.0  2.2298
  Dy  Dy8  1  0.786060  0.639850  0.268750  1.0  2.2896
  H  H9  1  0.579900  0.910400  0.692800  1.0  0.1064
  H  H10  1  0.727400  0.895600  0.650600  1.0  0.0998
  H  H11  1  0.800100  0.041100  0.765700  1.0  0.0878
  H  H12  1  0.650000  0.068500  0.803900  1.0  0.1034
  H  H13  1  0.001200  0.906400  0.715200  1.0  0.1107
  H  H14  1  0.114300  0.984700  0.734100  1.0  0.067
  H  H15  1  0.992800  0.204600  0.685400  1.0  0.0984
  H  H16  1  0.880000  0.125600  0.666300  1.0  0.1226
  H  H17  1  0.238500  0.841200  0.663200  1.0  0.092
  H  H18  1  0.227100  0.778500  0.581000  1.0  0.1046
  H  H19  1  0.397300  0.941200  0.490600  1.0  0.1082
  H  H20  1  0.412300  0.005900  0.573900  1.0  0.1016
  H  H21  1  0.447900  0.725000  0.497300  1.0  0.1257
  H  H22  1  0.571500  0.697200  0.431500  1.0  0.084
  H  H23  1  0.466200  0.835900  0.312700  1.0  0.0636
  H  H24  1  0.333200  0.862000  0.375600  1.0  0.1106
  H  H25  1  0.326300  0.862500  0.985900  1.0  0.0897
  H  H26  1  0.282300  0.904100  0.079100  1.0  0.1093
  H  H27  1  0.153300  0.119000  0.022500  1.0  0.1084
  H  H28  1  0.192400  0.074000  0.929100  1.0  0.0918
  H  H29  1  0.032700  0.989200  0.112800  1.0  0.1256
  H  H30  1  0.897000  0.065500  0.144900  1.0  0.0879
  H  H31  1  0.031400  0.258900  0.188500  1.0  0.0942
  H  H32  1  0.163900  0.187600  0.152400  1.0  0.1219
  H  H33  1  0.170200  0.659600  0.977200  1.0  0.1138
  H  H34  1  0.203300  0.673700  0.066000  1.0  0.1156
  H  H35  1  0.464400  0.695600  0.000800  1.0  0.1217
  H  H36  1  0.430200  0.682600  0.910200  1.0  0.0959
  H  H37  1  0.426600  0.552600  0.083600  1.0  0.1188
  H  H38  1  0.536800  0.491700  0.132200  1.0  0.0878
  H  H39  1  0.545100  0.720900  0.202900  1.0  0.0774
  H  H40  1  0.433400  0.780200  0.157600  1.0  0.1268
  H  H41  1  0.358300  0.458800  0.599000  1.0  0.0869
  H  H42  1  0.399400  0.445000  0.503000  1.0  0.0978
  H  H43  1  0.203100  0.619400  0.472600  1.0  0.128
  H  H44  1  0.168000  0.635400  0.570400  1.0  0.0867
  H  H45  1  0.318600  0.346500  0.422900  1.0  0.1092
  H  H46  1  0.423600  0.252600  0.376300  1.0  0.0992
  H  H47  1  0.576900  0.451500  0.315600  1.0  0.1005
  H  H48  1  0.467700  0.548300  0.364700  1.0  0.0904
  H  H49  1  0.896900  0.429400  0.803200  1.0  0.1022
  H  H50  1  0.772700  0.479100  0.862000  1.0  0.1099
  H  H51  1  0.923400  0.624700  0.938700  1.0  0.1201
  H  H52  1  0.048200  0.575600  0.878300  1.0  0.0874
  H  H53  1  0.681000  0.728600  0.971000  1.0  0.1254
  H  H54  1  0.677100  0.793600  0.056000  1.0  0.0889
  H  H55  1  0.815500  0.587800  0.112900  1.0  0.0829
  H  H56  1  0.817100  0.520900  0.028000  1.0  0.114
  H  H57  1  0.420100  0.089600  0.307200  1.0  0.1052
  H  H58  1  0.272600  0.104400  0.349400  1.0  0.1003
  H  H59  1  0.199900  0.958900  0.234300  1.0  0.0873
  H  H60  1  0.350000  0.931500  0.196100  1.0  0.1032
  H  H61  1  0.998800  0.093600  0.284800  1.0  0.1102
  H  H62  1  0.885700  0.015300  0.265900  1.0  0.067
  H  H63  1  0.007200  0.795400  0.314600  1.0  0.0983
  H  H64  1  0.120000  0.874400  0.333700  1.0  0.1222
  H  H65  1  0.761500  0.158800  0.336800  1.0  0.0918
  H  H66  1  0.772900  0.221500  0.419000  1.0  0.1048
  H  H67  1  0.602700  0.058800  0.509400  1.0  0.107
  H  H68  1  0.587700  0.994100  0.426100  1.0  0.1018
  H  H69  1  0.552100  0.275000  0.502700  1.0  0.1259
  H  H70  1  0.428500  0.302800  0.568500  1.0  0.0836
  H  H71  1  0.533800  0.164100  0.687300  1.0  0.0631
  H  H72  1  0.666800  0.138000  0.624400  1.0  0.1103
  H  H73  1  0.673700  0.137500  0.014100  1.0  0.089
  H  H74  1  0.717700  0.095900  0.920900  1.0  0.1085
  H  H75  1  0.846700  0.881000  0.977500  1.0  0.108
  H  H76  1  0.807600  0.926000  0.070900  1.0  0.0915
  H  H77  1  0.967300  0.010800  0.887200  1.0  0.1257
  H  H78  1  0.103000  0.934500  0.855100  1.0  0.0879
  H  H79  1  0.968600  0.741100  0.811500  1.0  0.094
  H  H80  1  0.836100  0.812400  0.847600  1.0  0.1209
  H  H81  1  0.829800  0.340400  0.022800  1.0  0.1139
  H  H82  1  0.796700  0.326300  0.934000  1.0  0.1171
  H  H83  1  0.535600  0.304400  0.999200  1.0  0.1223
  H  H84  1  0.569800  0.317400  0.089800  1.0  0.096
  H  H85  1  0.573400  0.447400  0.916400  1.0  0.1186
  H  H86  1  0.463200  0.508300  0.867800  1.0  0.0881
  H  H87  1  0.454900  0.279100  0.797100  1.0  0.0771
  H  H88  1  0.566600  0.219800  0.842400  1.0  0.127
  H  H89  1  0.641700  0.541200  0.401000  1.0  0.0869
  H  H90  1  0.600600  0.555000  0.497000  1.0  0.0976
  H  H91  1  0.796900  0.380600  0.527400  1.0  0.1282
  H  H92  1  0.832000  0.364600  0.429600  1.0  0.0874
  H  H93  1  0.681400  0.653500  0.577100  1.0  0.109
  H  H94  1  0.576400  0.747400  0.623700  1.0  0.0983
  H  H95  1  0.423100  0.548500  0.684400  1.0  0.1016
  H  H96  1  0.532300  0.451700  0.635300  1.0  0.0905
  H  H97  1  0.103100  0.570600  0.196800  1.0  0.1026
  H  H98  1  0.227300  0.520900  0.138000  1.0  0.1095
  H  H99  1  0.076600  0.375300  0.061300  1.0  0.1198
  H  H100  1  0.951800  0.424400  0.121700  1.0  0.0875
  H  H101  1  0.319000  0.271400  0.029000  1.0  0.1247
  H  H102  1  0.322900  0.206400  0.944000  1.0  0.0887
  H  H103  1  0.184500  0.412200  0.887100  1.0  0.0831
  H  H104  1  0.182900  0.479100  0.972000  1.0  0.1139
  C  C105  1  0.500600  0.010000  0.776100  1.0  0.6906
  C  C106  1  0.599800  0.990500  0.751900  1.0  -0.1077
  C  C107  1  0.623300  0.939000  0.706700  1.0  -0.0817
  C  C108  1  0.712100  0.929900  0.681900  1.0  -0.1673
  C  C109  1  0.778900  0.969800  0.701700  1.0  0.2713
  C  C110  1  0.755700  0.018000  0.749600  1.0  -0.1731
  C  C111  1  0.665900  0.032000  0.773700  1.0  -0.0652
  C  C112  1  0.931100  0.008400  0.690100  1.0  0.2147
  C  C113  1  0.999100  0.967500  0.709400  1.0  -0.2068
  C  C114  1  0.066400  0.014900  0.720700  1.0  -0.0817
  C  C115  1  0.067200  0.103200  0.713500  1.0  -0.1104
  C  C116  1  0.995100  0.143700  0.692100  1.0  -0.0416
  C  C117  1  0.927900  0.097100  0.680600  1.0  -0.1661
  C  C118  1  0.137900  0.154300  0.730200  1.0  0.7173
  C  C119  1  0.325900  0.976100  0.680900  1.0  0.6864
  C  C120  1  0.323000  0.931600  0.627900  1.0  -0.089
  C  C121  1  0.270900  0.862900  0.628700  1.0  -0.0677
  C  C122  1  0.264900  0.824800  0.580000  1.0  -0.1855
  C  C123  1  0.314400  0.854400  0.529500  1.0  0.3532
  C  C124  1  0.366000  0.920700  0.525700  1.0  -0.1356
  C  C125  1  0.373500  0.960300  0.575500  1.0  -0.0667
  C  C126  1  0.379700  0.799500  0.442500  1.0  0.2848
  C  C127  1  0.451200  0.747800  0.459800  1.0  -0.2826
  C  C128  1  0.524600  0.732200  0.420400  1.0  -0.0214
  C  C129  1  0.533500  0.765600  0.364500  1.0  -0.089
  C  C130  1  0.462000  0.813100  0.350200  1.0  -0.0308
  C  C131  1  0.381700  0.830900  0.387600  1.0  -0.2075
  C  C132  1  0.618800  0.748100  0.325100  1.0  0.6818
  C  C133  1  0.299300  0.939000  0.889500  1.0  0.6982
  C  C134  1  0.266100  0.965200  0.948700  1.0  -0.1568
  C  C135  1  0.291500  0.914000  0.993000  1.0  -0.0518
  C  C136  1  0.265100  0.938800  0.048900  1.0  -0.1229
  C  C137  1  0.213300  0.015300  0.058900  1.0  0.2566
  C  C138  1  0.187100  0.067000  0.015300  1.0  -0.2161
  C  C139  1  0.212100  0.040700  0.959200  1.0  -0.0381
  C  C140  1  0.109400  0.081600  0.131300  1.0  0.304
  C  C141  1  0.032200  0.043900  0.127900  1.0  -0.2306
  C  C142  1  0.950800  0.089600  0.147800  1.0  -0.027
  C  C143  1  0.949900  0.169000  0.171200  1.0  -0.1662
  C  C144  1  0.030700  0.204700  0.172900  1.0  -0.0538
  C  C145  1  0.109900  0.161700  0.152200  1.0  -0.2472
  C  C146  1  0.863300  0.212800  0.196800  1.0  0.6866
  C  C147  1  0.274900  0.655700  0.877600  1.0  0.6935
  C  C148  1  0.296700  0.666667  0.934700  1.0  -0.1307
  C  C149  1  0.229000  0.666300  0.981700  1.0  0.0014
  C  C150  1  0.248500  0.675800  0.034200  1.0  -0.2161
  C  C151  1  0.334400  0.688400  0.040700  1.0  0.319
  C  C152  1  0.405900  0.689200  0.995400  1.0  -0.2197
  C  C153  1  0.385000  0.679900  0.942000  1.0  -0.0367
  C  C154  1  0.418800  0.668800  0.117800  1.0  0.2883
  C  C155  1  0.449600  0.585400  0.108700  1.0  -0.2335
  C  C156  1  0.515900  0.549700  0.137400  1.0  -0.0356
  C  C157  1  0.552600  0.599900  0.174700  1.0  -0.0868
  C  C158  1  0.520300  0.686000  0.179800  1.0  -0.0144
  C  C159  1  0.454300  0.722200  0.152900  1.0  -0.2551
  C  C160  1  0.627300  0.562000  0.205000  1.0  0.6968
  C  C161  1  0.235100  0.561900  0.657800  1.0  0.6738
  C  C162  1  0.259800  0.550500  0.594600  1.0  -0.1473
  C  C163  1  0.327800  0.492300  0.573800  1.0  -0.0471
  C  C164  1  0.351400  0.482600  0.516600  1.0  -0.2128
  C  C165  1  0.304100  0.528400  0.479500  1.0  0.2826
  C  C166  1  0.234700  0.587400  0.497900  1.0  -0.218
  C  C167  1  0.214600  0.596300  0.556500  1.0  -0.0824
  C  C168  1  0.382200  0.458200  0.398500  1.0  0.2625
  C  C169  1  0.370600  0.368900  0.401400  1.0  -0.1518
  C  C170  1  0.433500  0.312600  0.373600  1.0  -0.1172
  C  C171  1  0.510400  0.342800  0.342000  1.0  -0.1306
  C  C172  1  0.524900  0.429900  0.337500  1.0  -0.0929
  C  C173  1  0.458200  0.488300  0.367200  1.0  -0.1461
  C  C174  1  0.573600  0.282300  0.307200  1.0  0.6954
  C  C175  1  0.064700  0.460900  0.796300  1.0  0.7081
  C  C176  1  0.985900  0.495400  0.835100  1.0  -0.1505
  C  C177  1  0.902500  0.468300  0.830600  1.0  -0.0963
  C  C178  1  0.828600  0.497800  0.865700  1.0  -0.1925
  C  C179  1  0.835200  0.556000  0.907400  1.0  0.2501
  C  C180  1  0.918100  0.585200  0.911700  1.0  -0.1089
  C  C181  1  0.992400  0.555400  0.875700  1.0  -0.0261
  C  C182  1  0.751900  0.621900  0.991400  1.0  0.2231
  C  C183  1  0.709200  0.700500  0.999400  1.0  -0.2304
  C  C184  1  0.707500  0.739400  0.050200  1.0  -0.0107
  C  C185  1  0.749900  0.699300  0.092100  1.0  -0.118
  C  C186  1  0.789300  0.617200  0.084000  1.0  0.0266
  C  C187  1  0.790600  0.576900  0.033300  1.0  -0.2212
  C  C188  1  0.752000  0.743500  0.147200  1.0  0.6776
  C  C189  1  0.499400  0.990000  0.223900  1.0  0.6922
  C  C190  1  0.400200  0.009500  0.248100  1.0  -0.1058
  C  C191  1  0.376700  0.061000  0.293300  1.0  -0.0824
  C  C192  1  0.287900  0.070100  0.318100  1.0  -0.1665
  C  C193  1  0.221100  0.030200  0.298300  1.0  0.2713
  C  C194  1  0.244300  0.982000  0.250400  1.0  -0.1706
  C  C195  1  0.334100  0.968000  0.226300  1.0  -0.0655
  C  C196  1  0.068900  0.991600  0.309900  1.0  0.215
  C  C197  1  0.000900  0.032500  0.290600  1.0  -0.2059
  C  C198  1  0.933600  0.985100  0.279300  1.0  -0.0812
  C  C199  1  0.932800  0.896800  0.286500  1.0  -0.1107
  C  C200  1  0.004900  0.856300  0.307900  1.0  -0.0457
  C  C201  1  0.072100  0.902900  0.319400  1.0  -0.1663
  C  C202  1  0.862100  0.845700  0.269800  1.0  0.7173
  C  C203  1  0.674100  0.023900  0.319100  1.0  0.686
  C  C204  1  0.677000  0.068400  0.372100  1.0  -0.0916
  C  C205  1  0.729100  0.137100  0.371300  1.0  -0.0691
  C  C206  1  0.735100  0.175200  0.420000  1.0  -0.1865
  C  C207  1  0.685600  0.145600  0.470500  1.0  0.3512
  C  C208  1  0.634000  0.079300  0.474300  1.0  -0.1359
  C  C209  1  0.626500  0.039700  0.424500  1.0  -0.0655
  C  C210  1  0.620300  0.200500  0.557500  1.0  0.2875
  C  C211  1  0.548800  0.252200  0.540200  1.0  -0.2835
  C  C212  1  0.475400  0.267800  0.579600  1.0  -0.0224
  C  C213  1  0.466500  0.234400  0.635500  1.0  -0.0887
  C  C214  1  0.538000  0.186900  0.649800  1.0  -0.0296
  C  C215  1  0.618300  0.169100  0.612400  1.0  -0.2075
  C  C216  1  0.381200  0.251900  0.674900  1.0  0.6826
  C  C217  1  0.700700  0.061000  0.110500  1.0  0.6989
  C  C218  1  0.733900  0.034800  0.051300  1.0  -0.1568
  C  C219  1  0.708500  0.086000  0.007000  1.0  -0.0523
  C  C220  1  0.734900  0.061200  0.951100  1.0  -0.1207
  C  C221  1  0.786700  0.984700  0.941100  1.0  0.2566
  C  C222  1  0.812900  0.933000  0.984700  1.0  -0.2172
  C  C223  1  0.787900  0.959300  0.040800  1.0  -0.0391
  C  C224  1  0.890600  0.918400  0.868700  1.0  0.3031
  C  C225  1  0.967800  0.956100  0.872100  1.0  -0.2299
  C  C226  1  0.049200  0.910400  0.852200  1.0  -0.0279
  C  C227  1  0.050100  0.831000  0.828800  1.0  -0.165
  C  C228  1  0.969300  0.795300  0.827100  1.0  -0.0532
  C  C229  1  0.890100  0.838300  0.847800  1.0  -0.2468
  C  C230  1  0.136700  0.787200  0.803200  1.0  0.6868
  C  C231  1  0.725100  0.344300  0.122400  1.0  0.694
  C  C232  1  0.703300  0.333400  0.065300  1.0  -0.1312
  C  C233  1  0.771000  0.333700  0.018300  1.0  0.0015
  C  C234  1  0.751500  0.324200  0.965800  1.0  -0.2138
  C  C235  1  0.665600  0.311600  0.959300  1.0  0.3204
  C  C236  1  0.594100  0.310800  0.004600  1.0  -0.2178
  C  C237  1  0.615000  0.320100  0.058000  1.0  -0.0388
  C  C238  1  0.581200  0.331200  0.882200  1.0  0.2875
  C  C239  1  0.550400  0.414600  0.891300  1.0  -0.2317
  C  C240  1  0.484100  0.450300  0.862600  1.0  -0.0355
  C  C241  1  0.447400  0.400100  0.825300  1.0  -0.0855
  C  C242  1  0.479700  0.314000  0.820200  1.0  -0.014
  C  C243  1  0.545700  0.277800  0.847100  1.0  -0.2548
  C  C244  1  0.372700  0.438000  0.795000  1.0  0.6958
  C  C245  1  0.764900  0.438100  0.342200  1.0  0.675
  C  C246  1  0.740200  0.449500  0.405400  1.0  -0.1472
  C  C247  1  0.672200  0.507700  0.426200  1.0  -0.0443
  C  C248  1  0.648600  0.517400  0.483400  1.0  -0.2148
  C  C249  1  0.695900  0.471600  0.520500  1.0  0.2801
  C  C250  1  0.765300  0.412600  0.502100  1.0  -0.219
  C  C251  1  0.785400  0.403700  0.443500  1.0  -0.0831
  C  C252  1  0.617800  0.541800  0.601500  1.0  0.2649
  C  C253  1  0.629400  0.631100  0.598600  1.0  -0.1501
  C  C254  1  0.566500  0.687400  0.626400  1.0  -0.1194
  C  C255  1  0.489600  0.657200  0.658000  1.0  -0.131
  C  C256  1  0.475100  0.570100  0.662500  1.0  -0.0911
  C  C257  1  0.541800  0.511700  0.632800  1.0  -0.1461
  C  C258  1  0.426400  0.717700  0.692800  1.0  0.6947
  C  C259  1  0.935300  0.539100  0.203700  1.0  0.7086
  C  C260  1  0.014100  0.504600  0.164900  1.0  -0.1506
  C  C261  1  0.097500  0.531700  0.169400  1.0  -0.0997
  C  C262  1  0.171400  0.502200  0.134300  1.0  -0.1908
  C  C263  1  0.164800  0.444000  0.092600  1.0  0.2512
  C  C264  1  0.081900  0.414800  0.088300  1.0  -0.1092
  C  C265  1  0.007600  0.444600  0.124300  1.0  -0.026
  C  C266  1  0.248100  0.378100  0.008600  1.0  0.2221
  C  C267  1  0.290800  0.299500  0.000600  1.0  -0.2298
  C  C268  1  0.292500  0.260600  0.949800  1.0  -0.0114
  C  C269  1  0.250100  0.300700  0.907900  1.0  -0.119
  C  C270  1  0.210700  0.382800  0.916000  1.0  0.027
  C  C271  1  0.209400  0.423100  0.966700  1.0  -0.2213
  C  C272  1  0.248000  0.256500  0.852800  1.0  0.6783
  O  O273  1  0.476300  0.082300  0.798500  1.0  -0.6453
  O  O274  1  0.442800  0.956300  0.769600  1.0  -0.7946
  O  O275  1  0.864700  0.958100  0.676300  1.0  -0.2917
  O  O276  1  0.141100  0.235000  0.713800  1.0  -0.7746
  O  O277  1  0.191500  0.112900  0.759400  1.0  -0.7104
  O  O278  1  0.358500  0.050400  0.678700  1.0  -0.6389
  O  O279  1  0.294500  0.938500  0.729200  1.0  -0.745
  O  O280  1  0.303800  0.816500  0.480800  1.0  -0.273
  O  O281  1  0.628400  0.787700  0.275500  1.0  -0.7138
  O  O282  1  0.676500  0.692100  0.340200  1.0  -0.6199
  O  O283  1  0.278000  0.989700  0.849000  1.0  -0.7519
  O  O284  1  0.343500  0.868100  0.881300  1.0  -0.6407
  O  O285  1  0.191800  0.040300  0.114500  1.0  -0.2905
  O  O286  1  0.867900  0.284000  0.218600  1.0  -0.6092
  O  O287  1  0.794200  0.175400  0.191200  1.0  -0.6493
  O  O288  1  0.324200  0.691500  0.833300  1.0  -0.7979
  O  O289  1  0.209000  0.614200  0.871700  1.0  -0.6342
  O  O290  1  0.346000  0.707900  0.094500  1.0  -0.2811
  O  O291  1  0.659900  0.611400  0.234400  1.0  -0.6592
  O  O292  1  0.649400  0.482600  0.200800  1.0  -0.6325
  O  O293  1  0.189900  0.627900  0.675500  1.0  -0.6197
  O  O294  1  0.265500  0.503000  0.691700  1.0  -0.7184
  O  O295  1  0.319800  0.521600  0.421300  1.0  -0.3004
  O  O296  1  0.649300  0.307900  0.283000  1.0  -0.7604
  O  O297  1  0.552600  0.206700  0.300900  1.0  -0.6172
  O  O298  1  0.141100  0.495300  0.794800  1.0  -0.8007
  O  O299  1  0.060200  0.396600  0.769300  1.0  -0.6469
  O  O300  1  0.752400  0.585200  0.939000  1.0  -0.3011
  O  O301  1  0.798700  0.709300  0.179900  1.0  -0.6506
  O  O302  1  0.706300  0.814800  0.153900  1.0  -0.6779
  O  O303  1  0.523700  0.917700  0.201500  1.0  -0.6451
  O  O304  1  0.557200  0.043700  0.230400  1.0  -0.7946
  O  O305  1  0.135300  0.041900  0.323700  1.0  -0.2912
  O  O306  1  0.858900  0.765000  0.286200  1.0  -0.7738
  O  O307  1  0.808500  0.887100  0.240600  1.0  -0.7104
  O  O308  1  0.641500  0.949600  0.321300  1.0  -0.6386
  O  O309  1  0.705500  0.061500  0.270800  1.0  -0.7456
  O  O310  1  0.696200  0.183500  0.519200  1.0  -0.2726
  O  O311  1  0.371600  0.212300  0.724500  1.0  -0.7158
  O  O312  1  0.323500  0.307900  0.659800  1.0  -0.619
  O  O313  1  0.722000  0.010300  0.151000  1.0  -0.752
  O  O314  1  0.656500  0.131900  0.118700  1.0  -0.6422
  O  O315  1  0.808200  0.959700  0.885500  1.0  -0.2917
  O  O316  1  0.132100  0.716000  0.781400  1.0  -0.6099
  O  O317  1  0.205800  0.824600  0.808800  1.0  -0.649
  O  O318  1  0.675800  0.308500  0.166700  1.0  -0.7983
  O  O319  1  0.791000  0.385800  0.128300  1.0  -0.6342
  O  O320  1  0.654000  0.292100  0.905500  1.0  -0.2811
  O  O321  1  0.340100  0.388600  0.765600  1.0  -0.659
  O  O322  1  0.350600  0.517400  0.799200  1.0  -0.6312
  O  O323  1  0.810100  0.372100  0.324500  1.0  -0.618
  O  O324  1  0.734500  0.497000  0.308300  1.0  -0.7193
  O  O325  1  0.680200  0.478400  0.578700  1.0  -0.3023
  O  O326  1  0.350700  0.692100  0.717000  1.0  -0.7603
  O  O327  1  0.447400  0.793300  0.699100  1.0  -0.617
  O  O328  1  0.858900  0.504700  0.205200  1.0  -0.7981
  O  O329  1  0.939800  0.603400  0.230700  1.0  -0.6507
  O  O330  1  0.247600  0.414800  0.061000  1.0  -0.301
  O  O331  1  0.201300  0.290700  0.820100  1.0  -0.6512
  O  O332  1  0.293700  0.185200  0.846100  1.0  -0.6778
