# generated using pymatgen
data_Tb2H24(C14O5)3
_symmetry_space_group_name_H-M   'P 1'
_cell_length_a   15.08900000
_cell_length_b   15.27500000
_cell_length_c   23.65400000
_cell_angle_alpha   85.90200000
_cell_angle_beta   81.50600000
_cell_angle_gamma   86.81300000
_symmetry_Int_Tables_number   1
_chemical_formula_structural   Tb2H24(C14O5)3
_chemical_formula_sum   'Tb8 H96 C168 O60'
_cell_volume   5372.68557859
_cell_formula_units_Z   4
loop_
 _symmetry_equiv_pos_site_id
 _symmetry_equiv_pos_as_xyz
  1  'x, y, z'
loop_
 _atom_site_type_symbol
 _atom_site_label
 _atom_site_symmetry_multiplicity
 _atom_site_fract_x
 _atom_site_fract_y
 _atom_site_fract_z
 _atom_site_occupancy
 _atom_site_charge
  Tb  Tb1  1  0.298220  0.636730  0.773490  1.0  2.2711
  Tb  Tb2  1  0.272070  0.389060  0.732590  1.0  2.2218
  Tb  Tb3  1  0.158190  0.167210  0.718930  1.0  2.2559
  Tb  Tb4  1  0.187990  0.909590  0.727850  1.0  2.2962
  Tb  Tb5  1  0.701780  0.363270  0.226510  1.0  2.269
  Tb  Tb6  1  0.727930  0.610940  0.267410  1.0  2.2272
  Tb  Tb7  1  0.841810  0.832790  0.281070  1.0  2.2571
  Tb  Tb8  1  0.812010  0.090410  0.272150  1.0  2.2906
  H  H9  1  0.860600  0.931000  0.700300  1.0  0.118
  H  H10  1  0.942600  0.083500  0.811600  1.0  0.0985
  H  H11  1  0.816300  0.207000  0.443300  1.0  0.0869
  H  H12  1  0.673400  0.414900  0.387400  1.0  0.0922
  H  H13  1  0.681000  0.480600  0.470600  1.0  0.1023
  H  H14  1  0.817500  0.272700  0.527900  1.0  0.1109
  H  H15  1  0.445500  0.739400  0.312100  1.0  0.1024
  H  H16  1  0.315900  0.823900  0.342300  1.0  0.1061
  H  H17  1  0.947800  0.283100  0.294900  1.0  0.076
  H  H18  1  0.951900  0.505200  0.370300  1.0  0.0776
  H  H19  1  0.063800  0.224300  0.338400  1.0  0.1288
  H  H20  1  0.151900  0.149200  0.136900  1.0  0.0999
  H  H21  1  0.918200  0.298400  0.060800  1.0  0.1111
  H  H22  1  0.051700  0.264600  0.003400  1.0  0.0878
  H  H23  1  0.459600  0.426700  0.624000  1.0  0.0919
  H  H24  1  0.581000  0.377800  0.563100  1.0  0.1132
  H  H25  1  0.617500  0.567200  0.700100  1.0  0.0955
  H  H26  1  0.742200  0.521200  0.638500  1.0  0.1286
  H  H27  1  0.080400  0.316600  0.592900  1.0  0.1042
  H  H28  1  0.339200  0.365500  0.940000  1.0  0.0972
  H  H29  1  0.096600  0.549800  0.998200  1.0  0.0818
  H  H30  1  0.337000  0.340400  0.522100  1.0  0.116
  H  H31  1  0.177800  0.139200  0.517800  1.0  0.0801
  H  H32  1  0.137800  0.530700  0.901500  1.0  0.0965
  H  H33  1  0.039300  0.305200  0.500000  1.0  0.1139
  H  H34  1  0.297600  0.322700  0.431900  1.0  0.1082
  H  H35  1  0.169100  0.646400  0.073700  1.0  0.1131
  H  H36  1  0.309500  0.923700  0.569900  1.0  0.0855
  H  H37  1  0.213800  0.104900  0.423000  1.0  0.1219
  H  H38  1  0.296200  0.386700  0.037100  1.0  0.12
  H  H39  1  0.022400  0.450100  0.148100  1.0  0.1156
  H  H40  1  0.915800  0.551700  0.190600  1.0  0.0901
  H  H41  1  0.019100  0.182500  0.196300  1.0  0.0963
  H  H42  1  0.277100  0.152500  0.847800  1.0  0.08
  H  H43  1  0.279200  0.222300  0.930800  1.0  0.1171
  H  H44  1  0.064400  0.749400  0.115100  1.0  0.108
  H  H45  1  0.102800  0.981800  0.930600  1.0  0.1116
  H  H46  1  0.071400  0.449400  0.415800  1.0  0.1175
  H  H47  1  0.345800  0.885500  0.476200  1.0  0.1061
  H  H48  1  0.457700  0.012100  0.381700  1.0  0.1322
  H  H49  1  0.795100  0.102100  0.857900  1.0  0.1195
  H  H50  1  0.714400  0.951600  0.745600  1.0  0.0849
  H  H51  1  0.594000  0.930900  0.345100  1.0  0.1008
  H  H52  1  0.105100  0.052700  0.014800  1.0  0.1055
  H  H53  1  0.404600  0.010700  0.770100  1.0  0.0786
  H  H54  1  0.521400  0.090200  0.791300  1.0  0.1194
  H  H55  1  0.520600  0.789100  0.831900  1.0  0.103
  H  H56  1  0.628300  0.867600  0.863300  1.0  0.1218
  H  H57  1  0.139400  0.069000  0.299700  1.0  0.118
  H  H58  1  0.057400  0.916500  0.188400  1.0  0.099
  H  H59  1  0.183700  0.793000  0.556700  1.0  0.087
  H  H60  1  0.326600  0.585100  0.612600  1.0  0.0916
  H  H61  1  0.319000  0.519400  0.529400  1.0  0.1024
  H  H62  1  0.182500  0.727300  0.472100  1.0  0.1114
  H  H63  1  0.554500  0.260600  0.687900  1.0  0.1024
  H  H64  1  0.684100  0.176100  0.657700  1.0  0.1059
  H  H65  1  0.052200  0.716900  0.705100  1.0  0.0764
  H  H66  1  0.048100  0.494800  0.629700  1.0  0.0775
  H  H67  1  0.936200  0.775700  0.661600  1.0  0.1287
  H  H68  1  0.848100  0.850800  0.863100  1.0  0.1001
  H  H69  1  0.081800  0.701600  0.939200  1.0  0.1114
  H  H70  1  0.948300  0.735400  0.996600  1.0  0.0877
  H  H71  1  0.540400  0.573300  0.376000  1.0  0.0927
  H  H72  1  0.419000  0.622200  0.436900  1.0  0.1133
  H  H73  1  0.382500  0.432800  0.299900  1.0  0.0947
  H  H74  1  0.257800  0.478800  0.361500  1.0  0.1301
  H  H75  1  0.919600  0.683400  0.407100  1.0  0.1042
  H  H76  1  0.660800  0.634500  0.060000  1.0  0.0965
  H  H77  1  0.903400  0.450200  0.001800  1.0  0.0817
  H  H78  1  0.663000  0.659600  0.477900  1.0  0.1157
  H  H79  1  0.822200  0.860800  0.482200  1.0  0.0811
  H  H80  1  0.862200  0.469300  0.098500  1.0  0.0969
  H  H81  1  0.960700  0.694800  0.500000  1.0  0.1123
  H  H82  1  0.702400  0.677300  0.568100  1.0  0.1081
  H  H83  1  0.830900  0.353600  0.926300  1.0  0.1125
  H  H84  1  0.690500  0.076300  0.430100  1.0  0.0859
  H  H85  1  0.786200  0.895100  0.577000  1.0  0.1223
  H  H86  1  0.703800  0.613300  0.962900  1.0  0.1196
  H  H87  1  0.977600  0.549900  0.851900  1.0  0.1146
  H  H88  1  0.084200  0.448300  0.809400  1.0  0.0888
  H  H89  1  0.980900  0.817500  0.803700  1.0  0.096
  H  H90  1  0.722900  0.847500  0.152200  1.0  0.0797
  H  H91  1  0.720800  0.777700  0.069200  1.0  0.1169
  H  H92  1  0.935600  0.250600  0.884900  1.0  0.1084
  H  H93  1  0.897200  0.018200  0.069400  1.0  0.1119
  H  H94  1  0.928600  0.550600  0.584200  1.0  0.1176
  H  H95  1  0.654200  0.114500  0.523800  1.0  0.1067
  H  H96  1  0.542300  0.987900  0.618300  1.0  0.1325
  H  H97  1  0.204900  0.897900  0.142100  1.0  0.1193
  H  H98  1  0.285600  0.048400  0.254400  1.0  0.0851
  H  H99  1  0.406000  0.069100  0.654900  1.0  0.1006
  H  H100  1  0.894900  0.947300  0.985200  1.0  0.1058
  H  H101  1  0.595400  0.989300  0.229900  1.0  0.079
  H  H102  1  0.478600  0.909800  0.208700  1.0  0.1198
  H  H103  1  0.479400  0.210900  0.168100  1.0  0.102
  H  H104  1  0.371700  0.132400  0.136700  1.0  0.1215
  C  C105  1  0.011700  0.987200  0.727300  1.0  0.6923
  C  C106  1  0.913100  0.005000  0.752000  1.0  -0.0884
  C  C107  1  0.847800  0.965100  0.731800  1.0  -0.1164
  C  C108  1  0.896000  0.056500  0.798900  1.0  -0.0365
  C  C109  1  0.739000  0.259000  0.349500  1.0  0.6898
  C  C110  1  0.744700  0.301800  0.405800  1.0  -0.1214
  C  C111  1  0.787200  0.261800  0.448500  1.0  -0.0438
  C  C112  1  0.703200  0.385600  0.415400  1.0  -0.0469
  C  C113  1  0.706200  0.424200  0.465700  1.0  -0.184
  C  C114  1  0.787900  0.301200  0.499500  1.0  -0.2204
  C  C115  1  0.745800  0.380900  0.508300  1.0  0.258
  C  C116  1  0.531600  0.830100  0.322100  1.0  -0.0889
  C  C117  1  0.449600  0.795400  0.324200  1.0  -0.0748
  C  C118  1  0.372200  0.844300  0.344500  1.0  -0.2133
  C  C119  1  0.973100  0.316900  0.319000  1.0  0.0004
  C  C120  1  0.864000  0.441800  0.295100  1.0  0.7037
  C  C121  1  0.938900  0.403300  0.326500  1.0  -0.1289
  C  C122  1  0.975200  0.448800  0.363400  1.0  0.0013
  C  C123  1  0.040800  0.281000  0.345000  1.0  -0.2553
  C  C124  1  0.866900  0.257000  0.171500  1.0  0.6997
  C  C125  1  0.954000  0.239900  0.134500  1.0  -0.1146
  C  C126  1  0.104500  0.179000  0.121600  1.0  -0.1726
  C  C127  1  0.964500  0.267300  0.076400  1.0  -0.0796
  C  C128  1  0.045200  0.247400  0.042200  1.0  -0.1839
  C  C129  1  0.913800  0.725100  0.188300  1.0  0.6679
  C  C130  1  0.979400  0.661000  0.156100  1.0  -0.1152
  C  C131  1  0.516100  0.445700  0.626900  1.0  -0.0454
  C  C132  1  0.445400  0.538900  0.707000  1.0  0.7109
  C  C133  1  0.672400  0.445100  0.594000  1.0  0.2463
  C  C134  1  0.525100  0.502500  0.667800  1.0  -0.1344
  C  C135  1  0.588300  0.416700  0.590400  1.0  -0.1745
  C  C136  1  0.610800  0.529700  0.672000  1.0  -0.044
  C  C137  1  0.685500  0.502400  0.635600  1.0  -0.2234
  C  C138  1  0.270900  0.434300  0.847100  1.0  0.6785
  C  C139  1  0.237200  0.339200  0.623700  1.0  0.6457
  C  C140  1  0.244100  0.447600  0.910500  1.0  -0.1312
  C  C141  1  0.211800  0.329600  0.565400  1.0  -0.0614
  C  C142  1  0.123600  0.318700  0.560500  1.0  -0.0697
  C  C143  1  0.290500  0.403300  0.951500  1.0  -0.068
  C  C144  1  0.145500  0.512400  0.986300  1.0  -0.1152
  C  C145  1  0.101800  0.538600  0.105900  1.0  0.2455
  C  C146  1  0.214900  0.059300  0.614500  1.0  0.7001
  C  C147  1  0.277700  0.332100  0.518100  1.0  -0.0615
  C  C148  1  0.212400  0.088300  0.509000  1.0  -0.0202
  C  C149  1  0.170400  0.501700  0.928200  1.0  -0.088
  C  C150  1  0.098900  0.310700  0.504500  1.0  -0.1738
  C  C151  1  0.190400  0.470000  0.025500  1.0  0.2918
  C  C152  1  0.242000  0.034600  0.553400  1.0  -0.1633
  C  C153  1  0.253600  0.322000  0.463800  1.0  -0.2018
  C  C154  1  0.166300  0.311200  0.457200  1.0  0.3145
  C  C155  1  0.117200  0.627900  0.096600  1.0  -0.1445
  C  C156  1  0.290300  0.960300  0.540500  1.0  -0.0258
  C  C157  1  0.232900  0.067900  0.452200  1.0  -0.22
  C  C158  1  0.264500  0.415000  0.009700  1.0  -0.1731
  C  C159  1  0.030100  0.510000  0.140800  1.0  -0.1564
  C  C160  1  0.966400  0.571100  0.166600  1.0  -0.012
  C  C161  1  0.384900  0.842300  0.781200  1.0  0.6495
  C  C162  1  0.449500  0.894000  0.797500  1.0  -0.1324
  C  C163  1  0.074500  0.330800  0.381600  1.0  0.3063
  C  C164  1  0.024500  0.198100  0.157200  1.0  -0.04
  C  C165  1  0.190000  0.062000  0.879400  1.0  -0.1481
  C  C166  1  0.241700  0.132300  0.881200  1.0  -0.0202
  C  C167  1  0.243500  0.174600  0.930800  1.0  -0.1653
  C  C168  1  0.188600  0.016600  0.825800  1.0  0.6891
  C  C169  1  0.190700  0.143700  0.980200  1.0  0.2818
  C  C170  1  0.055000  0.689600  0.121600  1.0  -0.0486
  C  C171  1  0.137600  0.030100  0.930400  1.0  -0.0609
  C  C172  1  0.114100  0.204100  0.063500  1.0  0.2814
  C  C173  1  0.045600  0.416000  0.391700  1.0  -0.2528
  C  C174  1  0.282800  0.991000  0.440400  1.0  0.2969
  C  C175  1  0.311900  0.937000  0.484300  1.0  -0.1563
  C  C176  1  0.379300  0.918300  0.366200  1.0  0.3178
  C  C177  1  0.456400  0.957200  0.367200  1.0  -0.1632
  C  C178  1  0.808500  0.067300  0.826700  1.0  -0.1359
  C  C179  1  0.760800  0.976900  0.759600  1.0  -0.1192
  C  C180  1  0.741600  0.024300  0.806400  1.0  0.2384
  C  C181  1  0.538100  0.908500  0.344400  1.0  -0.0285
  C  C182  1  0.139200  0.072800  0.980800  1.0  -0.1669
  C  C183  1  0.613900  0.781600  0.296100  1.0  0.6877
  C  C184  1  0.450900  0.981500  0.786900  1.0  -0.0573
  C  C185  1  0.520200  0.029900  0.800300  1.0  -0.2026
  C  C186  1  0.587800  0.985400  0.827500  1.0  0.2168
  C  C187  1  0.520000  0.849900  0.825400  1.0  -0.0593
  C  C188  1  0.586100  0.895600  0.842400  1.0  -0.1931
  C  C189  1  0.988300  0.012800  0.272700  1.0  0.6908
  C  C190  1  0.086900  0.995000  0.248000  1.0  -0.0899
  C  C191  1  0.152200  0.034900  0.268200  1.0  -0.1181
  C  C192  1  0.104000  0.943500  0.201100  1.0  -0.0366
  C  C193  1  0.261000  0.741000  0.650500  1.0  0.6874
  C  C194  1  0.255300  0.698200  0.594200  1.0  -0.1212
  C  C195  1  0.212800  0.738200  0.551500  1.0  -0.0451
  C  C196  1  0.296800  0.614400  0.584600  1.0  -0.0487
  C  C197  1  0.293800  0.575800  0.534300  1.0  -0.1827
  C  C198  1  0.212100  0.698800  0.500500  1.0  -0.2187
  C  C199  1  0.254200  0.619100  0.491700  1.0  0.2591
  C  C200  1  0.468400  0.169900  0.677900  1.0  -0.0898
  C  C201  1  0.550400  0.204600  0.675800  1.0  -0.0747
  C  C202  1  0.627800  0.155700  0.655500  1.0  -0.215
  C  C203  1  0.026900  0.683100  0.681000  1.0  0.0002
  C  C204  1  0.136000  0.558200  0.704900  1.0  0.7041
  C  C205  1  0.061100  0.596700  0.673500  1.0  -0.1276
  C  C206  1  0.024800  0.551200  0.636600  1.0  -0.0007
  C  C207  1  0.959200  0.719000  0.655000  1.0  -0.2539
  C  C208  1  0.133100  0.743000  0.828500  1.0  0.7
  C  C209  1  0.046000  0.760100  0.865500  1.0  -0.1145
  C  C210  1  0.895500  0.821000  0.878400  1.0  -0.1723
  C  C211  1  0.035500  0.732700  0.923600  1.0  -0.0802
  C  C212  1  0.954800  0.752600  0.957800  1.0  -0.183
  C  C213  1  0.086200  0.274900  0.811700  1.0  0.6681
  C  C214  1  0.020600  0.339000  0.843900  1.0  -0.1144
  C  C215  1  0.483900  0.554300  0.373100  1.0  -0.044
  C  C216  1  0.554600  0.461100  0.293000  1.0  0.7087
  C  C217  1  0.327600  0.554900  0.406000  1.0  0.2454
  C  C218  1  0.474900  0.497500  0.332200  1.0  -0.1351
  C  C219  1  0.411700  0.583300  0.409600  1.0  -0.1728
  C  C220  1  0.389200  0.470300  0.328000  1.0  -0.0432
  C  C221  1  0.314500  0.497600  0.364400  1.0  -0.2256
  C  C222  1  0.729100  0.565700  0.152900  1.0  0.6768
  C  C223  1  0.762800  0.660800  0.376300  1.0  0.645
  C  C224  1  0.755900  0.552400  0.089500  1.0  -0.1304
  C  C225  1  0.788200  0.670400  0.434600  1.0  -0.0622
  C  C226  1  0.876400  0.681300  0.439500  1.0  -0.0695
  C  C227  1  0.709500  0.596700  0.048500  1.0  -0.0685
  C  C228  1  0.854500  0.487600  0.013700  1.0  -0.117
  C  C229  1  0.898200  0.461400  0.894100  1.0  0.2448
  C  C230  1  0.785100  0.940700  0.385500  1.0  0.6987
  C  C231  1  0.722300  0.667900  0.481900  1.0  -0.0594
  C  C232  1  0.787600  0.911700  0.491000  1.0  -0.0198
  C  C233  1  0.829600  0.498300  0.071800  1.0  -0.0893
  C  C234  1  0.901100  0.689300  0.495500  1.0  -0.1738
  C  C235  1  0.809600  0.530000  0.974500  1.0  0.2948
  C  C236  1  0.758000  0.965400  0.446600  1.0  -0.1638
  C  C237  1  0.746400  0.678000  0.536200  1.0  -0.2025
  C  C238  1  0.833700  0.688800  0.542800  1.0  0.3119
  C  C239  1  0.882800  0.372100  0.903400  1.0  -0.1484
  C  C240  1  0.709700  0.039700  0.459500  1.0  -0.0253
  C  C241  1  0.767100  0.932100  0.547800  1.0  -0.2205
  C  C242  1  0.735500  0.585000  0.990300  1.0  -0.1729
  C  C243  1  0.969900  0.490000  0.859200  1.0  -0.1572
  C  C244  1  0.033600  0.428900  0.833400  1.0  -0.0146
  C  C245  1  0.615100  0.157700  0.218800  1.0  0.6491
  C  C246  1  0.550500  0.106000  0.202500  1.0  -0.1331
  C  C247  1  0.925500  0.669200  0.618400  1.0  0.305
  C  C248  1  0.975500  0.801900  0.842800  1.0  -0.0406
  C  C249  1  0.810000  0.938000  0.120600  1.0  -0.1475
  C  C250  1  0.758300  0.867700  0.118800  1.0  -0.0183
  C  C251  1  0.756500  0.825400  0.069200  1.0  -0.166
  C  C252  1  0.811400  0.983400  0.174200  1.0  0.689
  C  C253  1  0.809300  0.856300  0.019800  1.0  0.2829
  C  C254  1  0.945000  0.310400  0.878400  1.0  -0.0473
  C  C255  1  0.862400  0.969900  0.069600  1.0  -0.0602
  C  C256  1  0.885900  0.795900  0.936500  1.0  0.2792
  C  C257  1  0.954400  0.584000  0.608300  1.0  -0.2542
  C  C258  1  0.717200  0.009000  0.559600  1.0  0.294
  C  C259  1  0.688100  0.063000  0.515700  1.0  -0.1563
  C  C260  1  0.620700  0.081700  0.633800  1.0  0.3177
  C  C261  1  0.543600  0.042800  0.632800  1.0  -0.1623
  C  C262  1  0.191500  0.932700  0.173300  1.0  -0.1358
  C  C263  1  0.239200  0.023100  0.240400  1.0  -0.1185
  C  C264  1  0.258400  0.975700  0.193600  1.0  0.2385
  C  C265  1  0.461900  0.091500  0.655600  1.0  -0.0278
  C  C266  1  0.860800  0.927200  0.019200  1.0  -0.1672
  C  C267  1  0.386100  0.218400  0.703900  1.0  0.6879
  C  C268  1  0.549100  0.018500  0.213100  1.0  -0.0576
  C  C269  1  0.479800  0.970100  0.199700  1.0  -0.2008
  C  C270  1  0.412200  0.014600  0.172500  1.0  0.2173
  C  C271  1  0.480000  0.150100  0.174600  1.0  -0.0613
  C  C272  1  0.413900  0.104400  0.157600  1.0  -0.1936
  O  O273  1  0.328600  0.881600  0.747400  1.0  -0.7
  O  O274  1  0.851600  0.219900  0.220400  1.0  -0.759
  O  O275  1  0.034400  0.916600  0.704700  1.0  -0.6256
  O  O276  1  0.069000  0.039900  0.734000  1.0  -0.7576
  O  O277  1  0.686100  0.294900  0.317100  1.0  -0.6773
  O  O278  1  0.605400  0.708200  0.278200  1.0  -0.6385
  O  O279  1  0.830300  0.391300  0.265000  1.0  -0.7228
  O  O280  1  0.839300  0.520800  0.301100  1.0  -0.6433
  O  O281  1  0.811800  0.314100  0.152400  1.0  -0.6611
  O  O282  1  0.841100  0.698300  0.216500  1.0  -0.772
  O  O283  1  0.933900  0.803800  0.188400  1.0  -0.6438
  O  O284  1  0.456100  0.602300  0.735400  1.0  -0.6842
  O  O285  1  0.368800  0.504600  0.709600  1.0  -0.7683
  O  O286  1  0.750600  0.418200  0.560100  1.0  -0.2865
  O  O287  1  0.220300  0.057300  0.778200  1.0  -0.8057
  O  O288  1  0.242500  0.492100  0.811800  1.0  -0.7276
  O  O289  1  0.316700  0.367700  0.832000  1.0  -0.6866
  O  O290  1  0.302900  0.381300  0.628400  1.0  -0.6207
  O  O291  1  0.189900  0.305300  0.668500  1.0  -0.8186
  O  O292  1  0.170600  0.130500  0.623300  1.0  -0.646
  O  O293  1  0.238200  0.008600  0.653900  1.0  -0.738
  O  O294  1  0.168600  0.478000  0.084300  1.0  -0.2883
  O  O295  1  0.160800  0.942000  0.827000  1.0  -0.6206
  O  O296  1  0.781400  0.188200  0.343500  1.0  -0.6846
  O  O297  1  0.372900  0.760900  0.794000  1.0  -0.7806
  O  O298  1  0.149200  0.292500  0.404000  1.0  -0.2682
  O  O299  1  0.194600  0.185500  0.030500  1.0  -0.2868
  O  O300  1  0.656400  0.035500  0.839200  1.0  -0.302
  O  O301  1  0.688800  0.815900  0.296200  1.0  -0.6838
  O  O302  1  0.299500  0.969500  0.384600  1.0  -0.275
  O  O303  1  0.671400  0.118400  0.252600  1.0  -0.6999
  O  O304  1  0.148400  0.780100  0.779600  1.0  -0.7578
  O  O305  1  0.965600  0.083400  0.295300  1.0  -0.6243
  O  O306  1  0.931000  0.960100  0.266000  1.0  -0.758
  O  O307  1  0.313900  0.705100  0.682900  1.0  -0.6782
  O  O308  1  0.394600  0.291800  0.721800  1.0  -0.6384
  O  O309  1  0.169700  0.608700  0.735000  1.0  -0.7216
  O  O310  1  0.160700  0.479200  0.698900  1.0  -0.6439
  O  O311  1  0.188200  0.685900  0.847600  1.0  -0.6624
  O  O312  1  0.158900  0.301700  0.783500  1.0  -0.7715
  O  O313  1  0.066100  0.196200  0.811600  1.0  -0.6449
  O  O314  1  0.543900  0.397700  0.264600  1.0  -0.684
  O  O315  1  0.631200  0.495400  0.290400  1.0  -0.7711
  O  O316  1  0.249400  0.581800  0.439900  1.0  -0.2855
  O  O317  1  0.779700  0.942700  0.221800  1.0  -0.8052
  O  O318  1  0.757500  0.507900  0.188200  1.0  -0.7269
  O  O319  1  0.683300  0.632300  0.168000  1.0  -0.6883
  O  O320  1  0.697100  0.618700  0.371600  1.0  -0.6192
  O  O321  1  0.810100  0.694700  0.331500  1.0  -0.8184
  O  O322  1  0.829400  0.869500  0.376700  1.0  -0.644
  O  O323  1  0.761800  0.991400  0.346100  1.0  -0.7381
  O  O324  1  0.831400  0.522000  0.915700  1.0  -0.2875
  O  O325  1  0.839200  0.058000  0.173000  1.0  -0.6209
  O  O326  1  0.218600  0.811800  0.656500  1.0  -0.6834
  O  O327  1  0.627100  0.239100  0.206000  1.0  -0.782
  O  O328  1  0.850800  0.707500  0.596000  1.0  -0.2689
  O  O329  1  0.805400  0.814500  0.969500  1.0  -0.2873
  O  O330  1  0.343600  0.964500  0.160800  1.0  -0.3048
  O  O331  1  0.311200  0.184100  0.703800  1.0  -0.684
  O  O332  1  0.700500  0.030500  0.615400  1.0  -0.276
