# generated using pymatgen
data_Sm2H24(C14O5)3
_symmetry_space_group_name_H-M   'P 1'
_cell_length_a   14.60400000
_cell_length_b   15.30900000
_cell_length_c   22.87000000
_cell_angle_alpha   84.60300000
_cell_angle_beta   83.64000000
_cell_angle_gamma   86.65500000
_symmetry_Int_Tables_number   1
_chemical_formula_structural   Sm2H24(C14O5)3
_chemical_formula_sum   'Sm8 H96 C168 O60'
_cell_volume   5053.17104521
_cell_formula_units_Z   4
loop_
 _symmetry_equiv_pos_site_id
 _symmetry_equiv_pos_as_xyz
  1  'x, y, z'
loop_
 _atom_site_type_symbol
 _atom_site_label
 _atom_site_symmetry_multiplicity
 _atom_site_fract_x
 _atom_site_fract_y
 _atom_site_fract_z
 _atom_site_occupancy
 _atom_site_charge
  Sm  Sm1  1  0.707820  0.620020  0.259370  1.0  2.249
  Sm  Sm2  1  0.680930  0.370560  0.216730  1.0  2.2941
  Sm  Sm3  1  0.828760  0.833600  0.272330  1.0  2.3267
  Sm  Sm4  1  0.791910  0.097650  0.264240  1.0  2.3247
  Sm  Sm5  1  0.292180  0.379980  0.740630  1.0  2.2485
  Sm  Sm6  1  0.319070  0.629440  0.783270  1.0  2.2945
  Sm  Sm7  1  0.171240  0.166400  0.727670  1.0  2.3254
  Sm  Sm8  1  0.208090  0.902350  0.735760  1.0  2.3238
  H  H9  1  0.528700  0.577300  0.369700  1.0  0.0924
  H  H10  1  0.354500  0.435700  0.298600  1.0  0.1055
  H  H11  1  0.909200  0.684500  0.409300  1.0  0.1035
  H  H12  1  0.646100  0.661500  0.477300  1.0  0.1105
  H  H13  1  0.599600  0.932800  0.316500  1.0  0.1019
  H  H14  1  0.411300  0.761300  0.305200  1.0  0.099
  H  H15  1  0.853800  0.484500  0.092300  1.0  0.0979
  H  H16  1  0.648200  0.645800  0.040100  1.0  0.0948
  H  H17  1  0.408600  0.625900  0.433800  1.0  0.1055
  H  H18  1  0.235800  0.485400  0.363600  1.0  0.1082
  H  H19  1  0.952500  0.690900  0.503400  1.0  0.1215
  H  H20  1  0.687900  0.673700  0.570200  1.0  0.1196
  H  H21  1  0.484500  0.024500  0.361800  1.0  0.1089
  H  H22  1  0.297400  0.856000  0.343800  1.0  0.124
  H  H23  1  0.904000  0.464900  0.994400  1.0  0.0886
  H  H24  1  0.692300  0.620400  0.943600  1.0  0.1159
  H  H25  1  0.028500  0.932200  0.169500  1.0  0.1074
  H  H26  1  0.140900  0.064300  0.284700  1.0  0.097
  H  H27  1  0.889500  0.017600  0.061200  1.0  0.0944
  H  H28  1  0.701300  0.856700  0.141300  1.0  0.0917
  H  H29  1  0.169700  0.923500  0.113700  1.0  0.1125
  H  H30  1  0.282400  0.050000  0.231300  1.0  0.0958
  H  H31  1  0.900000  0.941300  0.977900  1.0  0.1147
  H  H32  1  0.710800  0.780700  0.057900  1.0  0.1077
  H  H33  1  0.325100  0.523100  0.528200  1.0  0.1146
  H  H34  1  0.173800  0.733600  0.474000  1.0  0.1243
  H  H35  1  0.935700  0.548400  0.583300  1.0  0.1183
  H  H36  1  0.930700  0.763100  0.670600  1.0  0.1178
  H  H37  1  0.219700  0.126800  0.425100  1.0  0.1189
  H  H38  1  0.365400  0.904900  0.469100  1.0  0.1017
  H  H39  1  0.983700  0.552200  0.844500  1.0  0.1134
  H  H40  1  0.823100  0.364300  0.919300  1.0  0.1174
  H  H41  1  0.339400  0.581900  0.615000  1.0  0.0874
  H  H42  1  0.191800  0.795500  0.561900  1.0  0.094
  H  H43  1  0.063900  0.492100  0.628100  1.0  0.0941
  H  H44  1  0.058300  0.707600  0.714500  1.0  0.0888
  H  H45  1  0.193500  0.151100  0.524600  1.0  0.0965
  H  H46  1  0.333700  0.928300  0.568000  1.0  0.1072
  H  H47  1  0.092900  0.447900  0.810500  1.0  0.0837
  H  H48  1  0.929800  0.257400  0.883100  1.0  0.1005
  H  H49  1  0.462200  0.922400  0.173500  1.0  0.1123
  H  H50  1  0.347900  0.144400  0.107800  1.0  0.1151
  H  H51  1  0.860800  0.827100  0.854100  1.0  0.1059
  H  H52  1  0.953700  0.731500  0.004000  1.0  0.1163
  H  H53  1  0.577900  0.998000  0.207200  1.0  0.1079
  H  H54  1  0.459400  0.224100  0.140900  1.0  0.1129
  H  H55  1  0.004000  0.798200  0.802400  1.0  0.1072
  H  H56  1  0.097200  0.701600  0.953600  1.0  0.0984
  H  H57  1  0.471300  0.422700  0.630300  1.0  0.0919
  H  H58  1  0.645500  0.564300  0.701400  1.0  0.1064
  H  H59  1  0.090800  0.315500  0.590700  1.0  0.1036
  H  H60  1  0.353900  0.338500  0.522700  1.0  0.1111
  H  H61  1  0.400400  0.067200  0.683500  1.0  0.1021
  H  H62  1  0.588700  0.238700  0.694800  1.0  0.0992
  H  H63  1  0.146200  0.515500  0.907700  1.0  0.0979
  H  H64  1  0.351800  0.354200  0.959900  1.0  0.0945
  H  H65  1  0.591400  0.374100  0.566200  1.0  0.1063
  H  H66  1  0.764200  0.514600  0.636400  1.0  0.1076
  H  H67  1  0.047500  0.309100  0.496600  1.0  0.1218
  H  H68  1  0.312100  0.326300  0.429800  1.0  0.1212
  H  H69  1  0.515500  0.975500  0.638200  1.0  0.1086
  H  H70  1  0.702600  0.144000  0.656200  1.0  0.1237
  H  H71  1  0.096000  0.535100  0.005600  1.0  0.0894
  H  H72  1  0.307700  0.379600  0.056400  1.0  0.116
  H  H73  1  0.971500  0.067800  0.830500  1.0  0.1071
  H  H74  1  0.859100  0.935700  0.715300  1.0  0.0967
  H  H75  1  0.110500  0.982400  0.938800  1.0  0.0949
  H  H76  1  0.298700  0.143300  0.858700  1.0  0.0913
  H  H77  1  0.830300  0.076500  0.886300  1.0  0.1122
  H  H78  1  0.717600  0.950000  0.768700  1.0  0.0956
  H  H79  1  0.100000  0.058700  0.022100  1.0  0.1146
  H  H80  1  0.289200  0.219300  0.942100  1.0  0.108
  H  H81  1  0.674900  0.476900  0.471800  1.0  0.1143
  H  H82  1  0.826200  0.266400  0.526000  1.0  0.1243
  H  H83  1  0.064300  0.451600  0.416700  1.0  0.1179
  H  H84  1  0.069300  0.236900  0.329400  1.0  0.1183
  H  H85  1  0.780300  0.873200  0.574900  1.0  0.1198
  H  H86  1  0.634600  0.095100  0.530900  1.0  0.1016
  H  H87  1  0.016300  0.447800  0.155500  1.0  0.1141
  H  H88  1  0.176900  0.635700  0.080700  1.0  0.117
  H  H89  1  0.660600  0.418100  0.385000  1.0  0.0874
  H  H90  1  0.808200  0.204500  0.438100  1.0  0.0943
  H  H91  1  0.936100  0.507900  0.371900  1.0  0.0946
  H  H92  1  0.941700  0.292400  0.285500  1.0  0.0886
  H  H93  1  0.806500  0.848900  0.475400  1.0  0.0978
  H  H94  1  0.666300  0.071700  0.432000  1.0  0.1073
  H  H95  1  0.907100  0.552100  0.189500  1.0  0.0844
  H  H96  1  0.070200  0.742600  0.116900  1.0  0.1003
  H  H97  1  0.537800  0.077600  0.826500  1.0  0.1116
  H  H98  1  0.652100  0.855600  0.892200  1.0  0.1152
  H  H99  1  0.139200  0.172900  0.145900  1.0  0.1055
  H  H100  1  0.046300  0.268500  0.996000  1.0  0.1168
  H  H101  1  0.422100  0.002000  0.792800  1.0  0.1071
  H  H102  1  0.540600  0.775900  0.859100  1.0  0.112
  H  H103  1  0.996000  0.201800  0.197600  1.0  0.1071
  H  H104  1  0.902800  0.298400  0.046400  1.0  0.0978
  C  C105  1  0.531400  0.466600  0.285600  1.0  0.6959
  C  C106  1  0.746600  0.666000  0.373900  1.0  0.6887
  C  C107  1  0.586300  0.774500  0.280000  1.0  0.6564
  C  C108  1  0.713100  0.579400  0.139100  1.0  0.6933
  C  C109  1  0.455200  0.501300  0.327500  1.0  -0.1531
  C  C110  1  0.773700  0.671700  0.434300  1.0  -0.131
  C  C111  1  0.516300  0.838300  0.305900  1.0  -0.1153
  C  C112  1  0.742300  0.566400  0.076000  1.0  -0.1136
  C  C113  1  0.469800  0.558200  0.368200  1.0  -0.0638
  C  C114  1  0.365900  0.473900  0.326000  1.0  -0.0299
  C  C115  1  0.975800  0.017500  0.261800  1.0  0.7077
  C  C116  1  0.791800  0.989800  0.163900  1.0  0.681
  C  C117  1  0.865000  0.681300  0.441900  1.0  -0.0472
  C  C118  1  0.707500  0.668400  0.482400  1.0  -0.0008
  C  C119  1  0.538800  0.916200  0.322500  1.0  -0.1222
  C  C120  1  0.426700  0.815600  0.315200  1.0  -0.0519
  C  C121  1  0.821600  0.512100  0.062300  1.0  -0.051
  C  C122  1  0.698400  0.607300  0.031300  1.0  -0.0805
  C  C123  1  0.397900  0.587000  0.406700  1.0  -0.1064
  C  C124  1  0.295200  0.503300  0.364800  1.0  -0.1999
  C  C125  1  0.069100  0.003100  0.232100  1.0  -0.1165
  C  C126  1  0.794200  0.944400  0.109900  1.0  -0.135
  C  C127  1  0.891000  0.686300  0.497800  1.0  -0.177
  C  C128  1  0.732400  0.675200  0.537800  1.0  -0.2195
  C  C129  1  0.469100  0.971900  0.349100  1.0  -0.1681
  C  C130  1  0.358500  0.871600  0.339200  1.0  -0.2309
  C  C131  1  0.851300  0.500100  0.003700  1.0  -0.1667
  C  C132  1  0.725600  0.593800  0.973500  1.0  -0.1739
  C  C133  1  0.312100  0.559600  0.405800  1.0  0.2875
  C  C134  1  0.078900  0.958000  0.181100  1.0  -0.1206
  C  C135  1  0.146400  0.036200  0.250100  1.0  -0.0758
  C  C136  1  0.853500  0.969600  0.060800  1.0  -0.0337
  C  C137  1  0.741600  0.874100  0.108400  1.0  -0.017
  C  C138  1  0.823300  0.684300  0.545100  1.0  0.2923
  C  C139  1  0.380900  0.949700  0.356100  1.0  0.2959
  C  C140  1  0.803600  0.539800  0.959800  1.0  0.2928
  C  C141  1  0.163700  0.952200  0.148100  1.0  -0.2258
  C  C142  1  0.231000  0.028400  0.217900  1.0  -0.1673
  C  C143  1  0.860000  0.923800  0.010900  1.0  -0.2044
  C  C144  1  0.747400  0.828200  0.058600  1.0  -0.1949
  C  C145  1  0.249200  0.623800  0.493600  1.0  0.2822
  C  C146  1  0.240300  0.988400  0.165400  1.0  0.2862
  C  C147  1  0.807900  0.853500  0.010200  1.0  0.3148
  C  C148  1  0.922000  0.661800  0.622800  1.0  0.3168
  C  C149  1  0.299000  0.016200  0.437100  1.0  0.3267
  C  C150  1  0.894100  0.468200  0.884400  1.0  0.2465
  C  C151  1  0.298000  0.578100  0.535100  1.0  -0.182
  C  C152  1  0.208000  0.703700  0.502200  1.0  -0.1511
  C  C153  1  0.960600  0.580200  0.609900  1.0  -0.2528
  C  C154  1  0.957500  0.708500  0.662000  1.0  -0.1603
  C  C155  1  0.244500  0.087700  0.453500  1.0  -0.1614
  C  C156  1  0.330900  0.954800  0.480200  1.0  -0.1207
  C  C157  1  0.973000  0.492900  0.852900  1.0  -0.1989
  C  C158  1  0.877500  0.380900  0.896900  1.0  -0.1376
  C  C159  1  0.306700  0.613500  0.586600  1.0  -0.0251
  C  C160  1  0.218600  0.740200  0.555200  1.0  -0.0225
  C  C161  1  0.392000  0.028000  0.142900  1.0  0.2511
  C  C162  1  0.897400  0.785700  0.933300  1.0  0.3043
  C  C163  1  0.036600  0.546300  0.637200  1.0  0.0021
  C  C164  1  0.033000  0.674700  0.688600  1.0  -0.009
  C  C165  1  0.226900  0.100900  0.513000  1.0  -0.0331
  C  C166  1  0.311200  0.968100  0.539100  1.0  -0.042
  C  C167  1  0.038800  0.430000  0.832700  1.0  -0.0132
  C  C168  1  0.942100  0.316600  0.876100  1.0  -0.0562
  C  C169  1  0.267900  0.695300  0.597100  1.0  -0.1895
  C  C170  1  0.461000  0.983400  0.168600  1.0  -0.1745
  C  C171  1  0.392700  0.115900  0.129500  1.0  -0.2013
  C  C172  1  0.909600  0.803100  0.874200  1.0  -0.1823
  C  C173  1  0.964400  0.746200  0.963500  1.0  -0.1824
  C  C174  1  0.072300  0.592500  0.677800  1.0  -0.1484
  C  C175  1  0.258900  0.039800  0.554300  1.0  -0.1061
  C  C176  1  0.025200  0.342600  0.844800  1.0  -0.1264
  C  C177  1  0.277700  0.738600  0.652500  1.0  0.691
  C  C178  1  0.530900  0.028000  0.188000  1.0  -0.0881
  C  C179  1  0.459900  0.163300  0.148100  1.0  -0.0672
  C  C180  1  0.994900  0.785200  0.843100  1.0  -0.0582
  C  C181  1  0.049600  0.727900  0.933300  1.0  -0.0229
  C  C182  1  0.150900  0.555500  0.708700  1.0  0.6733
  C  C183  1  0.237400  0.057500  0.618000  1.0  0.6873
  C  C184  1  0.091500  0.275100  0.817800  1.0  0.693
  C  C185  1  0.527800  0.117600  0.177700  1.0  -0.1264
  C  C186  1  0.064400  0.748400  0.873100  1.0  -0.1102
  C  C187  1  0.595900  0.168000  0.204400  1.0  0.7144
  C  C188  1  0.158800  0.729100  0.842100  1.0  0.6929
  C  C189  1  0.468600  0.533400  0.714400  1.0  0.696
  C  C190  1  0.253400  0.334000  0.626100  1.0  0.689
  C  C191  1  0.413700  0.225500  0.720000  1.0  0.6568
  C  C192  1  0.286900  0.420600  0.860900  1.0  0.6946
  C  C193  1  0.544800  0.498700  0.672500  1.0  -0.153
  C  C194  1  0.226300  0.328300  0.565700  1.0  -0.1295
  C  C195  1  0.483700  0.161700  0.694100  1.0  -0.1146
  C  C196  1  0.257700  0.433600  0.924000  1.0  -0.1152
  C  C197  1  0.530200  0.441800  0.631800  1.0  -0.0643
  C  C198  1  0.634100  0.526100  0.674000  1.0  -0.0318
  C  C199  1  0.024200  0.982500  0.738200  1.0  0.7068
  C  C200  1  0.208200  0.010200  0.836100  1.0  0.6822
  C  C201  1  0.135000  0.318700  0.558100  1.0  -0.0482
  C  C202  1  0.292500  0.331600  0.517600  1.0  -0.0015
  C  C203  1  0.461200  0.083800  0.677500  1.0  -0.1221
  C  C204  1  0.573300  0.184400  0.684800  1.0  -0.0535
  C  C205  1  0.178400  0.487900  0.937700  1.0  -0.0497
  C  C206  1  0.301600  0.392700  0.968700  1.0  -0.0802
  C  C207  1  0.602100  0.413000  0.593300  1.0  -0.1065
  C  C208  1  0.704800  0.496700  0.635200  1.0  -0.1995
  C  C209  1  0.930900  0.996900  0.767900  1.0  -0.1141
  C  C210  1  0.205800  0.055600  0.890100  1.0  -0.1358
  C  C211  1  0.109000  0.313700  0.502200  1.0  -0.178
  C  C212  1  0.267600  0.324800  0.462200  1.0  -0.2175
  C  C213  1  0.530900  0.028100  0.650900  1.0  -0.1697
  C  C214  1  0.641500  0.128400  0.660800  1.0  -0.2322
  C  C215  1  0.148700  0.499900  0.996300  1.0  -0.1666
  C  C216  1  0.274400  0.406200  0.026500  1.0  -0.1755
  C  C217  1  0.687900  0.440400  0.594200  1.0  0.2883
  C  C218  1  0.921100  0.042000  0.818900  1.0  -0.121
  C  C219  1  0.853600  0.963800  0.749900  1.0  -0.0768
  C  C220  1  0.146500  0.030400  0.939200  1.0  -0.0328
  C  C221  1  0.258400  0.125900  0.891600  1.0  -0.0178
  C  C222  1  0.176700  0.315700  0.454900  1.0  0.2929
  C  C223  1  0.619100  0.050300  0.643900  1.0  0.2961
  C  C224  1  0.196400  0.460200  0.040200  1.0  0.2892
  C  C225  1  0.836300  0.047800  0.851900  1.0  -0.224
  C  C226  1  0.769000  0.971600  0.782100  1.0  -0.1681
  C  C227  1  0.140000  0.076200  0.989100  1.0  -0.2006
  C  C228  1  0.252600  0.171800  0.941400  1.0  -0.1966
  C  C229  1  0.750800  0.376200  0.506400  1.0  0.2812
  C  C230  1  0.759700  0.011600  0.834600  1.0  0.2873
  C  C231  1  0.192100  0.146500  0.989800  1.0  0.315
  C  C232  1  0.078000  0.338200  0.377200  1.0  0.3165
  C  C233  1  0.701000  0.983800  0.562900  1.0  0.3264
  C  C234  1  0.105900  0.531800  0.115600  1.0  0.2493
  C  C235  1  0.702000  0.421900  0.464900  1.0  -0.1826
  C  C236  1  0.792000  0.296300  0.497800  1.0  -0.1494
  C  C237  1  0.039400  0.419800  0.390100  1.0  -0.2504
  C  C238  1  0.042500  0.291500  0.338000  1.0  -0.1608
  C  C239  1  0.755500  0.912300  0.546500  1.0  -0.1606
  C  C240  1  0.669100  0.045200  0.519800  1.0  -0.1231
  C  C241  1  0.027000  0.507100  0.147100  1.0  -0.1986
  C  C242  1  0.122500  0.619100  0.103100  1.0  -0.1364
  C  C243  1  0.693300  0.386500  0.413400  1.0  -0.0238
  C  C244  1  0.781400  0.259800  0.444800  1.0  -0.0219
  C  C245  1  0.608000  0.972000  0.857100  1.0  0.2499
  C  C246  1  0.102600  0.214300  0.066700  1.0  0.3064
  C  C247  1  0.963400  0.453700  0.362800  1.0  0.0037
  C  C248  1  0.967000  0.325300  0.311400  1.0  -0.0079
  C  C249  1  0.773100  0.899100  0.487000  1.0  -0.033
  C  C250  1  0.688800  0.031900  0.460900  1.0  -0.0436
  C  C251  1  0.961200  0.570000  0.167300  1.0  -0.0124
  C  C252  1  0.057900  0.683400  0.123900  1.0  -0.0566
  C  C253  1  0.732100  0.304700  0.402900  1.0  -0.1914
  C  C254  1  0.539000  0.016600  0.831400  1.0  -0.1738
  C  C255  1  0.607300  0.884100  0.870500  1.0  -0.2017
  C  C256  1  0.090400  0.196900  0.125800  1.0  -0.182
  C  C257  1  0.035600  0.253800  0.036500  1.0  -0.181
  C  C258  1  0.927700  0.407500  0.322200  1.0  -0.1487
  C  C259  1  0.741100  0.960200  0.445700  1.0  -0.1075
  C  C260  1  0.974800  0.657400  0.155200  1.0  -0.127
  C  C261  1  0.722300  0.261400  0.347500  1.0  0.6907
  C  C262  1  0.469100  0.972000  0.812000  1.0  -0.0888
  C  C263  1  0.540100  0.836700  0.851900  1.0  -0.0674
  C  C264  1  0.005100  0.214800  0.156900  1.0  -0.0557
  C  C265  1  0.950400  0.272100  0.066700  1.0  -0.0218
  C  C266  1  0.849100  0.444500  0.291300  1.0  0.6732
  C  C267  1  0.762600  0.942500  0.382000  1.0  0.6883
  C  C268  1  0.908500  0.724900  0.182200  1.0  0.6932
  C  C269  1  0.472200  0.882400  0.822300  1.0  -0.1267
  C  C270  1  0.935600  0.251600  0.126900  1.0  -0.1106
  C  C271  1  0.404100  0.832000  0.795600  1.0  0.715
  C  C272  1  0.841200  0.270900  0.157900  1.0  0.6904
  O  O273  1  0.610400  0.500800  0.280800  1.0  -0.7678
  O  O274  1  0.799600  0.696300  0.328600  1.0  -0.8309
  O  O275  1  0.673600  0.631500  0.366900  1.0  -0.7007
  O  O276  1  0.561600  0.703100  0.266400  1.0  -0.6857
  O  O277  1  0.833100  0.701000  0.209500  1.0  -0.777
  O  O278  1  0.669800  0.793400  0.271600  1.0  -0.8069
  O  O279  1  0.816700  0.519800  0.300300  1.0  -0.6937
  O  O280  1  0.739500  0.519500  0.178600  1.0  -0.7879
  O  O281  1  0.667700  0.645300  0.154400  1.0  -0.6217
  O  O282  1  0.518100  0.403200  0.256700  1.0  -0.716
  O  O283  1  0.786500  0.326900  0.134600  1.0  -0.6505
  O  O284  1  0.819500  0.234300  0.209800  1.0  -0.8132
  O  O285  1  0.816700  0.395700  0.257000  1.0  -0.6898
  O  O286  1  0.668400  0.300000  0.312800  1.0  -0.7063
  O  O287  1  0.601400  0.248300  0.191000  1.0  -0.7708
  O  O288  1  0.913300  0.963400  0.260600  1.0  -0.8304
  O  O289  1  0.758200  0.952000  0.212500  1.0  -0.729
  O  O290  1  0.929400  0.804100  0.179500  1.0  -0.6741
  O  O291  1  0.803100  0.871000  0.369100  1.0  -0.681
  O  O292  1  0.956100  0.087900  0.286400  1.0  -0.6412
  O  O293  1  0.821800  0.066900  0.160800  1.0  -0.6423
  O  O294  1  0.767200  0.193000  0.338300  1.0  -0.6844
  O  O295  1  0.646200  0.125200  0.240800  1.0  -0.6917
  O  O296  1  0.737500  0.999400  0.342200  1.0  -0.737
  O  O297  1  0.235800  0.586900  0.442000  1.0  -0.2827
  O  O298  1  0.842800  0.697700  0.601700  1.0  -0.2612
  O  O299  1  0.313100  0.007900  0.377900  1.0  -0.2813
  O  O300  1  0.827500  0.532500  0.901000  1.0  -0.2921
  O  O301  1  0.319600  0.981700  0.128500  1.0  -0.2897
  O  O302  1  0.809100  0.805800  0.961700  1.0  -0.2703
  O  O303  1  0.389600  0.499200  0.719200  1.0  -0.7643
  O  O304  1  0.200400  0.303700  0.671400  1.0  -0.831
  O  O305  1  0.326400  0.368500  0.633100  1.0  -0.7005
  O  O306  1  0.438400  0.296900  0.733600  1.0  -0.6846
  O  O307  1  0.166900  0.299000  0.790500  1.0  -0.7768
  O  O308  1  0.330200  0.206600  0.728400  1.0  -0.8068
  O  O309  1  0.183300  0.480200  0.699700  1.0  -0.6947
  O  O310  1  0.260500  0.480500  0.821400  1.0  -0.788
  O  O311  1  0.332300  0.354700  0.845600  1.0  -0.6197
  O  O312  1  0.481900  0.596800  0.743300  1.0  -0.7151
  O  O313  1  0.213500  0.673100  0.865400  1.0  -0.6521
  O  O314  1  0.180500  0.765700  0.790200  1.0  -0.8113
  O  O315  1  0.183300  0.604300  0.743000  1.0  -0.6887
  O  O316  1  0.331600  0.700000  0.687200  1.0  -0.7077
  O  O317  1  0.398600  0.751700  0.809000  1.0  -0.7698
  O  O318  1  0.086700  0.036600  0.739400  1.0  -0.83
  O  O319  1  0.241800  0.048000  0.787500  1.0  -0.7283
  O  O320  1  0.070600  0.195900  0.820500  1.0  -0.6737
  O  O321  1  0.196900  0.129000  0.630900  1.0  -0.681
  O  O322  1  0.043900  0.912100  0.713600  1.0  -0.6374
  O  O323  1  0.178200  0.933100  0.839200  1.0  -0.6415
  O  O324  1  0.232800  0.807000  0.661700  1.0  -0.6828
  O  O325  1  0.353800  0.874800  0.759200  1.0  -0.6913
  O  O326  1  0.262500  0.000600  0.657800  1.0  -0.7378
  O  O327  1  0.764200  0.413100  0.558000  1.0  -0.2835
  O  O328  1  0.157200  0.302300  0.398300  1.0  -0.2607
  O  O329  1  0.686900  0.992100  0.622100  1.0  -0.2805
  O  O330  1  0.172500  0.467500  0.099000  1.0  -0.296
  O  O331  1  0.680400  0.018300  0.871500  1.0  -0.2913
  O  O332  1  0.190900  0.194200  0.038300  1.0  -0.2698
