# generated using pymatgen
data_Co2H8C16O9
_symmetry_space_group_name_H-M   'P 1'
_cell_length_a   13.47010000
_cell_length_b   10.82980000
_cell_length_c   14.68830000
_cell_angle_alpha   90.00000000
_cell_angle_beta   109.83000000
_cell_angle_gamma   90.00000000
_symmetry_Int_Tables_number   1
_chemical_formula_structural   Co2H8C16O9
_chemical_formula_sum   'Co8 H32 C64 O36'
_cell_volume   2015.65150615
_cell_formula_units_Z   4
loop_
 _symmetry_equiv_pos_site_id
 _symmetry_equiv_pos_as_xyz
  1  'x, y, z'
loop_
 _atom_site_type_symbol
 _atom_site_label
 _atom_site_symmetry_multiplicity
 _atom_site_fract_x
 _atom_site_fract_y
 _atom_site_fract_z
 _atom_site_occupancy
 _atom_site_charge
  Co  Co1  1  0.401500  0.917120  0.455660  1.0  0.8162
  Co  Co2  1  0.505570  0.020880  0.298870  1.0  1.0751
  Co  Co3  1  0.598500  0.417120  0.044340  1.0  0.8076
  Co  Co4  1  0.494430  0.520880  0.201130  1.0  1.0638
  Co  Co5  1  0.598500  0.082880  0.544340  1.0  0.8085
  Co  Co6  1  0.494430  0.979120  0.701130  1.0  1.0644
  Co  Co7  1  0.401500  0.582880  0.955660  1.0  0.8173
  Co  Co8  1  0.505570  0.479120  0.798870  1.0  1.0746
  H  H9  1  0.135700  0.139900  0.356200  1.0  0.1151
  H  H10  1  0.999000  0.442700  0.210800  1.0  0.1199
  H  H11  1  0.139600  0.469500  0.158100  1.0  0.1186
  H  H12  1  0.848400  0.338700  0.211300  1.0  0.1224
  H  H13  1  0.907000  0.152800  0.508900  1.0  0.1127
  H  H14  1  0.047000  0.193800  0.456700  1.0  0.1256
  H  H15  1  0.570000  0.906000  0.436000  1.0  0.4076
  H  H16  1  0.559000  0.035000  0.465000  1.0  0.1993
  H  H17  1  0.864300  0.639900  0.143800  1.0  0.1156
  H  H18  1  0.001000  0.942700  0.289200  1.0  0.1193
  H  H19  1  0.860400  0.969500  0.341900  1.0  0.1186
  H  H20  1  0.151600  0.838700  0.288700  1.0  0.1226
  H  H21  1  0.093000  0.652800  0.991100  1.0  0.1121
  H  H22  1  0.953000  0.693800  0.043300  1.0  0.1255
  H  H23  1  0.430000  0.406000  0.064000  1.0  0.4078
  H  H24  1  0.441000  0.535000  0.035000  1.0  0.1991
  H  H25  1  0.864300  0.860100  0.643800  1.0  0.1155
  H  H26  1  0.001000  0.557300  0.789200  1.0  0.1193
  H  H27  1  0.860400  0.530500  0.841900  1.0  0.1186
  H  H28  1  0.151600  0.661300  0.788700  1.0  0.1228
  H  H29  1  0.093000  0.847200  0.491100  1.0  0.112
  H  H30  1  0.953000  0.806200  0.543300  1.0  0.1253
  H  H31  1  0.430000  0.094000  0.564000  1.0  0.4065
  H  H32  1  0.441000  0.965000  0.535000  1.0  0.1969
  H  H33  1  0.135700  0.360100  0.856200  1.0  0.1148
  H  H34  1  0.999000  0.057300  0.710800  1.0  0.1197
  H  H35  1  0.139600  0.030500  0.658100  1.0  0.1185
  H  H36  1  0.848400  0.161300  0.711300  1.0  0.1226
  H  H37  1  0.907000  0.347200  0.008900  1.0  0.113
  H  H38  1  0.047000  0.306200  0.956700  1.0  0.1258
  H  H39  1  0.570000  0.594000  0.936000  1.0  0.4066
  H  H40  1  0.559000  0.465000  0.965000  1.0  0.1965
  C  C41  1  0.310600  0.128300  0.319800  1.0  0.7007
  C  C42  1  0.222300  0.220200  0.284800  1.0  -0.1538
  C  C43  1  0.136400  0.206400  0.316300  1.0  -0.0401
  C  C44  1  0.051800  0.287500  0.290700  1.0  0.0503
  C  C45  1  0.054800  0.386900  0.229800  1.0  -0.0882
  C  C46  1  0.138900  0.402900  0.197900  1.0  -0.0832
  C  C47  1  0.224500  0.318800  0.224900  1.0  -0.0164
  C  C48  1  0.315400  0.344200  0.187700  1.0  0.6904
  C  C49  1  0.962400  0.268700  0.327100  1.0  0.0274
  C  C50  1  0.860300  0.301100  0.271000  1.0  -0.0508
  C  C51  1  0.775200  0.278600  0.302300  1.0  -0.0396
  C  C52  1  0.791900  0.218900  0.390600  1.0  -0.1244
  C  C53  1  0.894800  0.189300  0.448700  1.0  -0.0338
  C  C54  1  0.978800  0.213900  0.417300  1.0  -0.1243
  C  C55  1  0.668300  0.323400  0.240000  1.0  0.7092
  C  C56  1  0.699700  0.175900  0.417800  1.0  0.7102
  C  C57  1  0.689400  0.628300  0.180200  1.0  0.7017
  C  C58  1  0.777700  0.720200  0.215200  1.0  -0.1536
  C  C59  1  0.863600  0.706400  0.183700  1.0  -0.0397
  C  C60  1  0.948200  0.787500  0.209300  1.0  0.05
  C  C61  1  0.945200  0.886900  0.270200  1.0  -0.0889
  C  C62  1  0.861100  0.902900  0.302100  1.0  -0.0828
  C  C63  1  0.775500  0.818800  0.275100  1.0  -0.0171
  C  C64  1  0.684600  0.844200  0.312300  1.0  0.6919
  C  C65  1  0.037600  0.768700  0.172900  1.0  0.0261
  C  C66  1  0.139700  0.801100  0.229000  1.0  -0.0522
  C  C67  1  0.224800  0.778600  0.197700  1.0  -0.0398
  C  C68  1  0.208100  0.718900  0.109400  1.0  -0.1238
  C  C69  1  0.105200  0.689300  0.051300  1.0  -0.0355
  C  C70  1  0.021200  0.713900  0.082700  1.0  -0.1239
  C  C71  1  0.331700  0.823400  0.260000  1.0  0.7102
  C  C72  1  0.300300  0.675900  0.082200  1.0  0.713
  C  C73  1  0.689400  0.871700  0.680200  1.0  0.7014
  C  C74  1  0.777700  0.779800  0.715200  1.0  -0.1529
  C  C75  1  0.863600  0.793600  0.683700  1.0  -0.0401
  C  C76  1  0.948200  0.712500  0.709300  1.0  0.0502
  C  C77  1  0.945200  0.613100  0.770200  1.0  -0.0892
  C  C78  1  0.861100  0.597100  0.802100  1.0  -0.0828
  C  C79  1  0.775500  0.681200  0.775100  1.0  -0.0167
  C  C80  1  0.684600  0.655800  0.812300  1.0  0.6912
  C  C81  1  0.037600  0.731300  0.672900  1.0  0.0253
  C  C82  1  0.139700  0.698900  0.729000  1.0  -0.0523
  C  C83  1  0.224800  0.721400  0.697700  1.0  -0.04
  C  C84  1  0.208100  0.781100  0.609400  1.0  -0.1252
  C  C85  1  0.105200  0.810700  0.551300  1.0  -0.0358
  C  C86  1  0.021200  0.786100  0.582700  1.0  -0.1245
  C  C87  1  0.331700  0.676600  0.760000  1.0  0.7095
  C  C88  1  0.300300  0.824100  0.582200  1.0  0.7115
  C  C89  1  0.310600  0.371700  0.819800  1.0  0.7001
  C  C90  1  0.222300  0.279800  0.784800  1.0  -0.1528
  C  C91  1  0.136400  0.293600  0.816300  1.0  -0.0403
  C  C92  1  0.051800  0.212500  0.790700  1.0  0.0503
  C  C93  1  0.054800  0.113100  0.729800  1.0  -0.0887
  C  C94  1  0.138900  0.097100  0.697900  1.0  -0.0832
  C  C95  1  0.224500  0.181200  0.724900  1.0  -0.016
  C  C96  1  0.315400  0.155800  0.687700  1.0  0.6896
  C  C97  1  0.962400  0.231300  0.827100  1.0  0.027
  C  C98  1  0.860300  0.198900  0.771000  1.0  -0.051
  C  C99  1  0.775200  0.221400  0.802300  1.0  -0.0405
  C  C100  1  0.791900  0.281100  0.890600  1.0  -0.126
  C  C101  1  0.894800  0.310700  0.948700  1.0  -0.034
  C  C102  1  0.978800  0.286100  0.917300  1.0  -0.1245
  C  C103  1  0.668300  0.176600  0.740000  1.0  0.7089
  C  C104  1  0.699700  0.324100  0.917800  1.0  0.7096
  O  O105  1  0.296500  0.038700  0.368000  1.0  -0.5736
  O  O106  1  0.391600  0.146800  0.297000  1.0  -0.581
  O  O107  1  0.380500  0.424300  0.234500  1.0  -0.6234
  O  O108  1  0.315500  0.291500  0.111500  1.0  -0.5233
  O  O109  1  0.632900  0.283900  0.154100  1.0  -0.5755
  O  O110  1  0.624400  0.405100  0.275400  1.0  -0.6061
  O  O111  1  0.614800  0.162400  0.350200  1.0  -0.5972
  O  O112  1  0.714500  0.155900  0.505000  1.0  -0.5526
  O  O113  1  0.540300  0.953900  0.436400  1.0  -0.7003
  O  O114  1  0.703500  0.538700  0.132000  1.0  -0.5738
  O  O115  1  0.608400  0.646800  0.203000  1.0  -0.5815
  O  O116  1  0.619500  0.924300  0.265500  1.0  -0.6242
  O  O117  1  0.684500  0.791500  0.388500  1.0  -0.5227
  O  O118  1  0.367100  0.783900  0.345900  1.0  -0.5752
  O  O119  1  0.375600  0.905100  0.224600  1.0  -0.6043
  O  O120  1  0.385200  0.662400  0.149800  1.0  -0.598
  O  O121  1  0.285500  0.655900  0.995000  1.0  -0.5532
  O  O122  1  0.459700  0.453900  0.063600  1.0  -0.6983
  O  O123  1  0.703500  0.961300  0.632000  1.0  -0.5737
  O  O124  1  0.608400  0.853200  0.703000  1.0  -0.5811
  O  O125  1  0.619500  0.575700  0.765500  1.0  -0.6243
  O  O126  1  0.684500  0.708500  0.888500  1.0  -0.5244
  O  O127  1  0.367100  0.716100  0.845900  1.0  -0.5755
  O  O128  1  0.375600  0.594900  0.724600  1.0  -0.6029
  O  O129  1  0.385200  0.837600  0.649800  1.0  -0.5972
  O  O130  1  0.285500  0.844100  0.495000  1.0  -0.5542
  O  O131  1  0.459700  0.046100  0.563600  1.0  -0.698
  O  O132  1  0.296500  0.461300  0.868000  1.0  -0.5737
  O  O133  1  0.391600  0.353200  0.797000  1.0  -0.5805
  O  O134  1  0.380500  0.075700  0.734500  1.0  -0.624
  O  O135  1  0.315500  0.208500  0.611500  1.0  -0.5246
  O  O136  1  0.632900  0.216100  0.654100  1.0  -0.5756
  O  O137  1  0.624400  0.094900  0.775400  1.0  -0.6058
  O  O138  1  0.614800  0.337600  0.850200  1.0  -0.5974
  O  O139  1  0.714500  0.344100  0.005000  1.0  -0.5542
  O  O140  1  0.540300  0.546100  0.936400  1.0  -0.6992
