# generated using pymatgen
data_Co2H7C16O9
_symmetry_space_group_name_H-M   'P 1'
_cell_length_a   13.54970000
_cell_length_b   10.85670000
_cell_length_c   14.62630000
_cell_angle_alpha   90.00000000
_cell_angle_beta   109.78400000
_cell_angle_gamma   90.00000000
_symmetry_Int_Tables_number   1
_chemical_formula_structural   Co2H7C16O9
_chemical_formula_sum   'Co8 H28 C64 O36'
_cell_volume   2024.60464771
_cell_formula_units_Z   4
loop_
 _symmetry_equiv_pos_site_id
 _symmetry_equiv_pos_as_xyz
  1  'x, y, z'
loop_
 _atom_site_type_symbol
 _atom_site_label
 _atom_site_symmetry_multiplicity
 _atom_site_fract_x
 _atom_site_fract_y
 _atom_site_fract_z
 _atom_site_occupancy
 _atom_site_charge
  Co  Co1  1  0.403600  0.915090  0.457130  1.0  1.0765
  Co  Co2  1  0.504780  0.021440  0.294750  1.0  1.0412
  Co  Co3  1  0.596400  0.415090  0.042870  1.0  1.0772
  Co  Co4  1  0.495220  0.521440  0.205250  1.0  1.0382
  Co  Co5  1  0.596400  0.084910  0.542870  1.0  1.0804
  Co  Co6  1  0.495220  0.978560  0.705250  1.0  1.0373
  Co  Co7  1  0.403600  0.584910  0.957130  1.0  1.0799
  Co  Co8  1  0.504780  0.478560  0.794750  1.0  1.0412
  H  H9  1  0.135500  0.138600  0.357000  1.0  0.1252
  H  H10  1  0.000000  0.438500  0.208700  1.0  0.119
  H  H11  1  0.140000  0.463400  0.155400  1.0  0.1225
  H  H12  1  0.848400  0.339400  0.210000  1.0  0.1252
  H  H13  1  0.907300  0.148000  0.507100  1.0  0.1113
  H  H14  1  0.046700  0.189400  0.454900  1.0  0.1317
  H  H15  1  0.585200  0.897700  0.441800  1.0  0.4355
  H  H16  1  0.864500  0.638600  0.143000  1.0  0.1258
  H  H17  1  0.000000  0.938500  0.291300  1.0  0.1184
  H  H18  1  0.860000  0.963400  0.344600  1.0  0.1225
  H  H19  1  0.151600  0.839400  0.290000  1.0  0.1251
  H  H20  1  0.092700  0.648000  0.992900  1.0  0.1114
  H  H21  1  0.953300  0.689400  0.045100  1.0  0.1315
  H  H22  1  0.414800  0.397700  0.058200  1.0  0.4356
  H  H23  1  0.864500  0.861400  0.643000  1.0  0.1258
  H  H24  1  0.000000  0.561500  0.791300  1.0  0.1185
  H  H25  1  0.860000  0.536600  0.844600  1.0  0.1225
  H  H26  1  0.151600  0.660600  0.790000  1.0  0.125
  H  H27  1  0.092700  0.852000  0.492900  1.0  0.1112
  H  H28  1  0.953300  0.810600  0.545100  1.0  0.1316
  H  H29  1  0.414800  0.102300  0.558200  1.0  0.4346
  H  H30  1  0.135500  0.361400  0.857000  1.0  0.125
  H  H31  1  0.000000  0.061500  0.708700  1.0  0.119
  H  H32  1  0.140000  0.036600  0.655400  1.0  0.1223
  H  H33  1  0.848400  0.160600  0.710000  1.0  0.1254
  H  H34  1  0.907300  0.352000  0.007100  1.0  0.1116
  H  H35  1  0.046700  0.310600  0.954900  1.0  0.1321
  H  H36  1  0.585200  0.602300  0.941800  1.0  0.4339
  C  C37  1  0.310330  0.126970  0.321110  1.0  0.7358
  C  C38  1  0.222120  0.217740  0.285230  1.0  -0.1289
  C  C39  1  0.136320  0.204160  0.316350  1.0  -0.0622
  C  C40  1  0.051650  0.285360  0.288740  1.0  0.0469
  C  C41  1  0.055250  0.382630  0.228080  1.0  -0.0863
  C  C42  1  0.139600  0.397700  0.196140  1.0  -0.075
  C  C43  1  0.224580  0.315680  0.224060  1.0  -0.0068
  C  C44  1  0.315660  0.340980  0.187940  1.0  0.7138
  C  C45  1  0.962490  0.266430  0.325670  1.0  0.0438
  C  C46  1  0.860470  0.300920  0.269570  1.0  -0.0541
  C  C47  1  0.777050  0.278240  0.301990  1.0  -0.0314
  C  C48  1  0.793180  0.216860  0.390360  1.0  -0.1133
  C  C49  1  0.895140  0.185740  0.447220  1.0  -0.0287
  C  C50  1  0.979010  0.210360  0.415740  1.0  -0.1129
  C  C51  1  0.669190  0.324070  0.240380  1.0  0.7125
  C  C52  1  0.700950  0.174880  0.416920  1.0  0.7241
  C  C53  1  0.689670  0.626970  0.178890  1.0  0.737
  C  C54  1  0.777880  0.717740  0.214770  1.0  -0.1278
  C  C55  1  0.863680  0.704160  0.183650  1.0  -0.0626
  C  C56  1  0.948350  0.785360  0.211260  1.0  0.0456
  C  C57  1  0.944750  0.882630  0.271920  1.0  -0.0871
  C  C58  1  0.860400  0.897700  0.303860  1.0  -0.0746
  C  C59  1  0.775420  0.815680  0.275940  1.0  -0.0072
  C  C60  1  0.684340  0.840980  0.312060  1.0  0.7147
  C  C61  1  0.037510  0.766430  0.174330  1.0  0.0431
  C  C62  1  0.139530  0.800920  0.230430  1.0  -0.0534
  C  C63  1  0.222950  0.778240  0.198010  1.0  -0.0316
  C  C64  1  0.206820  0.716860  0.109640  1.0  -0.1122
  C  C65  1  0.104860  0.685740  0.052780  1.0  -0.0306
  C  C66  1  0.020990  0.710360  0.084260  1.0  -0.1114
  C  C67  1  0.330810  0.824070  0.259620  1.0  0.7133
  C  C68  1  0.299050  0.674880  0.083080  1.0  0.727
  C  C69  1  0.689670  0.873030  0.678890  1.0  0.7374
  C  C70  1  0.777880  0.782260  0.714770  1.0  -0.1281
  C  C71  1  0.863680  0.795840  0.683650  1.0  -0.0629
  C  C72  1  0.948350  0.714640  0.711260  1.0  0.0455
  C  C73  1  0.944750  0.617370  0.771920  1.0  -0.0875
  C  C74  1  0.860400  0.602300  0.803860  1.0  -0.0737
  C  C75  1  0.775420  0.684320  0.775940  1.0  -0.0075
  C  C76  1  0.684340  0.659020  0.812060  1.0  0.7144
  C  C77  1  0.037510  0.733570  0.674330  1.0  0.0424
  C  C78  1  0.139530  0.699080  0.730430  1.0  -0.0536
  C  C79  1  0.222950  0.721760  0.698010  1.0  -0.0316
  C  C80  1  0.206820  0.783140  0.609640  1.0  -0.1126
  C  C81  1  0.104860  0.814260  0.552780  1.0  -0.0306
  C  C82  1  0.020990  0.789640  0.584260  1.0  -0.1119
  C  C83  1  0.330810  0.675930  0.759620  1.0  0.7129
  C  C84  1  0.299050  0.825120  0.583080  1.0  0.7265
  C  C85  1  0.310330  0.373030  0.821110  1.0  0.7361
  C  C86  1  0.222120  0.282260  0.785230  1.0  -0.1289
  C  C87  1  0.136320  0.295840  0.816350  1.0  -0.0628
  C  C88  1  0.051650  0.214640  0.788740  1.0  0.0468
  C  C89  1  0.055250  0.117370  0.728080  1.0  -0.0866
  C  C90  1  0.139600  0.102300  0.696140  1.0  -0.0741
  C  C91  1  0.224580  0.184320  0.724060  1.0  -0.0072
  C  C92  1  0.315660  0.159020  0.687940  1.0  0.7135
  C  C93  1  0.962490  0.233570  0.825670  1.0  0.0437
  C  C94  1  0.860470  0.199080  0.769570  1.0  -0.0545
  C  C95  1  0.777050  0.221760  0.801990  1.0  -0.0321
  C  C96  1  0.793180  0.283140  0.890360  1.0  -0.1137
  C  C97  1  0.895140  0.314260  0.947220  1.0  -0.0287
  C  C98  1  0.979010  0.289640  0.915740  1.0  -0.1129
  C  C99  1  0.669190  0.175930  0.740380  1.0  0.7123
  C  C100  1  0.700950  0.325120  0.916920  1.0  0.7255
  O  O101  1  0.296800  0.037940  0.369460  1.0  -0.565
  O  O102  1  0.391200  0.147300  0.299330  1.0  -0.5773
  O  O103  1  0.379940  0.420220  0.235120  1.0  -0.6196
  O  O104  1  0.317400  0.287500  0.112410  1.0  -0.5328
  O  O105  1  0.633070  0.284090  0.154890  1.0  -0.5606
  O  O106  1  0.627770  0.405620  0.277210  1.0  -0.6032
  O  O107  1  0.616490  0.161220  0.348140  1.0  -0.5908
  O  O108  1  0.714990  0.153990  0.504530  1.0  -0.5471
  O  O109  1  0.538400  0.956380  0.433310  1.0  -0.9715
  O  O110  1  0.703200  0.537940  0.130540  1.0  -0.565
  O  O111  1  0.608800  0.647300  0.200670  1.0  -0.577
  O  O112  1  0.620060  0.920220  0.264880  1.0  -0.6201
  O  O113  1  0.682600  0.787500  0.387590  1.0  -0.5321
  O  O114  1  0.366930  0.784090  0.345110  1.0  -0.5585
  O  O115  1  0.372230  0.905620  0.222790  1.0  -0.6022
  O  O116  1  0.383510  0.661220  0.151860  1.0  -0.5898
  O  O117  1  0.285010  0.653990  0.995470  1.0  -0.5489
  O  O118  1  0.461600  0.456380  0.066690  1.0  -0.9718
  O  O119  1  0.703200  0.962060  0.630540  1.0  -0.5646
  O  O120  1  0.608800  0.852700  0.700670  1.0  -0.5765
  O  O121  1  0.620060  0.579780  0.764880  1.0  -0.6197
  O  O122  1  0.682600  0.712500  0.887590  1.0  -0.5314
  O  O123  1  0.366930  0.715910  0.845110  1.0  -0.5601
  O  O124  1  0.372230  0.594380  0.722790  1.0  -0.6019
  O  O125  1  0.383510  0.838780  0.651860  1.0  -0.5896
  O  O126  1  0.285010  0.846010  0.495470  1.0  -0.5497
  O  O127  1  0.461600  0.043620  0.566690  1.0  -0.972
  O  O128  1  0.296800  0.462060  0.869460  1.0  -0.565
  O  O129  1  0.391200  0.352700  0.799330  1.0  -0.5773
  O  O130  1  0.379940  0.079780  0.735120  1.0  -0.6187
  O  O131  1  0.317400  0.212500  0.612410  1.0  -0.5316
  O  O132  1  0.633070  0.215910  0.654890  1.0  -0.562
  O  O133  1  0.627770  0.094380  0.777210  1.0  -0.6029
  O  O134  1  0.616490  0.338780  0.848140  1.0  -0.5907
  O  O135  1  0.714990  0.346010  0.004530  1.0  -0.548
  O  O136  1  0.538400  0.543620  0.933310  1.0  -0.9717
