# generated using pymatgen
data_MnH6C15S3NO4
_symmetry_space_group_name_H-M   'P 1'
_cell_length_a   7.65480000
_cell_length_b   20.14910000
_cell_length_c   25.64130000
_cell_angle_alpha   90.00000000
_cell_angle_beta   90.00000000
_cell_angle_gamma   90.00000000
_symmetry_Int_Tables_number   1
_chemical_formula_structural   MnH6C15S3NO4
_chemical_formula_sum   'Mn8 H48 C120 S24 N8 O32'
_cell_volume   3954.84566717
_cell_formula_units_Z   8
loop_
 _symmetry_equiv_pos_site_id
 _symmetry_equiv_pos_as_xyz
  1  'x, y, z'
loop_
 _atom_site_type_symbol
 _atom_site_label
 _atom_site_symmetry_multiplicity
 _atom_site_fract_x
 _atom_site_fract_y
 _atom_site_fract_z
 _atom_site_occupancy
 _atom_site_charge
  Mn  Mn1  1  0.741150  0.819440  0.840120  1.0  1.1179
  Mn  Mn2  1  0.258850  0.680560  0.340120  1.0  1.1189
  Mn  Mn3  1  0.241150  0.180560  0.659880  1.0  1.1193
  Mn  Mn4  1  0.758850  0.319440  0.159880  1.0  1.1191
  Mn  Mn5  1  0.258850  0.180560  0.159880  1.0  1.1201
  Mn  Mn6  1  0.741150  0.319440  0.659880  1.0  1.1184
  Mn  Mn7  1  0.758850  0.819440  0.340120  1.0  1.1184
  Mn  Mn8  1  0.241150  0.680560  0.840120  1.0  1.1184
  H  H9  1  0.341200  0.908700  0.983900  1.0  0.1185
  H  H10  1  0.731300  0.033500  0.953300  1.0  0.1195
  H  H11  1  0.811300  0.965300  0.886300  1.0  0.0706
  H  H12  1  0.425100  0.847600  0.913200  1.0  0.0708
  H  H13  1  0.417200  0.606900  0.214300  1.0  0.1259
  H  H14  1  0.413000  0.602300  0.968600  1.0  0.0977
  H  H15  1  0.658800  0.591300  0.483900  1.0  0.1189
  H  H16  1  0.268700  0.466500  0.453300  1.0  0.1187
  H  H17  1  0.188700  0.534700  0.386300  1.0  0.0708
  H  H18  1  0.574900  0.652400  0.413200  1.0  0.0703
  H  H19  1  0.582800  0.893100  0.714300  1.0  0.1263
  H  H20  1  0.587000  0.897700  0.468600  1.0  0.0979
  H  H21  1  0.841200  0.091300  0.516100  1.0  0.1189
  H  H22  1  0.231300  0.966500  0.546700  1.0  0.1192
  H  H23  1  0.311300  0.034700  0.613700  1.0  0.0722
  H  H24  1  0.925100  0.152400  0.586800  1.0  0.0701
  H  H25  1  0.917200  0.393100  0.285700  1.0  0.1267
  H  H26  1  0.913000  0.397700  0.531400  1.0  0.0979
  H  H27  1  0.158800  0.408700  0.016100  1.0  0.1184
  H  H28  1  0.768700  0.533500  0.046700  1.0  0.1187
  H  H29  1  0.688700  0.465300  0.113700  1.0  0.0715
  H  H30  1  0.074900  0.347600  0.086800  1.0  0.0709
  H  H31  1  0.082800  0.106900  0.785700  1.0  0.1263
  H  H32  1  0.087000  0.102300  0.031400  1.0  0.0981
  H  H33  1  0.658800  0.091300  0.016100  1.0  0.1187
  H  H34  1  0.268700  0.966500  0.046700  1.0  0.1187
  H  H35  1  0.188700  0.034700  0.113700  1.0  0.0719
  H  H36  1  0.574900  0.152400  0.086800  1.0  0.0714
  H  H37  1  0.582800  0.393100  0.785700  1.0  0.1268
  H  H38  1  0.587000  0.397700  0.031400  1.0  0.0983
  H  H39  1  0.341200  0.408700  0.516100  1.0  0.1184
  H  H40  1  0.731300  0.533500  0.546700  1.0  0.119
  H  H41  1  0.811300  0.465300  0.613700  1.0  0.0717
  H  H42  1  0.425100  0.347600  0.586800  1.0  0.0726
  H  H43  1  0.417200  0.106900  0.285700  1.0  0.126
  H  H44  1  0.413000  0.102300  0.531400  1.0  0.098
  H  H45  1  0.158800  0.908700  0.483900  1.0  0.1185
  H  H46  1  0.768700  0.033500  0.453300  1.0  0.1194
  H  H47  1  0.688700  0.965300  0.386300  1.0  0.071
  H  H48  1  0.074900  0.847600  0.413200  1.0  0.0722
  H  H49  1  0.082800  0.606900  0.714300  1.0  0.1259
  H  H50  1  0.087000  0.602300  0.468600  1.0  0.0982
  H  H51  1  0.841200  0.591300  0.983900  1.0  0.119
  H  H52  1  0.231300  0.466500  0.953300  1.0  0.1191
  H  H53  1  0.311300  0.534700  0.886300  1.0  0.0703
  H  H54  1  0.925100  0.652400  0.913200  1.0  0.0719
  H  H55  1  0.917200  0.893100  0.214300  1.0  0.1262
  H  H56  1  0.913000  0.897700  0.968600  1.0  0.0981
  C  C57  1  0.526200  0.979260  0.977260  1.0  0.0928
  C  C58  1  0.437100  0.922070  0.964290  1.0  -0.1982
  C  C59  1  0.667600  0.995160  0.946670  1.0  -0.1858
  C  C60  1  0.714300  0.953800  0.906140  1.0  0.1816
  C  C61  1  0.490700  0.884750  0.922110  1.0  0.2007
  C  C62  1  0.587700  0.710470  0.269370  1.0  0.753
  C  C63  1  0.563400  0.691100  0.213820  1.0  -0.2008
  C  C64  1  0.474200  0.638500  0.194050  1.0  -0.081
  C  C65  1  0.478700  0.637810  0.139190  1.0  -0.0091
  C  C66  1  0.572400  0.689890  0.117720  1.0  -0.0532
  C  C67  1  0.572500  0.689020  0.062400  1.0  -0.0469
  C  C68  1  0.477900  0.636050  0.042710  1.0  -0.034
  C  C69  1  0.470900  0.634720  0.987810  1.0  -0.0655
  C  C70  1  0.559200  0.686620  0.966260  1.0  -0.2226
  C  C71  1  0.578200  0.703730  0.909740  1.0  0.7357
  C  C72  1  0.473800  0.520740  0.477260  1.0  0.0929
  C  C73  1  0.562900  0.577930  0.464290  1.0  -0.1993
  C  C74  1  0.332400  0.504840  0.446670  1.0  -0.1848
  C  C75  1  0.285700  0.546200  0.406140  1.0  0.1821
  C  C76  1  0.509300  0.615250  0.422110  1.0  0.2007
  C  C77  1  0.412300  0.789530  0.769370  1.0  0.7532
  C  C78  1  0.436600  0.808900  0.713820  1.0  -0.201
  C  C79  1  0.525800  0.861500  0.694050  1.0  -0.0814
  C  C80  1  0.521300  0.862190  0.639190  1.0  -0.0086
  C  C81  1  0.427600  0.810110  0.617720  1.0  -0.0533
  C  C82  1  0.427500  0.810980  0.562400  1.0  -0.0476
  C  C83  1  0.522100  0.863950  0.542710  1.0  -0.0337
  C  C84  1  0.529100  0.865280  0.487810  1.0  -0.0665
  C  C85  1  0.440800  0.813380  0.466260  1.0  -0.2226
  C  C86  1  0.421800  0.796270  0.409740  1.0  0.7346
  C  C87  1  0.026200  0.020740  0.522740  1.0  0.093
  C  C88  1  0.937100  0.077930  0.535710  1.0  -0.1983
  C  C89  1  0.167600  0.004840  0.553330  1.0  -0.1842
  C  C90  1  0.214300  0.046200  0.593860  1.0  0.1816
  C  C91  1  0.990700  0.115250  0.577890  1.0  0.202
  C  C92  1  0.087700  0.289530  0.230630  1.0  0.7519
  C  C93  1  0.063400  0.308900  0.286180  1.0  -0.2012
  C  C94  1  0.974200  0.361500  0.305950  1.0  -0.0814
  C  C95  1  0.978700  0.362190  0.360810  1.0  -0.0101
  C  C96  1  0.072400  0.310110  0.382280  1.0  -0.0531
  C  C97  1  0.072500  0.310980  0.437600  1.0  -0.0476
  C  C98  1  0.977900  0.363950  0.457290  1.0  -0.0342
  C  C99  1  0.970900  0.365280  0.512190  1.0  -0.0663
  C  C100  1  0.059200  0.313380  0.533740  1.0  -0.2221
  C  C101  1  0.078200  0.296270  0.590260  1.0  0.7357
  C  C102  1  0.973800  0.479260  0.022740  1.0  0.0927
  C  C103  1  0.062900  0.422070  0.035710  1.0  -0.1991
  C  C104  1  0.832400  0.495160  0.053330  1.0  -0.1859
  C  C105  1  0.785700  0.453800  0.093860  1.0  0.1804
  C  C106  1  0.009300  0.384750  0.077890  1.0  0.2012
  C  C107  1  0.912300  0.210470  0.730630  1.0  0.7534
  C  C108  1  0.936600  0.191100  0.786180  1.0  -0.201
  C  C109  1  0.025800  0.138500  0.805950  1.0  -0.0819
  C  C110  1  0.021300  0.137810  0.860810  1.0  -0.0088
  C  C111  1  0.927600  0.189890  0.882280  1.0  -0.0534
  C  C112  1  0.927500  0.189020  0.937600  1.0  -0.0475
  C  C113  1  0.022100  0.136050  0.957290  1.0  -0.0332
  C  C114  1  0.029100  0.134720  0.012190  1.0  -0.0642
  C  C115  1  0.940800  0.186620  0.033740  1.0  -0.2234
  C  C116  1  0.921800  0.203730  0.090260  1.0  0.7366
  C  C117  1  0.473800  0.020740  0.022740  1.0  0.0931
  C  C118  1  0.562900  0.077930  0.035710  1.0  -0.1945
  C  C119  1  0.332400  0.004840  0.053330  1.0  -0.1823
  C  C120  1  0.285700  0.046200  0.093860  1.0  0.1813
  C  C121  1  0.509300  0.115250  0.077890  1.0  0.2017
  C  C122  1  0.412300  0.289530  0.730630  1.0  0.7528
  C  C123  1  0.436600  0.308900  0.786180  1.0  -0.2011
  C  C124  1  0.525800  0.361500  0.805950  1.0  -0.0812
  C  C125  1  0.521300  0.362190  0.860810  1.0  -0.009
  C  C126  1  0.427600  0.310110  0.882280  1.0  -0.0538
  C  C127  1  0.427500  0.310980  0.937600  1.0  -0.0484
  C  C128  1  0.522100  0.363950  0.957290  1.0  -0.0333
  C  C129  1  0.529100  0.365280  0.012190  1.0  -0.0658
  C  C130  1  0.440800  0.313380  0.033740  1.0  -0.2228
  C  C131  1  0.421800  0.296270  0.090260  1.0  0.7355
  C  C132  1  0.526200  0.479260  0.522740  1.0  0.0925
  C  C133  1  0.437100  0.422070  0.535710  1.0  -0.1932
  C  C134  1  0.667600  0.495160  0.553330  1.0  -0.1833
  C  C135  1  0.714300  0.453800  0.593860  1.0  0.1811
  C  C136  1  0.490700  0.384750  0.577890  1.0  0.2017
  C  C137  1  0.587700  0.210470  0.230630  1.0  0.7525
  C  C138  1  0.563400  0.191100  0.286180  1.0  -0.201
  C  C139  1  0.474200  0.138500  0.305950  1.0  -0.0815
  C  C140  1  0.478700  0.137810  0.360810  1.0  -0.0097
  C  C141  1  0.572400  0.189890  0.382280  1.0  -0.0535
  C  C142  1  0.572500  0.189020  0.437600  1.0  -0.0471
  C  C143  1  0.477900  0.136050  0.457290  1.0  -0.0344
  C  C144  1  0.470900  0.134720  0.512190  1.0  -0.0648
  C  C145  1  0.559200  0.186620  0.533740  1.0  -0.2228
  C  C146  1  0.578200  0.203730  0.590260  1.0  0.7368
  C  C147  1  0.973800  0.979260  0.477260  1.0  0.0927
  C  C148  1  0.062900  0.922070  0.464290  1.0  -0.1944
  C  C149  1  0.832400  0.995160  0.446670  1.0  -0.1833
  C  C150  1  0.785700  0.953800  0.406140  1.0  0.1821
  C  C151  1  0.009300  0.884750  0.422110  1.0  0.2001
  C  C152  1  0.912300  0.710470  0.769370  1.0  0.7538
  C  C153  1  0.936600  0.691100  0.713820  1.0  -0.2009
  C  C154  1  0.025800  0.638500  0.694050  1.0  -0.0812
  C  C155  1  0.021300  0.637810  0.639190  1.0  -0.0084
  C  C156  1  0.927600  0.689890  0.617720  1.0  -0.0529
  C  C157  1  0.927500  0.689020  0.562400  1.0  -0.0468
  C  C158  1  0.022100  0.636050  0.542710  1.0  -0.0334
  C  C159  1  0.029100  0.634720  0.487810  1.0  -0.065
  C  C160  1  0.940800  0.686620  0.466260  1.0  -0.2233
  C  C161  1  0.921800  0.703730  0.409740  1.0  0.7355
  C  C162  1  0.026200  0.520740  0.977260  1.0  0.0929
  C  C163  1  0.937100  0.577930  0.964290  1.0  -0.1933
  C  C164  1  0.167600  0.504840  0.946670  1.0  -0.1823
  C  C165  1  0.214300  0.546200  0.906140  1.0  0.1814
  C  C166  1  0.990700  0.615250  0.922110  1.0  0.201
  C  C167  1  0.087700  0.789530  0.269370  1.0  0.7523
  C  C168  1  0.063400  0.808900  0.213820  1.0  -0.2011
  C  C169  1  0.974200  0.861500  0.194050  1.0  -0.0818
  C  C170  1  0.978700  0.862190  0.139190  1.0  -0.0094
  C  C171  1  0.072400  0.810110  0.117720  1.0  -0.0527
  C  C172  1  0.072500  0.810980  0.062400  1.0  -0.0472
  C  C173  1  0.977900  0.863950  0.042710  1.0  -0.0344
  C  C174  1  0.970900  0.865280  0.987810  1.0  -0.067
  C  C175  1  0.059200  0.813380  0.966260  1.0  -0.2219
  C  C176  1  0.078200  0.796270  0.909740  1.0  0.7348
  S  S177  1  0.656250  0.740540  0.165680  1.0  0.1285
  S  S178  1  0.388630  0.586110  0.091470  1.0  0.0305
  S  S179  1  0.655330  0.737520  0.012900  1.0  0.1316
  S  S180  1  0.343750  0.759460  0.665680  1.0  0.1291
  S  S181  1  0.611370  0.913890  0.591470  1.0  0.031
  S  S182  1  0.344670  0.762480  0.512900  1.0  0.1309
  S  S183  1  0.156250  0.259460  0.334320  1.0  0.1295
  S  S184  1  0.888630  0.413890  0.408530  1.0  0.03
  S  S185  1  0.155330  0.262480  0.487100  1.0  0.1315
  S  S186  1  0.843750  0.240540  0.834320  1.0  0.1282
  S  S187  1  0.111370  0.086110  0.908530  1.0  0.0317
  S  S188  1  0.844670  0.237520  0.987100  1.0  0.1307
  S  S189  1  0.343750  0.259460  0.834320  1.0  0.1292
  S  S190  1  0.611370  0.413890  0.908530  1.0  0.0302
  S  S191  1  0.344670  0.262480  0.987100  1.0  0.1306
  S  S192  1  0.656250  0.240540  0.334320  1.0  0.1286
  S  S193  1  0.388630  0.086110  0.408530  1.0  0.0303
  S  S194  1  0.655330  0.237520  0.487100  1.0  0.1311
  S  S195  1  0.843750  0.740540  0.665680  1.0  0.1281
  S  S196  1  0.111370  0.586110  0.591470  1.0  0.031
  S  S197  1  0.844670  0.737520  0.512900  1.0  0.1309
  S  S198  1  0.156250  0.759460  0.165680  1.0  0.1295
  S  S199  1  0.888630  0.913890  0.091470  1.0  0.0308
  S  S200  1  0.155330  0.762480  0.012900  1.0  0.1321
  N  N201  1  0.629500  0.898700  0.893780  1.0  -0.3725
  N  N202  1  0.370500  0.601300  0.393780  1.0  -0.3697
  N  N203  1  0.129500  0.101300  0.606220  1.0  -0.3693
  N  N204  1  0.870500  0.398700  0.106220  1.0  -0.3692
  N  N205  1  0.370500  0.101300  0.106220  1.0  -0.3693
  N  N206  1  0.629500  0.398700  0.606220  1.0  -0.3695
  N  N207  1  0.870500  0.898700  0.393780  1.0  -0.3719
  N  N208  1  0.129500  0.601300  0.893780  1.0  -0.3701
  O  O209  1  0.515600  0.676270  0.303870  1.0  -0.6411
  O  O210  1  0.682300  0.760570  0.276310  1.0  -0.6217
  O  O211  1  0.679700  0.750670  0.900290  1.0  -0.6096
  O  O212  1  0.494400  0.669840  0.877490  1.0  -0.6417
  O  O213  1  0.484400  0.823730  0.803870  1.0  -0.6406
  O  O214  1  0.317700  0.739430  0.776310  1.0  -0.6216
  O  O215  1  0.320300  0.749330  0.400290  1.0  -0.6098
  O  O216  1  0.505600  0.830160  0.377490  1.0  -0.6407
  O  O217  1  0.015600  0.323730  0.196130  1.0  -0.6401
  O  O218  1  0.182300  0.239430  0.223690  1.0  -0.6213
  O  O219  1  0.179700  0.249330  0.599710  1.0  -0.6098
  O  O220  1  0.994400  0.330160  0.622510  1.0  -0.641
  O  O221  1  0.984400  0.176270  0.696130  1.0  -0.6413
  O  O222  1  0.817700  0.260570  0.723690  1.0  -0.6217
  O  O223  1  0.820300  0.250670  0.099710  1.0  -0.6095
  O  O224  1  0.005600  0.169840  0.122510  1.0  -0.641
  O  O225  1  0.484400  0.323730  0.696130  1.0  -0.6407
  O  O226  1  0.317700  0.239430  0.723690  1.0  -0.6215
  O  O227  1  0.320300  0.249330  0.099710  1.0  -0.6096
  O  O228  1  0.505600  0.330160  0.122510  1.0  -0.6411
  O  O229  1  0.515600  0.176270  0.196130  1.0  -0.6408
  O  O230  1  0.682300  0.260570  0.223690  1.0  -0.6217
  O  O231  1  0.679700  0.250670  0.599710  1.0  -0.6096
  O  O232  1  0.494400  0.169840  0.622510  1.0  -0.6413
  O  O233  1  0.984400  0.676270  0.803870  1.0  -0.6412
  O  O234  1  0.817700  0.760570  0.776310  1.0  -0.6219
  O  O235  1  0.820300  0.750670  0.400290  1.0  -0.6095
  O  O236  1  0.005600  0.669840  0.377490  1.0  -0.6409
  O  O237  1  0.015600  0.823730  0.303870  1.0  -0.6406
  O  O238  1  0.182300  0.739430  0.276310  1.0  -0.6213
  O  O239  1  0.179700  0.749330  0.900290  1.0  -0.6098
  O  O240  1  0.994400  0.830160  0.877490  1.0  -0.6412
