# generated using pymatgen
data_Mn2H4C20(S2O3)3
_symmetry_space_group_name_H-M   'P 1'
_cell_length_a   11.03110000
_cell_length_b   11.51970000
_cell_length_c   14.78210000
_cell_angle_alpha   112.93300000
_cell_angle_beta   101.69800000
_cell_angle_gamma   90.00000000
_symmetry_Int_Tables_number   1
_chemical_formula_structural   Mn2H4C20(S2O3)3
_chemical_formula_sum   'Mn4 H8 C40 S12 O18'
_cell_volume   1687.52103659
_cell_formula_units_Z   2
loop_
 _symmetry_equiv_pos_site_id
 _symmetry_equiv_pos_as_xyz
  1  'x, y, z'
loop_
 _atom_site_type_symbol
 _atom_site_label
 _atom_site_symmetry_multiplicity
 _atom_site_fract_x
 _atom_site_fract_y
 _atom_site_fract_z
 _atom_site_occupancy
 _atom_site_charge
  Mn  Mn1  1  0.084600  0.129200  0.005080  1.0  1.2401
  Mn  Mn2  1  0.415400  0.124120  0.994920  1.0  1.2418
  Mn  Mn3  1  0.915400  0.870800  0.994920  1.0  1.2412
  Mn  Mn4  1  0.584600  0.875880  0.005080  1.0  1.2418
  H  H5  1  0.921100  0.139300  0.279200  1.0  0.1224
  H  H6  1  0.979700  0.214700  0.732800  1.0  0.1252
  H  H7  1  0.578900  0.860100  0.720800  1.0  0.1244
  H  H8  1  0.520300  0.481900  0.267200  1.0  0.1224
  H  H9  1  0.078900  0.860700  0.720800  1.0  0.1229
  H  H10  1  0.020300  0.785300  0.267200  1.0  0.1221
  H  H11  1  0.421100  0.139900  0.279200  1.0  0.1242
  H  H12  1  0.479700  0.518100  0.732800  1.0  0.1263
  C  C13  1  0.119500  0.039100  0.179200  1.0  0.6716
  C  C14  1  0.093820  0.077420  0.280440  1.0  -0.1847
  C  C15  1  0.992820  0.124220  0.317040  1.0  -0.0552
  C  C16  1  0.125550  0.117550  0.459900  1.0  -0.0448
  C  C17  1  0.010910  0.147110  0.420820  1.0  -0.0092
  C  C18  1  0.139750  0.136550  0.562700  1.0  -0.0406
  C  C19  1  0.035050  0.177050  0.598700  1.0  0.0031
  C  C20  1  0.043080  0.189880  0.698160  1.0  -0.0595
  C  C21  1  0.155550  0.161250  0.737100  1.0  -0.2031
  C  C22  1  0.197930  0.158930  0.838660  1.0  0.7593
  C  C23  1  0.380500  0.859900  0.820800  1.0  0.6722
  C  C24  1  0.406180  0.796980  0.719560  1.0  -0.1849
  C  C25  1  0.507180  0.807180  0.682960  1.0  -0.0535
  C  C26  1  0.374450  0.657650  0.540100  1.0  -0.0446
  C  C27  1  0.489090  0.726290  0.579180  1.0  -0.009
  C  C28  1  0.360250  0.573850  0.437300  1.0  -0.039
  C  C29  1  0.464950  0.578350  0.401300  1.0  0.0046
  C  C30  1  0.456920  0.491720  0.301840  1.0  -0.0595
  C  C31  1  0.344450  0.424150  0.262900  1.0  -0.2013
  C  C32  1  0.302070  0.320270  0.161340  1.0  0.7606
  C  C33  1  0.880500  0.960900  0.820800  1.0  0.6719
  C  C34  1  0.906180  0.922580  0.719560  1.0  -0.1847
  C  C35  1  0.007180  0.875780  0.682960  1.0  -0.0548
  C  C36  1  0.874450  0.882450  0.540100  1.0  -0.0448
  C  C37  1  0.989090  0.852890  0.579180  1.0  -0.0083
  C  C38  1  0.860250  0.863450  0.437300  1.0  -0.0404
  C  C39  1  0.964950  0.822950  0.401300  1.0  0.0038
  C  C40  1  0.956920  0.810120  0.301840  1.0  -0.0618
  C  C41  1  0.844450  0.838750  0.262900  1.0  -0.2026
  C  C42  1  0.802070  0.841070  0.161340  1.0  0.7609
  C  C43  1  0.619500  0.140100  0.179200  1.0  0.6715
  C  C44  1  0.593820  0.203020  0.280440  1.0  -0.1846
  C  C45  1  0.492820  0.192820  0.317040  1.0  -0.0545
  C  C46  1  0.625550  0.342350  0.459900  1.0  -0.0463
  C  C47  1  0.510910  0.273710  0.420820  1.0  -0.0089
  C  C48  1  0.639750  0.426150  0.562700  1.0  -0.0403
  C  C49  1  0.535050  0.421650  0.598700  1.0  0.0034
  C  C50  1  0.543080  0.508280  0.698160  1.0  -0.0591
  C  C51  1  0.655550  0.575850  0.737100  1.0  -0.2031
  C  C52  1  0.697930  0.679730  0.838660  1.0  0.762
  S  S53  1  0.211940  0.058860  0.370660  1.0  0.1305
  S  S54  1  0.253340  0.116990  0.653260  1.0  0.1313
  S  S55  1  0.918160  0.199000  0.509360  1.0  0.0497
  S  S56  1  0.288060  0.688200  0.629340  1.0  0.1323
  S  S57  1  0.246660  0.463730  0.346740  1.0  0.1322
  S  S58  1  0.581840  0.689640  0.490640  1.0  0.046
  S  S59  1  0.788060  0.941140  0.629340  1.0  0.1321
  S  S60  1  0.746660  0.883010  0.346740  1.0  0.1314
  S  S61  1  0.081840  0.801000  0.490640  1.0  0.05
  S  S62  1  0.711940  0.311800  0.370660  1.0  0.1298
  S  S63  1  0.753340  0.536270  0.653260  1.0  0.1312
  S  S64  1  0.418160  0.310360  0.509360  1.0  0.0508
  O  O65  1  0.306490  0.132290  0.860740  1.0  -0.613
  O  O66  1  0.119790  0.184570  0.892860  1.0  -0.6261
  O  O67  1  0.224640  0.006060  0.168980  1.0  -0.4774
  O  O68  1  0.032750  0.043640  0.108100  1.0  -0.6585
  O  O69  1  0.193510  0.271550  0.139260  1.0  -0.6141
  O  O70  1  0.380210  0.291710  0.107140  1.0  -0.627
  O  O71  1  0.275360  0.837080  0.831020  1.0  -0.4737
  O  O72  1  0.467250  0.935540  0.891900  1.0  -0.6602
  O  O73  1  0.693510  0.867710  0.139260  1.0  -0.6134
  O  O74  1  0.880210  0.815430  0.107140  1.0  -0.6255
  O  O75  1  0.775360  0.993940  0.831020  1.0  -0.4766
  O  O76  1  0.967250  0.956360  0.891900  1.0  -0.6597
  O  O77  1  0.806490  0.728450  0.860740  1.0  -0.6153
  O  O78  1  0.619790  0.708290  0.892860  1.0  -0.626
  O  O79  1  0.724640  0.162920  0.168980  1.0  -0.475
  O  O80  1  0.532750  0.064460  0.108100  1.0  -0.6595
  O  O81  1  0.250000  0.015000  0.000000  1.0  -0.5318
  O  O82  1  0.750000  0.985000  0.000000  1.0  -0.5312
