# generated using pymatgen
data_Cu2P3H11C16N2O9
_symmetry_space_group_name_H-M   'P 1'
_cell_length_a   28.47740000
_cell_length_b   9.46940000
_cell_length_c   18.89210000
_cell_angle_alpha   90.00000000
_cell_angle_beta   90.00000000
_cell_angle_gamma   90.00000000
_symmetry_Int_Tables_number   1
_chemical_formula_structural   Cu2P3H11C16N2O9
_chemical_formula_sum   'Cu16 P24 H88 C128 N16 O72'
_cell_volume   5094.51720574
_cell_formula_units_Z   8
loop_
 _symmetry_equiv_pos_site_id
 _symmetry_equiv_pos_as_xyz
  1  'x, y, z'
loop_
 _atom_site_type_symbol
 _atom_site_label
 _atom_site_symmetry_multiplicity
 _atom_site_fract_x
 _atom_site_fract_y
 _atom_site_fract_z
 _atom_site_occupancy
 _atom_site_charge
  Cu  Cu1  1  0.065470  0.107800  0.925510  1.0  0.7465
  Cu  Cu2  1  0.565470  0.607800  0.925510  1.0  0.7465
  Cu  Cu3  1  0.934530  0.392200  0.425510  1.0  0.7475
  Cu  Cu4  1  0.434530  0.892200  0.425510  1.0  0.7475
  Cu  Cu5  1  0.934530  0.607800  0.574490  1.0  0.7451
  Cu  Cu6  1  0.434530  0.107800  0.574490  1.0  0.7451
  Cu  Cu7  1  0.065470  0.892200  0.074490  1.0  0.7474
  Cu  Cu8  1  0.565470  0.392200  0.074490  1.0  0.7474
  Cu  Cu9  1  0.934530  0.892200  0.074490  1.0  0.7471
  Cu  Cu10  1  0.434530  0.392200  0.074490  1.0  0.7471
  Cu  Cu11  1  0.065470  0.607800  0.574490  1.0  0.7449
  Cu  Cu12  1  0.565470  0.107800  0.574490  1.0  0.7449
  Cu  Cu13  1  0.065470  0.392200  0.425510  1.0  0.7477
  Cu  Cu14  1  0.565470  0.892200  0.425510  1.0  0.7477
  Cu  Cu15  1  0.934530  0.107800  0.925510  1.0  0.7469
  Cu  Cu16  1  0.434530  0.607800  0.925510  1.0  0.7469
  P  P17  1  0.096500  0.048400  0.760000  1.0  1.4997
  P  P18  1  0.596500  0.548400  0.760000  1.0  1.4997
  P  P19  1  0.903500  0.451600  0.260000  1.0  1.4987
  P  P20  1  0.403500  0.951600  0.260000  1.0  1.4987
  P  P21  1  0.903500  0.548400  0.740000  1.0  1.4982
  P  P22  1  0.403500  0.048400  0.740000  1.0  1.4982
  P  P23  1  0.096500  0.951600  0.240000  1.0  1.4988
  P  P24  1  0.596500  0.451600  0.240000  1.0  1.4988
  P  P25  1  0.903500  0.951600  0.240000  1.0  1.4985
  P  P26  1  0.403500  0.451600  0.240000  1.0  1.4985
  P  P27  1  0.096500  0.548400  0.740000  1.0  1.4985
  P  P28  1  0.596500  0.048400  0.740000  1.0  1.4985
  P  P29  1  0.096500  0.451600  0.260000  1.0  1.4998
  P  P30  1  0.596500  0.951600  0.260000  1.0  1.4998
  P  P31  1  0.903500  0.048400  0.760000  1.0  1.4985
  P  P32  1  0.403500  0.548400  0.760000  1.0  1.4985
  P  P33  1  0.000000  0.361500  0.559100  1.0  1.5221
  P  P34  1  0.500000  0.861500  0.559100  1.0  1.5221
  P  P35  1  0.000000  0.138500  0.059100  1.0  1.5224
  P  P36  1  0.500000  0.638500  0.059100  1.0  1.5224
  P  P37  1  0.000000  0.861500  0.940900  1.0  1.5234
  P  P38  1  0.500000  0.361500  0.940900  1.0  1.5234
  P  P39  1  0.000000  0.638500  0.440900  1.0  1.5235
  P  P40  1  0.500000  0.138500  0.440900  1.0  1.5235
  H  H41  1  0.071100  0.213000  0.639000  1.0  0.1224
  H  H42  1  0.189900  0.381000  0.045000  1.0  0.1427
  H  H43  1  0.115700  0.305000  0.015000  1.0  0.0953
  H  H44  1  0.165700  0.001000  0.901000  1.0  0.0991
  H  H45  1  0.242000  0.076000  0.922000  1.0  0.129
  H  H46  1  0.571100  0.713000  0.639000  1.0  0.1224
  H  H47  1  0.689900  0.881000  0.045000  1.0  0.1427
  H  H48  1  0.615700  0.805000  0.015000  1.0  0.0953
  H  H49  1  0.665700  0.501000  0.901000  1.0  0.0991
  H  H50  1  0.742000  0.576000  0.922000  1.0  0.129
  H  H51  1  0.928900  0.287000  0.139000  1.0  0.1227
  H  H52  1  0.810100  0.119000  0.545000  1.0  0.1429
  H  H53  1  0.884300  0.195000  0.515000  1.0  0.0956
  H  H54  1  0.834300  0.499000  0.401000  1.0  0.0988
  H  H55  1  0.758000  0.424000  0.422000  1.0  0.1291
  H  H56  1  0.428900  0.787000  0.139000  1.0  0.1227
  H  H57  1  0.310100  0.619000  0.545000  1.0  0.1429
  H  H58  1  0.384300  0.695000  0.515000  1.0  0.0956
  H  H59  1  0.334300  0.999000  0.401000  1.0  0.0988
  H  H60  1  0.258000  0.924000  0.422000  1.0  0.1291
  H  H61  1  0.928900  0.713000  0.861000  1.0  0.1224
  H  H62  1  0.810100  0.881000  0.455000  1.0  0.1423
  H  H63  1  0.884300  0.805000  0.485000  1.0  0.0962
  H  H64  1  0.834300  0.501000  0.599000  1.0  0.0989
  H  H65  1  0.758000  0.576000  0.578000  1.0  0.128
  H  H66  1  0.428900  0.213000  0.861000  1.0  0.1224
  H  H67  1  0.310100  0.381000  0.455000  1.0  0.1423
  H  H68  1  0.384300  0.305000  0.485000  1.0  0.0962
  H  H69  1  0.334300  0.001000  0.599000  1.0  0.0989
  H  H70  1  0.258000  0.076000  0.578000  1.0  0.128
  H  H71  1  0.071100  0.787000  0.361000  1.0  0.1223
  H  H72  1  0.189900  0.619000  0.955000  1.0  0.1423
  H  H73  1  0.115700  0.695000  0.985000  1.0  0.0947
  H  H74  1  0.165700  0.999000  0.099000  1.0  0.0983
  H  H75  1  0.242000  0.924000  0.078000  1.0  0.1286
  H  H76  1  0.571100  0.287000  0.361000  1.0  0.1223
  H  H77  1  0.689900  0.119000  0.955000  1.0  0.1423
  H  H78  1  0.615700  0.195000  0.985000  1.0  0.0947
  H  H79  1  0.665700  0.499000  0.099000  1.0  0.0983
  H  H80  1  0.742000  0.424000  0.078000  1.0  0.1286
  H  H81  1  0.928900  0.787000  0.361000  1.0  0.1221
  H  H82  1  0.810100  0.619000  0.955000  1.0  0.1431
  H  H83  1  0.884300  0.695000  0.985000  1.0  0.0957
  H  H84  1  0.834300  0.999000  0.099000  1.0  0.0987
  H  H85  1  0.758000  0.924000  0.078000  1.0  0.1281
  H  H86  1  0.428900  0.287000  0.361000  1.0  0.1221
  H  H87  1  0.310100  0.119000  0.955000  1.0  0.1431
  H  H88  1  0.384300  0.195000  0.985000  1.0  0.0957
  H  H89  1  0.334300  0.499000  0.099000  1.0  0.0987
  H  H90  1  0.258000  0.424000  0.078000  1.0  0.1281
  H  H91  1  0.071100  0.713000  0.861000  1.0  0.1226
  H  H92  1  0.189900  0.881000  0.455000  1.0  0.1432
  H  H93  1  0.115700  0.805000  0.485000  1.0  0.0955
  H  H94  1  0.165700  0.501000  0.599000  1.0  0.0987
  H  H95  1  0.242000  0.576000  0.578000  1.0  0.1286
  H  H96  1  0.571100  0.213000  0.861000  1.0  0.1226
  H  H97  1  0.689900  0.381000  0.455000  1.0  0.1432
  H  H98  1  0.615700  0.305000  0.485000  1.0  0.0955
  H  H99  1  0.665700  0.001000  0.599000  1.0  0.0987
  H  H100  1  0.742000  0.076000  0.578000  1.0  0.1286
  H  H101  1  0.071100  0.287000  0.139000  1.0  0.1226
  H  H102  1  0.189900  0.119000  0.545000  1.0  0.1437
  H  H103  1  0.115700  0.195000  0.515000  1.0  0.0947
  H  H104  1  0.165700  0.499000  0.401000  1.0  0.0986
  H  H105  1  0.242000  0.424000  0.422000  1.0  0.1289
  H  H106  1  0.571100  0.787000  0.139000  1.0  0.1226
  H  H107  1  0.689900  0.619000  0.545000  1.0  0.1437
  H  H108  1  0.615700  0.695000  0.515000  1.0  0.0947
  H  H109  1  0.665700  0.999000  0.401000  1.0  0.0986
  H  H110  1  0.742000  0.924000  0.422000  1.0  0.1289
  H  H111  1  0.928900  0.213000  0.639000  1.0  0.1225
  H  H112  1  0.810100  0.381000  0.045000  1.0  0.1434
  H  H113  1  0.884300  0.305000  0.015000  1.0  0.0959
  H  H114  1  0.834300  0.001000  0.901000  1.0  0.0991
  H  H115  1  0.758000  0.076000  0.922000  1.0  0.1289
  H  H116  1  0.428900  0.713000  0.639000  1.0  0.1225
  H  H117  1  0.310100  0.881000  0.045000  1.0  0.1434
  H  H118  1  0.384300  0.805000  0.015000  1.0  0.0959
  H  H119  1  0.334300  0.501000  0.901000  1.0  0.0991
  H  H120  1  0.258000  0.576000  0.922000  1.0  0.1289
  H  H121  1  0.000000  0.019000  0.797000  1.0  0.1058
  H  H122  1  0.500000  0.519000  0.797000  1.0  0.1058
  H  H123  1  0.000000  0.481000  0.297000  1.0  0.1057
  H  H124  1  0.500000  0.981000  0.297000  1.0  0.1057
  H  H125  1  0.000000  0.519000  0.703000  1.0  0.1054
  H  H126  1  0.500000  0.019000  0.703000  1.0  0.1054
  H  H127  1  0.000000  0.981000  0.203000  1.0  0.1054
  H  H128  1  0.500000  0.481000  0.203000  1.0  0.1054
  C  C129  1  0.042900  0.110300  0.724200  1.0  -0.1883
  C  C130  1  0.042600  0.200200  0.665000  1.0  -0.0496
  C  C131  1  0.225700  0.231500  0.988600  1.0  0.0101
  C  C132  1  0.186500  0.291500  0.022800  1.0  -0.1299
  C  C133  1  0.141500  0.248900  0.000900  1.0  0.1744
  C  C134  1  0.170300  0.092000  0.919500  1.0  0.1594
  C  C135  1  0.217800  0.133600  0.936200  1.0  -0.1023
  C  C136  1  0.542900  0.610300  0.724200  1.0  -0.1883
  C  C137  1  0.542600  0.700200  0.665000  1.0  -0.0496
  C  C138  1  0.725700  0.731500  0.988600  1.0  0.0101
  C  C139  1  0.686500  0.791500  0.022800  1.0  -0.1299
  C  C140  1  0.641500  0.748900  0.000900  1.0  0.1744
  C  C141  1  0.670300  0.592000  0.919500  1.0  0.1594
  C  C142  1  0.717800  0.633600  0.936200  1.0  -0.1023
  C  C143  1  0.957100  0.389700  0.224200  1.0  -0.188
  C  C144  1  0.957400  0.299800  0.165000  1.0  -0.0497
  C  C145  1  0.774300  0.268500  0.488600  1.0  0.0092
  C  C146  1  0.813500  0.208500  0.522800  1.0  -0.1313
  C  C147  1  0.858500  0.251100  0.500900  1.0  0.1745
  C  C148  1  0.829700  0.408000  0.419500  1.0  0.1572
  C  C149  1  0.782200  0.366400  0.436200  1.0  -0.1029
  C  C150  1  0.457100  0.889700  0.224200  1.0  -0.188
  C  C151  1  0.457400  0.799800  0.165000  1.0  -0.0497
  C  C152  1  0.274300  0.768500  0.488600  1.0  0.0092
  C  C153  1  0.313500  0.708500  0.522800  1.0  -0.1313
  C  C154  1  0.358500  0.751100  0.500900  1.0  0.1745
  C  C155  1  0.329700  0.908000  0.419500  1.0  0.1572
  C  C156  1  0.282200  0.866400  0.436200  1.0  -0.1029
  C  C157  1  0.957100  0.610300  0.775800  1.0  -0.1873
  C  C158  1  0.957400  0.700200  0.835000  1.0  -0.0496
  C  C159  1  0.774300  0.731500  0.511400  1.0  0.0103
  C  C160  1  0.813500  0.791500  0.477200  1.0  -0.1323
  C  C161  1  0.858500  0.748900  0.499100  1.0  0.1744
  C  C162  1  0.829700  0.592000  0.580500  1.0  0.1587
  C  C163  1  0.782200  0.633600  0.563800  1.0  -0.1051
  C  C164  1  0.457100  0.110300  0.775800  1.0  -0.1873
  C  C165  1  0.457400  0.200200  0.835000  1.0  -0.0496
  C  C166  1  0.274300  0.231500  0.511400  1.0  0.0103
  C  C167  1  0.313500  0.291500  0.477200  1.0  -0.1323
  C  C168  1  0.358500  0.248900  0.499100  1.0  0.1744
  C  C169  1  0.329700  0.092000  0.580500  1.0  0.1587
  C  C170  1  0.282200  0.133600  0.563800  1.0  -0.1051
  C  C171  1  0.042900  0.889700  0.275800  1.0  -0.1877
  C  C172  1  0.042600  0.799800  0.335000  1.0  -0.049
  C  C173  1  0.225700  0.768500  0.011400  1.0  0.0092
  C  C174  1  0.186500  0.708500  0.977200  1.0  -0.1314
  C  C175  1  0.141500  0.751100  0.999100  1.0  0.175
  C  C176  1  0.170300  0.908000  0.080500  1.0  0.1608
  C  C177  1  0.217800  0.866400  0.063800  1.0  -0.1033
  C  C178  1  0.542900  0.389700  0.275800  1.0  -0.1877
  C  C179  1  0.542600  0.299800  0.335000  1.0  -0.049
  C  C180  1  0.725700  0.268500  0.011400  1.0  0.0092
  C  C181  1  0.686500  0.208500  0.977200  1.0  -0.1314
  C  C182  1  0.641500  0.251100  0.999100  1.0  0.175
  C  C183  1  0.670300  0.408000  0.080500  1.0  0.1608
  C  C184  1  0.717800  0.366400  0.063800  1.0  -0.1033
  C  C185  1  0.957100  0.889700  0.275800  1.0  -0.1871
  C  C186  1  0.957400  0.799800  0.335000  1.0  -0.0499
  C  C187  1  0.774300  0.768500  0.011400  1.0  0.0093
  C  C188  1  0.813500  0.708500  0.977200  1.0  -0.1311
  C  C189  1  0.858500  0.751100  0.999100  1.0  0.1745
  C  C190  1  0.829700  0.908000  0.080500  1.0  0.1601
  C  C191  1  0.782200  0.866400  0.063800  1.0  -0.1067
  C  C192  1  0.457100  0.389700  0.275800  1.0  -0.1871
  C  C193  1  0.457400  0.299800  0.335000  1.0  -0.0499
  C  C194  1  0.274300  0.268500  0.011400  1.0  0.0093
  C  C195  1  0.313500  0.208500  0.977200  1.0  -0.1311
  C  C196  1  0.358500  0.251100  0.999100  1.0  0.1745
  C  C197  1  0.329700  0.408000  0.080500  1.0  0.1601
  C  C198  1  0.282200  0.366400  0.063800  1.0  -0.1067
  C  C199  1  0.042900  0.610300  0.775800  1.0  -0.1876
  C  C200  1  0.042600  0.700200  0.835000  1.0  -0.0495
  C  C201  1  0.225700  0.731500  0.511400  1.0  0.0099
  C  C202  1  0.186500  0.791500  0.477200  1.0  -0.1301
  C  C203  1  0.141500  0.748900  0.499100  1.0  0.1746
  C  C204  1  0.170300  0.592000  0.580500  1.0  0.1594
  C  C205  1  0.217800  0.633600  0.563800  1.0  -0.106
  C  C206  1  0.542900  0.110300  0.775800  1.0  -0.1876
  C  C207  1  0.542600  0.200200  0.835000  1.0  -0.0495
  C  C208  1  0.725700  0.231500  0.511400  1.0  0.0099
  C  C209  1  0.686500  0.291500  0.477200  1.0  -0.1301
  C  C210  1  0.641500  0.248900  0.499100  1.0  0.1746
  C  C211  1  0.670300  0.092000  0.580500  1.0  0.1594
  C  C212  1  0.717800  0.133600  0.563800  1.0  -0.106
  C  C213  1  0.042900  0.389700  0.224200  1.0  -0.1883
  C  C214  1  0.042600  0.299800  0.165000  1.0  -0.0489
  C  C215  1  0.225700  0.268500  0.488600  1.0  0.0092
  C  C216  1  0.186500  0.208500  0.522800  1.0  -0.1294
  C  C217  1  0.141500  0.251100  0.500900  1.0  0.1751
  C  C218  1  0.170300  0.408000  0.419500  1.0  0.1582
  C  C219  1  0.217800  0.366400  0.436200  1.0  -0.1059
  C  C220  1  0.542900  0.889700  0.224200  1.0  -0.1883
  C  C221  1  0.542600  0.799800  0.165000  1.0  -0.0489
  C  C222  1  0.725700  0.768500  0.488600  1.0  0.0092
  C  C223  1  0.686500  0.708500  0.522800  1.0  -0.1294
  C  C224  1  0.641500  0.751100  0.500900  1.0  0.1751
  C  C225  1  0.670300  0.908000  0.419500  1.0  0.1582
  C  C226  1  0.717800  0.866400  0.436200  1.0  -0.1059
  C  C227  1  0.957100  0.110300  0.724200  1.0  -0.1882
  C  C228  1  0.957400  0.200200  0.665000  1.0  -0.0499
  C  C229  1  0.774300  0.231500  0.988600  1.0  0.0104
  C  C230  1  0.813500  0.291500  0.022800  1.0  -0.1293
  C  C231  1  0.858500  0.248900  0.000900  1.0  0.1743
  C  C232  1  0.829700  0.092000  0.919500  1.0  0.1586
  C  C233  1  0.782200  0.133600  0.936200  1.0  -0.1047
  C  C234  1  0.457100  0.610300  0.724200  1.0  -0.1882
  C  C235  1  0.457400  0.700200  0.665000  1.0  -0.0499
  C  C236  1  0.274300  0.731500  0.988600  1.0  0.0104
  C  C237  1  0.313500  0.791500  0.022800  1.0  -0.1293
  C  C238  1  0.358500  0.748900  0.000900  1.0  0.1743
  C  C239  1  0.329700  0.592000  0.919500  1.0  0.1586
  C  C240  1  0.282200  0.633600  0.936200  1.0  -0.1047
  C  C241  1  0.000000  0.244100  0.634100  1.0  -0.2522
  C  C242  1  0.000000  0.064400  0.752400  1.0  -0.0497
  C  C243  1  0.500000  0.744100  0.634100  1.0  -0.2522
  C  C244  1  0.500000  0.564400  0.752400  1.0  -0.0497
  C  C245  1  0.000000  0.255900  0.134100  1.0  -0.252
  C  C246  1  0.000000  0.435600  0.252400  1.0  -0.05
  C  C247  1  0.500000  0.755900  0.134100  1.0  -0.252
  C  C248  1  0.500000  0.935600  0.252400  1.0  -0.05
  C  C249  1  0.000000  0.744100  0.865900  1.0  -0.2516
  C  C250  1  0.000000  0.564400  0.747600  1.0  -0.0503
  C  C251  1  0.500000  0.244100  0.865900  1.0  -0.2516
  C  C252  1  0.500000  0.064400  0.747600  1.0  -0.0503
  C  C253  1  0.000000  0.755900  0.365900  1.0  -0.2504
  C  C254  1  0.000000  0.935600  0.247600  1.0  -0.0506
  C  C255  1  0.500000  0.255900  0.365900  1.0  -0.2504
  C  C256  1  0.500000  0.435600  0.247600  1.0  -0.0506
  N  N257  1  0.134400  0.152700  0.951400  1.0  -0.2952
  N  N258  1  0.634400  0.652700  0.951400  1.0  -0.2952
  N  N259  1  0.865600  0.347300  0.451400  1.0  -0.2929
  N  N260  1  0.365600  0.847300  0.451400  1.0  -0.2929
  N  N261  1  0.865600  0.652700  0.548600  1.0  -0.2922
  N  N262  1  0.365600  0.152700  0.548600  1.0  -0.2922
  N  N263  1  0.134400  0.847300  0.048600  1.0  -0.2937
  N  N264  1  0.634400  0.347300  0.048600  1.0  -0.2937
  N  N265  1  0.865600  0.847300  0.048600  1.0  -0.292
  N  N266  1  0.365600  0.347300  0.048600  1.0  -0.292
  N  N267  1  0.134400  0.652700  0.548600  1.0  -0.2936
  N  N268  1  0.634400  0.152700  0.548600  1.0  -0.2936
  N  N269  1  0.134400  0.347300  0.451400  1.0  -0.2943
  N  N270  1  0.634400  0.847300  0.451400  1.0  -0.2943
  N  N271  1  0.865600  0.152700  0.951400  1.0  -0.2936
  N  N272  1  0.365600  0.652700  0.951400  1.0  -0.2936
  O  O273  1  0.955500  0.327600  0.520700  1.0  -0.7754
  O  O274  1  0.084500  0.014500  0.839100  1.0  -0.8192
  O  O275  1  0.113400  0.909700  0.720700  1.0  -0.5485
  O  O276  1  0.135000  0.165600  0.749600  1.0  -0.5229
  O  O277  1  0.455500  0.827600  0.520700  1.0  -0.7754
  O  O278  1  0.584500  0.514500  0.839100  1.0  -0.8192
  O  O279  1  0.613400  0.409700  0.720700  1.0  -0.5485
  O  O280  1  0.635000  0.665600  0.749600  1.0  -0.5229
  O  O281  1  0.044500  0.172400  0.020700  1.0  -0.7763
  O  O282  1  0.915500  0.485500  0.339100  1.0  -0.8193
  O  O283  1  0.886600  0.590300  0.220700  1.0  -0.5489
  O  O284  1  0.865000  0.334400  0.249600  1.0  -0.5262
  O  O285  1  0.544500  0.672400  0.020700  1.0  -0.7763
  O  O286  1  0.415500  0.985500  0.339100  1.0  -0.8193
  O  O287  1  0.386600  0.090300  0.220700  1.0  -0.5489
  O  O288  1  0.365000  0.834400  0.249600  1.0  -0.5262
  O  O289  1  0.044500  0.827600  0.979300  1.0  -0.7775
  O  O290  1  0.915500  0.514500  0.660900  1.0  -0.8197
  O  O291  1  0.886600  0.409700  0.779300  1.0  -0.5491
  O  O292  1  0.865000  0.665600  0.750400  1.0  -0.5262
  O  O293  1  0.544500  0.327600  0.979300  1.0  -0.7775
  O  O294  1  0.415500  0.014500  0.660900  1.0  -0.8197
  O  O295  1  0.386600  0.909700  0.779300  1.0  -0.5491
  O  O296  1  0.365000  0.165600  0.750400  1.0  -0.5262
  O  O297  1  0.955500  0.672400  0.479300  1.0  -0.7755
  O  O298  1  0.084500  0.985500  0.160900  1.0  -0.8192
  O  O299  1  0.113400  0.090300  0.279300  1.0  -0.5499
  O  O300  1  0.135000  0.834400  0.250400  1.0  -0.5233
  O  O301  1  0.455500  0.172400  0.479300  1.0  -0.7755
  O  O302  1  0.584500  0.485500  0.160900  1.0  -0.8192
  O  O303  1  0.613400  0.590300  0.279300  1.0  -0.5499
  O  O304  1  0.635000  0.334400  0.250400  1.0  -0.5233
  O  O305  1  0.044500  0.672400  0.479300  1.0  -0.7767
  O  O306  1  0.915500  0.985500  0.160900  1.0  -0.8198
  O  O307  1  0.886600  0.090300  0.279300  1.0  -0.5495
  O  O308  1  0.865000  0.834400  0.250400  1.0  -0.5267
  O  O309  1  0.544500  0.172400  0.479300  1.0  -0.7767
  O  O310  1  0.415500  0.485500  0.160900  1.0  -0.8198
  O  O311  1  0.386600  0.590300  0.279300  1.0  -0.5495
  O  O312  1  0.365000  0.334400  0.250400  1.0  -0.5267
  O  O313  1  0.955500  0.827600  0.979300  1.0  -0.7758
  O  O314  1  0.084500  0.514500  0.660900  1.0  -0.8193
  O  O315  1  0.113400  0.409700  0.779300  1.0  -0.5492
  O  O316  1  0.135000  0.665600  0.750400  1.0  -0.5231
  O  O317  1  0.455500  0.327600  0.979300  1.0  -0.7758
  O  O318  1  0.584500  0.014500  0.660900  1.0  -0.8193
  O  O319  1  0.613400  0.909700  0.779300  1.0  -0.5492
  O  O320  1  0.635000  0.165600  0.750400  1.0  -0.5231
  O  O321  1  0.955500  0.172400  0.020700  1.0  -0.7747
  O  O322  1  0.084500  0.485500  0.339100  1.0  -0.8189
  O  O323  1  0.113400  0.590300  0.220700  1.0  -0.5491
  O  O324  1  0.135000  0.334400  0.249600  1.0  -0.5235
  O  O325  1  0.455500  0.672400  0.020700  1.0  -0.7747
  O  O326  1  0.584500  0.985500  0.339100  1.0  -0.8189
  O  O327  1  0.613400  0.090300  0.220700  1.0  -0.5491
  O  O328  1  0.635000  0.834400  0.249600  1.0  -0.5235
  O  O329  1  0.044500  0.327600  0.520700  1.0  -0.7772
  O  O330  1  0.915500  0.014500  0.839100  1.0  -0.8195
  O  O331  1  0.886600  0.909700  0.720700  1.0  -0.5489
  O  O332  1  0.865000  0.165600  0.749600  1.0  -0.5261
  O  O333  1  0.544500  0.827600  0.520700  1.0  -0.7772
  O  O334  1  0.415500  0.514500  0.839100  1.0  -0.8195
  O  O335  1  0.386600  0.409700  0.720700  1.0  -0.5489
  O  O336  1  0.365000  0.665600  0.749600  1.0  -0.5261
  O  O337  1  0.000000  0.518800  0.582900  1.0  -0.8107
  O  O338  1  0.500000  0.018800  0.582900  1.0  -0.8107
  O  O339  1  0.000000  0.981200  0.082900  1.0  -0.8105
  O  O340  1  0.500000  0.481200  0.082900  1.0  -0.8105
  O  O341  1  0.000000  0.018800  0.917100  1.0  -0.8105
  O  O342  1  0.500000  0.518800  0.917100  1.0  -0.8105
  O  O343  1  0.000000  0.481200  0.417100  1.0  -0.8101
  O  O344  1  0.500000  0.981200  0.417100  1.0  -0.8101
