# generated using pymatgen
data_CoH30(C3N)12
_symmetry_space_group_name_H-M   'P 1'
_cell_length_a   8.09600000
_cell_length_b   21.50700000
_cell_length_c   13.93500000
_cell_angle_alpha   90.00000000
_cell_angle_beta   111.81000000
_cell_angle_gamma   90.00000000
_symmetry_Int_Tables_number   1
_chemical_formula_structural   CoH30(C3N)12
_chemical_formula_sum   'Co2 H60 C72 N24'
_cell_volume   2252.69430641
_cell_formula_units_Z   2
loop_
 _symmetry_equiv_pos_site_id
 _symmetry_equiv_pos_as_xyz
  1  'x, y, z'
loop_
 _atom_site_type_symbol
 _atom_site_label
 _atom_site_symmetry_multiplicity
 _atom_site_fract_x
 _atom_site_fract_y
 _atom_site_fract_z
 _atom_site_occupancy
 _atom_site_charge
  Co  Co1  1  0.000000  0.500000  0.500000  1.0  0.6864
  Co  Co2  1  0.000000  0.000000  0.000000  1.0  0.6864
  H  H3  1  0.831700  0.631400  0.381400  1.0  0.0874
  H  H4  1  0.566000  0.477300  0.366700  1.0  0.0864
  H  H5  1  0.359600  0.551700  0.250500  1.0  0.1073
  H  H6  1  0.264500  0.664900  0.252700  1.0  0.0945
  H  H7  1  0.728000  0.690500  0.214800  1.0  0.1089
  H  H8  1  0.619900  0.782900  0.127800  1.0  0.1006
  H  H9  1  0.099300  0.474800  0.751600  1.0  0.0807
  H  H10  1  0.753800  0.596600  0.583100  1.0  0.0867
  H  H11  1  0.744300  0.600600  0.755800  1.0  0.1207
  H  H12  1  0.041900  0.426100  0.890100  1.0  0.0988
  H  H13  1  0.904900  0.599400  0.939200  1.0  0.1094
  H  H14  1  0.133400  0.868600  0.130000  1.0  0.0782
  H  H15  1  0.256500  0.925400  0.898300  1.0  0.0848
  H  H16  1  0.430200  0.831500  0.965700  1.0  0.1233
  H  H17  1  0.153300  0.755300  0.159900  1.0  0.1091
  H  H18  1  0.168300  0.131400  0.118600  1.0  0.0872
  H  H19  1  0.434000  0.977300  0.133300  1.0  0.087
  H  H20  1  0.640400  0.051700  0.249500  1.0  0.1081
  H  H21  1  0.735500  0.164900  0.247300  1.0  0.0949
  H  H22  1  0.272000  0.190500  0.285200  1.0  0.109
  H  H23  1  0.380100  0.282900  0.372200  1.0  0.1
  H  H24  1  0.900700  0.974800  0.748400  1.0  0.0806
  H  H25  1  0.246200  0.096600  0.916900  1.0  0.0868
  H  H26  1  0.255700  0.100600  0.744200  1.0  0.1206
  H  H27  1  0.958100  0.926100  0.609900  1.0  0.0978
  H  H28  1  0.095100  0.099400  0.560800  1.0  0.1097
  H  H29  1  0.866600  0.368600  0.370000  1.0  0.079
  H  H30  1  0.743500  0.425400  0.601700  1.0  0.0858
  H  H31  1  0.569800  0.331500  0.534300  1.0  0.1234
  H  H32  1  0.846700  0.255300  0.340100  1.0  0.109
  H  H33  1  0.168300  0.368600  0.618600  1.0  0.0875
  H  H34  1  0.434000  0.522700  0.633300  1.0  0.0868
  H  H35  1  0.640400  0.448300  0.749500  1.0  0.1077
  H  H36  1  0.735500  0.335100  0.747300  1.0  0.0946
  H  H37  1  0.272000  0.309500  0.785200  1.0  0.1091
  H  H38  1  0.380100  0.217100  0.872200  1.0  0.1002
  H  H39  1  0.900700  0.525200  0.248400  1.0  0.0813
  H  H40  1  0.246200  0.403400  0.416900  1.0  0.0867
  H  H41  1  0.255700  0.399400  0.244200  1.0  0.1203
  H  H42  1  0.958100  0.573900  0.109900  1.0  0.0979
  H  H43  1  0.095100  0.400600  0.060800  1.0  0.1097
  H  H44  1  0.866600  0.131400  0.870000  1.0  0.0795
  H  H45  1  0.743500  0.074600  0.101700  1.0  0.0861
  H  H46  1  0.569800  0.168500  0.034300  1.0  0.1233
  H  H47  1  0.846700  0.244700  0.840100  1.0  0.1087
  H  H48  1  0.831700  0.868600  0.881400  1.0  0.0879
  H  H49  1  0.566000  0.022700  0.866700  1.0  0.0861
  H  H50  1  0.359600  0.948300  0.750500  1.0  0.1071
  H  H51  1  0.264500  0.835100  0.752700  1.0  0.0944
  H  H52  1  0.728000  0.809500  0.714800  1.0  0.109
  H  H53  1  0.619900  0.717100  0.627800  1.0  0.1009
  H  H54  1  0.099300  0.025200  0.251600  1.0  0.0804
  H  H55  1  0.753800  0.903400  0.083100  1.0  0.086
  H  H56  1  0.744300  0.899400  0.255800  1.0  0.1207
  H  H57  1  0.041900  0.073900  0.390100  1.0  0.0989
  H  H58  1  0.904900  0.900600  0.439200  1.0  0.1093
  H  H59  1  0.133400  0.631400  0.630000  1.0  0.0785
  H  H60  1  0.256500  0.574600  0.398300  1.0  0.0854
  H  H61  1  0.430200  0.668500  0.465700  1.0  0.1237
  H  H62  1  0.153300  0.744700  0.659900  1.0  0.1089
  C  C63  1  0.741100  0.601950  0.363500  1.0  0.1355
  C  C64  1  0.594000  0.517800  0.354700  1.0  0.0168
  C  C65  1  0.478800  0.558660  0.290600  1.0  -0.1448
  C  C66  1  0.506200  0.669290  0.242000  1.0  0.1555
  C  C67  1  0.334800  0.688280  0.226500  1.0  -0.2074
  C  C68  1  0.613400  0.703850  0.204500  1.0  -0.1848
  C  C69  1  0.548100  0.758500  0.151600  1.0  -0.2162
  C  C70  1  0.011600  0.505260  0.730510  1.0  0.1259
  C  C71  1  0.822400  0.572310  0.638900  1.0  0.0175
  C  C72  1  0.815600  0.574690  0.734100  1.0  -0.1625
  C  C73  1  0.969000  0.515180  0.898570  1.0  0.1336
  C  C74  1  0.025300  0.455640  0.934400  1.0  -0.181
  C  C75  1  0.943100  0.559640  0.963700  1.0  -0.1757
  C  C76  1  0.184900  0.871450  0.080600  1.0  0.1275
  C  C77  1  0.253300  0.902060  0.953800  1.0  0.012
  C  C78  1  0.350300  0.850230  0.990400  1.0  -0.1397
  C  C79  1  0.375700  0.776660  0.134200  1.0  0.1594
  C  C80  1  0.268700  0.742330  0.171500  1.0  -0.1771
  C  C81  1  0.258900  0.101950  0.136500  1.0  0.1346
  C  C82  1  0.406000  0.017800  0.145300  1.0  0.017
  C  C83  1  0.521200  0.058660  0.209400  1.0  -0.1431
  C  C84  1  0.493800  0.169290  0.258000  1.0  0.1555
  C  C85  1  0.665200  0.188280  0.273500  1.0  -0.207
  C  C86  1  0.386600  0.203850  0.295500  1.0  -0.185
  C  C87  1  0.451900  0.258500  0.348400  1.0  -0.2173
  C  C88  1  0.988400  0.005260  0.769490  1.0  0.1261
  C  C89  1  0.177600  0.072310  0.861100  1.0  0.0175
  C  C90  1  0.184400  0.074690  0.765900  1.0  -0.163
  C  C91  1  0.031000  0.015180  0.601430  1.0  0.1345
  C  C92  1  0.974700  0.955640  0.565600  1.0  -0.1804
  C  C93  1  0.056900  0.059640  0.536300  1.0  -0.1752
  C  C94  1  0.815100  0.371450  0.419400  1.0  0.1284
  C  C95  1  0.746700  0.402060  0.546200  1.0  0.0099
  C  C96  1  0.649700  0.350230  0.509600  1.0  -0.1394
  C  C97  1  0.624300  0.276660  0.365800  1.0  0.1593
  C  C98  1  0.731300  0.242330  0.328500  1.0  -0.1778
  C  C99  1  0.258900  0.398050  0.636500  1.0  0.1356
  C  C100  1  0.406000  0.482200  0.645300  1.0  0.0171
  C  C101  1  0.521200  0.441340  0.709400  1.0  -0.1433
  C  C102  1  0.493800  0.330710  0.758000  1.0  0.1555
  C  C103  1  0.665200  0.311720  0.773500  1.0  -0.2064
  C  C104  1  0.386600  0.296150  0.795500  1.0  -0.1848
  C  C105  1  0.451900  0.241500  0.848400  1.0  -0.218
  C  C106  1  0.988400  0.494740  0.269490  1.0  0.126
  C  C107  1  0.177600  0.427690  0.361100  1.0  0.0179
  C  C108  1  0.184400  0.425310  0.265900  1.0  -0.1638
  C  C109  1  0.031000  0.484820  0.101430  1.0  0.1345
  C  C110  1  0.974700  0.544360  0.065600  1.0  -0.1819
  C  C111  1  0.056900  0.440360  0.036300  1.0  -0.1769
  C  C112  1  0.815100  0.128550  0.919400  1.0  0.1282
  C  C113  1  0.746700  0.097940  0.046200  1.0  0.0094
  C  C114  1  0.649700  0.149770  0.009600  1.0  -0.1391
  C  C115  1  0.624300  0.223340  0.865800  1.0  0.1593
  C  C116  1  0.731300  0.257670  0.828500  1.0  -0.1777
  C  C117  1  0.741100  0.898050  0.863500  1.0  0.1362
  C  C118  1  0.594000  0.982200  0.854700  1.0  0.0158
  C  C119  1  0.478800  0.941340  0.790600  1.0  -0.1451
  C  C120  1  0.506200  0.830710  0.742000  1.0  0.1555
  C  C121  1  0.334800  0.811720  0.726500  1.0  -0.2069
  C  C122  1  0.613400  0.796150  0.704500  1.0  -0.1849
  C  C123  1  0.548100  0.741500  0.651600  1.0  -0.2166
  C  C124  1  0.011600  0.994740  0.230510  1.0  0.1261
  C  C125  1  0.822400  0.927690  0.138900  1.0  0.0182
  C  C126  1  0.815600  0.925310  0.234100  1.0  -0.1617
  C  C127  1  0.969000  0.984820  0.398570  1.0  0.1336
  C  C128  1  0.025300  0.044360  0.434400  1.0  -0.1823
  C  C129  1  0.943100  0.940360  0.463700  1.0  -0.176
  C  C130  1  0.184900  0.628550  0.580600  1.0  0.1285
  C  C131  1  0.253300  0.597940  0.453800  1.0  0.0104
  C  C132  1  0.350300  0.649770  0.490400  1.0  -0.1389
  C  C133  1  0.375700  0.723340  0.634200  1.0  0.1592
  C  C134  1  0.268700  0.757670  0.671500  1.0  -0.1771
  N  N135  1  0.760400  0.545060  0.399940  1.0  -0.3799
  N  N136  1  0.573200  0.612580  0.296650  1.0  0.0255
  N  N137  1  0.946000  0.528620  0.636240  1.0  -0.4095
  N  N138  1  0.935600  0.531080  0.792800  1.0  0.0111
  N  N139  1  0.148600  0.915600  0.010080  1.0  -0.3855
  N  N140  1  0.306200  0.830740  0.072220  1.0  0.0215
  N  N141  1  0.239600  0.045060  0.100060  1.0  -0.3785
  N  N142  1  0.426800  0.112580  0.203350  1.0  0.0246
  N  N143  1  0.054000  0.028620  0.863760  1.0  -0.41
  N  N144  1  0.064400  0.031080  0.707200  1.0  0.0128
  N  N145  1  0.851400  0.415600  0.489920  1.0  -0.3856
  N  N146  1  0.693800  0.330740  0.427780  1.0  0.0218
  N  N147  1  0.239600  0.454940  0.600060  1.0  -0.3781
  N  N148  1  0.426800  0.387420  0.703350  1.0  0.0255
  N  N149  1  0.054000  0.471380  0.363760  1.0  -0.4099
  N  N150  1  0.064400  0.468920  0.207200  1.0  0.0127
  N  N151  1  0.851400  0.084400  0.989920  1.0  -0.3865
  N  N152  1  0.693800  0.169260  0.927780  1.0  0.0228
  N  N153  1  0.760400  0.954940  0.899940  1.0  -0.3793
  N  N154  1  0.573200  0.887420  0.796650  1.0  0.0256
  N  N155  1  0.946000  0.971380  0.136240  1.0  -0.4094
  N  N156  1  0.935600  0.968920  0.292800  1.0  0.0121
  N  N157  1  0.148600  0.584400  0.510080  1.0  -0.3864
  N  N158  1  0.306200  0.669260  0.572220  1.0  0.0225
