# generated using pymatgen
data_Ag3H14(C2N)8
_symmetry_space_group_name_H-M   'P 1'
_cell_length_a   24.98000000
_cell_length_b   19.32700000
_cell_length_c   21.40700000
_cell_angle_alpha   90.00000000
_cell_angle_beta   96.01900000
_cell_angle_gamma   90.00000000
_symmetry_Int_Tables_number   1
_chemical_formula_structural   Ag3H14(C2N)8
_chemical_formula_sum   'Ag48 H224 C256 N128'
_cell_volume   10278.07725535
_cell_formula_units_Z   16
loop_
 _symmetry_equiv_pos_site_id
 _symmetry_equiv_pos_as_xyz
  1  'x, y, z'
loop_
 _atom_site_type_symbol
 _atom_site_label
 _atom_site_symmetry_multiplicity
 _atom_site_fract_x
 _atom_site_fract_y
 _atom_site_fract_z
 _atom_site_occupancy
 _atom_site_charge
  Ag  Ag1  1  0.989430  0.206350  0.276450  1.0  0.2712
  Ag  Ag2  1  0.058970  0.518420  0.234510  1.0  0.4151
  Ag  Ag3  1  0.733340  0.328360  0.925300  1.0  0.2975
  Ag  Ag4  1  0.593440  0.218580  0.874760  1.0  0.3013
  Ag  Ag5  1  0.537190  0.286860  0.715460  1.0  0.2687
  Ag  Ag6  1  0.553250  0.481020  0.730530  1.0  0.3784
  Ag  Ag7  1  0.491250  0.567150  0.566020  1.0  0.3096
  Ag  Ag8  1  0.194520  0.712680  0.448010  1.0  0.357
  Ag  Ag9  1  0.921690  0.292050  0.122490  1.0  0.3545
  Ag  Ag10  1  0.021150  0.936050  0.439580  1.0  1.1337
  Ag  Ag11  1  0.069280  0.979300  0.443270  1.0  0.8115
  Ag  Ag12  1  0.970420  0.912800  0.436470  1.0  0.8648
  Ag  Ag13  1  0.010570  0.706350  0.223550  1.0  0.2716
  Ag  Ag14  1  0.941030  0.018420  0.265490  1.0  0.4151
  Ag  Ag15  1  0.266660  0.828360  0.574700  1.0  0.2952
  Ag  Ag16  1  0.406560  0.718580  0.625240  1.0  0.3032
  Ag  Ag17  1  0.462810  0.786860  0.784540  1.0  0.2677
  Ag  Ag18  1  0.446750  0.981020  0.769470  1.0  0.3801
  Ag  Ag19  1  0.508750  0.067150  0.933980  1.0  0.3093
  Ag  Ag20  1  0.805480  0.212680  0.051990  1.0  0.3561
  Ag  Ag21  1  0.078310  0.792050  0.377510  1.0  0.3538
  Ag  Ag22  1  0.978850  0.436050  0.060420  1.0  1.1353
  Ag  Ag23  1  0.930720  0.479300  0.056730  1.0  0.8102
  Ag  Ag24  1  0.029580  0.412800  0.063530  1.0  0.8606
  Ag  Ag25  1  0.010570  0.793650  0.723550  1.0  0.2721
  Ag  Ag26  1  0.941030  0.481580  0.765490  1.0  0.4151
  Ag  Ag27  1  0.266660  0.671640  0.074700  1.0  0.2957
  Ag  Ag28  1  0.406560  0.781420  0.125240  1.0  0.3026
  Ag  Ag29  1  0.462810  0.713140  0.284540  1.0  0.2677
  Ag  Ag30  1  0.446750  0.518980  0.269470  1.0  0.3806
  Ag  Ag31  1  0.508750  0.432850  0.433980  1.0  0.3104
  Ag  Ag32  1  0.805480  0.287320  0.551990  1.0  0.3546
  Ag  Ag33  1  0.078310  0.707950  0.877510  1.0  0.3543
  Ag  Ag34  1  0.978850  0.063950  0.560420  1.0  1.1363
  Ag  Ag35  1  0.930720  0.020700  0.556730  1.0  0.8059
  Ag  Ag36  1  0.029580  0.087200  0.563530  1.0  0.8629
  Ag  Ag37  1  0.989430  0.293650  0.776450  1.0  0.2715
  Ag  Ag38  1  0.058970  0.981580  0.734510  1.0  0.4143
  Ag  Ag39  1  0.733340  0.171640  0.425300  1.0  0.2973
  Ag  Ag40  1  0.593440  0.281420  0.374760  1.0  0.3007
  Ag  Ag41  1  0.537190  0.213140  0.215460  1.0  0.2688
  Ag  Ag42  1  0.553250  0.018980  0.230530  1.0  0.3795
  Ag  Ag43  1  0.491250  0.932850  0.066020  1.0  0.3108
  Ag  Ag44  1  0.194520  0.787320  0.948010  1.0  0.3561
  Ag  Ag45  1  0.921690  0.207950  0.622490  1.0  0.3558
  Ag  Ag46  1  0.021150  0.563950  0.939580  1.0  1.1347
  Ag  Ag47  1  0.069280  0.520700  0.943270  1.0  0.8085
  Ag  Ag48  1  0.970420  0.587200  0.936470  1.0  0.8666
  H  H49  1  0.562700  0.721900  0.841200  1.0  0.1008
  H  H50  1  0.585400  0.608200  0.996000  1.0  0.0824
  H  H51  1  0.537000  0.518900  0.947500  1.0  0.1007
  H  H52  1  0.505600  0.528300  0.841800  1.0  0.0943
  H  H53  1  0.620100  0.721300  0.000300  1.0  0.1129
  H  H54  1  0.586200  0.774000  0.956900  1.0  0.1136
  H  H55  1  0.640200  0.744500  0.936600  1.0  0.1119
  H  H56  1  0.594600  0.243300  0.606300  1.0  0.0945
  H  H57  1  0.613700  0.138800  0.557100  1.0  0.0876
  H  H58  1  0.567300  0.108200  0.465500  1.0  0.0836
  H  H59  1  0.486100  0.286900  0.460200  1.0  0.0874
  H  H60  1  0.498400  0.124700  0.382300  1.0  0.1145
  H  H61  1  0.488400  0.201800  0.361700  1.0  0.116
  H  H62  1  0.449600  0.165600  0.404400  1.0  0.1097
  H  H63  1  0.647500  0.547100  0.793800  1.0  0.0815
  H  H64  1  0.728000  0.650400  0.936500  1.0  0.0982
  H  H65  1  0.727200  0.555100  0.998600  1.0  0.0891
  H  H66  1  0.688900  0.454100  0.960100  1.0  0.1012
  H  H67  1  0.704700  0.710200  0.835700  1.0  0.1053
  H  H68  1  0.650400  0.683000  0.800900  1.0  0.1148
  H  H69  1  0.705400  0.659900  0.778400  1.0  0.102
  H  H70  1  0.874100  0.538800  0.979300  1.0  0.0767
  H  H71  1  0.829200  0.605200  0.806800  1.0  0.0761
  H  H72  1  0.810900  0.490600  0.775400  1.0  0.0878
  H  H73  1  0.811800  0.406400  0.849100  1.0  0.1015
  H  H74  1  0.881400  0.659300  0.959900  1.0  0.11
  H  H75  1  0.835900  0.685500  0.909600  1.0  0.1029
  H  H76  1  0.894400  0.674700  0.891200  1.0  0.0959
  H  H77  1  0.011100  0.458900  0.338100  1.0  0.1051
  H  H78  1  0.043900  0.471100  0.444000  1.0  0.0868
  H  H79  1  0.098700  0.389600  0.492200  1.0  0.0763
  H  H80  1  0.090800  0.280500  0.335700  1.0  0.0968
  H  H81  1  0.148500  0.293800  0.497100  1.0  0.0999
  H  H82  1  0.171500  0.273500  0.434300  1.0  0.0951
  H  H83  1  0.121400  0.234300  0.455200  1.0  0.1033
  H  H84  1  0.185600  0.578100  0.464400  1.0  0.0704
  H  H85  1  0.239300  0.490600  0.506400  1.0  0.0923
  H  H86  1  0.252300  0.393200  0.447600  1.0  0.0967
  H  H87  1  0.157900  0.470100  0.305500  1.0  0.0751
  H  H88  1  0.198100  0.366600  0.290700  1.0  0.1033
  H  H89  1  0.206400  0.320700  0.351200  1.0  0.094
  H  H90  1  0.255500  0.359500  0.327300  1.0  0.1075
  H  H91  1  0.739000  0.211400  0.146300  1.0  0.0944
  H  H92  1  0.723800  0.060600  0.272500  1.0  0.0706
  H  H93  1  0.675500  0.994600  0.195500  1.0  0.0874
  H  H94  1  0.659000  0.037000  0.093900  1.0  0.0995
  H  H95  1  0.780600  0.172900  0.304200  1.0  0.1047
  H  H96  1  0.758100  0.237500  0.265600  1.0  0.1036
  H  H97  1  0.808900  0.198400  0.246400  1.0  0.1013
  H  H98  1  0.019800  0.222300  0.532300  1.0  0.0818
  H  H99  1  0.933000  0.396700  0.506600  1.0  0.0762
  H  H100  1  0.895100  0.357300  0.410100  1.0  0.1042
  H  H101  1  0.918600  0.251400  0.375600  1.0  0.0886
  H  H102  1  0.997700  0.387800  0.600300  1.0  0.1204
  H  H103  1  0.005600  0.311600  0.624800  1.0  0.1209
  H  H104  1  0.049000  0.345900  0.586900  1.0  0.1061
  H  H105  1  0.437300  0.221900  0.658800  1.0  0.1022
  H  H106  1  0.414600  0.108200  0.504000  1.0  0.0835
  H  H107  1  0.463000  0.018900  0.552500  1.0  0.1002
  H  H108  1  0.494400  0.028300  0.658200  1.0  0.0945
  H  H109  1  0.379900  0.221300  0.499700  1.0  0.1122
  H  H110  1  0.413800  0.274000  0.543100  1.0  0.1125
  H  H111  1  0.359800  0.244500  0.563400  1.0  0.1126
  H  H112  1  0.405400  0.743300  0.893700  1.0  0.0945
  H  H113  1  0.386300  0.638800  0.942900  1.0  0.0873
  H  H114  1  0.432700  0.608200  0.034500  1.0  0.0837
  H  H115  1  0.513900  0.786900  0.039800  1.0  0.0871
  H  H116  1  0.501600  0.624700  0.117700  1.0  0.1151
  H  H117  1  0.511600  0.701800  0.138300  1.0  0.1167
  H  H118  1  0.550400  0.665600  0.095600  1.0  0.1086
  H  H119  1  0.352500  0.047100  0.706200  1.0  0.0807
  H  H120  1  0.272000  0.150400  0.563500  1.0  0.098
  H  H121  1  0.272800  0.055100  0.501400  1.0  0.0891
  H  H122  1  0.311100  0.954100  0.539900  1.0  0.1009
  H  H123  1  0.295300  0.210200  0.664300  1.0  0.1072
  H  H124  1  0.349600  0.183000  0.699100  1.0  0.1149
  H  H125  1  0.294600  0.159900  0.721600  1.0  0.1021
  H  H126  1  0.125900  0.038800  0.520700  1.0  0.0758
  H  H127  1  0.170800  0.105200  0.693200  1.0  0.0764
  H  H128  1  0.189100  0.990600  0.724600  1.0  0.0873
  H  H129  1  0.188200  0.906400  0.650900  1.0  0.1017
  H  H130  1  0.118600  0.159300  0.540100  1.0  0.1103
  H  H131  1  0.164100  0.185500  0.590400  1.0  0.1026
  H  H132  1  0.105600  0.174700  0.608800  1.0  0.0966
  H  H133  1  0.988900  0.958900  0.161900  1.0  0.1047
  H  H134  1  0.956100  0.971100  0.056000  1.0  0.0868
  H  H135  1  0.901300  0.889600  0.007800  1.0  0.0764
  H  H136  1  0.909200  0.780500  0.164300  1.0  0.0969
  H  H137  1  0.851500  0.793800  0.002900  1.0  0.1002
  H  H138  1  0.828500  0.773500  0.065700  1.0  0.0966
  H  H139  1  0.878600  0.734300  0.044800  1.0  0.1022
  H  H140  1  0.814400  0.078100  0.035600  1.0  0.0716
  H  H141  1  0.760700  0.990600  0.993600  1.0  0.0928
  H  H142  1  0.747700  0.893200  0.052400  1.0  0.0963
  H  H143  1  0.842100  0.970100  0.194500  1.0  0.075
  H  H144  1  0.801900  0.866600  0.209300  1.0  0.1035
  H  H145  1  0.793600  0.820700  0.148800  1.0  0.0924
  H  H146  1  0.744500  0.859500  0.172700  1.0  0.1076
  H  H147  1  0.261000  0.711400  0.353700  1.0  0.0948
  H  H148  1  0.276200  0.560600  0.227500  1.0  0.0709
  H  H149  1  0.324500  0.494600  0.304500  1.0  0.0881
  H  H150  1  0.341000  0.537000  0.406100  1.0  0.0993
  H  H151  1  0.219400  0.672900  0.195800  1.0  0.1035
  H  H152  1  0.241900  0.737500  0.234400  1.0  0.105
  H  H153  1  0.191100  0.698400  0.253600  1.0  0.1017
  H  H154  1  0.980200  0.722300  0.967700  1.0  0.0816
  H  H155  1  0.067000  0.896700  0.993400  1.0  0.0762
  H  H156  1  0.104900  0.857300  0.089900  1.0  0.1035
  H  H157  1  0.081400  0.751400  0.124400  1.0  0.0878
  H  H158  1  0.002300  0.887800  0.899700  1.0  0.1209
  H  H159  1  0.994400  0.811600  0.875200  1.0  0.1228
  H  H160  1  0.951000  0.845900  0.913100  1.0  0.1088
  H  H161  1  0.437300  0.278100  0.158800  1.0  0.1037
  H  H162  1  0.414600  0.391800  0.004000  1.0  0.0836
  H  H163  1  0.463000  0.481100  0.052500  1.0  0.1003
  H  H164  1  0.494400  0.471700  0.158200  1.0  0.0945
  H  H165  1  0.379900  0.278700  0.999700  1.0  0.112
  H  H166  1  0.413800  0.226000  0.043100  1.0  0.1125
  H  H167  1  0.359800  0.255500  0.063400  1.0  0.1128
  H  H168  1  0.405400  0.756700  0.393700  1.0  0.0944
  H  H169  1  0.386300  0.861200  0.442900  1.0  0.088
  H  H170  1  0.432700  0.891800  0.534500  1.0  0.0841
  H  H171  1  0.513900  0.713100  0.539800  1.0  0.0875
  H  H172  1  0.501600  0.875300  0.617700  1.0  0.1142
  H  H173  1  0.511600  0.798200  0.638300  1.0  0.1168
  H  H174  1  0.550400  0.834400  0.595600  1.0  0.1092
  H  H175  1  0.352500  0.452900  0.206200  1.0  0.0809
  H  H176  1  0.272000  0.349600  0.063500  1.0  0.0981
  H  H177  1  0.272800  0.444900  0.001400  1.0  0.089
  H  H178  1  0.311100  0.545900  0.039900  1.0  0.1015
  H  H179  1  0.295300  0.289800  0.164300  1.0  0.1036
  H  H180  1  0.349600  0.317000  0.199100  1.0  0.114
  H  H181  1  0.294600  0.340100  0.221600  1.0  0.1043
  H  H182  1  0.125900  0.461200  0.020700  1.0  0.0757
  H  H183  1  0.170800  0.394800  0.193200  1.0  0.0772
  H  H184  1  0.189100  0.509400  0.224600  1.0  0.0873
  H  H185  1  0.188200  0.593600  0.150900  1.0  0.1026
  H  H186  1  0.118600  0.340700  0.040100  1.0  0.1103
  H  H187  1  0.164100  0.314500  0.090400  1.0  0.1032
  H  H188  1  0.105600  0.325300  0.108800  1.0  0.0966
  H  H189  1  0.988900  0.541100  0.661900  1.0  0.1053
  H  H190  1  0.956100  0.528900  0.556000  1.0  0.0864
  H  H191  1  0.901300  0.610400  0.507800  1.0  0.0762
  H  H192  1  0.909200  0.719500  0.664300  1.0  0.0961
  H  H193  1  0.851500  0.706200  0.502900  1.0  0.1008
  H  H194  1  0.828500  0.726500  0.565700  1.0  0.0961
  H  H195  1  0.878600  0.765700  0.544800  1.0  0.1037
  H  H196  1  0.814400  0.421900  0.535600  1.0  0.0714
  H  H197  1  0.760700  0.509400  0.493600  1.0  0.0931
  H  H198  1  0.747700  0.606800  0.552400  1.0  0.0969
  H  H199  1  0.842100  0.529900  0.694500  1.0  0.075
  H  H200  1  0.801900  0.633400  0.709300  1.0  0.1031
  H  H201  1  0.793600  0.679300  0.648800  1.0  0.0951
  H  H202  1  0.744500  0.640500  0.672700  1.0  0.1079
  H  H203  1  0.261000  0.788600  0.853700  1.0  0.0948
  H  H204  1  0.276200  0.939400  0.727500  1.0  0.0706
  H  H205  1  0.324500  0.005400  0.804500  1.0  0.0877
  H  H206  1  0.341000  0.963000  0.906100  1.0  0.0995
  H  H207  1  0.219400  0.827100  0.695800  1.0  0.1085
  H  H208  1  0.241900  0.762500  0.734400  1.0  0.1013
  H  H209  1  0.191100  0.801600  0.753600  1.0  0.1024
  H  H210  1  0.980200  0.777700  0.467700  1.0  0.0821
  H  H211  1  0.067000  0.603300  0.493400  1.0  0.0765
  H  H212  1  0.104900  0.642700  0.589900  1.0  0.1037
  H  H213  1  0.081400  0.748600  0.624400  1.0  0.0882
  H  H214  1  0.002300  0.612200  0.399700  1.0  0.119
  H  H215  1  0.994400  0.688400  0.375200  1.0  0.1224
  H  H216  1  0.951000  0.654100  0.413100  1.0  0.1085
  H  H217  1  0.562700  0.778100  0.341200  1.0  0.1024
  H  H218  1  0.585400  0.891800  0.496000  1.0  0.0827
  H  H219  1  0.537000  0.981100  0.447500  1.0  0.1001
  H  H220  1  0.505600  0.971700  0.341800  1.0  0.095
  H  H221  1  0.620100  0.778700  0.500300  1.0  0.1132
  H  H222  1  0.586200  0.726000  0.456900  1.0  0.1132
  H  H223  1  0.640200  0.755500  0.436600  1.0  0.1111
  H  H224  1  0.594600  0.256700  0.106300  1.0  0.0942
  H  H225  1  0.613700  0.361200  0.057100  1.0  0.0874
  H  H226  1  0.567300  0.391800  0.965500  1.0  0.0839
  H  H227  1  0.486100  0.213100  0.960200  1.0  0.0873
  H  H228  1  0.498400  0.375300  0.882300  1.0  0.1149
  H  H229  1  0.488400  0.298200  0.861700  1.0  0.1153
  H  H230  1  0.449600  0.334400  0.904400  1.0  0.1101
  H  H231  1  0.647500  0.952900  0.293800  1.0  0.0813
  H  H232  1  0.728000  0.849600  0.436500  1.0  0.0982
  H  H233  1  0.727200  0.944900  0.498600  1.0  0.0891
  H  H234  1  0.688900  0.045900  0.460100  1.0  0.1006
  H  H235  1  0.704700  0.789800  0.335700  1.0  0.1041
  H  H236  1  0.650400  0.817000  0.300900  1.0  0.1145
  H  H237  1  0.705400  0.840100  0.278400  1.0  0.1034
  H  H238  1  0.874100  0.961200  0.479300  1.0  0.0766
  H  H239  1  0.829200  0.894800  0.306800  1.0  0.0777
  H  H240  1  0.810900  0.009400  0.275400  1.0  0.0878
  H  H241  1  0.811800  0.093600  0.349100  1.0  0.102
  H  H242  1  0.881400  0.840700  0.459900  1.0  0.1102
  H  H243  1  0.835900  0.814500  0.409600  1.0  0.1021
  H  H244  1  0.894400  0.825300  0.391200  1.0  0.0954
  H  H245  1  0.011100  0.041100  0.838100  1.0  0.1046
  H  H246  1  0.043900  0.028900  0.944000  1.0  0.087
  H  H247  1  0.098700  0.110400  0.992200  1.0  0.0759
  H  H248  1  0.090800  0.219500  0.835700  1.0  0.0962
  H  H249  1  0.148500  0.206200  0.997100  1.0  0.0997
  H  H250  1  0.171500  0.226500  0.934300  1.0  0.0952
  H  H251  1  0.121400  0.265700  0.955200  1.0  0.1061
  H  H252  1  0.185600  0.921900  0.964400  1.0  0.0708
  H  H253  1  0.239300  0.009400  0.006400  1.0  0.0926
  H  H254  1  0.252300  0.106800  0.947600  1.0  0.0966
  H  H255  1  0.157900  0.029900  0.805500  1.0  0.0754
  H  H256  1  0.198100  0.133400  0.790700  1.0  0.102
  H  H257  1  0.206400  0.179300  0.851200  1.0  0.0952
  H  H258  1  0.255500  0.140500  0.827300  1.0  0.108
  H  H259  1  0.739000  0.288600  0.646300  1.0  0.0949
  H  H260  1  0.723800  0.439400  0.772500  1.0  0.0706
  H  H261  1  0.675500  0.505400  0.695500  1.0  0.0877
  H  H262  1  0.659000  0.463000  0.593900  1.0  0.0996
  H  H263  1  0.780600  0.327100  0.804200  1.0  0.1066
  H  H264  1  0.758100  0.262500  0.765600  1.0  0.1011
  H  H265  1  0.808900  0.301600  0.746400  1.0  0.1004
  H  H266  1  0.019800  0.277700  0.032300  1.0  0.0818
  H  H267  1  0.933000  0.103300  0.006600  1.0  0.0765
  H  H268  1  0.895100  0.142700  0.910100  1.0  0.1035
  H  H269  1  0.918600  0.248600  0.875600  1.0  0.0888
  H  H270  1  0.997700  0.112200  0.100300  1.0  0.1213
  H  H271  1  0.005600  0.188400  0.124800  1.0  0.1206
  H  H272  1  0.049000  0.154100  0.086900  1.0  0.1061
  C  C273  1  0.514000  0.633600  0.763800  1.0  0.3162
  C  C274  1  0.532800  0.625900  0.829600  1.0  -0.0482
  C  C275  1  0.558700  0.680300  0.862100  1.0  -0.1684
  C  C276  1  0.578600  0.674700  0.924400  1.0  0.0241
  C  C277  1  0.571100  0.613300  0.954400  1.0  -0.1535
  C  C278  1  0.543100  0.559000  0.925300  1.0  -0.1833
  C  C279  1  0.524100  0.564900  0.862300  1.0  -0.0889
  C  C280  1  0.609100  0.734100  0.957600  1.0  -0.4133
  C  C281  1  0.529900  0.343500  0.567000  1.0  0.316
  C  C282  1  0.539100  0.276900  0.537800  1.0  -0.1191
  C  C283  1  0.576600  0.231900  0.567500  1.0  -0.14
  C  C284  1  0.587500  0.168300  0.538200  1.0  -0.1446
  C  C285  1  0.560100  0.150500  0.483500  1.0  -0.1698
  C  C286  1  0.521400  0.193200  0.453100  1.0  0.0338
  C  C287  1  0.511500  0.257100  0.480500  1.0  -0.1186
  C  C288  1  0.486200  0.169100  0.395000  1.0  -0.4204
  C  C289  1  0.641300  0.425500  0.847200  1.0  0.2276
  C  C290  1  0.665000  0.490400  0.873200  1.0  -0.0917
  C  C291  1  0.664300  0.548900  0.834700  1.0  -0.1298
  C  C292  1  0.689000  0.610700  0.857900  1.0  0.0771
  C  C293  1  0.711800  0.610200  0.919800  1.0  -0.1575
  C  C294  1  0.711600  0.553000  0.957200  1.0  -0.1073
  C  C295  1  0.688700  0.493100  0.934600  1.0  -0.0494
  C  C296  1  0.687200  0.671400  0.814300  1.0  -0.3955
  C  C297  1  0.849200  0.403700  0.964800  1.0  0.3539
  C  C298  1  0.844300  0.460800  0.920200  1.0  -0.0309
  C  C299  1  0.859700  0.530600  0.938100  1.0  -0.1279
  C  C300  1  0.854200  0.584200  0.898200  1.0  0.0777
  C  C301  1  0.834100  0.569500  0.836000  1.0  -0.1386
  C  C302  1  0.821300  0.500800  0.817400  1.0  -0.153
  C  C303  1  0.824300  0.450300  0.860900  1.0  -0.1409
  C  C304  1  0.867700  0.657500  0.916300  1.0  -0.414
  C  C305  1  0.032900  0.361400  0.257700  1.0  0.3761
  C  C306  1  0.050000  0.369500  0.325400  1.0  -0.053
  C  C307  1  0.034200  0.426000  0.357900  1.0  -0.0983
  C  C308  1  0.053700  0.432900  0.421300  1.0  -0.135
  C  C309  1  0.086800  0.384400  0.449800  1.0  -0.1589
  C  C310  1  0.102400  0.330300  0.419700  1.0  0.048
  C  C311  1  0.082200  0.320600  0.356500  1.0  -0.1446
  C  C312  1  0.139300  0.278200  0.454800  1.0  -0.3879
  C  C313  1  0.136800  0.592900  0.350400  1.0  0.2664
  C  C314  1  0.167200  0.534800  0.380300  1.0  -0.0572
  C  C315  1  0.191100  0.539200  0.440400  1.0  -0.0385
  C  C316  1  0.222800  0.487100  0.465500  1.0  -0.1361
  C  C317  1  0.230500  0.428700  0.430100  1.0  -0.1311
  C  C318  1  0.206900  0.422300  0.370100  1.0  0.1179
  C  C319  1  0.175100  0.474400  0.346000  1.0  -0.1477
  C  C320  1  0.217700  0.362000  0.331500  1.0  -0.4092
  C  C321  1  0.682100  0.152400  0.042800  1.0  0.2505
  C  C322  1  0.697300  0.128400  0.110100  1.0  -0.086
  C  C323  1  0.726200  0.167900  0.156200  1.0  -0.0924
  C  C324  1  0.736100  0.142600  0.217100  1.0  -0.014
  C  C325  1  0.717100  0.077600  0.231800  1.0  -0.1224
  C  C326  1  0.688200  0.038000  0.185700  1.0  -0.106
  C  C327  1  0.678300  0.063400  0.124800  1.0  -0.1143
  C  C328  1  0.774900  0.193000  0.263100  1.0  -0.3896
  C  C329  1  0.985200  0.158300  0.425400  1.0  0.3294
  C  C330  1  0.972300  0.228000  0.448700  1.0  -0.1219
  C  C331  1  0.995600  0.250200  0.507900  1.0  -0.1038
  C  C332  1  0.981300  0.315600  0.529300  1.0  0.0379
  C  C333  1  0.943300  0.353800  0.492200  1.0  -0.1211
  C  C334  1  0.920100  0.330400  0.434400  1.0  -0.1554
  C  C335  1  0.934500  0.267900  0.413900  1.0  -0.0809
  C  C336  1  0.011200  0.342800  0.591200  1.0  -0.4109
  C  C337  1  0.486000  0.133600  0.736200  1.0  0.3166
  C  C338  1  0.467200  0.125900  0.670400  1.0  -0.0506
  C  C339  1  0.441300  0.180300  0.637900  1.0  -0.1692
  C  C340  1  0.421400  0.174700  0.575600  1.0  0.0237
  C  C341  1  0.428900  0.113300  0.545600  1.0  -0.1535
  C  C342  1  0.456900  0.059000  0.574700  1.0  -0.1847
  C  C343  1  0.475900  0.064900  0.637700  1.0  -0.0877
  C  C344  1  0.390900  0.234100  0.542400  1.0  -0.4115
  C  C345  1  0.470100  0.843500  0.933000  1.0  0.3165
  C  C346  1  0.460900  0.776900  0.962200  1.0  -0.1194
  C  C347  1  0.423400  0.731900  0.932500  1.0  -0.1381
  C  C348  1  0.412500  0.668300  0.961800  1.0  -0.1464
  C  C349  1  0.439900  0.650500  0.016500  1.0  -0.1705
  C  C350  1  0.478600  0.693200  0.046900  1.0  0.0331
  C  C351  1  0.488500  0.757100  0.019500  1.0  -0.1166
  C  C352  1  0.513800  0.669100  0.105000  1.0  -0.4223
  C  C353  1  0.358700  0.925500  0.652800  1.0  0.2282
  C  C354  1  0.335000  0.990400  0.626800  1.0  -0.0922
  C  C355  1  0.335700  0.048900  0.665300  1.0  -0.1264
  C  C356  1  0.311000  0.110700  0.642100  1.0  0.0764
  C  C357  1  0.288200  0.110200  0.580200  1.0  -0.1588
  C  C358  1  0.288400  0.053000  0.542800  1.0  -0.1078
  C  C359  1  0.311300  0.993100  0.565400  1.0  -0.0466
  C  C360  1  0.312800  0.171400  0.685700  1.0  -0.3964
  C  C361  1  0.150800  0.903700  0.535200  1.0  0.3542
  C  C362  1  0.155700  0.960800  0.579800  1.0  -0.0311
  C  C363  1  0.140300  0.030600  0.561900  1.0  -0.1303
  C  C364  1  0.145800  0.084200  0.601800  1.0  0.0779
  C  C365  1  0.165900  0.069500  0.664000  1.0  -0.139
  C  C366  1  0.178700  0.000800  0.682600  1.0  -0.1534
  C  C367  1  0.175700  0.950300  0.639100  1.0  -0.1404
  C  C368  1  0.132300  0.157500  0.583700  1.0  -0.4137
  C  C369  1  0.967100  0.861400  0.242300  1.0  0.3765
  C  C370  1  0.950000  0.869500  0.174600  1.0  -0.0514
  C  C371  1  0.965800  0.926000  0.142100  1.0  -0.0972
  C  C372  1  0.946300  0.932900  0.078700  1.0  -0.1363
  C  C373  1  0.913200  0.884400  0.050200  1.0  -0.1633
  C  C374  1  0.897600  0.830300  0.080300  1.0  0.0484
  C  C375  1  0.917800  0.820600  0.143500  1.0  -0.1448
  C  C376  1  0.860700  0.778200  0.045200  1.0  -0.3876
  C  C377  1  0.863200  0.092900  0.149600  1.0  0.2677
  C  C378  1  0.832800  0.034800  0.119700  1.0  -0.0559
  C  C379  1  0.808900  0.039200  0.059600  1.0  -0.0349
  C  C380  1  0.777200  0.987100  0.034500  1.0  -0.1333
  C  C381  1  0.769500  0.928700  0.069900  1.0  -0.1302
  C  C382  1  0.793100  0.922300  0.129900  1.0  0.1174
  C  C383  1  0.824900  0.974400  0.154000  1.0  -0.1491
  C  C384  1  0.782300  0.862000  0.168500  1.0  -0.4091
  C  C385  1  0.317900  0.652400  0.457200  1.0  0.2519
  C  C386  1  0.302700  0.628400  0.389900  1.0  -0.0863
  C  C387  1  0.273800  0.667900  0.343800  1.0  -0.0929
  C  C388  1  0.263900  0.642600  0.282900  1.0  -0.0131
  C  C389  1  0.282900  0.577600  0.268200  1.0  -0.1233
  C  C390  1  0.311800  0.538000  0.314300  1.0  -0.1064
  C  C391  1  0.321700  0.563400  0.375200  1.0  -0.1148
  C  C392  1  0.225100  0.693000  0.236900  1.0  -0.3888
  C  C393  1  0.014800  0.658300  0.074600  1.0  0.329
  C  C394  1  0.027700  0.728000  0.051300  1.0  -0.1225
  C  C395  1  0.004400  0.750200  0.992100  1.0  -0.1042
  C  C396  1  0.018700  0.815600  0.970700  1.0  0.038
  C  C397  1  0.056700  0.853800  0.007800  1.0  -0.1214
  C  C398  1  0.079900  0.830400  0.065600  1.0  -0.1527
  C  C399  1  0.065500  0.767900  0.086100  1.0  -0.0812
  C  C400  1  0.988800  0.842800  0.908800  1.0  -0.4086
  C  C401  1  0.486000  0.366400  0.236200  1.0  0.3168
  C  C402  1  0.467200  0.374100  0.170400  1.0  -0.0506
  C  C403  1  0.441300  0.319700  0.137900  1.0  -0.1681
  C  C404  1  0.421400  0.325300  0.075600  1.0  0.0238
  C  C405  1  0.428900  0.386700  0.045600  1.0  -0.1544
  C  C406  1  0.456900  0.441000  0.074700  1.0  -0.1822
  C  C407  1  0.475900  0.435100  0.137700  1.0  -0.0883
  C  C408  1  0.390900  0.265900  0.042400  1.0  -0.4124
  C  C409  1  0.470100  0.656500  0.433000  1.0  0.3164
  C  C410  1  0.460900  0.723100  0.462200  1.0  -0.1199
  C  C411  1  0.423400  0.768100  0.432500  1.0  -0.1375
  C  C412  1  0.412500  0.831700  0.461800  1.0  -0.1447
  C  C413  1  0.439900  0.849500  0.516500  1.0  -0.1708
  C  C414  1  0.478600  0.806800  0.546900  1.0  0.0336
  C  C415  1  0.488500  0.742900  0.519500  1.0  -0.1173
  C  C416  1  0.513800  0.830900  0.605000  1.0  -0.423
  C  C417  1  0.358700  0.574500  0.152800  1.0  0.2287
  C  C418  1  0.335000  0.509600  0.126800  1.0  -0.0916
  C  C419  1  0.335700  0.451100  0.165300  1.0  -0.1262
  C  C420  1  0.311000  0.389300  0.142100  1.0  0.076
  C  C421  1  0.288200  0.389800  0.080200  1.0  -0.1591
  C  C422  1  0.288400  0.447000  0.042800  1.0  -0.1074
  C  C423  1  0.311300  0.506900  0.065400  1.0  -0.0474
  C  C424  1  0.312800  0.328600  0.185700  1.0  -0.395
  C  C425  1  0.150800  0.596300  0.035200  1.0  0.3538
  C  C426  1  0.155700  0.539200  0.079800  1.0  -0.0305
  C  C427  1  0.140300  0.469400  0.061900  1.0  -0.1303
  C  C428  1  0.145800  0.415800  0.101800  1.0  0.0782
  C  C429  1  0.165900  0.430500  0.164000  1.0  -0.1396
  C  C430  1  0.178700  0.499200  0.182600  1.0  -0.1535
  C  C431  1  0.175700  0.549700  0.139100  1.0  -0.1387
  C  C432  1  0.132300  0.342500  0.083700  1.0  -0.4143
  C  C433  1  0.967100  0.638600  0.742300  1.0  0.3764
  C  C434  1  0.950000  0.630500  0.674600  1.0  -0.0515
  C  C435  1  0.965800  0.574000  0.642100  1.0  -0.0967
  C  C436  1  0.946300  0.567100  0.578700  1.0  -0.1365
  C  C437  1  0.913200  0.615600  0.550200  1.0  -0.1622
  C  C438  1  0.897600  0.669700  0.580300  1.0  0.0481
  C  C439  1  0.917800  0.679400  0.643500  1.0  -0.1445
  C  C440  1  0.860700  0.721800  0.545200  1.0  -0.386
  C  C441  1  0.863200  0.407100  0.649600  1.0  0.2679
  C  C442  1  0.832800  0.465200  0.619700  1.0  -0.0565
  C  C443  1  0.808900  0.460800  0.559600  1.0  -0.0341
  C  C444  1  0.777200  0.512900  0.534500  1.0  -0.1339
  C  C445  1  0.769500  0.571300  0.569900  1.0  -0.1292
  C  C446  1  0.793100  0.577700  0.629900  1.0  0.1174
  C  C447  1  0.824900  0.525600  0.654000  1.0  -0.1492
  C  C448  1  0.782300  0.638000  0.668500  1.0  -0.4081
  C  C449  1  0.317900  0.847600  0.957200  1.0  0.252
  C  C450  1  0.302700  0.871600  0.889900  1.0  -0.087
  C  C451  1  0.273800  0.832100  0.843800  1.0  -0.0925
  C  C452  1  0.263900  0.857400  0.782900  1.0  -0.0137
  C  C453  1  0.282900  0.922400  0.768200  1.0  -0.1231
  C  C454  1  0.311800  0.962000  0.814300  1.0  -0.1076
  C  C455  1  0.321700  0.936600  0.875200  1.0  -0.1153
  C  C456  1  0.225100  0.807000  0.736900  1.0  -0.389
  C  C457  1  0.014800  0.841700  0.574600  1.0  0.3294
  C  C458  1  0.027700  0.772000  0.551300  1.0  -0.1226
  C  C459  1  0.004400  0.749800  0.492100  1.0  -0.1044
  C  C460  1  0.018700  0.684400  0.470700  1.0  0.0379
  C  C461  1  0.056700  0.646200  0.507800  1.0  -0.1218
  C  C462  1  0.079900  0.669600  0.565600  1.0  -0.1525
  C  C463  1  0.065500  0.732100  0.586100  1.0  -0.0813
  C  C464  1  0.988800  0.657200  0.408800  1.0  -0.4088
  C  C465  1  0.514000  0.866400  0.263800  1.0  0.3167
  C  C466  1  0.532800  0.874100  0.329600  1.0  -0.0481
  C  C467  1  0.558700  0.819700  0.362100  1.0  -0.1672
  C  C468  1  0.578600  0.825300  0.424400  1.0  0.0238
  C  C469  1  0.571100  0.886700  0.454400  1.0  -0.1531
  C  C470  1  0.543100  0.941000  0.425300  1.0  -0.1813
  C  C471  1  0.524100  0.935100  0.362300  1.0  -0.0898
  C  C472  1  0.609100  0.765900  0.457600  1.0  -0.4142
  C  C473  1  0.529900  0.156500  0.067000  1.0  0.3163
  C  C474  1  0.539100  0.223100  0.037800  1.0  -0.1192
  C  C475  1  0.576600  0.268100  0.067500  1.0  -0.1398
  C  C476  1  0.587500  0.331700  0.038200  1.0  -0.1427
  C  C477  1  0.560100  0.349500  0.983500  1.0  -0.1697
  C  C478  1  0.521400  0.306800  0.953100  1.0  0.0341
  C  C479  1  0.511500  0.242900  0.980500  1.0  -0.1179
  C  C480  1  0.486200  0.330900  0.895000  1.0  -0.4207
  C  C481  1  0.641300  0.074500  0.347200  1.0  0.228
  C  C482  1  0.665000  0.009600  0.373200  1.0  -0.0914
  C  C483  1  0.664300  0.951100  0.334700  1.0  -0.1295
  C  C484  1  0.689000  0.889300  0.357900  1.0  0.0765
  C  C485  1  0.711800  0.889800  0.419800  1.0  -0.1579
  C  C486  1  0.711600  0.947000  0.457200  1.0  -0.1073
  C  C487  1  0.688700  0.006900  0.434600  1.0  -0.0493
  C  C488  1  0.687200  0.828600  0.314300  1.0  -0.3947
  C  C489  1  0.849200  0.096300  0.464800  1.0  0.3534
  C  C490  1  0.844300  0.039200  0.420200  1.0  -0.0311
  C  C491  1  0.859700  0.969400  0.438100  1.0  -0.1281
  C  C492  1  0.854200  0.915800  0.398200  1.0  0.0779
  C  C493  1  0.834100  0.930500  0.336000  1.0  -0.1392
  C  C494  1  0.821300  0.999200  0.317400  1.0  -0.153
  C  C495  1  0.824300  0.049700  0.360900  1.0  -0.1388
  C  C496  1  0.867700  0.842500  0.416300  1.0  -0.4146
  C  C497  1  0.032900  0.138600  0.757700  1.0  0.3763
  C  C498  1  0.050000  0.130500  0.825400  1.0  -0.0526
  C  C499  1  0.034200  0.074000  0.857900  1.0  -0.0978
  C  C500  1  0.053700  0.067100  0.921300  1.0  -0.1351
  C  C501  1  0.086800  0.115600  0.949800  1.0  -0.1586
  C  C502  1  0.102400  0.169700  0.919700  1.0  0.0479
  C  C503  1  0.082200  0.179400  0.856500  1.0  -0.1454
  C  C504  1  0.139300  0.221800  0.954800  1.0  -0.3871
  C  C505  1  0.136800  0.907100  0.850400  1.0  0.2668
  C  C506  1  0.167200  0.965200  0.880300  1.0  -0.0581
  C  C507  1  0.191100  0.960800  0.940400  1.0  -0.0393
  C  C508  1  0.222800  0.012900  0.965500  1.0  -0.1363
  C  C509  1  0.230500  0.071300  0.930100  1.0  -0.1296
  C  C510  1  0.206900  0.077700  0.870100  1.0  0.1181
  C  C511  1  0.175100  0.025600  0.846000  1.0  -0.1476
  C  C512  1  0.217700  0.138000  0.831500  1.0  -0.4088
  C  C513  1  0.682100  0.347600  0.542800  1.0  0.252
  C  C514  1  0.697300  0.371600  0.610100  1.0  -0.0874
  C  C515  1  0.726200  0.332100  0.656200  1.0  -0.0922
  C  C516  1  0.736100  0.357400  0.717100  1.0  -0.0148
  C  C517  1  0.717100  0.422400  0.731800  1.0  -0.1223
  C  C518  1  0.688200  0.462000  0.685700  1.0  -0.1065
  C  C519  1  0.678300  0.436600  0.624800  1.0  -0.1144
  C  C520  1  0.774900  0.307000  0.763100  1.0  -0.389
  C  C521  1  0.985200  0.341700  0.925400  1.0  0.3291
  C  C522  1  0.972300  0.272000  0.948700  1.0  -0.1208
  C  C523  1  0.995600  0.249800  0.007900  1.0  -0.1039
  C  C524  1  0.981300  0.184400  0.029300  1.0  0.0377
  C  C525  1  0.943300  0.146200  0.992200  1.0  -0.1223
  C  C526  1  0.920100  0.169600  0.934400  1.0  -0.1546
  C  C527  1  0.934500  0.232100  0.913900  1.0  -0.0803
  C  C528  1  0.011200  0.157200  0.091200  1.0  -0.4111
  N  N529  1  0.490000  0.689200  0.738200  1.0  -0.2477
  N  N530  1  0.478900  0.675200  0.676400  1.0  -0.0838
  N  N531  1  0.496800  0.614200  0.665000  1.0  -0.0942
  N  N532  1  0.518800  0.585400  0.719200  1.0  -0.2935
  N  N533  1  0.520200  0.403200  0.535200  1.0  -0.3378
  N  N534  1  0.517400  0.451300  0.581000  1.0  -0.0322
  N  N535  1  0.525700  0.422300  0.635400  1.0  -0.0553
  N  N536  1  0.533800  0.353500  0.629400  1.0  -0.3326
  N  N537  1  0.601600  0.417700  0.800800  1.0  -0.2791
  N  N538  1  0.594000  0.348900  0.793800  1.0  -0.0768
  N  N539  1  0.627700  0.315300  0.833700  1.0  -0.1316
  N  N540  1  0.658900  0.362000  0.868100  1.0  -0.3133
  N  N541  1  0.819500  0.348700  0.959900  1.0  -0.2671
  N  N542  1  0.838300  0.308300  0.007800  1.0  -0.0588
  N  N543  1  0.878300  0.340800  0.040000  1.0  -0.0391
  N  N544  1  0.886900  0.399500  0.014400  1.0  -0.2705
  N  N545  1  0.034200  0.410900  0.216400  1.0  -0.2397
  N  N546  1  0.014900  0.383000  0.161400  1.0  -0.1229
  N  N547  1  0.003500  0.318100  0.170200  1.0  -0.1222
  N  N548  1  0.014700  0.302200  0.232400  1.0  -0.3389
  N  N549  1  0.142800  0.656600  0.373800  1.0  -0.3176
  N  N550  1  0.109300  0.697100  0.335900  1.0  -0.1532
  N  N551  1  0.085400  0.658200  0.290800  1.0  -0.1363
  N  N552  1  0.102000  0.594100  0.299300  1.0  -0.1847
  N  N553  1  0.640400  0.148500  0.000300  1.0  -0.3198
  N  N554  1  0.648800  0.196400  0.958600  1.0  -0.0705
  N  N555  1  0.693500  0.226300  0.974900  1.0  -0.0213
  N  N556  1  0.716500  0.199200  0.028400  1.0  -0.2968
  N  N557  1  0.000400  0.103800  0.460800  1.0  -0.3239
  N  N558  1  0.005300  0.051400  0.418500  1.0  -0.0702
  N  N559  1  0.995300  0.075000  0.362500  1.0  -0.1232
  N  N560  1  0.983100  0.143400  0.364100  1.0  -0.3645
  N  N561  1  0.510000  0.189200  0.761800  1.0  -0.2467
  N  N562  1  0.521100  0.175200  0.823600  1.0  -0.0839
  N  N563  1  0.503200  0.114200  0.835000  1.0  -0.0944
  N  N564  1  0.481200  0.085400  0.780800  1.0  -0.2955
  N  N565  1  0.479800  0.903200  0.964800  1.0  -0.3364
  N  N566  1  0.482600  0.951300  0.919000  1.0  -0.0324
  N  N567  1  0.474300  0.922300  0.864600  1.0  -0.0522
  N  N568  1  0.466200  0.853500  0.870600  1.0  -0.3322
  N  N569  1  0.398400  0.917700  0.699200  1.0  -0.2819
  N  N570  1  0.406000  0.848900  0.706200  1.0  -0.0758
  N  N571  1  0.372300  0.815300  0.666300  1.0  -0.133
  N  N572  1  0.341100  0.862000  0.631900  1.0  -0.3172
  N  N573  1  0.180500  0.848700  0.540100  1.0  -0.2672
  N  N574  1  0.161700  0.808300  0.492200  1.0  -0.0596
  N  N575  1  0.121700  0.840800  0.460000  1.0  -0.0427
  N  N576  1  0.113100  0.899500  0.485600  1.0  -0.2662
  N  N577  1  0.965800  0.910900  0.283600  1.0  -0.2395
  N  N578  1  0.985100  0.883000  0.338600  1.0  -0.1271
  N  N579  1  0.996500  0.818100  0.329800  1.0  -0.121
  N  N580  1  0.985300  0.802200  0.267600  1.0  -0.3394
  N  N581  1  0.857200  0.156600  0.126200  1.0  -0.3165
  N  N582  1  0.890700  0.197100  0.164100  1.0  -0.1531
  N  N583  1  0.914600  0.158200  0.209200  1.0  -0.14
  N  N584  1  0.898000  0.094100  0.200700  1.0  -0.1862
  N  N585  1  0.359600  0.648500  0.499700  1.0  -0.3176
  N  N586  1  0.351200  0.696400  0.541400  1.0  -0.0672
  N  N587  1  0.306500  0.726300  0.525100  1.0  -0.0205
  N  N588  1  0.283500  0.699200  0.471600  1.0  -0.2964
  N  N589  1  0.999600  0.603800  0.039200  1.0  -0.3246
  N  N590  1  0.994700  0.551400  0.081500  1.0  -0.0698
  N  N591  1  0.004700  0.575000  0.137500  1.0  -0.1226
  N  N592  1  0.016900  0.643400  0.135900  1.0  -0.3683
  N  N593  1  0.510000  0.310800  0.261800  1.0  -0.2472
  N  N594  1  0.521100  0.324800  0.323600  1.0  -0.0845
  N  N595  1  0.503200  0.385800  0.335000  1.0  -0.0951
  N  N596  1  0.481200  0.414600  0.280800  1.0  -0.2951
  N  N597  1  0.479800  0.596800  0.464800  1.0  -0.3364
  N  N598  1  0.482600  0.548700  0.419000  1.0  -0.0302
  N  N599  1  0.474300  0.577700  0.364600  1.0  -0.0534
  N  N600  1  0.466200  0.646500  0.370600  1.0  -0.3315
  N  N601  1  0.398400  0.582300  0.199200  1.0  -0.2817
  N  N602  1  0.406000  0.651100  0.206200  1.0  -0.0771
  N  N603  1  0.372300  0.684700  0.166300  1.0  -0.1346
  N  N604  1  0.341100  0.638000  0.131900  1.0  -0.3153
  N  N605  1  0.180500  0.651300  0.040100  1.0  -0.2674
  N  N606  1  0.161700  0.691700  0.992200  1.0  -0.0602
  N  N607  1  0.121700  0.659200  0.960000  1.0  -0.0414
  N  N608  1  0.113100  0.600500  0.985600  1.0  -0.2673
  N  N609  1  0.965800  0.589100  0.783600  1.0  -0.2415
  N  N610  1  0.985100  0.617000  0.838600  1.0  -0.1233
  N  N611  1  0.996500  0.681900  0.829800  1.0  -0.1208
  N  N612  1  0.985300  0.697800  0.767600  1.0  -0.3394
  N  N613  1  0.857200  0.343400  0.626200  1.0  -0.3178
  N  N614  1  0.890700  0.302900  0.664100  1.0  -0.1514
  N  N615  1  0.914600  0.341800  0.709200  1.0  -0.1386
  N  N616  1  0.898000  0.405900  0.700700  1.0  -0.1855
  N  N617  1  0.359600  0.851500  0.999700  1.0  -0.3198
  N  N618  1  0.351200  0.803600  0.041400  1.0  -0.0675
  N  N619  1  0.306500  0.773700  0.025100  1.0  -0.0206
  N  N620  1  0.283500  0.800800  0.971600  1.0  -0.2965
  N  N621  1  0.999600  0.896200  0.539200  1.0  -0.3251
  N  N622  1  0.994700  0.948600  0.581500  1.0  -0.071
  N  N623  1  0.004700  0.925000  0.637500  1.0  -0.1227
  N  N624  1  0.016900  0.856600  0.635900  1.0  -0.3678
  N  N625  1  0.490000  0.810800  0.238200  1.0  -0.2476
  N  N626  1  0.478900  0.824800  0.176400  1.0  -0.0843
  N  N627  1  0.496800  0.885800  0.165000  1.0  -0.0937
  N  N628  1  0.518800  0.914600  0.219200  1.0  -0.2954
  N  N629  1  0.520200  0.096800  0.035200  1.0  -0.3343
  N  N630  1  0.517400  0.048700  0.081000  1.0  -0.0304
  N  N631  1  0.525700  0.077700  0.135400  1.0  -0.0544
  N  N632  1  0.533800  0.146500  0.129400  1.0  -0.332
  N  N633  1  0.601600  0.082300  0.300800  1.0  -0.2796
  N  N634  1  0.594000  0.151100  0.293800  1.0  -0.0763
  N  N635  1  0.627700  0.184700  0.333700  1.0  -0.1336
  N  N636  1  0.658900  0.138000  0.368100  1.0  -0.3144
  N  N637  1  0.819500  0.151300  0.459900  1.0  -0.2672
  N  N638  1  0.838300  0.191700  0.507800  1.0  -0.0581
  N  N639  1  0.878300  0.159200  0.540000  1.0  -0.0402
  N  N640  1  0.886900  0.100500  0.514400  1.0  -0.2701
  N  N641  1  0.034200  0.089100  0.716400  1.0  -0.2382
  N  N642  1  0.014900  0.117000  0.661400  1.0  -0.1239
  N  N643  1  0.003500  0.181900  0.670200  1.0  -0.1222
  N  N644  1  0.014700  0.197800  0.732400  1.0  -0.3402
  N  N645  1  0.142800  0.843400  0.873800  1.0  -0.3171
  N  N646  1  0.109300  0.802900  0.835900  1.0  -0.1521
  N  N647  1  0.085400  0.841800  0.790800  1.0  -0.1371
  N  N648  1  0.102000  0.905900  0.799300  1.0  -0.1835
  N  N649  1  0.640400  0.351500  0.500300  1.0  -0.3186
  N  N650  1  0.648800  0.303600  0.458600  1.0  -0.0703
  N  N651  1  0.693500  0.273700  0.474900  1.0  -0.0213
  N  N652  1  0.716500  0.300800  0.528400  1.0  -0.2968
  N  N653  1  0.000400  0.396200  0.960800  1.0  -0.3237
  N  N654  1  0.005300  0.448600  0.918500  1.0  -0.0702
  N  N655  1  0.995300  0.425000  0.862500  1.0  -0.1212
  N  N656  1  0.983100  0.356600  0.864100  1.0  -0.3658
