# generated using pymatgen
data_Ga2P2HO9
_symmetry_space_group_name_H-M   'P 1'
_cell_length_a   9.68140000
_cell_length_b   9.65680000
_cell_length_c   9.76180000
_cell_angle_alpha   90.00000000
_cell_angle_beta   102.90000000
_cell_angle_gamma   90.00000000
_symmetry_Int_Tables_number   1
_chemical_formula_structural   Ga2P2HO9
_chemical_formula_sum   'Ga8 P8 H4 O36'
_cell_volume   889.60975760
_cell_formula_units_Z   4
loop_
 _symmetry_equiv_pos_site_id
 _symmetry_equiv_pos_as_xyz
  1  'x, y, z'
loop_
 _atom_site_type_symbol
 _atom_site_label
 _atom_site_symmetry_multiplicity
 _atom_site_fract_x
 _atom_site_fract_y
 _atom_site_fract_z
 _atom_site_occupancy
 _atom_site_charge
  Ga  Ga1  1  0.398150  0.232190  0.184420  1.0  1.7097
  Ga  Ga2  1  0.386740  0.457860  0.870630  1.0  1.5697
  Ga  Ga3  1  0.101850  0.732190  0.315580  1.0  1.7097
  Ga  Ga4  1  0.113260  0.957860  0.629370  1.0  1.5718
  Ga  Ga5  1  0.601850  0.767810  0.815580  1.0  1.7097
  Ga  Ga6  1  0.613260  0.542140  0.129370  1.0  1.5724
  Ga  Ga7  1  0.898150  0.267810  0.684420  1.0  1.7102
  Ga  Ga8  1  0.886740  0.042140  0.370630  1.0  1.5705
  P  P9  1  0.207230  0.185480  0.867040  1.0  1.8135
  P  P10  1  0.297300  0.533300  0.149600  1.0  1.7854
  P  P11  1  0.292770  0.685480  0.632960  1.0  1.8132
  P  P12  1  0.202700  0.033300  0.350400  1.0  1.7881
  P  P13  1  0.792770  0.814520  0.132960  1.0  1.8128
  P  P14  1  0.702700  0.466700  0.850400  1.0  1.7884
  P  P15  1  0.707230  0.314520  0.367040  1.0  1.813
  P  P16  1  0.797300  0.966700  0.649600  1.0  1.7857
  H  H17  1  0.568500  0.292900  0.028800  1.0  0.4153
  H  H18  1  0.931500  0.792900  0.471200  1.0  0.4148
  H  H19  1  0.431500  0.707100  0.971200  1.0  0.4156
  H  H20  1  0.068500  0.207100  0.528800  1.0  0.4161
  O  O21  1  0.500200  0.358800  0.057800  1.0  -0.9047
  O  O22  1  0.287300  0.389500  0.216400  1.0  -0.7646
  O  O23  1  0.261700  0.516900  0.987200  1.0  -0.7909
  O  O24  1  0.187600  0.629000  0.186100  1.0  -0.8522
  O  O25  1  0.260900  0.169600  0.024800  1.0  -0.83
  O  O26  1  0.295200  0.288500  0.803600  1.0  -0.7869
  O  O27  1  0.051700  0.228900  0.840600  1.0  -0.8189
  O  O28  1  0.448800  0.590500  0.200600  1.0  -0.7937
  O  O29  1  0.220200  0.042400  0.798200  1.0  -0.7536
  O  O30  1  0.999800  0.858800  0.442200  1.0  -0.9051
  O  O31  1  0.212700  0.889500  0.283600  1.0  -0.7631
  O  O32  1  0.238300  0.016900  0.512800  1.0  -0.7921
  O  O33  1  0.312400  0.129000  0.313900  1.0  -0.8519
  O  O34  1  0.239100  0.669600  0.475200  1.0  -0.8289
  O  O35  1  0.204800  0.788500  0.696400  1.0  -0.7883
  O  O36  1  0.448300  0.728900  0.659400  1.0  -0.8173
  O  O37  1  0.051200  0.090500  0.299400  1.0  -0.7955
  O  O38  1  0.279800  0.542400  0.701800  1.0  -0.7553
  O  O39  1  0.499800  0.641200  0.942200  1.0  -0.9054
  O  O40  1  0.712700  0.610500  0.783600  1.0  -0.7631
  O  O41  1  0.738300  0.483100  0.012800  1.0  -0.7922
  O  O42  1  0.812400  0.371000  0.813900  1.0  -0.8522
  O  O43  1  0.739100  0.830400  0.975200  1.0  -0.8287
  O  O44  1  0.704800  0.711500  0.196400  1.0  -0.7888
  O  O45  1  0.948300  0.771100  0.159400  1.0  -0.8174
  O  O46  1  0.551200  0.409500  0.799400  1.0  -0.7954
  O  O47  1  0.779800  0.957600  0.201800  1.0  -0.7551
  O  O48  1  0.000200  0.141200  0.557800  1.0  -0.9048
  O  O49  1  0.787300  0.110500  0.716400  1.0  -0.7645
  O  O50  1  0.761700  0.983100  0.487200  1.0  -0.7914
  O  O51  1  0.687600  0.871000  0.686100  1.0  -0.851
  O  O52  1  0.760900  0.330400  0.524800  1.0  -0.8305
  O  O53  1  0.795200  0.211500  0.303600  1.0  -0.7874
  O  O54  1  0.551700  0.271100  0.340600  1.0  -0.8181
  O  O55  1  0.948800  0.909500  0.700600  1.0  -0.7939
  O  O56  1  0.720200  0.457600  0.298200  1.0  -0.7526
