# generated using pymatgen
data_ZnH7C9N3O4
_symmetry_space_group_name_H-M   'P 1'
_cell_length_a   8.62960000
_cell_length_b   9.60800000
_cell_length_c   14.49700000
_cell_angle_alpha   90.00000000
_cell_angle_beta   93.09700000
_cell_angle_gamma   90.00000000
_symmetry_Int_Tables_number   1
_chemical_formula_structural   ZnH7C9N3O4
_chemical_formula_sum   'Zn4 H28 C36 N12 O16'
_cell_volume   1200.23710442
_cell_formula_units_Z   4
loop_
 _symmetry_equiv_pos_site_id
 _symmetry_equiv_pos_as_xyz
  1  'x, y, z'
loop_
 _atom_site_type_symbol
 _atom_site_label
 _atom_site_symmetry_multiplicity
 _atom_site_fract_x
 _atom_site_fract_y
 _atom_site_fract_z
 _atom_site_occupancy
 _atom_site_charge
  Zn  Zn1  1  0.656740  0.502940  0.671690  1.0  1.0249
  Zn  Zn2  1  0.843260  0.002940  0.828310  1.0  1.0195
  Zn  Zn3  1  0.343260  0.497060  0.328310  1.0  1.0187
  Zn  Zn4  1  0.156740  0.997060  0.171690  1.0  1.0249
  H  H5  1  0.044000  0.040400  0.591400  1.0  0.085
  H  H6  1  0.161700  0.985200  0.518200  1.0  0.0813
  H  H7  1  0.097700  0.184500  0.423100  1.0  0.1203
  H  H8  1  0.183100  0.224700  0.520100  1.0  0.0987
  H  H9  1  0.715800  0.495800  0.459700  1.0  0.0868
  H  H10  1  0.934400  0.266800  0.648400  1.0  0.1155
  H  H11  1  0.450300  0.773400  0.451300  1.0  0.093
  H  H12  1  0.456000  0.540400  0.908600  1.0  0.085
  H  H13  1  0.338300  0.485200  0.981800  1.0  0.0801
  H  H14  1  0.402300  0.684500  0.076900  1.0  0.1197
  H  H15  1  0.316900  0.724700  0.979900  1.0  0.0995
  H  H16  1  0.784200  0.995800  0.040300  1.0  0.0868
  H  H17  1  0.565600  0.766800  0.851600  1.0  0.1159
  H  H18  1  0.049700  0.273400  0.048700  1.0  0.093
  H  H19  1  0.956000  0.959600  0.408600  1.0  0.085
  H  H20  1  0.838300  0.014800  0.481800  1.0  0.08
  H  H21  1  0.902300  0.815500  0.576900  1.0  0.1189
  H  H22  1  0.816900  0.775300  0.479900  1.0  0.0993
  H  H23  1  0.284200  0.504200  0.540300  1.0  0.087
  H  H24  1  0.065600  0.733200  0.351600  1.0  0.1155
  H  H25  1  0.549700  0.226600  0.548700  1.0  0.0932
  H  H26  1  0.544000  0.459600  0.091400  1.0  0.0847
  H  H27  1  0.661700  0.514800  0.018200  1.0  0.0808
  H  H28  1  0.597700  0.315500  0.923100  1.0  0.1195
  H  H29  1  0.683100  0.275300  0.020100  1.0  0.0991
  H  H30  1  0.215800  0.004200  0.959700  1.0  0.0866
  H  H31  1  0.434400  0.233200  0.148400  1.0  0.1153
  H  H32  1  0.950300  0.726600  0.951300  1.0  0.0938
  C  C33  1  0.064100  0.037600  0.524800  1.0  -0.1437
  C  C34  1  0.086200  0.186200  0.490700  1.0  -0.0544
  C  C35  1  0.784200  0.429400  0.488500  1.0  0.2684
  C  C36  1  0.900100  0.307900  0.591300  1.0  0.1834
  C  C37  1  0.469500  0.866200  0.471500  1.0  -0.083
  C  C38  1  0.526200  0.889100  0.561100  1.0  -0.0815
  C  C39  1  0.560000  0.025300  0.589700  1.0  -0.0777
  C  C40  1  0.542400  0.767600  0.626600  1.0  0.6819
  C  C41  1  0.638300  0.056000  0.683100  1.0  0.6694
  C  C42  1  0.435900  0.537600  0.975200  1.0  -0.1413
  C  C43  1  0.413800  0.686200  0.009300  1.0  -0.0544
  C  C44  1  0.715800  0.929400  0.011500  1.0  0.2688
  C  C45  1  0.599900  0.807900  0.908700  1.0  0.183
  C  C46  1  0.030500  0.366200  0.028500  1.0  -0.0831
  C  C47  1  0.973800  0.389100  0.938900  1.0  -0.0831
  C  C48  1  0.940000  0.525300  0.910300  1.0  -0.0793
  C  C49  1  0.957600  0.267600  0.873400  1.0  0.6824
  C  C50  1  0.861700  0.556000  0.816900  1.0  0.6689
  C  C51  1  0.935900  0.962400  0.475200  1.0  -0.1412
  C  C52  1  0.913800  0.813800  0.509300  1.0  -0.0543
  C  C53  1  0.215800  0.570600  0.511500  1.0  0.2686
  C  C54  1  0.099900  0.692100  0.408700  1.0  0.1838
  C  C55  1  0.530500  0.133800  0.528500  1.0  -0.0853
  C  C56  1  0.473800  0.110900  0.438900  1.0  -0.0826
  C  C57  1  0.440000  0.974700  0.410300  1.0  -0.0785
  C  C58  1  0.457600  0.232400  0.373400  1.0  0.6825
  C  C59  1  0.361700  0.944000  0.316900  1.0  0.6689
  C  C60  1  0.564100  0.462400  0.024800  1.0  -0.1427
  C  C61  1  0.586200  0.313800  0.990700  1.0  -0.0554
  C  C62  1  0.284200  0.070600  0.988500  1.0  0.2682
  C  C63  1  0.400100  0.192100  0.091300  1.0  0.1839
  C  C64  1  0.969500  0.633800  0.971500  1.0  -0.0848
  C  C65  1  0.026200  0.610900  0.061100  1.0  -0.0816
  C  C66  1  0.060000  0.474700  0.089700  1.0  -0.078
  C  C67  1  0.042400  0.732400  0.126600  1.0  0.6808
  C  C68  1  0.138300  0.444000  0.183100  1.0  0.6693
  N  N69  1  0.955200  0.278600  0.511100  1.0  0.1627
  N  N70  1  0.880600  0.355600  0.442900  1.0  -0.3324
  N  N71  1  0.789400  0.403700  0.581000  1.0  -0.4732
  N  N72  1  0.544800  0.778600  0.988900  1.0  0.1639
  N  N73  1  0.619400  0.855600  0.057100  1.0  -0.333
  N  N74  1  0.710600  0.903700  0.919000  1.0  -0.4731
  N  N75  1  0.044800  0.721400  0.488900  1.0  0.1637
  N  N76  1  0.119400  0.644400  0.557100  1.0  -0.3335
  N  N77  1  0.210600  0.596300  0.419000  1.0  -0.4732
  N  N78  1  0.455200  0.221400  0.011100  1.0  0.1622
  N  N79  1  0.380600  0.144400  0.942900  1.0  -0.3326
  N  N80  1  0.289400  0.096300  0.081000  1.0  -0.4723
  O  O81  1  0.605800  0.660800  0.592900  1.0  -0.6423
  O  O82  1  0.493000  0.775200  0.704600  1.0  -0.5806
  O  O83  1  0.758100  0.982400  0.703200  1.0  -0.6107
  O  O84  1  0.591000  0.149300  0.733300  1.0  -0.5869
  O  O85  1  0.894200  0.160800  0.907100  1.0  -0.6414
  O  O86  1  0.007000  0.275200  0.795400  1.0  -0.5818
  O  O87  1  0.741900  0.482400  0.796800  1.0  -0.6125
  O  O88  1  0.909000  0.649300  0.766700  1.0  -0.586
  O  O89  1  0.394200  0.339200  0.407100  1.0  -0.6417
  O  O90  1  0.507000  0.224800  0.295400  1.0  -0.5819
  O  O91  1  0.241900  0.017600  0.296800  1.0  -0.612
  O  O92  1  0.409000  0.850700  0.266700  1.0  -0.5861
  O  O93  1  0.105800  0.839200  0.092900  1.0  -0.6427
  O  O94  1  0.993000  0.724800  0.204600  1.0  -0.5809
  O  O95  1  0.258100  0.517600  0.203200  1.0  -0.6106
  O  O96  1  0.091000  0.350700  0.233300  1.0  -0.5851
