# generated using pymatgen
data_Ga2P2O9
_symmetry_space_group_name_H-M   'P 1'
_cell_length_a   9.68100000
_cell_length_b   9.65700000
_cell_length_c   9.76200000
_cell_angle_alpha   90.00000000
_cell_angle_beta   102.90000000
_cell_angle_gamma   90.00000000
_symmetry_Int_Tables_number   1
_chemical_formula_structural   Ga2P2O9
_chemical_formula_sum   'Ga8 P8 O36'
_cell_volume   889.60965192
_cell_formula_units_Z   4
loop_
 _symmetry_equiv_pos_site_id
 _symmetry_equiv_pos_as_xyz
  1  'x, y, z'
loop_
 _atom_site_type_symbol
 _atom_site_label
 _atom_site_symmetry_multiplicity
 _atom_site_fract_x
 _atom_site_fract_y
 _atom_site_fract_z
 _atom_site_occupancy
 _atom_site_charge
  Ga  Ga1  1  0.101860  0.232200  0.315590  1.0  1.6897
  Ga  Ga2  1  0.113270  0.457860  0.629370  1.0  1.6617
  Ga  Ga3  1  0.398140  0.732200  0.184410  1.0  1.6925
  Ga  Ga4  1  0.386730  0.957860  0.870630  1.0  1.661
  Ga  Ga5  1  0.898140  0.767800  0.684410  1.0  1.6925
  Ga  Ga6  1  0.886730  0.542140  0.370630  1.0  1.6607
  Ga  Ga7  1  0.601860  0.267800  0.815590  1.0  1.69
  Ga  Ga8  1  0.613270  0.042140  0.129370  1.0  1.6614
  P  P9  1  0.292780  0.185470  0.632950  1.0  1.8383
  P  P10  1  0.202670  0.533290  0.350420  1.0  1.8765
  P  P11  1  0.207220  0.685470  0.867050  1.0  1.8384
  P  P12  1  0.297330  0.033290  0.149580  1.0  1.8735
  P  P13  1  0.707220  0.814530  0.367050  1.0  1.8383
  P  P14  1  0.797330  0.466710  0.649580  1.0  1.8727
  P  P15  1  0.792780  0.314530  0.132950  1.0  1.8383
  P  P16  1  0.702670  0.966710  0.850420  1.0  1.8766
  O  O17  1  0.999580  0.358470  0.442360  1.0  -0.8333
  O  O18  1  0.212710  0.389470  0.283710  1.0  -0.7435
  O  O19  1  0.238210  0.516870  0.512900  1.0  -0.7726
  O  O20  1  0.312440  0.629120  0.313950  1.0  -0.8573
  O  O21  1  0.239080  0.169680  0.475230  1.0  -0.8195
  O  O22  1  0.204870  0.288600  0.696370  1.0  -0.7567
  O  O23  1  0.448170  0.228940  0.659410  1.0  -0.7908
  O  O24  1  0.051070  0.590540  0.299290  1.0  -0.7604
  O  O25  1  0.279830  0.042410  0.701820  1.0  -0.7335
  O  O26  1  0.500420  0.858470  0.057640  1.0  -0.8329
  O  O27  1  0.287290  0.889470  0.216290  1.0  -0.744
  O  O28  1  0.261790  0.016870  0.987100  1.0  -0.7724
  O  O29  1  0.187560  0.129120  0.186050  1.0  -0.8565
  O  O30  1  0.260920  0.669680  0.024770  1.0  -0.8191
  O  O31  1  0.295130  0.788600  0.803630  1.0  -0.7549
  O  O32  1  0.051830  0.728940  0.840590  1.0  -0.7916
  O  O33  1  0.448930  0.090540  0.200710  1.0  -0.7592
  O  O34  1  0.220170  0.542410  0.798180  1.0  -0.7331
  O  O35  1  0.000420  0.641530  0.557640  1.0  -0.8326
  O  O36  1  0.787290  0.610530  0.716290  1.0  -0.7437
  O  O37  1  0.761790  0.483130  0.487100  1.0  -0.7735
  O  O38  1  0.687560  0.370880  0.686050  1.0  -0.8564
  O  O39  1  0.760920  0.830320  0.524770  1.0  -0.8195
  O  O40  1  0.795130  0.711400  0.303630  1.0  -0.7549
  O  O41  1  0.551830  0.771060  0.340590  1.0  -0.7907
  O  O42  1  0.948930  0.409460  0.700710  1.0  -0.7602
  O  O43  1  0.720170  0.957590  0.298180  1.0  -0.7319
  O  O44  1  0.499580  0.141530  0.942360  1.0  -0.8334
  O  O45  1  0.712710  0.110530  0.783710  1.0  -0.7433
  O  O46  1  0.738210  0.983130  0.012900  1.0  -0.773
  O  O47  1  0.812440  0.870880  0.813950  1.0  -0.8578
  O  O48  1  0.739080  0.330320  0.975230  1.0  -0.819
  O  O49  1  0.704870  0.211400  0.196370  1.0  -0.7563
  O  O50  1  0.948170  0.271060  0.159410  1.0  -0.7909
  O  O51  1  0.551070  0.909460  0.799290  1.0  -0.7612
  O  O52  1  0.779830  0.457590  0.201820  1.0  -0.7325
