# generated using pymatgen
data_Na4C21S3O17
_symmetry_space_group_name_H-M   'P 1'
_cell_length_a   13.74100000
_cell_length_b   12.35600000
_cell_length_c   20.72900000
_cell_angle_alpha   90.00000000
_cell_angle_beta   101.45000000
_cell_angle_gamma   90.00000000
_symmetry_Int_Tables_number   1
_chemical_formula_structural   Na4C21S3O17
_chemical_formula_sum   'Na16 C84 S12 O68'
_cell_volume   3449.40534801
_cell_formula_units_Z   4
loop_
 _symmetry_equiv_pos_site_id
 _symmetry_equiv_pos_as_xyz
  1  'x, y, z'
loop_
 _atom_site_type_symbol
 _atom_site_label
 _atom_site_symmetry_multiplicity
 _atom_site_fract_x
 _atom_site_fract_y
 _atom_site_fract_z
 _atom_site_occupancy
 _atom_site_charge
  Na  Na1  1  0.271200  0.240500  0.312000  1.0  0.9823
  Na  Na2  1  0.094400  0.103000  0.725700  1.0  0.9875
  Na  Na3  1  0.057000  0.888800  0.468100  1.0  1.0055
  Na  Na4  1  0.184100  0.285600  0.483300  1.0  0.9537
  Na  Na5  1  0.728800  0.740500  0.188000  1.0  0.9828
  Na  Na6  1  0.905600  0.603000  0.774300  1.0  0.9874
  Na  Na7  1  0.943000  0.388800  0.031900  1.0  1.0063
  Na  Na8  1  0.815900  0.785600  0.016700  1.0  0.9565
  Na  Na9  1  0.728800  0.759500  0.688000  1.0  0.9827
  Na  Na10  1  0.905600  0.897000  0.274300  1.0  0.9879
  Na  Na11  1  0.943000  0.111200  0.531900  1.0  1.0071
  Na  Na12  1  0.815900  0.714400  0.516700  1.0  0.9578
  Na  Na13  1  0.271200  0.259500  0.812000  1.0  0.9824
  Na  Na14  1  0.094400  0.397000  0.225700  1.0  0.988
  Na  Na15  1  0.057000  0.611200  0.968100  1.0  1.0064
  Na  Na16  1  0.184100  0.214400  0.983300  1.0  0.9558
  C  C17  1  0.439300  0.794300  0.505000  1.0  0.2755
  C  C18  1  0.388400  0.773600  0.440100  1.0  -0.0167
  C  C19  1  0.326400  0.852700  0.407700  1.0  0.134
  C  C20  1  0.315800  0.952200  0.435900  1.0  0.0021
  C  C21  1  0.366400  0.970000  0.501500  1.0  0.1187
  C  C22  1  0.426400  0.892100  0.535300  1.0  0.0043
  C  C23  1  0.474100  0.911000  0.607800  1.0  -0.0338
  C  C24  1  0.469000  0.743600  0.677300  1.0  0.25
  C  C25  1  0.424100  0.837500  0.652800  1.0  0.0311
  C  C26  1  0.331100  0.869000  0.663900  1.0  0.0762
  C  C27  1  0.283600  0.798500  0.701600  1.0  0.0087
  C  C28  1  0.327000  0.705200  0.726200  1.0  0.1029
  C  C29  1  0.420600  0.674400  0.718100  1.0  -0.0166
  C  C30  1  0.467600  0.572300  0.747100  1.0  -0.0154
  C  C31  1  0.528600  0.450100  0.663200  1.0  0.2065
  C  C32  1  0.454800  0.474700  0.701600  1.0  0.0198
  C  C33  1  0.373100  0.406600  0.693900  1.0  0.1288
  C  C34  1  0.365500  0.316500  0.654600  1.0  -0.0056
  C  C35  1  0.442200  0.290000  0.620300  1.0  0.0605
  C  C36  1  0.524600  0.357200  0.627000  1.0  0.048
  C  C37  1  0.390700  0.662300  0.409000  1.0  -0.021
  C  C38  1  0.560700  0.294300  0.995000  1.0  0.2756
  C  C39  1  0.611600  0.273600  0.059900  1.0  -0.0174
  C  C40  1  0.673600  0.352700  0.092300  1.0  0.131
  C  C41  1  0.684200  0.452200  0.064100  1.0  0.0025
  C  C42  1  0.633600  0.470000  0.998500  1.0  0.1178
  C  C43  1  0.573600  0.392100  0.964700  1.0  0.0047
  C  C44  1  0.525900  0.411000  0.892200  1.0  -0.0329
  C  C45  1  0.531000  0.243600  0.822700  1.0  0.25
  C  C46  1  0.575900  0.337500  0.847200  1.0  0.0308
  C  C47  1  0.668900  0.369000  0.836100  1.0  0.0748
  C  C48  1  0.716400  0.298500  0.798400  1.0  0.0071
  C  C49  1  0.673000  0.205200  0.773800  1.0  0.1027
  C  C50  1  0.579400  0.174400  0.781900  1.0  -0.015
  C  C51  1  0.532400  0.072300  0.752900  1.0  -0.0055
  C  C52  1  0.471400  0.950100  0.836800  1.0  0.2069
  C  C53  1  0.545200  0.974700  0.798400  1.0  0.0212
  C  C54  1  0.626900  0.906600  0.806100  1.0  0.127
  C  C55  1  0.634500  0.816500  0.845400  1.0  -0.0039
  C  C56  1  0.557800  0.790000  0.879700  1.0  0.0618
  C  C57  1  0.475400  0.857200  0.873000  1.0  0.0476
  C  C58  1  0.609300  0.162300  0.091000  1.0  -0.0188
  C  C59  1  0.560700  0.205700  0.495000  1.0  0.2752
  C  C60  1  0.611600  0.226400  0.559900  1.0  -0.019
  C  C61  1  0.673600  0.147300  0.592300  1.0  0.1311
  C  C62  1  0.684200  0.047800  0.564100  1.0  0.0021
  C  C63  1  0.633600  0.030000  0.498500  1.0  0.1179
  C  C64  1  0.573600  0.107900  0.464700  1.0  0.0041
  C  C65  1  0.525900  0.089000  0.392200  1.0  -0.0346
  C  C66  1  0.531000  0.256400  0.322700  1.0  0.2499
  C  C67  1  0.575900  0.162500  0.347200  1.0  0.0285
  C  C68  1  0.668900  0.131000  0.336100  1.0  0.0747
  C  C69  1  0.716400  0.201500  0.298400  1.0  0.0074
  C  C70  1  0.673000  0.294800  0.273800  1.0  0.1022
  C  C71  1  0.579400  0.325600  0.281900  1.0  -0.014
  C  C72  1  0.532400  0.427700  0.252900  1.0  -0.005
  C  C73  1  0.471400  0.549900  0.336800  1.0  0.2082
  C  C74  1  0.545200  0.525300  0.298400  1.0  0.0206
  C  C75  1  0.626900  0.593400  0.306100  1.0  0.1274
  C  C76  1  0.634500  0.683500  0.345400  1.0  -0.0039
  C  C77  1  0.557800  0.710000  0.379700  1.0  0.0613
  C  C78  1  0.475400  0.642800  0.373000  1.0  0.0535
  C  C79  1  0.609300  0.337700  0.591000  1.0  -0.019
  C  C80  1  0.439300  0.705700  0.005000  1.0  0.2754
  C  C81  1  0.388400  0.726400  0.940100  1.0  -0.0172
  C  C82  1  0.326400  0.647300  0.907700  1.0  0.1351
  C  C83  1  0.315800  0.547800  0.935900  1.0  0.0015
  C  C84  1  0.366400  0.530000  0.001500  1.0  0.1192
  C  C85  1  0.426400  0.607900  0.035300  1.0  0.0037
  C  C86  1  0.474100  0.589000  0.107800  1.0  -0.0344
  C  C87  1  0.469000  0.756400  0.177300  1.0  0.25
  C  C88  1  0.424100  0.662500  0.152800  1.0  0.0284
  C  C89  1  0.331100  0.631000  0.163900  1.0  0.0753
  C  C90  1  0.283600  0.701500  0.201600  1.0  0.0089
  C  C91  1  0.327000  0.794800  0.226200  1.0  0.1024
  C  C92  1  0.420600  0.825600  0.218100  1.0  -0.0159
  C  C93  1  0.467600  0.927700  0.247100  1.0  -0.0149
  C  C94  1  0.528600  0.049900  0.163200  1.0  0.2077
  C  C95  1  0.454800  0.025300  0.201600  1.0  0.0197
  C  C96  1  0.373100  0.093400  0.193900  1.0  0.1291
  C  C97  1  0.365500  0.183500  0.154600  1.0  -0.0049
  C  C98  1  0.442200  0.210000  0.120300  1.0  0.0615
  C  C99  1  0.524600  0.142800  0.127000  1.0  0.0548
  C  C100  1  0.390700  0.837700  0.909000  1.0  -0.0206
  S  S101  1  0.233300  0.047500  0.394700  1.0  1.456
  S  S102  1  0.162400  0.828700  0.712100  1.0  1.4393
  S  S103  1  0.256200  0.239900  0.639800  1.0  1.4706
  S  S104  1  0.766700  0.547500  0.105300  1.0  1.4555
  S  S105  1  0.837600  0.328700  0.787900  1.0  1.4393
  S  S106  1  0.743800  0.739900  0.860200  1.0  1.47
  S  S107  1  0.766700  0.952500  0.605300  1.0  1.4557
  S  S108  1  0.837600  0.171300  0.287900  1.0  1.4394
  S  S109  1  0.743800  0.760100  0.360200  1.0  1.4706
  S  S110  1  0.233300  0.452500  0.894700  1.0  1.4563
  S  S111  1  0.162400  0.671300  0.212100  1.0  1.4393
  S  S112  1  0.256200  0.260100  0.139800  1.0  1.4707
  O  O113  1  0.498600  0.713600  0.534700  1.0  -0.4695
  O  O114  1  0.135000  0.013500  0.402000  1.0  -0.6596
  O  O115  1  0.261900  0.152700  0.421400  1.0  -0.6328
  O  O116  1  0.240500  0.040900  0.324700  1.0  -0.7564
  O  O117  1  0.557500  0.712900  0.663600  1.0  -0.6049
  O  O118  1  0.138300  0.936200  0.690400  1.0  -0.5943
  O  O119  1  0.160500  0.808100  0.781400  1.0  -0.5838
  O  O120  1  0.097000  0.752100  0.671000  1.0  -0.5622
  O  O121  1  0.607200  0.517900  0.665500  1.0  -0.4632
  O  O122  1  0.237600  0.206200  0.703200  1.0  -0.7489
  O  O123  1  0.178400  0.308200  0.604900  1.0  -0.5975
  O  O124  1  0.271200  0.149900  0.598800  1.0  -0.5803
  O  O125  1  0.102100  0.015300  0.559300  1.0  -0.3917
  O  O126  1  0.085400  0.224600  0.281100  1.0  -0.429
  O  O127  1  0.205100  0.418700  0.334100  1.0  -0.4969
  O  O128  1  0.965700  0.810600  0.550300  1.0  -0.5764
  O  O129  1  0.990000  0.210000  0.632500  1.0  -0.5155
  O  O130  1  0.501400  0.213600  0.965300  1.0  -0.4673
  O  O131  1  0.865000  0.513500  0.098000  1.0  -0.6596
  O  O132  1  0.738100  0.652700  0.078600  1.0  -0.6329
  O  O133  1  0.759500  0.540900  0.175300  1.0  -0.758
  O  O134  1  0.442500  0.212900  0.836400  1.0  -0.6038
  O  O135  1  0.861700  0.436200  0.809600  1.0  -0.5934
  O  O136  1  0.839500  0.308100  0.718600  1.0  -0.5846
  O  O137  1  0.903000  0.252100  0.829000  1.0  -0.5642
  O  O138  1  0.392800  0.017900  0.834500  1.0  -0.4628
  O  O139  1  0.762400  0.706200  0.796800  1.0  -0.7514
  O  O140  1  0.821600  0.808200  0.895100  1.0  -0.5965
  O  O141  1  0.728800  0.649900  0.901200  1.0  -0.5801
  O  O142  1  0.897900  0.515300  0.940700  1.0  -0.3926
  O  O143  1  0.914600  0.724600  0.218900  1.0  -0.4311
  O  O144  1  0.794900  0.918700  0.165900  1.0  -0.4969
  O  O145  1  0.034300  0.310600  0.949700  1.0  -0.5761
  O  O146  1  0.010000  0.710000  0.867500  1.0  -0.5144
  O  O147  1  0.501400  0.286400  0.465300  1.0  -0.4662
  O  O148  1  0.865000  0.986500  0.598000  1.0  -0.6591
  O  O149  1  0.738100  0.847300  0.578600  1.0  -0.6337
  O  O150  1  0.759500  0.959100  0.675300  1.0  -0.756
  O  O151  1  0.442500  0.287100  0.336400  1.0  -0.6041
  O  O152  1  0.861700  0.063800  0.309600  1.0  -0.5962
  O  O153  1  0.839500  0.191900  0.218600  1.0  -0.5842
  O  O154  1  0.903000  0.247900  0.329000  1.0  -0.564
  O  O155  1  0.392800  0.482100  0.334500  1.0  -0.4625
  O  O156  1  0.762400  0.793800  0.296800  1.0  -0.7507
  O  O157  1  0.821600  0.691800  0.395100  1.0  -0.5951
  O  O158  1  0.728800  0.850100  0.401200  1.0  -0.5764
  O  O159  1  0.897900  0.984700  0.440700  1.0  -0.3925
  O  O160  1  0.914600  0.775400  0.718900  1.0  -0.4308
  O  O161  1  0.794900  0.581300  0.665900  1.0  -0.4974
  O  O162  1  0.034300  0.189400  0.449700  1.0  -0.5783
  O  O163  1  0.010000  0.790000  0.367500  1.0  -0.5159
  O  O164  1  0.498600  0.786400  0.034700  1.0  -0.468
  O  O165  1  0.135000  0.486500  0.902000  1.0  -0.6588
  O  O166  1  0.261900  0.347300  0.921400  1.0  -0.6338
  O  O167  1  0.240500  0.459100  0.824700  1.0  -0.7546
  O  O168  1  0.557500  0.787100  0.163600  1.0  -0.6043
  O  O169  1  0.138300  0.563800  0.190400  1.0  -0.5965
  O  O170  1  0.160500  0.691900  0.281400  1.0  -0.5841
  O  O171  1  0.097000  0.747900  0.171000  1.0  -0.5623
  O  O172  1  0.607200  0.982100  0.165500  1.0  -0.4635
  O  O173  1  0.237600  0.293800  0.203200  1.0  -0.7488
  O  O174  1  0.178400  0.191800  0.104900  1.0  -0.5955
  O  O175  1  0.271200  0.350100  0.098800  1.0  -0.5772
  O  O176  1  0.102100  0.484700  0.059300  1.0  -0.3917
  O  O177  1  0.085400  0.275400  0.781100  1.0  -0.429
  O  O178  1  0.205100  0.081300  0.834100  1.0  -0.498
  O  O179  1  0.965700  0.689400  0.050300  1.0  -0.5779
  O  O180  1  0.990000  0.290000  0.132500  1.0  -0.5165
