# generated using pymatgen
data_Fe3(C2N3)8
_symmetry_space_group_name_H-M   'P 1'
_cell_length_a   29.84600000
_cell_length_b   21.31000000
_cell_length_c   12.09000000
_cell_angle_alpha   90.00000000
_cell_angle_beta   90.00000000
_cell_angle_gamma   90.00000000
_symmetry_Int_Tables_number   1
_chemical_formula_structural   Fe3(C2N3)8
_chemical_formula_sum   'Fe12 C64 N96'
_cell_volume   7689.46076340
_cell_formula_units_Z   4
loop_
 _symmetry_equiv_pos_site_id
 _symmetry_equiv_pos_as_xyz
  1  'x, y, z'
loop_
 _atom_site_type_symbol
 _atom_site_label
 _atom_site_symmetry_multiplicity
 _atom_site_fract_x
 _atom_site_fract_y
 _atom_site_fract_z
 _atom_site_occupancy
 _atom_site_charge
  Fe  Fe1  1  0.474850  0.240620  0.155660  1.0  0.8237
  Fe  Fe2  1  0.648920  0.112450  0.663800  1.0  0.9503
  Fe  Fe3  1  0.657840  0.546530  0.160110  1.0  0.8909
  Fe  Fe4  1  0.525150  0.759380  0.655660  1.0  0.8223
  Fe  Fe5  1  0.351080  0.887550  0.163800  1.0  0.9512
  Fe  Fe6  1  0.342160  0.453470  0.660110  1.0  0.8919
  Fe  Fe7  1  0.974850  0.759380  0.155660  1.0  0.8234
  Fe  Fe8  1  0.148920  0.887550  0.663800  1.0  0.9501
  Fe  Fe9  1  0.157840  0.453470  0.160110  1.0  0.8915
  Fe  Fe10  1  0.025150  0.240620  0.655660  1.0  0.8224
  Fe  Fe11  1  0.851080  0.112450  0.163800  1.0  0.9512
  Fe  Fe12  1  0.842160  0.546530  0.660110  1.0  0.8917
  C  C13  1  0.537200  0.146600  0.309800  1.0  0.5686
  C  C14  1  0.584400  0.113900  0.445300  1.0  0.6108
  C  C15  1  0.552200  0.341600  0.082600  1.0  0.596
  C  C16  1  0.598600  0.424900  0.089300  1.0  0.4833
  C  C17  1  0.426400  0.345400  0.007800  1.0  0.4523
  C  C18  1  0.399900  0.410300  0.882900  1.0  0.5651
  C  C19  1  0.503400  0.173400  0.927700  1.0  0.4454
  C  C20  1  0.555400  0.147300  0.790300  1.0  0.5466
  C  C21  1  0.406100  0.130100  0.230600  1.0  0.5068
  C  C22  1  0.376900  0.030200  0.234000  1.0  0.3958
  C  C23  1  0.450800  0.314600  0.389500  1.0  0.6362
  C  C24  1  0.412900  0.369200  0.518300  1.0  0.3661
  C  C25  1  0.706300  0.092800  0.889800  1.0  0.6234
  C  C26  1  0.761200  0.082800  0.020600  1.0  0.6008
  C  C27  1  0.734900  0.487100  0.308300  1.0  0.5025
  C  C28  1  0.787700  0.496300  0.452200  1.0  0.568
  C  C29  1  0.462800  0.853400  0.809800  1.0  0.5692
  C  C30  1  0.415600  0.886100  0.945300  1.0  0.61
  C  C31  1  0.447800  0.658400  0.582600  1.0  0.5972
  C  C32  1  0.401400  0.575100  0.589300  1.0  0.4836
  C  C33  1  0.573600  0.654600  0.507800  1.0  0.4518
  C  C34  1  0.600100  0.589700  0.382900  1.0  0.5657
  C  C35  1  0.496600  0.826600  0.427700  1.0  0.4456
  C  C36  1  0.444600  0.852700  0.290300  1.0  0.5452
  C  C37  1  0.593900  0.869900  0.730600  1.0  0.5062
  C  C38  1  0.623100  0.969800  0.734000  1.0  0.3934
  C  C39  1  0.549200  0.685400  0.889500  1.0  0.6355
  C  C40  1  0.587100  0.630800  0.018300  1.0  0.367
  C  C41  1  0.293700  0.907200  0.389800  1.0  0.6239
  C  C42  1  0.238800  0.917200  0.520600  1.0  0.5999
  C  C43  1  0.265100  0.512900  0.808300  1.0  0.5051
  C  C44  1  0.212300  0.503700  0.952200  1.0  0.5666
  C  C45  1  0.037200  0.853400  0.309800  1.0  0.5685
  C  C46  1  0.084400  0.886100  0.445300  1.0  0.6109
  C  C47  1  0.052200  0.658400  0.082600  1.0  0.5965
  C  C48  1  0.098600  0.575100  0.089300  1.0  0.4835
  C  C49  1  0.926400  0.654600  0.007800  1.0  0.4521
  C  C50  1  0.899900  0.589700  0.882900  1.0  0.5651
  C  C51  1  0.003400  0.826600  0.927700  1.0  0.4453
  C  C52  1  0.055400  0.852700  0.790300  1.0  0.5466
  C  C53  1  0.906100  0.869900  0.230600  1.0  0.5069
  C  C54  1  0.876900  0.969800  0.234000  1.0  0.3961
  C  C55  1  0.950800  0.685400  0.389500  1.0  0.6361
  C  C56  1  0.912900  0.630800  0.518300  1.0  0.3663
  C  C57  1  0.206300  0.907200  0.889800  1.0  0.6238
  C  C58  1  0.261200  0.917200  0.020600  1.0  0.6008
  C  C59  1  0.234900  0.512900  0.308300  1.0  0.5023
  C  C60  1  0.287700  0.503700  0.452200  1.0  0.5678
  C  C61  1  0.962800  0.146600  0.809800  1.0  0.569
  C  C62  1  0.915600  0.113900  0.945300  1.0  0.6098
  C  C63  1  0.947800  0.341600  0.582600  1.0  0.5966
  C  C64  1  0.901400  0.424900  0.589300  1.0  0.4835
  C  C65  1  0.073600  0.345400  0.507800  1.0  0.4519
  C  C66  1  0.100100  0.410300  0.382900  1.0  0.5658
  C  C67  1  0.996600  0.173400  0.427700  1.0  0.4457
  C  C68  1  0.944600  0.147300  0.290300  1.0  0.5452
  C  C69  1  0.093900  0.130100  0.730600  1.0  0.5059
  C  C70  1  0.123100  0.030200  0.734000  1.0  0.3933
  C  C71  1  0.049200  0.314600  0.889500  1.0  0.6356
  C  C72  1  0.087100  0.369200  0.018300  1.0  0.3662
  C  C73  1  0.793700  0.092800  0.389800  1.0  0.625
  C  C74  1  0.738800  0.082800  0.520600  1.0  0.5992
  C  C75  1  0.765100  0.487100  0.808300  1.0  0.5055
  C  C76  1  0.712300  0.496300  0.952200  1.0  0.5664
  N  N77  1  0.517500  0.179700  0.256000  1.0  -0.5008
  N  N78  1  0.556500  0.104900  0.370200  1.0  -0.3545
  N  N79  1  0.608700  0.114000  0.512800  1.0  -0.4572
  N  N80  1  0.530400  0.302500  0.120700  1.0  -0.4824
  N  N81  1  0.575800  0.380200  0.028800  1.0  -0.4844
  N  N82  1  0.617900  0.465400  0.121100  1.0  -0.4318
  N  N83  1  0.432100  0.300700  0.063400  1.0  -0.4974
  N  N84  1  0.427800  0.401600  0.962600  1.0  -0.503
  N  N85  1  0.381100  0.429400  0.809600  1.0  -0.4559
  N  N86  1  0.490600  0.191700  0.010300  1.0  -0.4395
  N  N87  1  0.512600  0.151600  0.823300  1.0  -0.4163
  N  N88  1  0.589700  0.143100  0.750800  1.0  -0.5238
  N  N89  1  0.421400  0.175600  0.192700  1.0  -0.567
  N  N90  1  0.387800  0.081600  0.282700  1.0  -0.4036
  N  N91  1  0.366600  0.983600  0.191600  1.0  -0.4716
  N  N92  1  0.457700  0.295400  0.304600  1.0  -0.4396
  N  N93  1  0.449700  0.341400  0.484700  1.0  -0.4304
  N  N94  1  0.383500  0.397200  0.567000  1.0  -0.4106
  N  N95  1  0.689900  0.111600  0.811800  1.0  -0.4926
  N  N96  1  0.725000  0.065000  0.971400  1.0  -0.4476
  N  N97  1  0.793600  0.091600  0.071000  1.0  -0.4537
  N  N98  1  0.702200  0.494700  0.261500  1.0  -0.5395
  N  N99  1  0.772600  0.466000  0.359100  1.0  -0.4546
  N  N100  1  0.800100  0.524500  0.520800  1.0  -0.476
  N  N101  1  0.482500  0.820300  0.756000  1.0  -0.5001
  N  N102  1  0.443500  0.895100  0.870200  1.0  -0.356
  N  N103  1  0.391300  0.886000  0.012800  1.0  -0.4561
  N  N104  1  0.469600  0.697500  0.620700  1.0  -0.4843
  N  N105  1  0.424200  0.619800  0.528800  1.0  -0.4848
  N  N106  1  0.382100  0.534600  0.621100  1.0  -0.4309
  N  N107  1  0.567900  0.699300  0.563400  1.0  -0.4996
  N  N108  1  0.572200  0.598400  0.462600  1.0  -0.5026
  N  N109  1  0.618900  0.570600  0.309600  1.0  -0.4559
  N  N110  1  0.509400  0.808300  0.510300  1.0  -0.4395
  N  N111  1  0.487400  0.848400  0.323300  1.0  -0.4171
  N  N112  1  0.410300  0.856900  0.250800  1.0  -0.5212
  N  N113  1  0.578600  0.824400  0.692700  1.0  -0.5639
  N  N114  1  0.612200  0.918400  0.782700  1.0  -0.4033
  N  N115  1  0.633400  0.016400  0.691600  1.0  -0.4713
  N  N116  1  0.542300  0.704600  0.804600  1.0  -0.4395
  N  N117  1  0.550300  0.658600  0.984700  1.0  -0.4301
  N  N118  1  0.616500  0.602800  0.067000  1.0  -0.4125
  N  N119  1  0.310100  0.888400  0.311800  1.0  -0.4918
  N  N120  1  0.275000  0.935000  0.471400  1.0  -0.453
  N  N121  1  0.206400  0.908400  0.571000  1.0  -0.4483
  N  N122  1  0.297800  0.505300  0.761500  1.0  -0.5402
  N  N123  1  0.227400  0.534000  0.859100  1.0  -0.4543
  N  N124  1  0.199900  0.475500  0.020800  1.0  -0.4745
  N  N125  1  0.017500  0.820300  0.256000  1.0  -0.5007
  N  N126  1  0.056500  0.895100  0.370200  1.0  -0.3559
  N  N127  1  0.108700  0.886000  0.512800  1.0  -0.4568
  N  N128  1  0.030400  0.697500  0.120700  1.0  -0.4836
  N  N129  1  0.075800  0.619800  0.028800  1.0  -0.4845
  N  N130  1  0.117900  0.534600  0.121100  1.0  -0.4298
  N  N131  1  0.932100  0.699300  0.063400  1.0  -0.4998
  N  N132  1  0.927800  0.598400  0.962600  1.0  -0.5012
  N  N133  1  0.881100  0.570600  0.809600  1.0  -0.4559
  N  N134  1  0.990600  0.808300  0.010300  1.0  -0.4398
  N  N135  1  0.012600  0.848400  0.823300  1.0  -0.4168
  N  N136  1  0.089700  0.856900  0.750800  1.0  -0.5222
  N  N137  1  0.921400  0.824400  0.192700  1.0  -0.5639
  N  N138  1  0.887800  0.918400  0.282700  1.0  -0.403
  N  N139  1  0.866600  0.016400  0.191600  1.0  -0.4715
  N  N140  1  0.957700  0.704600  0.304600  1.0  -0.4392
  N  N141  1  0.949700  0.658600  0.484700  1.0  -0.4305
  N  N142  1  0.883500  0.602800  0.567000  1.0  -0.4112
  N  N143  1  0.189900  0.888400  0.811800  1.0  -0.4922
  N  N144  1  0.225000  0.935000  0.971400  1.0  -0.4486
  N  N145  1  0.293600  0.908400  0.071000  1.0  -0.4529
  N  N146  1  0.202200  0.505300  0.261500  1.0  -0.5395
  N  N147  1  0.272600  0.534000  0.359100  1.0  -0.4537
  N  N148  1  0.300100  0.475500  0.520800  1.0  -0.4738
  N  N149  1  0.982500  0.179700  0.756000  1.0  -0.5005
  N  N150  1  0.943500  0.104900  0.870200  1.0  -0.3539
  N  N151  1  0.891300  0.114000  0.012800  1.0  -0.4562
  N  N152  1  0.969600  0.302500  0.620700  1.0  -0.4825
  N  N153  1  0.924200  0.380200  0.528800  1.0  -0.4847
  N  N154  1  0.882100  0.465400  0.621100  1.0  -0.4327
  N  N155  1  0.067900  0.300700  0.563400  1.0  -0.4977
  N  N156  1  0.072200  0.401600  0.462600  1.0  -0.5037
  N  N157  1  0.118900  0.429400  0.309600  1.0  -0.4561
  N  N158  1  0.009400  0.191700  0.510300  1.0  -0.439
  N  N159  1  0.987400  0.151600  0.323300  1.0  -0.4168
  N  N160  1  0.910300  0.143100  0.250800  1.0  -0.5226
  N  N161  1  0.078600  0.175600  0.692700  1.0  -0.5665
  N  N162  1  0.112200  0.081600  0.782700  1.0  -0.4037
  N  N163  1  0.133400  0.983600  0.691600  1.0  -0.4709
  N  N164  1  0.042300  0.295400  0.804600  1.0  -0.4401
  N  N165  1  0.050300  0.341400  0.984700  1.0  -0.43
  N  N166  1  0.116500  0.397200  0.067000  1.0  -0.4119
  N  N167  1  0.810100  0.111600  0.311800  1.0  -0.4946
  N  N168  1  0.775000  0.065000  0.471400  1.0  -0.4517
  N  N169  1  0.706400  0.091600  0.571000  1.0  -0.4476
  N  N170  1  0.797800  0.494700  0.761500  1.0  -0.5404
  N  N171  1  0.727400  0.466000  0.859100  1.0  -0.4551
  N  N172  1  0.699900  0.524500  0.020800  1.0  -0.4765
