# generated using pymatgen
data_CuH2(CO)4
_symmetry_space_group_name_H-M   'P 1'
_cell_length_a   18.61070000
_cell_length_b   18.61070000
_cell_length_c   4.80220000
_cell_angle_alpha   90.00000000
_cell_angle_beta   90.00000000
_cell_angle_gamma   90.00000000
_symmetry_Int_Tables_number   1
_chemical_formula_structural   CuH2(CO)4
_chemical_formula_sum   'Cu8 H16 C32 O32'
_cell_volume   1663.28112949
_cell_formula_units_Z   8
loop_
 _symmetry_equiv_pos_site_id
 _symmetry_equiv_pos_as_xyz
  1  'x, y, z'
loop_
 _atom_site_type_symbol
 _atom_site_label
 _atom_site_symmetry_multiplicity
 _atom_site_fract_x
 _atom_site_fract_y
 _atom_site_fract_z
 _atom_site_occupancy
 _atom_site_charge
  Cu  Cu1  1  0.000000  0.500000  0.000000  1.0  0.6019
  Cu  Cu2  1  0.500000  0.000000  0.500000  1.0  0.6019
  Cu  Cu3  1  0.500000  0.500000  0.500000  1.0  0.6019
  Cu  Cu4  1  0.000000  0.000000  0.000000  1.0  0.6019
  Cu  Cu5  1  0.250000  0.250000  0.250000  1.0  0.6019
  Cu  Cu6  1  0.750000  0.750000  0.750000  1.0  0.6019
  Cu  Cu7  1  0.250000  0.750000  0.750000  1.0  0.6019
  Cu  Cu8  1  0.750000  0.250000  0.250000  1.0  0.6019
  H  H9  1  0.979100  0.679200  0.594000  1.0  0.1493
  H  H10  1  0.479100  0.179200  0.094000  1.0  0.1493
  H  H11  1  0.520900  0.320800  0.094000  1.0  0.1488
  H  H12  1  0.020900  0.820800  0.594000  1.0  0.1488
  H  H13  1  0.070800  0.229100  0.844000  1.0  0.1484
  H  H14  1  0.570800  0.729100  0.344000  1.0  0.1484
  H  H15  1  0.429200  0.770900  0.344000  1.0  0.1489
  H  H16  1  0.929200  0.270900  0.844000  1.0  0.1489
  H  H17  1  0.020900  0.320800  0.406000  1.0  0.1503
  H  H18  1  0.520900  0.820800  0.906000  1.0  0.1503
  H  H19  1  0.479100  0.679200  0.906000  1.0  0.151
  H  H20  1  0.979100  0.179200  0.406000  1.0  0.151
  H  H21  1  0.929200  0.770900  0.156000  1.0  0.151
  H  H22  1  0.429200  0.270900  0.656000  1.0  0.151
  H  H23  1  0.570800  0.229100  0.656000  1.0  0.1497
  H  H24  1  0.070800  0.729100  0.156000  1.0  0.1497
  C  C25  1  0.983490  0.694150  0.399000  1.0  -0.0973
  C  C26  1  0.969730  0.631450  0.207400  1.0  0.7058
  C  C27  1  0.483490  0.194150  0.899000  1.0  -0.0973
  C  C28  1  0.469730  0.131450  0.707400  1.0  0.7058
  C  C29  1  0.516510  0.305850  0.899000  1.0  -0.0969
  C  C30  1  0.530270  0.368550  0.707400  1.0  0.7063
  C  C31  1  0.016510  0.805850  0.399000  1.0  -0.0969
  C  C32  1  0.030270  0.868550  0.207400  1.0  0.7063
  C  C33  1  0.055850  0.233490  0.649000  1.0  -0.098
  C  C34  1  0.118550  0.219730  0.457400  1.0  0.7026
  C  C35  1  0.555850  0.733490  0.149000  1.0  -0.098
  C  C36  1  0.618550  0.719730  0.957400  1.0  0.7026
  C  C37  1  0.444150  0.766510  0.149000  1.0  -0.0977
  C  C38  1  0.381450  0.780270  0.957400  1.0  0.7012
  C  C39  1  0.944150  0.266510  0.649000  1.0  -0.0977
  C  C40  1  0.881450  0.280270  0.457400  1.0  0.7012
  C  C41  1  0.016510  0.305850  0.601000  1.0  -0.0977
  C  C42  1  0.030270  0.368550  0.792600  1.0  0.7059
  C  C43  1  0.516510  0.805850  0.101000  1.0  -0.0977
  C  C44  1  0.530270  0.868550  0.292600  1.0  0.7059
  C  C45  1  0.483490  0.694150  0.101000  1.0  -0.1002
  C  C46  1  0.469730  0.631450  0.292600  1.0  0.7059
  C  C47  1  0.983490  0.194150  0.601000  1.0  -0.1002
  C  C48  1  0.969730  0.131450  0.792600  1.0  0.7059
  C  C49  1  0.944150  0.766510  0.351000  1.0  -0.0992
  C  C50  1  0.881450  0.780270  0.542600  1.0  0.7019
  C  C51  1  0.444150  0.266510  0.851000  1.0  -0.0992
  C  C52  1  0.381450  0.280270  0.042600  1.0  0.7019
  C  C53  1  0.555850  0.233490  0.851000  1.0  -0.1007
  C  C54  1  0.618550  0.219730  0.042600  1.0  0.7038
  C  C55  1  0.055850  0.733490  0.351000  1.0  -0.1007
  C  C56  1  0.118550  0.719730  0.542600  1.0  0.7038
  O  O57  1  0.921620  0.631910  0.026700  1.0  -0.4833
  O  O58  1  0.013370  0.579730  0.243600  1.0  -0.5726
  O  O59  1  0.421620  0.131910  0.526700  1.0  -0.4833
  O  O60  1  0.513370  0.079730  0.743600  1.0  -0.5726
  O  O61  1  0.578380  0.368090  0.526700  1.0  -0.4851
  O  O62  1  0.486630  0.420270  0.743600  1.0  -0.5741
  O  O63  1  0.078380  0.868090  0.026700  1.0  -0.4851
  O  O64  1  0.986630  0.920270  0.243600  1.0  -0.5741
  O  O65  1  0.118090  0.171620  0.276700  1.0  -0.4796
  O  O66  1  0.170270  0.263370  0.493600  1.0  -0.5724
  O  O67  1  0.618090  0.671620  0.776700  1.0  -0.4796
  O  O68  1  0.670270  0.763370  0.993600  1.0  -0.5724
  O  O69  1  0.381910  0.828380  0.776700  1.0  -0.4828
  O  O70  1  0.329730  0.736630  0.993600  1.0  -0.5742
  O  O71  1  0.881910  0.328380  0.276700  1.0  -0.4828
  O  O72  1  0.829730  0.236630  0.493600  1.0  -0.5742
  O  O73  1  0.078380  0.368090  0.973300  1.0  -0.486
  O  O74  1  0.986630  0.420270  0.756400  1.0  -0.5739
  O  O75  1  0.578380  0.868090  0.473300  1.0  -0.486
  O  O76  1  0.486630  0.920270  0.256400  1.0  -0.5739
  O  O77  1  0.421620  0.631910  0.473300  1.0  -0.4844
  O  O78  1  0.513370  0.579730  0.256400  1.0  -0.5722
  O  O79  1  0.921620  0.131910  0.973300  1.0  -0.4844
  O  O80  1  0.013370  0.079730  0.756400  1.0  -0.5722
  O  O81  1  0.881910  0.828380  0.723300  1.0  -0.4832
  O  O82  1  0.829730  0.736630  0.506400  1.0  -0.5739
  O  O83  1  0.381910  0.328380  0.223300  1.0  -0.4832
  O  O84  1  0.329730  0.236630  0.006400  1.0  -0.5739
  O  O85  1  0.618090  0.171620  0.223300  1.0  -0.4806
  O  O86  1  0.670270  0.263370  0.006400  1.0  -0.5721
  O  O87  1  0.118090  0.671620  0.723300  1.0  -0.4806
  O  O88  1  0.170270  0.763370  0.506400  1.0  -0.5721
