# generated using pymatgen
data_Cu2H4C8O9
_symmetry_space_group_name_H-M   'P 1'
_cell_length_a   20.27600000
_cell_length_b   20.27600000
_cell_length_c   20.27600000
_cell_angle_alpha   90.00000000
_cell_angle_beta   90.00000000
_cell_angle_gamma   90.00000000
_symmetry_Int_Tables_number   1
_chemical_formula_structural   Cu2H4C8O9
_chemical_formula_sum   'Cu48 H96 C192 O216'
_cell_volume   8335.79158458
_cell_formula_units_Z   24
loop_
 _symmetry_equiv_pos_site_id
 _symmetry_equiv_pos_as_xyz
  1  'x, y, z'
loop_
 _atom_site_type_symbol
 _atom_site_label
 _atom_site_symmetry_multiplicity
 _atom_site_fract_x
 _atom_site_fract_y
 _atom_site_fract_z
 _atom_site_occupancy
 _atom_site_charge
  Cu  Cu1  1  0.845070  0.606410  0.860900  1.0  0.9213
  Cu  Cu2  1  0.729560  0.504240  0.947780  1.0  0.8852
  Cu  Cu3  1  0.654930  0.393590  0.360900  1.0  0.9202
  Cu  Cu4  1  0.770440  0.495760  0.447780  1.0  0.8835
  Cu  Cu5  1  0.154930  0.106410  0.639100  1.0  0.9212
  Cu  Cu6  1  0.270440  0.004240  0.552220  1.0  0.884
  Cu  Cu7  1  0.345070  0.893590  0.139100  1.0  0.9222
  Cu  Cu8  1  0.229560  0.995760  0.052220  1.0  0.8851
  Cu  Cu9  1  0.860900  0.845070  0.606410  1.0  0.9225
  Cu  Cu10  1  0.947780  0.729560  0.504240  1.0  0.8854
  Cu  Cu11  1  0.360900  0.654930  0.393590  1.0  0.922
  Cu  Cu12  1  0.447780  0.770440  0.495760  1.0  0.8843
  Cu  Cu13  1  0.639100  0.154930  0.106410  1.0  0.9231
  Cu  Cu14  1  0.552220  0.270440  0.004240  1.0  0.8844
  Cu  Cu15  1  0.139100  0.345070  0.893590  1.0  0.9226
  Cu  Cu16  1  0.052220  0.229560  0.995760  1.0  0.8843
  Cu  Cu17  1  0.606410  0.860900  0.845070  1.0  0.9225
  Cu  Cu18  1  0.504240  0.947780  0.729560  1.0  0.8837
  Cu  Cu19  1  0.393590  0.360900  0.654930  1.0  0.9207
  Cu  Cu20  1  0.495760  0.447780  0.770440  1.0  0.8846
  Cu  Cu21  1  0.106410  0.639100  0.154930  1.0  0.9217
  Cu  Cu22  1  0.004240  0.552220  0.270440  1.0  0.8842
  Cu  Cu23  1  0.893590  0.139100  0.345070  1.0  0.9205
  Cu  Cu24  1  0.995760  0.052220  0.229560  1.0  0.8837
  Cu  Cu25  1  0.154930  0.393590  0.139100  1.0  0.9219
  Cu  Cu26  1  0.270440  0.495760  0.052220  1.0  0.8837
  Cu  Cu27  1  0.345070  0.606410  0.639100  1.0  0.9214
  Cu  Cu28  1  0.229560  0.504240  0.552220  1.0  0.8855
  Cu  Cu29  1  0.845070  0.893590  0.360900  1.0  0.9204
  Cu  Cu30  1  0.729560  0.995760  0.447780  1.0  0.885
  Cu  Cu31  1  0.654930  0.106410  0.860900  1.0  0.9212
  Cu  Cu32  1  0.770440  0.004240  0.947780  1.0  0.8836
  Cu  Cu33  1  0.139100  0.154930  0.393590  1.0  0.9225
  Cu  Cu34  1  0.052220  0.270440  0.495760  1.0  0.8834
  Cu  Cu35  1  0.639100  0.345070  0.606410  1.0  0.9235
  Cu  Cu36  1  0.552220  0.229560  0.504240  1.0  0.8851
  Cu  Cu37  1  0.360900  0.845070  0.893590  1.0  0.9222
  Cu  Cu38  1  0.447780  0.729560  0.995760  1.0  0.8846
  Cu  Cu39  1  0.860900  0.654930  0.106410  1.0  0.9224
  Cu  Cu40  1  0.947780  0.770440  0.004240  1.0  0.8853
  Cu  Cu41  1  0.393590  0.139100  0.154930  1.0  0.9204
  Cu  Cu42  1  0.495760  0.052220  0.270440  1.0  0.8845
  Cu  Cu43  1  0.606410  0.639100  0.345070  1.0  0.922
  Cu  Cu44  1  0.504240  0.552220  0.229560  1.0  0.8838
  Cu  Cu45  1  0.893590  0.360900  0.845070  1.0  0.9214
  Cu  Cu46  1  0.995760  0.447780  0.729560  1.0  0.8836
  Cu  Cu47  1  0.106410  0.860900  0.654930  1.0  0.922
  Cu  Cu48  1  0.004240  0.947780  0.770440  1.0  0.8843
  H  H49  1  0.667000  0.691700  0.008400  1.0  0.1369
  H  H50  1  0.629500  0.695000  0.888100  1.0  0.1396
  H  H51  1  0.774100  0.801600  0.895400  1.0  0.1252
  H  H52  1  0.710600  0.794000  0.016800  1.0  0.132
  H  H53  1  0.833000  0.308300  0.508400  1.0  0.1364
  H  H54  1  0.870500  0.305000  0.388100  1.0  0.1396
  H  H55  1  0.725900  0.198400  0.395400  1.0  0.1247
  H  H56  1  0.789400  0.206000  0.516800  1.0  0.1323
  H  H57  1  0.333000  0.191700  0.491600  1.0  0.1372
  H  H58  1  0.370500  0.195000  0.611900  1.0  0.1404
  H  H59  1  0.225900  0.301600  0.604600  1.0  0.1247
  H  H60  1  0.289400  0.294000  0.483200  1.0  0.1327
  H  H61  1  0.167000  0.808300  0.991600  1.0  0.1368
  H  H62  1  0.129500  0.805000  0.111900  1.0  0.1394
  H  H63  1  0.274100  0.698400  0.104600  1.0  0.125
  H  H64  1  0.210600  0.706000  0.983200  1.0  0.1331
  H  H65  1  0.008400  0.667000  0.691700  1.0  0.1374
  H  H66  1  0.888100  0.629500  0.695000  1.0  0.1375
  H  H67  1  0.895400  0.774100  0.801600  1.0  0.1261
  H  H68  1  0.016800  0.710600  0.794000  1.0  0.1303
  H  H69  1  0.508400  0.833000  0.308300  1.0  0.1377
  H  H70  1  0.388100  0.870500  0.305000  1.0  0.137
  H  H71  1  0.395400  0.725900  0.198400  1.0  0.1259
  H  H72  1  0.516800  0.789400  0.206000  1.0  0.1316
  H  H73  1  0.491600  0.333000  0.191700  1.0  0.1364
  H  H74  1  0.611900  0.370500  0.195000  1.0  0.1386
  H  H75  1  0.604600  0.225900  0.301600  1.0  0.1264
  H  H76  1  0.483200  0.289400  0.294000  1.0  0.1306
  H  H77  1  0.991600  0.167000  0.808300  1.0  0.1362
  H  H78  1  0.111900  0.129500  0.805000  1.0  0.1375
  H  H79  1  0.104600  0.274100  0.698400  1.0  0.1265
  H  H80  1  0.983200  0.210600  0.706000  1.0  0.131
  H  H81  1  0.691700  0.008400  0.667000  1.0  0.138
  H  H82  1  0.695000  0.888100  0.629500  1.0  0.1394
  H  H83  1  0.801600  0.895400  0.774100  1.0  0.1245
  H  H84  1  0.794000  0.016800  0.710600  1.0  0.1309
  H  H85  1  0.308300  0.508400  0.833000  1.0  0.1381
  H  H86  1  0.305000  0.388100  0.870500  1.0  0.1393
  H  H87  1  0.198400  0.395400  0.725900  1.0  0.1249
  H  H88  1  0.206000  0.516800  0.789400  1.0  0.1319
  H  H89  1  0.191700  0.491600  0.333000  1.0  0.1374
  H  H90  1  0.195000  0.611900  0.370500  1.0  0.139
  H  H91  1  0.301600  0.604600  0.225900  1.0  0.1248
  H  H92  1  0.294000  0.483200  0.289400  1.0  0.1301
  H  H93  1  0.808300  0.991600  0.167000  1.0  0.1374
  H  H94  1  0.805000  0.111900  0.129500  1.0  0.1392
  H  H95  1  0.698400  0.104600  0.274100  1.0  0.124
  H  H96  1  0.706000  0.983200  0.210600  1.0  0.1298
  H  H97  1  0.333000  0.308300  0.991600  1.0  0.1373
  H  H98  1  0.370500  0.305000  0.111900  1.0  0.1395
  H  H99  1  0.225900  0.198400  0.104600  1.0  0.1249
  H  H100  1  0.289400  0.206000  0.983200  1.0  0.133
  H  H101  1  0.167000  0.691700  0.491600  1.0  0.1368
  H  H102  1  0.129500  0.695000  0.611900  1.0  0.1402
  H  H103  1  0.274100  0.801600  0.604600  1.0  0.125
  H  H104  1  0.210600  0.794000  0.483200  1.0  0.1328
  H  H105  1  0.667000  0.808300  0.508400  1.0  0.1368
  H  H106  1  0.629500  0.805000  0.388100  1.0  0.1395
  H  H107  1  0.774100  0.698400  0.395400  1.0  0.1249
  H  H108  1  0.710600  0.706000  0.516800  1.0  0.1327
  H  H109  1  0.833000  0.191700  0.008400  1.0  0.1365
  H  H110  1  0.870500  0.195000  0.888100  1.0  0.14
  H  H111  1  0.725900  0.301600  0.895400  1.0  0.1249
  H  H112  1  0.789400  0.294000  0.016800  1.0  0.1317
  H  H113  1  0.991600  0.333000  0.308300  1.0  0.1362
  H  H114  1  0.111900  0.370500  0.305000  1.0  0.1375
  H  H115  1  0.104600  0.225900  0.198400  1.0  0.1262
  H  H116  1  0.983200  0.289400  0.206000  1.0  0.1309
  H  H117  1  0.491600  0.167000  0.691700  1.0  0.1357
  H  H118  1  0.611900  0.129500  0.695000  1.0  0.1384
  H  H119  1  0.604600  0.274100  0.801600  1.0  0.1265
  H  H120  1  0.483200  0.210600  0.794000  1.0  0.1306
  H  H121  1  0.508400  0.667000  0.808300  1.0  0.1376
  H  H122  1  0.388100  0.629500  0.805000  1.0  0.1372
  H  H123  1  0.395400  0.774100  0.698400  1.0  0.1261
  H  H124  1  0.516800  0.710600  0.706000  1.0  0.1314
  H  H125  1  0.008400  0.833000  0.191700  1.0  0.1379
  H  H126  1  0.888100  0.870500  0.195000  1.0  0.1376
  H  H127  1  0.895400  0.725900  0.301600  1.0  0.1262
  H  H128  1  0.016800  0.789400  0.294000  1.0  0.1307
  H  H129  1  0.308300  0.991600  0.333000  1.0  0.1379
  H  H130  1  0.305000  0.111900  0.370500  1.0  0.139
  H  H131  1  0.198400  0.104600  0.225900  1.0  0.1247
  H  H132  1  0.206000  0.983200  0.289400  1.0  0.1302
  H  H133  1  0.691700  0.491600  0.167000  1.0  0.137
  H  H134  1  0.695000  0.611900  0.129500  1.0  0.139
  H  H135  1  0.801600  0.604600  0.274100  1.0  0.124
  H  H136  1  0.794000  0.483200  0.210600  1.0  0.1302
  H  H137  1  0.808300  0.508400  0.667000  1.0  0.138
  H  H138  1  0.805000  0.388100  0.629500  1.0  0.1391
  H  H139  1  0.698400  0.395400  0.774100  1.0  0.1245
  H  H140  1  0.706000  0.516800  0.710600  1.0  0.1315
  H  H141  1  0.191700  0.008400  0.833000  1.0  0.1378
  H  H142  1  0.195000  0.888100  0.870500  1.0  0.1398
  H  H143  1  0.301600  0.895400  0.725900  1.0  0.1252
  H  H144  1  0.294000  0.016800  0.789400  1.0  0.1308
  C  C145  1  0.690500  0.706200  0.968700  1.0  -0.1591
  C  C146  1  0.642100  0.731900  0.916700  1.0  0.07
  C  C147  1  0.731700  0.806600  0.918200  1.0  0.0738
  C  C148  1  0.733600  0.767600  0.983400  1.0  -0.1487
  C  C149  1  0.728300  0.648700  0.937300  1.0  0.6787
  C  C150  1  0.579200  0.763100  0.944100  1.0  0.7049
  C  C151  1  0.718200  0.879200  0.929500  1.0  0.6977
  C  C152  1  0.802300  0.751200  0.010600  1.0  0.685
  C  C153  1  0.809500  0.293800  0.468700  1.0  -0.1592
  C  C154  1  0.857900  0.268100  0.416700  1.0  0.0716
  C  C155  1  0.768300  0.193400  0.418200  1.0  0.0712
  C  C156  1  0.766400  0.232400  0.483400  1.0  -0.1493
  C  C157  1  0.771700  0.351300  0.437300  1.0  0.6771
  C  C158  1  0.920800  0.236900  0.444100  1.0  0.7066
  C  C159  1  0.781800  0.120800  0.429500  1.0  0.6977
  C  C160  1  0.697700  0.248800  0.510600  1.0  0.6852
  C  C161  1  0.309500  0.206200  0.531300  1.0  -0.1608
  C  C162  1  0.357900  0.231900  0.583300  1.0  0.0732
  C  C163  1  0.268300  0.306600  0.581800  1.0  0.0727
  C  C164  1  0.266400  0.267600  0.516600  1.0  -0.1494
  C  C165  1  0.271700  0.148700  0.562700  1.0  0.679
  C  C166  1  0.420800  0.263100  0.555900  1.0  0.706
  C  C167  1  0.281800  0.379200  0.570500  1.0  0.6986
  C  C168  1  0.197700  0.251200  0.489400  1.0  0.6858
  C  C169  1  0.190500  0.793800  0.031300  1.0  -0.1601
  C  C170  1  0.142100  0.768100  0.083300  1.0  0.0716
  C  C171  1  0.231700  0.693400  0.081800  1.0  0.0729
  C  C172  1  0.233600  0.732400  0.016600  1.0  -0.1502
  C  C173  1  0.228300  0.851300  0.062700  1.0  0.6765
  C  C174  1  0.079200  0.736900  0.055900  1.0  0.704
  C  C175  1  0.218200  0.620800  0.070500  1.0  0.6977
  C  C176  1  0.302300  0.748800  0.989400  1.0  0.6846
  C  C177  1  0.968700  0.690500  0.706200  1.0  -0.1599
  C  C178  1  0.916700  0.642100  0.731900  1.0  0.0735
  C  C179  1  0.918200  0.731700  0.806600  1.0  0.0728
  C  C180  1  0.983400  0.733600  0.767600  1.0  -0.1504
  C  C181  1  0.937300  0.728300  0.648700  1.0  0.6817
  C  C182  1  0.944100  0.579200  0.763100  1.0  0.7089
  C  C183  1  0.929500  0.718200  0.879200  1.0  0.7013
  C  C184  1  0.010600  0.802300  0.751200  1.0  0.6836
  C  C185  1  0.468700  0.809500  0.293800  1.0  -0.1595
  C  C186  1  0.416700  0.857900  0.268100  1.0  0.0727
  C  C187  1  0.418200  0.768300  0.193400  1.0  0.0714
  C  C188  1  0.483400  0.766400  0.232400  1.0  -0.1519
  C  C189  1  0.437300  0.771700  0.351300  1.0  0.6807
  C  C190  1  0.444100  0.920800  0.236900  1.0  0.7083
  C  C191  1  0.429500  0.781800  0.120800  1.0  0.6953
  C  C192  1  0.510600  0.697700  0.248800  1.0  0.6847
  C  C193  1  0.531300  0.309500  0.206200  1.0  -0.159
  C  C194  1  0.583300  0.357900  0.231900  1.0  0.0753
  C  C195  1  0.581800  0.268300  0.306600  1.0  0.0725
  C  C196  1  0.516600  0.266400  0.267600  1.0  -0.1522
  C  C197  1  0.562700  0.271700  0.148700  1.0  0.6812
  C  C198  1  0.555900  0.420800  0.263100  1.0  0.7094
  C  C199  1  0.570500  0.281800  0.379200  1.0  0.7001
  C  C200  1  0.489400  0.197700  0.251200  1.0  0.6854
  C  C201  1  0.031300  0.190500  0.793800  1.0  -0.159
  C  C202  1  0.083300  0.142100  0.768100  1.0  0.0738
  C  C203  1  0.081800  0.231700  0.693400  1.0  0.0713
  C  C204  1  0.016600  0.233600  0.732400  1.0  -0.1539
  C  C205  1  0.062700  0.228300  0.851300  1.0  0.6821
  C  C206  1  0.055900  0.079200  0.736900  1.0  0.7084
  C  C207  1  0.070500  0.218200  0.620800  1.0  0.6955
  C  C208  1  0.989400  0.302300  0.748800  1.0  0.6848
  C  C209  1  0.706200  0.968700  0.690500  1.0  -0.1629
  C  C210  1  0.731900  0.916700  0.642100  1.0  0.0734
  C  C211  1  0.806600  0.918200  0.731700  1.0  0.072
  C  C212  1  0.767600  0.983400  0.733600  1.0  -0.1539
  C  C213  1  0.648700  0.937300  0.728300  1.0  0.6807
  C  C214  1  0.763100  0.944100  0.579200  1.0  0.7115
  C  C215  1  0.879200  0.929500  0.718200  1.0  0.6944
  C  C216  1  0.751200  0.010600  0.802300  1.0  0.6846
  C  C217  1  0.293800  0.468700  0.809500  1.0  -0.1607
  C  C218  1  0.268100  0.416700  0.857900  1.0  0.0748
  C  C219  1  0.193400  0.418200  0.768300  1.0  0.0722
  C  C220  1  0.232400  0.483400  0.766400  1.0  -0.1542
  C  C221  1  0.351300  0.437300  0.771700  1.0  0.6814
  C  C222  1  0.236900  0.444100  0.920800  1.0  0.7083
  C  C223  1  0.120800  0.429500  0.781800  1.0  0.694
  C  C224  1  0.248800  0.510600  0.697700  1.0  0.6859
  C  C225  1  0.206200  0.531300  0.309500  1.0  -0.1627
  C  C226  1  0.231900  0.583300  0.357900  1.0  0.0734
  C  C227  1  0.306600  0.581800  0.268300  1.0  0.0727
  C  C228  1  0.267600  0.516600  0.266400  1.0  -0.1535
  C  C229  1  0.148700  0.562700  0.271700  1.0  0.6802
  C  C230  1  0.263100  0.555900  0.420800  1.0  0.7085
  C  C231  1  0.379200  0.570500  0.281800  1.0  0.6946
  C  C232  1  0.251200  0.489400  0.197700  1.0  0.6862
  C  C233  1  0.793800  0.031300  0.190500  1.0  -0.1626
  C  C234  1  0.768100  0.083300  0.142100  1.0  0.0739
  C  C235  1  0.693400  0.081800  0.231700  1.0  0.0709
  C  C236  1  0.732400  0.016600  0.233600  1.0  -0.1535
  C  C237  1  0.851300  0.062700  0.228300  1.0  0.6816
  C  C238  1  0.736900  0.055900  0.079200  1.0  0.7096
  C  C239  1  0.620800  0.070500  0.218200  1.0  0.6941
  C  C240  1  0.748800  0.989400  0.302300  1.0  0.6866
  C  C241  1  0.309500  0.293800  0.031300  1.0  -0.1602
  C  C242  1  0.357900  0.268100  0.083300  1.0  0.0729
  C  C243  1  0.268300  0.193400  0.081800  1.0  0.0717
  C  C244  1  0.266400  0.232400  0.016600  1.0  -0.1502
  C  C245  1  0.271700  0.351300  0.062700  1.0  0.6768
  C  C246  1  0.420800  0.236900  0.055900  1.0  0.7057
  C  C247  1  0.281800  0.120800  0.070500  1.0  0.6976
  C  C248  1  0.197700  0.248800  0.989400  1.0  0.6861
  C  C249  1  0.190500  0.706200  0.531300  1.0  -0.1604
  C  C250  1  0.142100  0.731900  0.583300  1.0  0.0711
  C  C251  1  0.231700  0.806600  0.581800  1.0  0.0741
  C  C252  1  0.233600  0.767600  0.516600  1.0  -0.1495
  C  C253  1  0.228300  0.648700  0.562700  1.0  0.6795
  C  C254  1  0.079200  0.763100  0.555900  1.0  0.7045
  C  C255  1  0.218200  0.879200  0.570500  1.0  0.6985
  C  C256  1  0.302300  0.751200  0.489400  1.0  0.6842
  C  C257  1  0.690500  0.793800  0.468700  1.0  -0.1595
  C  C258  1  0.642100  0.768100  0.416700  1.0  0.0699
  C  C259  1  0.731700  0.693400  0.418200  1.0  0.0715
  C  C260  1  0.733600  0.732400  0.483400  1.0  -0.1491
  C  C261  1  0.728300  0.851300  0.437300  1.0  0.6768
  C  C262  1  0.579200  0.736900  0.444100  1.0  0.705
  C  C263  1  0.718200  0.620800  0.429500  1.0  0.6978
  C  C264  1  0.802300  0.748800  0.510600  1.0  0.6854
  C  C265  1  0.809500  0.206200  0.968700  1.0  -0.159
  C  C266  1  0.857900  0.231900  0.916700  1.0  0.0723
  C  C267  1  0.768300  0.306600  0.918200  1.0  0.073
  C  C268  1  0.766400  0.267600  0.983400  1.0  -0.1486
  C  C269  1  0.771700  0.148700  0.937300  1.0  0.6781
  C  C270  1  0.920800  0.263100  0.944100  1.0  0.7069
  C  C271  1  0.781800  0.379200  0.929500  1.0  0.6979
  C  C272  1  0.697700  0.251200  0.010600  1.0  0.6847
  C  C273  1  0.031300  0.309500  0.293800  1.0  -0.159
  C  C274  1  0.083300  0.357900  0.268100  1.0  0.0736
  C  C275  1  0.081800  0.268300  0.193400  1.0  0.0714
  C  C276  1  0.016600  0.266400  0.232400  1.0  -0.1538
  C  C277  1  0.062700  0.271700  0.351300  1.0  0.682
  C  C278  1  0.055900  0.420800  0.236900  1.0  0.7101
  C  C279  1  0.070500  0.281800  0.120800  1.0  0.695
  C  C280  1  0.989400  0.197700  0.248800  1.0  0.6852
  C  C281  1  0.531300  0.190500  0.706200  1.0  -0.1594
  C  C282  1  0.583300  0.142100  0.731900  1.0  0.0742
  C  C283  1  0.581800  0.231700  0.806600  1.0  0.0734
  C  C284  1  0.516600  0.233600  0.767600  1.0  -0.153
  C  C285  1  0.562700  0.228300  0.648700  1.0  0.6815
  C  C286  1  0.555900  0.079200  0.763100  1.0  0.7086
  C  C287  1  0.570500  0.218200  0.879200  1.0  0.7007
  C  C288  1  0.489400  0.302300  0.751200  1.0  0.6843
  C  C289  1  0.468700  0.690500  0.793800  1.0  -0.1597
  C  C290  1  0.416700  0.642100  0.768100  1.0  0.0732
  C  C291  1  0.418200  0.731700  0.693400  1.0  0.0714
  C  C292  1  0.483400  0.733600  0.732400  1.0  -0.1514
  C  C293  1  0.437300  0.728300  0.851300  1.0  0.6806
  C  C294  1  0.444100  0.579200  0.736900  1.0  0.7088
  C  C295  1  0.429500  0.718200  0.620800  1.0  0.6958
  C  C296  1  0.510600  0.802300  0.748800  1.0  0.6837
  C  C297  1  0.968700  0.809500  0.206200  1.0  -0.1596
  C  C298  1  0.916700  0.857900  0.231900  1.0  0.0743
  C  C299  1  0.918200  0.768300  0.306600  1.0  0.072
  C  C300  1  0.983400  0.766400  0.267600  1.0  -0.1504
  C  C301  1  0.937300  0.771700  0.148700  1.0  0.6817
  C  C302  1  0.944100  0.920800  0.263100  1.0  0.7077
  C  C303  1  0.929500  0.781800  0.379200  1.0  0.7009
  C  C304  1  0.010600  0.697700  0.251200  1.0  0.685
  C  C305  1  0.293800  0.031300  0.309500  1.0  -0.161
  C  C306  1  0.268100  0.083300  0.357900  1.0  0.0744
  C  C307  1  0.193400  0.081800  0.268300  1.0  0.0719
  C  C308  1  0.232400  0.016600  0.266400  1.0  -0.1536
  C  C309  1  0.351300  0.062700  0.271700  1.0  0.6809
  C  C310  1  0.236900  0.055900  0.420800  1.0  0.7077
  C  C311  1  0.120800  0.070500  0.281800  1.0  0.6941
  C  C312  1  0.248800  0.989400  0.197700  1.0  0.6868
  C  C313  1  0.706200  0.531300  0.190500  1.0  -0.164
  C  C314  1  0.731900  0.583300  0.142100  1.0  0.073
  C  C315  1  0.806600  0.581800  0.231700  1.0  0.0717
  C  C316  1  0.767600  0.516600  0.233600  1.0  -0.1533
  C  C317  1  0.648700  0.562700  0.228300  1.0  0.6807
  C  C318  1  0.763100  0.555900  0.079200  1.0  0.7096
  C  C319  1  0.879200  0.570500  0.218200  1.0  0.6945
  C  C320  1  0.751200  0.489400  0.302300  1.0  0.6866
  C  C321  1  0.793800  0.468700  0.690500  1.0  -0.1617
  C  C322  1  0.768100  0.416700  0.642100  1.0  0.0743
  C  C323  1  0.693400  0.418200  0.731700  1.0  0.0713
  C  C324  1  0.732400  0.483400  0.733600  1.0  -0.1545
  C  C325  1  0.851300  0.437300  0.728300  1.0  0.6825
  C  C326  1  0.736900  0.444100  0.579200  1.0  0.7113
  C  C327  1  0.620800  0.429500  0.718200  1.0  0.694
  C  C328  1  0.748800  0.510600  0.802300  1.0  0.6843
  C  C329  1  0.206200  0.968700  0.809500  1.0  -0.1622
  C  C330  1  0.231900  0.916700  0.857900  1.0  0.0739
  C  C331  1  0.306600  0.918200  0.768300  1.0  0.0731
  C  C332  1  0.267600  0.983400  0.766400  1.0  -0.1538
  C  C333  1  0.148700  0.937300  0.771700  1.0  0.6798
  C  C334  1  0.263100  0.944100  0.920800  1.0  0.7095
  C  C335  1  0.379200  0.929500  0.781800  1.0  0.6944
  C  C336  1  0.251200  0.010600  0.697700  1.0  0.6852
  O  O337  1  0.779260  0.661400  0.905470  1.0  -0.5637
  O  O338  1  0.701560  0.593840  0.945500  1.0  -0.6022
  O  O339  1  0.762500  0.909900  0.959700  1.0  -0.558
  O  O340  1  0.665340  0.904740  0.909720  1.0  -0.5649
  O  O341  1  0.560650  0.817430  0.921120  1.0  -0.5579
  O  O342  1  0.547630  0.730300  0.985900  1.0  -0.5791
  O  O343  1  0.800640  0.711000  0.058420  1.0  -0.5945
  O  O344  1  0.851430  0.778060  0.987170  1.0  -0.5837
  O  O345  1  0.680270  0.777800  0.878390  1.0  -0.3441
  O  O346  1  0.720740  0.338600  0.405470  1.0  -0.563
  O  O347  1  0.798440  0.406160  0.445500  1.0  -0.5986
  O  O348  1  0.737500  0.090100  0.459700  1.0  -0.559
  O  O349  1  0.834660  0.095260  0.409720  1.0  -0.5632
  O  O350  1  0.939350  0.182570  0.421120  1.0  -0.5572
  O  O351  1  0.952370  0.269700  0.485900  1.0  -0.5809
  O  O352  1  0.699360  0.289000  0.558420  1.0  -0.5942
  O  O353  1  0.648570  0.221940  0.487170  1.0  -0.5835
  O  O354  1  0.819730  0.222200  0.378390  1.0  -0.3446
  O  O355  1  0.220740  0.161400  0.594530  1.0  -0.5638
  O  O356  1  0.298440  0.093840  0.554500  1.0  -0.6016
  O  O357  1  0.237500  0.409900  0.540300  1.0  -0.5582
  O  O358  1  0.334660  0.404740  0.590280  1.0  -0.5632
  O  O359  1  0.439350  0.317430  0.578880  1.0  -0.5574
  O  O360  1  0.452370  0.230300  0.514100  1.0  -0.5799
  O  O361  1  0.199360  0.211000  0.441580  1.0  -0.5929
  O  O362  1  0.148570  0.278060  0.512830  1.0  -0.5832
  O  O363  1  0.319730  0.277800  0.621610  1.0  -0.3466
  O  O364  1  0.279260  0.838600  0.094530  1.0  -0.5633
  O  O365  1  0.201560  0.906160  0.054500  1.0  -0.5986
  O  O366  1  0.262500  0.590100  0.040300  1.0  -0.5583
  O  O367  1  0.165340  0.595260  0.090280  1.0  -0.5632
  O  O368  1  0.060650  0.682570  0.078880  1.0  -0.5548
  O  O369  1  0.047630  0.769700  0.014100  1.0  -0.58
  O  O370  1  0.300640  0.789000  0.941580  1.0  -0.5929
  O  O371  1  0.351430  0.721940  0.012830  1.0  -0.5835
  O  O372  1  0.180270  0.722200  0.121610  1.0  -0.3461
  O  O373  1  0.905470  0.779260  0.661400  1.0  -0.5637
  O  O374  1  0.945500  0.701560  0.593840  1.0  -0.6002
  O  O375  1  0.959700  0.762500  0.909900  1.0  -0.5574
  O  O376  1  0.909720  0.665340  0.904740  1.0  -0.5664
  O  O377  1  0.921120  0.560650  0.817430  1.0  -0.5592
  O  O378  1  0.985900  0.547630  0.730300  1.0  -0.5794
  O  O379  1  0.058420  0.800640  0.711000  1.0  -0.5901
  O  O380  1  0.987170  0.851430  0.778060  1.0  -0.5868
  O  O381  1  0.878390  0.680270  0.777800  1.0  -0.3432
  O  O382  1  0.405470  0.720740  0.338600  1.0  -0.5634
  O  O383  1  0.445500  0.798440  0.406160  1.0  -0.5986
  O  O384  1  0.459700  0.737500  0.090100  1.0  -0.5571
  O  O385  1  0.409720  0.834660  0.095260  1.0  -0.5658
  O  O386  1  0.421120  0.939350  0.182570  1.0  -0.5586
  O  O387  1  0.485900  0.952370  0.269700  1.0  -0.5804
  O  O388  1  0.558420  0.699360  0.289000  1.0  -0.5907
  O  O389  1  0.487170  0.648570  0.221940  1.0  -0.5878
  O  O390  1  0.378390  0.819730  0.222200  1.0  -0.3434
  O  O391  1  0.594530  0.220740  0.161400  1.0  -0.5642
  O  O392  1  0.554500  0.298440  0.093840  1.0  -0.6004
  O  O393  1  0.540300  0.237500  0.409900  1.0  -0.558
  O  O394  1  0.590280  0.334660  0.404740  1.0  -0.5686
  O  O395  1  0.578880  0.439350  0.317430  1.0  -0.5609
  O  O396  1  0.514100  0.452370  0.230300  1.0  -0.5785
  O  O397  1  0.441580  0.199360  0.211000  1.0  -0.5902
  O  O398  1  0.512830  0.148570  0.278060  1.0  -0.5881
  O  O399  1  0.621610  0.319730  0.277800  1.0  -0.341
  O  O400  1  0.094530  0.279260  0.838600  1.0  -0.5644
  O  O401  1  0.054500  0.201560  0.906160  1.0  -0.5988
  O  O402  1  0.040300  0.262500  0.590100  1.0  -0.5569
  O  O403  1  0.090280  0.165340  0.595260  1.0  -0.5666
  O  O404  1  0.078880  0.060650  0.682570  1.0  -0.5585
  O  O405  1  0.014100  0.047630  0.769700  1.0  -0.5775
  O  O406  1  0.941580  0.300640  0.789000  1.0  -0.5907
  O  O407  1  0.012830  0.351430  0.721940  1.0  -0.588
  O  O408  1  0.121610  0.180270  0.722200  1.0  -0.3407
  O  O409  1  0.661400  0.905470  0.779260  1.0  -0.5644
  O  O410  1  0.593840  0.945500  0.701560  1.0  -0.6015
  O  O411  1  0.909900  0.959700  0.762500  1.0  -0.5593
  O  O412  1  0.904740  0.909720  0.665340  1.0  -0.562
  O  O413  1  0.817430  0.921120  0.560650  1.0  -0.5544
  O  O414  1  0.730300  0.985900  0.547630  1.0  -0.5756
  O  O415  1  0.711000  0.058420  0.800640  1.0  -0.593
  O  O416  1  0.778060  0.987170  0.851430  1.0  -0.5859
  O  O417  1  0.777800  0.878390  0.680270  1.0  -0.3369
  O  O418  1  0.338600  0.405470  0.720740  1.0  -0.5655
  O  O419  1  0.406160  0.445500  0.798440  1.0  -0.5986
  O  O420  1  0.090100  0.459700  0.737500  1.0  -0.5592
  O  O421  1  0.095260  0.409720  0.834660  1.0  -0.5653
  O  O422  1  0.182570  0.421120  0.939350  1.0  -0.5567
  O  O423  1  0.269700  0.485900  0.952370  1.0  -0.5773
  O  O424  1  0.289000  0.558420  0.699360  1.0  -0.5932
  O  O425  1  0.221940  0.487170  0.648570  1.0  -0.585
  O  O426  1  0.222200  0.378390  0.819730  1.0  -0.3362
  O  O427  1  0.161400  0.594530  0.220740  1.0  -0.5651
  O  O428  1  0.093840  0.554500  0.298440  1.0  -0.6024
  O  O429  1  0.409900  0.540300  0.237500  1.0  -0.5596
  O  O430  1  0.404740  0.590280  0.334660  1.0  -0.5644
  O  O431  1  0.317430  0.578880  0.439350  1.0  -0.5555
  O  O432  1  0.230300  0.514100  0.452370  1.0  -0.5762
  O  O433  1  0.211000  0.441580  0.199360  1.0  -0.5928
  O  O434  1  0.278060  0.512830  0.148570  1.0  -0.585
  O  O435  1  0.277800  0.621610  0.319730  1.0  -0.3377
  O  O436  1  0.838600  0.094530  0.279260  1.0  -0.5658
  O  O437  1  0.906160  0.054500  0.201560  1.0  -0.598
  O  O438  1  0.590100  0.040300  0.262500  1.0  -0.5601
  O  O439  1  0.595260  0.090280  0.165340  1.0  -0.5634
  O  O440  1  0.682570  0.078880  0.060650  1.0  -0.5553
  O  O441  1  0.769700  0.014100  0.047630  1.0  -0.5771
  O  O442  1  0.789000  0.941580  0.300640  1.0  -0.5925
  O  O443  1  0.721940  0.012830  0.351430  1.0  -0.5846
  O  O444  1  0.722200  0.121610  0.180270  1.0  -0.3373
  O  O445  1  0.220740  0.338600  0.094530  1.0  -0.5635
  O  O446  1  0.298440  0.406160  0.054500  1.0  -0.5987
  O  O447  1  0.237500  0.090100  0.040300  1.0  -0.558
  O  O448  1  0.334660  0.095260  0.090280  1.0  -0.563
  O  O449  1  0.439350  0.182570  0.078880  1.0  -0.5557
  O  O450  1  0.452370  0.269700  0.014100  1.0  -0.5812
  O  O451  1  0.199360  0.289000  0.941580  1.0  -0.5931
  O  O452  1  0.148570  0.221940  0.012830  1.0  -0.584
  O  O453  1  0.319730  0.222200  0.121610  1.0  -0.3462
  O  O454  1  0.279260  0.661400  0.594530  1.0  -0.5634
  O  O455  1  0.201560  0.593840  0.554500  1.0  -0.5989
  O  O456  1  0.262500  0.909900  0.540300  1.0  -0.5583
  O  O457  1  0.165340  0.904740  0.590280  1.0  -0.5639
  O  O458  1  0.060650  0.817430  0.578880  1.0  -0.5574
  O  O459  1  0.047630  0.730300  0.514100  1.0  -0.5789
  O  O460  1  0.300640  0.711000  0.441580  1.0  -0.5928
  O  O461  1  0.351430  0.778060  0.512830  1.0  -0.5835
  O  O462  1  0.180270  0.777800  0.621610  1.0  -0.3465
  O  O463  1  0.779260  0.838600  0.405470  1.0  -0.563
  O  O464  1  0.701560  0.906160  0.445500  1.0  -0.5991
  O  O465  1  0.762500  0.590100  0.459700  1.0  -0.5586
  O  O466  1  0.665340  0.595260  0.409720  1.0  -0.5639
  O  O467  1  0.560650  0.682570  0.421120  1.0  -0.557
  O  O468  1  0.547630  0.769700  0.485900  1.0  -0.5805
  O  O469  1  0.800640  0.789000  0.558420  1.0  -0.5942
  O  O470  1  0.851430  0.721940  0.487170  1.0  -0.5829
  O  O471  1  0.680270  0.722200  0.378390  1.0  -0.3445
  O  O472  1  0.720740  0.161400  0.905470  1.0  -0.5637
  O  O473  1  0.798440  0.093840  0.945500  1.0  -0.5989
  O  O474  1  0.737500  0.409900  0.959700  1.0  -0.5585
  O  O475  1  0.834660  0.404740  0.909720  1.0  -0.5632
  O  O476  1  0.939350  0.317430  0.921120  1.0  -0.5572
  O  O477  1  0.952370  0.230300  0.985900  1.0  -0.5797
  O  O478  1  0.699360  0.211000  0.058420  1.0  -0.5945
  O  O479  1  0.648570  0.278060  0.987170  1.0  -0.5833
  O  O480  1  0.819730  0.277800  0.878390  1.0  -0.3444
  O  O481  1  0.094530  0.220740  0.338600  1.0  -0.5638
  O  O482  1  0.054500  0.298440  0.406160  1.0  -0.5988
  O  O483  1  0.040300  0.237500  0.090100  1.0  -0.5572
  O  O484  1  0.090280  0.334660  0.095260  1.0  -0.5679
  O  O485  1  0.078880  0.439350  0.182570  1.0  -0.5591
  O  O486  1  0.014100  0.452370  0.269700  1.0  -0.5784
  O  O487  1  0.941580  0.199360  0.289000  1.0  -0.5908
  O  O488  1  0.012830  0.148570  0.221940  1.0  -0.5875
  O  O489  1  0.121610  0.319730  0.222200  1.0  -0.341
  O  O490  1  0.594530  0.279260  0.661400  1.0  -0.5641
  O  O491  1  0.554500  0.201560  0.593840  1.0  -0.5969
  O  O492  1  0.540300  0.262500  0.909900  1.0  -0.557
  O  O493  1  0.590280  0.165340  0.904740  1.0  -0.5666
  O  O494  1  0.578880  0.060650  0.817430  1.0  -0.5598
  O  O495  1  0.514100  0.047630  0.730300  1.0  -0.5778
  O  O496  1  0.441580  0.300640  0.711000  1.0  -0.5901
  O  O497  1  0.512830  0.351430  0.778060  1.0  -0.5876
  O  O498  1  0.621610  0.180270  0.777800  1.0  -0.3407
  O  O499  1  0.405470  0.779260  0.838600  1.0  -0.5637
  O  O500  1  0.445500  0.701560  0.906160  1.0  -0.5993
  O  O501  1  0.459700  0.762500  0.590100  1.0  -0.5578
  O  O502  1  0.409720  0.665340  0.595260  1.0  -0.5659
  O  O503  1  0.421120  0.560650  0.682570  1.0  -0.5583
  O  O504  1  0.485900  0.547630  0.769700  1.0  -0.5789
  O  O505  1  0.558420  0.800640  0.789000  1.0  -0.5907
  O  O506  1  0.487170  0.851430  0.721940  1.0  -0.5874
  O  O507  1  0.378390  0.680270  0.722200  1.0  -0.3435
  O  O508  1  0.905470  0.720740  0.161400  1.0  -0.564
  O  O509  1  0.945500  0.798440  0.093840  1.0  -0.5979
  O  O510  1  0.959700  0.737500  0.409900  1.0  -0.5576
  O  O511  1  0.909720  0.834660  0.404740  1.0  -0.567
  O  O512  1  0.921120  0.939350  0.317430  1.0  -0.5604
  O  O513  1  0.985900  0.952370  0.230300  1.0  -0.581
  O  O514  1  0.058420  0.699360  0.211000  1.0  -0.5902
  O  O515  1  0.987170  0.648570  0.278060  1.0  -0.5881
  O  O516  1  0.878390  0.819730  0.277800  1.0  -0.3431
  O  O517  1  0.338600  0.094530  0.220740  1.0  -0.5658
  O  O518  1  0.406160  0.054500  0.298440  1.0  -0.5991
  O  O519  1  0.090100  0.040300  0.237500  1.0  -0.5593
  O  O520  1  0.095260  0.090280  0.334660  1.0  -0.5656
  O  O521  1  0.182570  0.078880  0.439350  1.0  -0.5566
  O  O522  1  0.269700  0.014100  0.452370  1.0  -0.5772
  O  O523  1  0.289000  0.941580  0.199360  1.0  -0.5925
  O  O524  1  0.221940  0.012830  0.148570  1.0  -0.5848
  O  O525  1  0.222200  0.121610  0.319730  1.0  -0.3369
  O  O526  1  0.661400  0.594530  0.279260  1.0  -0.565
  O  O527  1  0.593840  0.554500  0.201560  1.0  -0.5987
  O  O528  1  0.909900  0.540300  0.262500  1.0  -0.5602
  O  O529  1  0.904740  0.590280  0.165340  1.0  -0.5626
  O  O530  1  0.817430  0.578880  0.060650  1.0  -0.5554
  O  O531  1  0.730300  0.514100  0.047630  1.0  -0.576
  O  O532  1  0.711000  0.441580  0.300640  1.0  -0.5928
  O  O533  1  0.778060  0.512830  0.351430  1.0  -0.5852
  O  O534  1  0.777800  0.621610  0.180270  1.0  -0.338
  O  O535  1  0.838600  0.405470  0.779260  1.0  -0.565
  O  O536  1  0.906160  0.445500  0.701560  1.0  -0.5981
  O  O537  1  0.590100  0.459700  0.762500  1.0  -0.5594
  O  O538  1  0.595260  0.409720  0.665340  1.0  -0.5631
  O  O539  1  0.682570  0.421120  0.560650  1.0  -0.5561
  O  O540  1  0.769700  0.485900  0.547630  1.0  -0.5771
  O  O541  1  0.789000  0.558420  0.800640  1.0  -0.5933
  O  O542  1  0.721940  0.487170  0.851430  1.0  -0.5849
  O  O543  1  0.722200  0.378390  0.680270  1.0  -0.3364
  O  O544  1  0.161400  0.905470  0.720740  1.0  -0.5653
  O  O545  1  0.093840  0.945500  0.798440  1.0  -0.5998
  O  O546  1  0.409900  0.959700  0.737500  1.0  -0.5594
  O  O547  1  0.404740  0.909720  0.834660  1.0  -0.5635
  O  O548  1  0.317430  0.921120  0.939350  1.0  -0.5552
  O  O549  1  0.230300  0.985900  0.952370  1.0  -0.576
  O  O550  1  0.211000  0.058420  0.699360  1.0  -0.5928
  O  O551  1  0.278060  0.987170  0.648570  1.0  -0.5854
  O  O552  1  0.277800  0.878390  0.819730  1.0  -0.3369
