# generated using pymatgen
data_Zn2H4C8O9
_symmetry_space_group_name_H-M   'P 1'
_cell_length_a   20.52230000
_cell_length_b   20.52230000
_cell_length_c   20.52230000
_cell_angle_alpha   90.00000000
_cell_angle_beta   90.00000000
_cell_angle_gamma   90.00000000
_symmetry_Int_Tables_number   1
_chemical_formula_structural   Zn2H4C8O9
_chemical_formula_sum   'Zn48 H96 C192 O216'
_cell_volume   8643.27031942
_cell_formula_units_Z   24
loop_
 _symmetry_equiv_pos_site_id
 _symmetry_equiv_pos_as_xyz
  1  'x, y, z'
loop_
 _atom_site_type_symbol
 _atom_site_label
 _atom_site_symmetry_multiplicity
 _atom_site_fract_x
 _atom_site_fract_y
 _atom_site_fract_z
 _atom_site_occupancy
 _atom_site_charge
  Zn  Zn1  1  0.162830  0.100870  0.642020  1.0  0.9947
  Zn  Zn2  1  0.277180  0.005490  0.561260  1.0  1.0779
  Zn  Zn3  1  0.337170  0.899130  0.142020  1.0  0.9953
  Zn  Zn4  1  0.222820  0.994510  0.061260  1.0  1.0751
  Zn  Zn5  1  0.837170  0.600870  0.857980  1.0  0.9922
  Zn  Zn6  1  0.722820  0.505490  0.938740  1.0  1.0753
  Zn  Zn7  1  0.662830  0.399130  0.357980  1.0  0.9937
  Zn  Zn8  1  0.777180  0.494510  0.438740  1.0  1.0775
  Zn  Zn9  1  0.642020  0.162830  0.100870  1.0  0.9916
  Zn  Zn10  1  0.561260  0.277180  0.005490  1.0  1.0758
  Zn  Zn11  1  0.142020  0.337170  0.899130  1.0  0.991
  Zn  Zn12  1  0.061260  0.222820  0.994510  1.0  1.0752
  Zn  Zn13  1  0.857980  0.837170  0.600870  1.0  0.9918
  Zn  Zn14  1  0.938740  0.722820  0.505490  1.0  1.078
  Zn  Zn15  1  0.357980  0.662830  0.399130  1.0  0.9919
  Zn  Zn16  1  0.438740  0.777180  0.494510  1.0  1.0786
  Zn  Zn17  1  0.100870  0.642020  0.162830  1.0  0.9902
  Zn  Zn18  1  0.005490  0.561260  0.277180  1.0  1.0762
  Zn  Zn19  1  0.899130  0.142020  0.337170  1.0  0.991
  Zn  Zn20  1  0.994510  0.061260  0.222820  1.0  1.0778
  Zn  Zn21  1  0.600870  0.857980  0.837170  1.0  0.9919
  Zn  Zn22  1  0.505490  0.938740  0.722820  1.0  1.075
  Zn  Zn23  1  0.399130  0.357980  0.662830  1.0  0.9923
  Zn  Zn24  1  0.494510  0.438740  0.777180  1.0  1.0796
  Zn  Zn25  1  0.837170  0.899130  0.357980  1.0  0.9927
  Zn  Zn26  1  0.722820  0.994510  0.438740  1.0  1.0747
  Zn  Zn27  1  0.662830  0.100870  0.857980  1.0  0.9932
  Zn  Zn28  1  0.777180  0.005490  0.938740  1.0  1.0771
  Zn  Zn29  1  0.162830  0.399130  0.142020  1.0  0.9959
  Zn  Zn30  1  0.277180  0.494510  0.061260  1.0  1.0769
  Zn  Zn31  1  0.337170  0.600870  0.642020  1.0  0.9938
  Zn  Zn32  1  0.222820  0.505490  0.561260  1.0  1.075
  Zn  Zn33  1  0.357980  0.837170  0.899130  1.0  0.992
  Zn  Zn34  1  0.438740  0.722820  0.994510  1.0  1.0765
  Zn  Zn35  1  0.857980  0.662830  0.100870  1.0  0.9923
  Zn  Zn36  1  0.938740  0.777180  0.005490  1.0  1.0779
  Zn  Zn37  1  0.142020  0.162830  0.399130  1.0  0.9909
  Zn  Zn38  1  0.061260  0.277180  0.494510  1.0  1.0743
  Zn  Zn39  1  0.642020  0.337170  0.600870  1.0  0.9912
  Zn  Zn40  1  0.561260  0.222820  0.505490  1.0  1.0741
  Zn  Zn41  1  0.899130  0.357980  0.837170  1.0  0.9924
  Zn  Zn42  1  0.994510  0.438740  0.722820  1.0  1.0767
  Zn  Zn43  1  0.100870  0.857980  0.662830  1.0  0.992
  Zn  Zn44  1  0.005490  0.938740  0.777180  1.0  1.0749
  Zn  Zn45  1  0.399130  0.142020  0.162830  1.0  0.991
  Zn  Zn46  1  0.494510  0.061260  0.277180  1.0  1.0782
  Zn  Zn47  1  0.600870  0.642020  0.337170  1.0  0.9899
  Zn  Zn48  1  0.505490  0.561260  0.222820  1.0  1.0737
  H  H49  1  0.338800  0.192600  0.502700  1.0  0.1212
  H  H50  1  0.378100  0.200100  0.620500  1.0  0.13
  H  H51  1  0.236900  0.305800  0.610900  1.0  0.1175
  H  H52  1  0.300500  0.292800  0.491400  1.0  0.1186
  H  H53  1  0.161200  0.807400  0.002700  1.0  0.1219
  H  H54  1  0.121900  0.799900  0.120500  1.0  0.129
  H  H55  1  0.263100  0.694200  0.110900  1.0  0.1175
  H  H56  1  0.199500  0.707200  0.991400  1.0  0.1193
  H  H57  1  0.661200  0.692600  0.997300  1.0  0.1218
  H  H58  1  0.621900  0.700100  0.879500  1.0  0.1294
  H  H59  1  0.763100  0.805800  0.889100  1.0  0.1187
  H  H60  1  0.699500  0.792800  0.008600  1.0  0.1178
  H  H61  1  0.838800  0.307400  0.497300  1.0  0.1206
  H  H62  1  0.878100  0.299900  0.379500  1.0  0.1289
  H  H63  1  0.736900  0.194200  0.389100  1.0  0.118
  H  H64  1  0.800500  0.207200  0.508600  1.0  0.1185
  H  H65  1  0.502700  0.338800  0.192600  1.0  0.1205
  H  H66  1  0.620500  0.378100  0.200100  1.0  0.1275
  H  H67  1  0.610900  0.236900  0.305800  1.0  0.1176
  H  H68  1  0.491400  0.300500  0.292800  1.0  0.1163
  H  H69  1  0.002700  0.161200  0.807400  1.0  0.1204
  H  H70  1  0.120500  0.121900  0.799900  1.0  0.1273
  H  H71  1  0.110900  0.263100  0.694200  1.0  0.1171
  H  H72  1  0.991400  0.199500  0.707200  1.0  0.1166
  H  H73  1  0.997300  0.661200  0.692600  1.0  0.1212
  H  H74  1  0.879500  0.621900  0.700100  1.0  0.127
  H  H75  1  0.889100  0.763100  0.805800  1.0  0.1178
  H  H76  1  0.008600  0.699500  0.792800  1.0  0.1157
  H  H77  1  0.497300  0.838800  0.307400  1.0  0.1209
  H  H78  1  0.379500  0.878100  0.299900  1.0  0.1274
  H  H79  1  0.389100  0.736900  0.194200  1.0  0.1173
  H  H80  1  0.508600  0.800500  0.207200  1.0  0.1175
  H  H81  1  0.192600  0.502700  0.338800  1.0  0.1218
  H  H82  1  0.200100  0.620500  0.378100  1.0  0.1275
  H  H83  1  0.305800  0.610900  0.236900  1.0  0.1165
  H  H84  1  0.292800  0.491400  0.300500  1.0  0.1168
  H  H85  1  0.807400  0.002700  0.161200  1.0  0.1218
  H  H86  1  0.799900  0.120500  0.121900  1.0  0.1278
  H  H87  1  0.694200  0.110900  0.263100  1.0  0.1163
  H  H88  1  0.707200  0.991400  0.199500  1.0  0.1164
  H  H89  1  0.692600  0.997300  0.661200  1.0  0.1216
  H  H90  1  0.700100  0.879500  0.621900  1.0  0.1276
  H  H91  1  0.805800  0.889100  0.763100  1.0  0.1163
  H  H92  1  0.792800  0.008600  0.699500  1.0  0.1166
  H  H93  1  0.307400  0.497300  0.838800  1.0  0.1213
  H  H94  1  0.299900  0.379500  0.878100  1.0  0.1275
  H  H95  1  0.194200  0.389100  0.736900  1.0  0.1166
  H  H96  1  0.207200  0.508600  0.800500  1.0  0.1167
  H  H97  1  0.661200  0.807400  0.497300  1.0  0.1213
  H  H98  1  0.621900  0.799900  0.379500  1.0  0.129
  H  H99  1  0.763100  0.694200  0.389100  1.0  0.1182
  H  H100  1  0.699500  0.707200  0.508600  1.0  0.1188
  H  H101  1  0.838800  0.192600  0.997300  1.0  0.1207
  H  H102  1  0.878100  0.200100  0.879500  1.0  0.1294
  H  H103  1  0.736900  0.305800  0.889100  1.0  0.1185
  H  H104  1  0.800500  0.292800  0.008600  1.0  0.1176
  H  H105  1  0.338800  0.307400  0.002700  1.0  0.1215
  H  H106  1  0.378100  0.299900  0.120500  1.0  0.1287
  H  H107  1  0.236900  0.194200  0.110900  1.0  0.1175
  H  H108  1  0.300500  0.207200  0.991400  1.0  0.1188
  H  H109  1  0.161200  0.692600  0.502700  1.0  0.1219
  H  H110  1  0.121900  0.700100  0.620500  1.0  0.1302
  H  H111  1  0.263100  0.805800  0.610900  1.0  0.1175
  H  H112  1  0.199500  0.792800  0.491400  1.0  0.119
  H  H113  1  0.497300  0.661200  0.807400  1.0  0.1212
  H  H114  1  0.379500  0.621900  0.799900  1.0  0.1274
  H  H115  1  0.389100  0.763100  0.694200  1.0  0.1172
  H  H116  1  0.508600  0.699500  0.707200  1.0  0.1169
  H  H117  1  0.997300  0.838800  0.192600  1.0  0.1212
  H  H118  1  0.879500  0.878100  0.200100  1.0  0.1274
  H  H119  1  0.889100  0.736900  0.305800  1.0  0.1182
  H  H120  1  0.008600  0.800500  0.292800  1.0  0.1162
  H  H121  1  0.002700  0.338800  0.307400  1.0  0.12
  H  H122  1  0.120500  0.378100  0.299900  1.0  0.1271
  H  H123  1  0.110900  0.236900  0.194200  1.0  0.1169
  H  H124  1  0.991400  0.300500  0.207200  1.0  0.1165
  H  H125  1  0.502700  0.161200  0.692600  1.0  0.1202
  H  H126  1  0.620500  0.121900  0.700100  1.0  0.1274
  H  H127  1  0.610900  0.263100  0.805800  1.0  0.1177
  H  H128  1  0.491400  0.199500  0.792800  1.0  0.1165
  H  H129  1  0.807400  0.497300  0.661200  1.0  0.1211
  H  H130  1  0.799900  0.379500  0.621900  1.0  0.1277
  H  H131  1  0.694200  0.389100  0.763100  1.0  0.1166
  H  H132  1  0.707200  0.508600  0.699500  1.0  0.117
  H  H133  1  0.192600  0.997300  0.838800  1.0  0.1215
  H  H134  1  0.200100  0.879500  0.878100  1.0  0.1277
  H  H135  1  0.305800  0.889100  0.736900  1.0  0.1165
  H  H136  1  0.292800  0.008600  0.800500  1.0  0.116
  H  H137  1  0.307400  0.002700  0.338800  1.0  0.1224
  H  H138  1  0.299900  0.120500  0.378100  1.0  0.1271
  H  H139  1  0.194200  0.110900  0.236900  1.0  0.1164
  H  H140  1  0.207200  0.991400  0.300500  1.0  0.1166
  H  H141  1  0.692600  0.502700  0.161200  1.0  0.1212
  H  H142  1  0.700100  0.620500  0.121900  1.0  0.1279
  H  H143  1  0.805800  0.610900  0.263100  1.0  0.1162
  H  H144  1  0.792800  0.491400  0.199500  1.0  0.1168
  C  C145  1  0.316380  0.208760  0.541580  1.0  -0.1634
  C  C146  1  0.366160  0.235500  0.590700  1.0  0.0643
  C  C147  1  0.278300  0.310380  0.587580  1.0  0.0479
  C  C148  1  0.276240  0.268810  0.524750  1.0  -0.1521
  C  C149  1  0.278760  0.153410  0.574360  1.0  0.698
  C  C150  1  0.290740  0.382070  0.573830  1.0  0.6623
  C  C151  1  0.428650  0.262900  0.561110  1.0  0.7226
  C  C152  1  0.209340  0.253400  0.495980  1.0  0.69
  C  C153  1  0.183620  0.791240  0.041580  1.0  -0.1619
  C  C154  1  0.133840  0.764500  0.090700  1.0  0.0626
  C  C155  1  0.221700  0.689620  0.087580  1.0  0.0479
  C  C156  1  0.223760  0.731190  0.024750  1.0  -0.1528
  C  C157  1  0.221240  0.846590  0.074360  1.0  0.6943
  C  C158  1  0.209260  0.617930  0.073830  1.0  0.6618
  C  C159  1  0.071350  0.737100  0.061110  1.0  0.723
  C  C160  1  0.290660  0.746600  0.995980  1.0  0.6877
  C  C161  1  0.683620  0.708760  0.958420  1.0  -0.1625
  C  C162  1  0.633840  0.735500  0.909300  1.0  0.0616
  C  C163  1  0.721700  0.810380  0.912420  1.0  0.0473
  C  C164  1  0.723760  0.768810  0.975250  1.0  -0.1518
  C  C165  1  0.721240  0.653410  0.925640  1.0  0.6967
  C  C166  1  0.709260  0.882070  0.926170  1.0  0.6619
  C  C167  1  0.571350  0.762900  0.938890  1.0  0.7231
  C  C168  1  0.790660  0.753400  0.004020  1.0  0.6887
  C  C169  1  0.816380  0.291240  0.458420  1.0  -0.1631
  C  C170  1  0.866160  0.264500  0.409300  1.0  0.064
  C  C171  1  0.778300  0.189620  0.412420  1.0  0.0453
  C  C172  1  0.776240  0.231190  0.475250  1.0  -0.1523
  C  C173  1  0.778760  0.346590  0.425640  1.0  0.696
  C  C174  1  0.790740  0.117930  0.426170  1.0  0.6627
  C  C175  1  0.928650  0.237100  0.438890  1.0  0.7235
  C  C176  1  0.709340  0.246600  0.504020  1.0  0.6894
  C  C177  1  0.541580  0.316380  0.208760  1.0  -0.1608
  C  C178  1  0.590700  0.366160  0.235500  1.0  0.0676
  C  C179  1  0.587580  0.278300  0.310380  1.0  0.0473
  C  C180  1  0.524750  0.276240  0.268810  1.0  -0.1545
  C  C181  1  0.574360  0.278760  0.153410  1.0  0.6988
  C  C182  1  0.573830  0.290740  0.382070  1.0  0.6625
  C  C183  1  0.561110  0.428650  0.262900  1.0  0.726
  C  C184  1  0.495980  0.209340  0.253400  1.0  0.69
  C  C185  1  0.041580  0.183620  0.791240  1.0  -0.1604
  C  C186  1  0.090700  0.133840  0.764500  1.0  0.0659
  C  C187  1  0.087580  0.221700  0.689620  1.0  0.0475
  C  C188  1  0.024750  0.223760  0.731190  1.0  -0.1556
  C  C189  1  0.074360  0.221240  0.846590  1.0  0.702
  C  C190  1  0.073830  0.209260  0.617930  1.0  0.6591
  C  C191  1  0.061110  0.071350  0.737100  1.0  0.7243
  C  C192  1  0.995980  0.290660  0.746600  1.0  0.6898
  C  C193  1  0.958420  0.683620  0.708760  1.0  -0.1616
  C  C194  1  0.909300  0.633840  0.735500  1.0  0.0656
  C  C195  1  0.912420  0.721700  0.810380  1.0  0.0477
  C  C196  1  0.975250  0.723760  0.768810  1.0  -0.1543
  C  C197  1  0.925640  0.721240  0.653410  1.0  0.7002
  C  C198  1  0.926170  0.709260  0.882070  1.0  0.6643
  C  C199  1  0.938890  0.571350  0.762900  1.0  0.7251
  C  C200  1  0.004020  0.790660  0.753400  1.0  0.6883
  C  C201  1  0.458420  0.816380  0.291240  1.0  -0.1612
  C  C202  1  0.409300  0.866160  0.264500  1.0  0.0649
  C  C203  1  0.412420  0.778300  0.189620  1.0  0.046
  C  C204  1  0.475250  0.776240  0.231190  1.0  -0.1554
  C  C205  1  0.425640  0.778760  0.346590  1.0  0.7001
  C  C206  1  0.426170  0.790740  0.117930  1.0  0.6587
  C  C207  1  0.438890  0.928650  0.237100  1.0  0.7244
  C  C208  1  0.504020  0.709340  0.246600  1.0  0.6893
  C  C209  1  0.208760  0.541580  0.316380  1.0  -0.1652
  C  C210  1  0.235500  0.590700  0.366160  1.0  0.0658
  C  C211  1  0.310380  0.587580  0.278300  1.0  0.0468
  C  C212  1  0.268810  0.524750  0.276240  1.0  -0.1576
  C  C213  1  0.153410  0.574360  0.278760  1.0  0.6963
  C  C214  1  0.382070  0.573830  0.290740  1.0  0.6604
  C  C215  1  0.262900  0.561110  0.428650  1.0  0.7257
  C  C216  1  0.253400  0.495980  0.209340  1.0  0.6894
  C  C217  1  0.791240  0.041580  0.183620  1.0  -0.1652
  C  C218  1  0.764500  0.090700  0.133840  1.0  0.0652
  C  C219  1  0.689620  0.087580  0.221700  1.0  0.0462
  C  C220  1  0.731190  0.024750  0.223760  1.0  -0.157
  C  C221  1  0.846590  0.074360  0.221240  1.0  0.6982
  C  C222  1  0.617930  0.073830  0.209260  1.0  0.6614
  C  C223  1  0.737100  0.061110  0.071350  1.0  0.7271
  C  C224  1  0.746600  0.995980  0.290660  1.0  0.6886
  C  C225  1  0.708760  0.958420  0.683620  1.0  -0.1653
  C  C226  1  0.735500  0.909300  0.633840  1.0  0.0648
  C  C227  1  0.810380  0.912420  0.721700  1.0  0.0466
  C  C228  1  0.768810  0.975250  0.723760  1.0  -0.1577
  C  C229  1  0.653410  0.925640  0.721240  1.0  0.6982
  C  C230  1  0.882070  0.926170  0.709260  1.0  0.6598
  C  C231  1  0.762900  0.938890  0.571350  1.0  0.7272
  C  C232  1  0.753400  0.004020  0.790660  1.0  0.6867
  C  C233  1  0.291240  0.458420  0.816380  1.0  -0.1638
  C  C234  1  0.264500  0.409300  0.866160  1.0  0.0667
  C  C235  1  0.189620  0.412420  0.778300  1.0  0.0461
  C  C236  1  0.231190  0.475250  0.776240  1.0  -0.1583
  C  C237  1  0.346590  0.425640  0.778760  1.0  0.698
  C  C238  1  0.117930  0.426170  0.790740  1.0  0.6616
  C  C239  1  0.237100  0.438890  0.928650  1.0  0.7265
  C  C240  1  0.246600  0.504020  0.709340  1.0  0.6896
  C  C241  1  0.683620  0.791240  0.458420  1.0  -0.1627
  C  C242  1  0.633840  0.764500  0.409300  1.0  0.0616
  C  C243  1  0.721700  0.689620  0.412420  1.0  0.0454
  C  C244  1  0.723760  0.731190  0.475250  1.0  -0.1521
  C  C245  1  0.721240  0.846590  0.425640  1.0  0.6953
  C  C246  1  0.709260  0.617930  0.426170  1.0  0.6632
  C  C247  1  0.571350  0.737100  0.438890  1.0  0.7237
  C  C248  1  0.790660  0.746600  0.504020  1.0  0.6888
  C  C249  1  0.816380  0.208760  0.958420  1.0  -0.1633
  C  C250  1  0.866160  0.235500  0.909300  1.0  0.0644
  C  C251  1  0.778300  0.310380  0.912420  1.0  0.0468
  C  C252  1  0.776240  0.268810  0.975250  1.0  -0.1518
  C  C253  1  0.778760  0.153410  0.925640  1.0  0.6968
  C  C254  1  0.790740  0.382070  0.926170  1.0  0.662
  C  C255  1  0.928650  0.262900  0.938890  1.0  0.7231
  C  C256  1  0.709340  0.253400  0.004020  1.0  0.6885
  C  C257  1  0.316380  0.291240  0.041580  1.0  -0.1627
  C  C258  1  0.366160  0.264500  0.090700  1.0  0.0645
  C  C259  1  0.278300  0.189620  0.087580  1.0  0.0469
  C  C260  1  0.276240  0.231190  0.024750  1.0  -0.1529
  C  C261  1  0.278760  0.346590  0.074360  1.0  0.6954
  C  C262  1  0.290740  0.117930  0.073830  1.0  0.6615
  C  C263  1  0.428650  0.237100  0.061110  1.0  0.7227
  C  C264  1  0.209340  0.246600  0.995980  1.0  0.6899
  C  C265  1  0.183620  0.708760  0.541580  1.0  -0.1623
  C  C266  1  0.133840  0.735500  0.590700  1.0  0.0619
  C  C267  1  0.221700  0.810380  0.587580  1.0  0.049
  C  C268  1  0.223760  0.768810  0.524750  1.0  -0.1521
  C  C269  1  0.221240  0.653410  0.574360  1.0  0.6973
  C  C270  1  0.209260  0.882070  0.573830  1.0  0.6622
  C  C271  1  0.071350  0.762900  0.561110  1.0  0.723
  C  C272  1  0.290660  0.753400  0.495980  1.0  0.6882
  C  C273  1  0.458420  0.683620  0.791240  1.0  -0.161
  C  C274  1  0.409300  0.633840  0.764500  1.0  0.0653
  C  C275  1  0.412420  0.721700  0.689620  1.0  0.0469
  C  C276  1  0.475250  0.723760  0.731190  1.0  -0.1549
  C  C277  1  0.425640  0.721240  0.846590  1.0  0.7004
  C  C278  1  0.426170  0.709260  0.617930  1.0  0.6596
  C  C279  1  0.438890  0.571350  0.737100  1.0  0.7245
  C  C280  1  0.504020  0.790660  0.746600  1.0  0.6886
  C  C281  1  0.958420  0.816380  0.208760  1.0  -0.1619
  C  C282  1  0.909300  0.866160  0.235500  1.0  0.0665
  C  C283  1  0.912420  0.778300  0.310380  1.0  0.046
  C  C284  1  0.975250  0.776240  0.268810  1.0  -0.1543
  C  C285  1  0.925640  0.778760  0.153410  1.0  0.6997
  C  C286  1  0.926170  0.790740  0.382070  1.0  0.6636
  C  C287  1  0.938890  0.928650  0.262900  1.0  0.7241
  C  C288  1  0.004020  0.709340  0.253400  1.0  0.6893
  C  C289  1  0.041580  0.316380  0.291240  1.0  -0.1604
  C  C290  1  0.090700  0.366160  0.264500  1.0  0.066
  C  C291  1  0.087580  0.278300  0.189620  1.0  0.0467
  C  C292  1  0.024750  0.276240  0.231190  1.0  -0.1558
  C  C293  1  0.074360  0.278760  0.346590  1.0  0.7013
  C  C294  1  0.073830  0.290740  0.117930  1.0  0.6581
  C  C295  1  0.061110  0.428650  0.237100  1.0  0.7264
  C  C296  1  0.995980  0.209340  0.246600  1.0  0.6898
  C  C297  1  0.541580  0.183620  0.708760  1.0  -0.1607
  C  C298  1  0.590700  0.133840  0.735500  1.0  0.0662
  C  C299  1  0.587580  0.221700  0.810380  1.0  0.0488
  C  C300  1  0.524750  0.223760  0.768810  1.0  -0.1552
  C  C301  1  0.574360  0.221240  0.653410  1.0  0.6995
  C  C302  1  0.573830  0.209260  0.882070  1.0  0.6635
  C  C303  1  0.561110  0.071350  0.762900  1.0  0.7248
  C  C304  1  0.495980  0.290660  0.753400  1.0  0.6895
  C  C305  1  0.791240  0.458420  0.683620  1.0  -0.1643
  C  C306  1  0.764500  0.409300  0.633840  1.0  0.0655
  C  C307  1  0.689620  0.412420  0.721700  1.0  0.0461
  C  C308  1  0.731190  0.475250  0.723760  1.0  -0.1582
  C  C309  1  0.846590  0.425640  0.721240  1.0  0.6989
  C  C310  1  0.617930  0.426170  0.709260  1.0  0.6616
  C  C311  1  0.737100  0.438890  0.571350  1.0  0.7279
  C  C312  1  0.746600  0.504020  0.790660  1.0  0.6863
  C  C313  1  0.208760  0.958420  0.816380  1.0  -0.1647
  C  C314  1  0.235500  0.909300  0.866160  1.0  0.0659
  C  C315  1  0.310380  0.912420  0.778300  1.0  0.0471
  C  C316  1  0.268810  0.975250  0.776240  1.0  -0.1579
  C  C317  1  0.153410  0.925640  0.778760  1.0  0.6967
  C  C318  1  0.382070  0.926170  0.790740  1.0  0.6597
  C  C319  1  0.262900  0.938890  0.928650  1.0  0.7266
  C  C320  1  0.253400  0.004020  0.709340  1.0  0.6893
  C  C321  1  0.291240  0.041580  0.316380  1.0  -0.1644
  C  C322  1  0.264500  0.090700  0.366160  1.0  0.0669
  C  C323  1  0.189620  0.087580  0.278300  1.0  0.0462
  C  C324  1  0.231190  0.024750  0.276240  1.0  -0.1576
  C  C325  1  0.346590  0.074360  0.278760  1.0  0.6977
  C  C326  1  0.117930  0.073830  0.290740  1.0  0.6615
  C  C327  1  0.237100  0.061110  0.428650  1.0  0.7258
  C  C328  1  0.246600  0.995980  0.209340  1.0  0.6899
  C  C329  1  0.708760  0.541580  0.183620  1.0  -0.1661
  C  C330  1  0.735500  0.590700  0.133840  1.0  0.0644
  C  C331  1  0.810380  0.587580  0.221700  1.0  0.0465
  C  C332  1  0.768810  0.524750  0.223760  1.0  -0.1571
  C  C333  1  0.653410  0.574360  0.221240  1.0  0.6971
  C  C334  1  0.882070  0.573830  0.209260  1.0  0.6604
  C  C335  1  0.762900  0.561110  0.071350  1.0  0.7265
  C  C336  1  0.753400  0.495980  0.290660  1.0  0.6885
  O  O337  1  0.227650  0.166390  0.604510  1.0  -0.5735
  O  O338  1  0.304190  0.099080  0.570600  1.0  -0.6313
  O  O339  1  0.245430  0.410450  0.543040  1.0  -0.5755
  O  O340  1  0.341900  0.408450  0.592590  1.0  -0.5758
  O  O341  1  0.447760  0.318260  0.579610  1.0  -0.5817
  O  O342  1  0.458050  0.227450  0.521930  1.0  -0.6116
  O  O343  1  0.210530  0.213970  0.449100  1.0  -0.6041
  O  O344  1  0.159790  0.280950  0.518530  1.0  -0.621
  O  O345  1  0.330760  0.283920  0.627420  1.0  -0.343
  O  O346  1  0.272350  0.833610  0.104510  1.0  -0.5735
  O  O347  1  0.195810  0.900920  0.070600  1.0  -0.63
  O  O348  1  0.254570  0.589550  0.043040  1.0  -0.5766
  O  O349  1  0.158100  0.591550  0.092590  1.0  -0.5768
  O  O350  1  0.052240  0.681740  0.079610  1.0  -0.5825
  O  O351  1  0.041950  0.772550  0.021930  1.0  -0.6104
  O  O352  1  0.289470  0.786030  0.949100  1.0  -0.6044
  O  O353  1  0.340210  0.719050  0.018530  1.0  -0.6204
  O  O354  1  0.169240  0.716080  0.127420  1.0  -0.3429
  O  O355  1  0.772350  0.666390  0.895490  1.0  -0.5742
  O  O356  1  0.695810  0.599080  0.929400  1.0  -0.6301
  O  O357  1  0.754570  0.910450  0.956960  1.0  -0.5763
  O  O358  1  0.658100  0.908450  0.907410  1.0  -0.5764
  O  O359  1  0.552240  0.818260  0.920390  1.0  -0.5824
  O  O360  1  0.541950  0.727450  0.978070  1.0  -0.6117
  O  O361  1  0.789470  0.713970  0.050900  1.0  -0.6053
  O  O362  1  0.840210  0.780950  0.981470  1.0  -0.6205
  O  O363  1  0.669240  0.783920  0.872580  1.0  -0.3423
  O  O364  1  0.727650  0.333610  0.395490  1.0  -0.5732
  O  O365  1  0.804190  0.400920  0.429400  1.0  -0.6299
  O  O366  1  0.745430  0.089550  0.456960  1.0  -0.5761
  O  O367  1  0.841900  0.091550  0.407410  1.0  -0.5768
  O  O368  1  0.947760  0.181740  0.420390  1.0  -0.5828
  O  O369  1  0.958050  0.272550  0.478070  1.0  -0.6107
  O  O370  1  0.710530  0.286030  0.550900  1.0  -0.6051
  O  O371  1  0.659790  0.219050  0.481470  1.0  -0.6205
  O  O372  1  0.830760  0.216080  0.372580  1.0  -0.3438
  O  O373  1  0.604510  0.227650  0.166390  1.0  -0.5742
  O  O374  1  0.570600  0.304190  0.099080  1.0  -0.632
  O  O375  1  0.543040  0.245430  0.410450  1.0  -0.5756
  O  O376  1  0.592590  0.341900  0.408450  1.0  -0.582
  O  O377  1  0.579610  0.447760  0.318260  1.0  -0.5879
  O  O378  1  0.521930  0.458050  0.227450  1.0  -0.6108
  O  O379  1  0.449100  0.210530  0.213970  1.0  -0.6046
  O  O380  1  0.518530  0.159790  0.280950  1.0  -0.6208
  O  O381  1  0.627420  0.330760  0.283920  1.0  -0.3386
  O  O382  1  0.104510  0.272350  0.833610  1.0  -0.5757
  O  O383  1  0.070600  0.195810  0.900920  1.0  -0.6316
  O  O384  1  0.043040  0.254570  0.589550  1.0  -0.5761
  O  O385  1  0.092590  0.158100  0.591550  1.0  -0.5802
  O  O386  1  0.079610  0.052240  0.681740  1.0  -0.5874
  O  O387  1  0.021930  0.041950  0.772550  1.0  -0.6101
  O  O388  1  0.949100  0.289470  0.786030  1.0  -0.6051
  O  O389  1  0.018530  0.340210  0.719050  1.0  -0.6212
  O  O390  1  0.127420  0.169240  0.716080  1.0  -0.338
  O  O391  1  0.895490  0.772350  0.666390  1.0  -0.5743
  O  O392  1  0.929400  0.695810  0.599080  1.0  -0.6305
  O  O393  1  0.956960  0.754570  0.910450  1.0  -0.5765
  O  O394  1  0.907410  0.658100  0.908450  1.0  -0.5797
  O  O395  1  0.920390  0.552240  0.818260  1.0  -0.5848
  O  O396  1  0.978070  0.541950  0.727450  1.0  -0.6116
  O  O397  1  0.050900  0.789470  0.713970  1.0  -0.6044
  O  O398  1  0.981470  0.840210  0.780950  1.0  -0.6201
  O  O399  1  0.872580  0.669240  0.783920  1.0  -0.3424
  O  O400  1  0.395490  0.727650  0.333610  1.0  -0.5749
  O  O401  1  0.429400  0.804190  0.400920  1.0  -0.6306
  O  O402  1  0.456960  0.745430  0.089550  1.0  -0.5767
  O  O403  1  0.407410  0.841900  0.091550  1.0  -0.5776
  O  O404  1  0.420390  0.947760  0.181740  1.0  -0.5864
  O  O405  1  0.478070  0.958050  0.272550  1.0  -0.6105
  O  O406  1  0.550900  0.710530  0.286030  1.0  -0.6048
  O  O407  1  0.481470  0.659790  0.219050  1.0  -0.6203
  O  O408  1  0.372580  0.830760  0.216080  1.0  -0.3421
  O  O409  1  0.166390  0.604510  0.227650  1.0  -0.5772
  O  O410  1  0.099080  0.570600  0.304190  1.0  -0.6285
  O  O411  1  0.410450  0.543040  0.245430  1.0  -0.5766
  O  O412  1  0.408450  0.592590  0.341900  1.0  -0.5753
  O  O413  1  0.318260  0.579610  0.447760  1.0  -0.5809
  O  O414  1  0.227450  0.521930  0.458050  1.0  -0.6087
  O  O415  1  0.213970  0.449100  0.210530  1.0  -0.6084
  O  O416  1  0.280950  0.518530  0.159790  1.0  -0.621
  O  O417  1  0.283920  0.627420  0.330760  1.0  -0.3363
  O  O418  1  0.833610  0.104510  0.272350  1.0  -0.5769
  O  O419  1  0.900920  0.070600  0.195810  1.0  -0.6301
  O  O420  1  0.589550  0.043040  0.254570  1.0  -0.5762
  O  O421  1  0.591550  0.092590  0.158100  1.0  -0.5755
  O  O422  1  0.681740  0.079610  0.052240  1.0  -0.5822
  O  O423  1  0.772550  0.021930  0.041950  1.0  -0.6091
  O  O424  1  0.786030  0.949100  0.289470  1.0  -0.6073
  O  O425  1  0.719050  0.018530  0.340210  1.0  -0.6219
  O  O426  1  0.716080  0.127420  0.169240  1.0  -0.3354
  O  O427  1  0.666390  0.895490  0.772350  1.0  -0.5767
  O  O428  1  0.599080  0.929400  0.695810  1.0  -0.6284
  O  O429  1  0.910450  0.956960  0.754570  1.0  -0.5765
  O  O430  1  0.908450  0.907410  0.658100  1.0  -0.5765
  O  O431  1  0.818260  0.920390  0.552240  1.0  -0.5817
  O  O432  1  0.727450  0.978070  0.541950  1.0  -0.6086
  O  O433  1  0.713970  0.050900  0.789470  1.0  -0.6081
  O  O434  1  0.780950  0.981470  0.840210  1.0  -0.6208
  O  O435  1  0.783920  0.872580  0.669240  1.0  -0.3389
  O  O436  1  0.333610  0.395490  0.727650  1.0  -0.5777
  O  O437  1  0.400920  0.429400  0.804190  1.0  -0.6298
  O  O438  1  0.089550  0.456960  0.745430  1.0  -0.5773
  O  O439  1  0.091550  0.407410  0.841900  1.0  -0.5757
  O  O440  1  0.181740  0.420390  0.947760  1.0  -0.5825
  O  O441  1  0.272550  0.478070  0.958050  1.0  -0.6081
  O  O442  1  0.286030  0.550900  0.710530  1.0  -0.6074
  O  O443  1  0.219050  0.481470  0.659790  1.0  -0.6219
  O  O444  1  0.216080  0.372580  0.830760  1.0  -0.3381
  O  O445  1  0.772350  0.833610  0.395490  1.0  -0.5734
  O  O446  1  0.695810  0.900920  0.429400  1.0  -0.6299
  O  O447  1  0.754570  0.589550  0.456960  1.0  -0.5761
  O  O448  1  0.658100  0.591550  0.407410  1.0  -0.5769
  O  O449  1  0.552240  0.681740  0.420390  1.0  -0.5827
  O  O450  1  0.541950  0.772550  0.478070  1.0  -0.6118
  O  O451  1  0.789470  0.786030  0.550900  1.0  -0.6052
  O  O452  1  0.840210  0.719050  0.481470  1.0  -0.62
  O  O453  1  0.669240  0.716080  0.372580  1.0  -0.3436
  O  O454  1  0.727650  0.166390  0.895490  1.0  -0.574
  O  O455  1  0.804190  0.099080  0.929400  1.0  -0.6313
  O  O456  1  0.745430  0.410450  0.956960  1.0  -0.576
  O  O457  1  0.841900  0.408450  0.907410  1.0  -0.5757
  O  O458  1  0.947760  0.318260  0.920390  1.0  -0.5815
  O  O459  1  0.958050  0.227450  0.978070  1.0  -0.6107
  O  O460  1  0.710530  0.213970  0.050900  1.0  -0.6055
  O  O461  1  0.659790  0.280950  0.981470  1.0  -0.621
  O  O462  1  0.830760  0.283920  0.872580  1.0  -0.3426
  O  O463  1  0.227650  0.333610  0.104510  1.0  -0.5731
  O  O464  1  0.304190  0.400920  0.070600  1.0  -0.6298
  O  O465  1  0.245430  0.089550  0.043040  1.0  -0.5755
  O  O466  1  0.341900  0.091550  0.092590  1.0  -0.5765
  O  O467  1  0.447760  0.181740  0.079610  1.0  -0.582
  O  O468  1  0.458050  0.272550  0.021930  1.0  -0.6112
  O  O469  1  0.210530  0.286030  0.949100  1.0  -0.6046
  O  O470  1  0.159790  0.219050  0.018530  1.0  -0.621
  O  O471  1  0.330760  0.216080  0.127420  1.0  -0.3431
  O  O472  1  0.272350  0.666390  0.604510  1.0  -0.5736
  O  O473  1  0.195810  0.599080  0.570600  1.0  -0.6302
  O  O474  1  0.254570  0.910450  0.543040  1.0  -0.5769
  O  O475  1  0.158100  0.908450  0.592590  1.0  -0.5759
  O  O476  1  0.052240  0.818260  0.579610  1.0  -0.5824
  O  O477  1  0.041950  0.727450  0.521930  1.0  -0.6106
  O  O478  1  0.289470  0.713970  0.449100  1.0  -0.6043
  O  O479  1  0.340210  0.780950  0.518530  1.0  -0.6207
  O  O480  1  0.169240  0.783920  0.627420  1.0  -0.3428
  O  O481  1  0.395490  0.772350  0.833610  1.0  -0.5751
  O  O482  1  0.429400  0.695810  0.900920  1.0  -0.6305
  O  O483  1  0.456960  0.754570  0.589550  1.0  -0.577
  O  O484  1  0.407410  0.658100  0.591550  1.0  -0.578
  O  O485  1  0.420390  0.552240  0.681740  1.0  -0.5857
  O  O486  1  0.478070  0.541950  0.772550  1.0  -0.6104
  O  O487  1  0.550900  0.789470  0.786030  1.0  -0.6051
  O  O488  1  0.481470  0.840210  0.719050  1.0  -0.6208
  O  O489  1  0.372580  0.669240  0.716080  1.0  -0.3421
  O  O490  1  0.895490  0.727650  0.166390  1.0  -0.5744
  O  O491  1  0.929400  0.804190  0.099080  1.0  -0.6311
  O  O492  1  0.956960  0.745430  0.410450  1.0  -0.5764
  O  O493  1  0.907410  0.841900  0.408450  1.0  -0.5789
  O  O494  1  0.920390  0.947760  0.318260  1.0  -0.5864
  O  O495  1  0.978070  0.958050  0.227450  1.0  -0.6113
  O  O496  1  0.050900  0.710530  0.213970  1.0  -0.6047
  O  O497  1  0.981470  0.659790  0.280950  1.0  -0.6203
  O  O498  1  0.872580  0.830760  0.283920  1.0  -0.3425
  O  O499  1  0.104510  0.227650  0.333610  1.0  -0.5748
  O  O500  1  0.070600  0.304190  0.400920  1.0  -0.6313
  O  O501  1  0.043040  0.245430  0.089550  1.0  -0.5758
  O  O502  1  0.092590  0.341900  0.091550  1.0  -0.581
  O  O503  1  0.079610  0.447760  0.181740  1.0  -0.5877
  O  O504  1  0.021930  0.458050  0.272550  1.0  -0.6104
  O  O505  1  0.949100  0.210530  0.286030  1.0  -0.6051
  O  O506  1  0.018530  0.159790  0.219050  1.0  -0.6202
  O  O507  1  0.127420  0.330760  0.216080  1.0  -0.3381
  O  O508  1  0.604510  0.272350  0.666390  1.0  -0.5747
  O  O509  1  0.570600  0.195810  0.599080  1.0  -0.6314
  O  O510  1  0.543040  0.254570  0.910450  1.0  -0.5762
  O  O511  1  0.592590  0.158100  0.908450  1.0  -0.5813
  O  O512  1  0.579610  0.052240  0.818260  1.0  -0.586
  O  O513  1  0.521930  0.041950  0.727450  1.0  -0.6106
  O  O514  1  0.449100  0.289470  0.713970  1.0  -0.6046
  O  O515  1  0.518530  0.340210  0.780950  1.0  -0.6211
  O  O516  1  0.627420  0.169240  0.783920  1.0  -0.3385
  O  O517  1  0.833610  0.395490  0.772350  1.0  -0.5771
  O  O518  1  0.900920  0.429400  0.695810  1.0  -0.6301
  O  O519  1  0.589550  0.456960  0.754570  1.0  -0.5767
  O  O520  1  0.591550  0.407410  0.658100  1.0  -0.5766
  O  O521  1  0.681740  0.420390  0.552240  1.0  -0.5834
  O  O522  1  0.772550  0.478070  0.541950  1.0  -0.6093
  O  O523  1  0.786030  0.550900  0.789470  1.0  -0.6077
  O  O524  1  0.719050  0.481470  0.840210  1.0  -0.6216
  O  O525  1  0.716080  0.372580  0.669240  1.0  -0.3385
  O  O526  1  0.166390  0.895490  0.727650  1.0  -0.5781
  O  O527  1  0.099080  0.929400  0.804190  1.0  -0.6288
  O  O528  1  0.410450  0.956960  0.745430  1.0  -0.5778
  O  O529  1  0.408450  0.907410  0.841900  1.0  -0.5752
  O  O530  1  0.318260  0.920390  0.947760  1.0  -0.5813
  O  O531  1  0.227450  0.978070  0.958050  1.0  -0.608
  O  O532  1  0.213970  0.050900  0.710530  1.0  -0.6083
  O  O533  1  0.280950  0.981470  0.659790  1.0  -0.6211
  O  O534  1  0.283920  0.872580  0.830760  1.0  -0.3386
  O  O535  1  0.333610  0.104510  0.227650  1.0  -0.5771
  O  O536  1  0.400920  0.070600  0.304190  1.0  -0.6294
  O  O537  1  0.089550  0.043040  0.245430  1.0  -0.5763
  O  O538  1  0.091550  0.092590  0.341900  1.0  -0.5753
  O  O539  1  0.181740  0.079610  0.447760  1.0  -0.581
  O  O540  1  0.272550  0.021930  0.458050  1.0  -0.6087
  O  O541  1  0.286030  0.949100  0.210530  1.0  -0.6072
  O  O542  1  0.219050  0.018530  0.159790  1.0  -0.6219
  O  O543  1  0.216080  0.127420  0.330760  1.0  -0.3349
  O  O544  1  0.666390  0.604510  0.272350  1.0  -0.5766
  O  O545  1  0.599080  0.570600  0.195810  1.0  -0.6286
  O  O546  1  0.910450  0.543040  0.254570  1.0  -0.5758
  O  O547  1  0.908450  0.592590  0.158100  1.0  -0.5761
  O  O548  1  0.818260  0.579610  0.052240  1.0  -0.5818
  O  O549  1  0.727450  0.521930  0.041950  1.0  -0.6083
  O  O550  1  0.713970  0.449100  0.289470  1.0  -0.6088
  O  O551  1  0.780950  0.518530  0.340210  1.0  -0.6209
  O  O552  1  0.783920  0.627420  0.169240  1.0  -0.3366
