# generated using pymatgen
data_SmH9C17NO6
_symmetry_space_group_name_H-M   'P 1'
_cell_length_a   7.01700000
_cell_length_b   26.63700000
_cell_length_c   18.06200000
_cell_angle_alpha   90.00000000
_cell_angle_beta   98.27000000
_cell_angle_gamma   90.00000000
_symmetry_Int_Tables_number   1
_chemical_formula_structural   SmH9C17NO6
_chemical_formula_sum   'Sm8 H72 C136 N8 O48'
_cell_volume   3340.89522027
_cell_formula_units_Z   8
loop_
 _symmetry_equiv_pos_site_id
 _symmetry_equiv_pos_as_xyz
  1  'x, y, z'
loop_
 _atom_site_type_symbol
 _atom_site_label
 _atom_site_symmetry_multiplicity
 _atom_site_fract_x
 _atom_site_fract_y
 _atom_site_fract_z
 _atom_site_occupancy
 _atom_site_charge
  Sm  Sm1  1  0.683370  0.429460  0.932950  1.0  2.2955
  Sm  Sm2  1  0.762810  0.067910  0.049180  1.0  2.2926
  Sm  Sm3  1  0.316630  0.929460  0.567050  1.0  2.2962
  Sm  Sm4  1  0.237190  0.567910  0.450820  1.0  2.2915
  Sm  Sm5  1  0.316630  0.570540  0.067050  1.0  2.2974
  Sm  Sm6  1  0.237190  0.932090  0.950820  1.0  2.2916
  Sm  Sm7  1  0.683370  0.070540  0.432950  1.0  2.2943
  Sm  Sm8  1  0.762810  0.432090  0.549180  1.0  2.2933
  H  H9  1  0.133800  0.300800  0.795200  1.0  0.0643
  H  H10  1  0.182100  0.217400  0.821800  1.0  0.1043
  H  H11  1  0.951000  0.187000  0.609600  1.0  0.1053
  H  H12  1  0.908600  0.272800  0.590900  1.0  0.0701
  H  H13  1  0.025000  0.143300  0.846200  1.0  0.0969
  H  H14  1  0.083000  0.999000  0.785400  1.0  0.1106
  H  H15  1  0.116600  0.110200  0.635600  1.0  0.111
  H  H16  1  0.699700  0.275700  0.874000  1.0  0.081
  H  H17  1  0.686900  0.189700  0.868700  1.0  0.1059
  H  H18  1  0.479700  0.201000  0.650900  1.0  0.1083
  H  H19  1  0.485300  0.286800  0.662500  1.0  0.0754
  H  H20  1  0.542600  0.116600  0.860100  1.0  0.0991
  H  H21  1  0.563300  0.988700  0.741600  1.0  0.1111
  H  H22  1  0.623700  0.122700  0.643900  1.0  0.1104
  H  H23  1  0.139500  0.167700  0.990600  1.0  0.1195
  H  H24  1  0.960300  0.239800  0.960200  1.0  0.0897
  H  H25  1  0.107100  0.317400  0.953400  1.0  0.1209
  H  H26  1  0.624500  0.250400  0.002400  1.0  0.099
  H  H27  1  0.866200  0.800800  0.704800  1.0  0.0651
  H  H28  1  0.817900  0.717400  0.678200  1.0  0.1042
  H  H29  1  0.049000  0.687000  0.890400  1.0  0.106
  H  H30  1  0.091400  0.772800  0.909100  1.0  0.0704
  H  H31  1  0.975000  0.643300  0.653800  1.0  0.0968
  H  H32  1  0.917000  0.499000  0.714600  1.0  0.11
  H  H33  1  0.883400  0.610200  0.864400  1.0  0.1105
  H  H34  1  0.300300  0.775700  0.626000  1.0  0.0805
  H  H35  1  0.313100  0.689700  0.631300  1.0  0.1056
  H  H36  1  0.520300  0.701000  0.849100  1.0  0.1081
  H  H37  1  0.514700  0.786800  0.837500  1.0  0.0751
  H  H38  1  0.457400  0.616600  0.639900  1.0  0.0993
  H  H39  1  0.436700  0.488700  0.758400  1.0  0.1109
  H  H40  1  0.376300  0.622700  0.856100  1.0  0.1104
  H  H41  1  0.860500  0.667700  0.509400  1.0  0.1188
  H  H42  1  0.039700  0.739800  0.539800  1.0  0.0903
  H  H43  1  0.892900  0.817400  0.546600  1.0  0.1208
  H  H44  1  0.375500  0.750400  0.497600  1.0  0.0993
  H  H45  1  0.866200  0.699200  0.204800  1.0  0.0704
  H  H46  1  0.817900  0.782600  0.178200  1.0  0.1036
  H  H47  1  0.049000  0.813000  0.390400  1.0  0.1056
  H  H48  1  0.091400  0.727200  0.409100  1.0  0.0707
  H  H49  1  0.975000  0.856700  0.153800  1.0  0.0971
  H  H50  1  0.917000  0.001000  0.214600  1.0  0.1099
  H  H51  1  0.883400  0.889800  0.364400  1.0  0.1101
  H  H52  1  0.300300  0.724300  0.126000  1.0  0.0804
  H  H53  1  0.313100  0.810300  0.131300  1.0  0.1056
  H  H54  1  0.520300  0.799000  0.349100  1.0  0.1081
  H  H55  1  0.514700  0.713200  0.337500  1.0  0.0739
  H  H56  1  0.457400  0.883400  0.139900  1.0  0.0993
  H  H57  1  0.436700  0.011300  0.258400  1.0  0.1082
  H  H58  1  0.376300  0.877300  0.356100  1.0  0.1106
  H  H59  1  0.860500  0.832300  0.009400  1.0  0.1193
  H  H60  1  0.039700  0.760200  0.039800  1.0  0.0896
  H  H61  1  0.892900  0.682600  0.046600  1.0  0.1223
  H  H62  1  0.375500  0.749600  0.997600  1.0  0.0994
  H  H63  1  0.133800  0.199200  0.295200  1.0  0.0703
  H  H64  1  0.182100  0.282600  0.321800  1.0  0.104
  H  H65  1  0.951000  0.313000  0.109600  1.0  0.1057
  H  H66  1  0.908600  0.227200  0.090900  1.0  0.0698
  H  H67  1  0.025000  0.356700  0.346200  1.0  0.0974
  H  H68  1  0.083000  0.501000  0.285400  1.0  0.1101
  H  H69  1  0.116600  0.389800  0.135600  1.0  0.1108
  H  H70  1  0.699700  0.224300  0.374000  1.0  0.0808
  H  H71  1  0.686900  0.310300  0.368700  1.0  0.1058
  H  H72  1  0.479700  0.299000  0.150900  1.0  0.1083
  H  H73  1  0.485300  0.213200  0.162500  1.0  0.0738
  H  H74  1  0.542600  0.383400  0.360100  1.0  0.0993
  H  H75  1  0.563300  0.511300  0.241600  1.0  0.1082
  H  H76  1  0.623700  0.377300  0.143900  1.0  0.1105
  H  H77  1  0.139500  0.332300  0.490600  1.0  0.1194
  H  H78  1  0.960300  0.260200  0.460200  1.0  0.089
  H  H79  1  0.107100  0.182600  0.453400  1.0  0.1217
  H  H80  1  0.624500  0.249600  0.502400  1.0  0.0992
  C  C81  1  0.096000  0.277700  0.757400  1.0  0.1761
  C  C82  1  0.123000  0.227000  0.774500  1.0  -0.1997
  C  C83  1  0.061100  0.190400  0.720400  1.0  0.0725
  C  C84  1  0.986000  0.209100  0.649100  1.0  -0.1748
  C  C85  1  0.965000  0.261300  0.637700  1.0  0.1689
  C  C86  1  0.074000  0.135800  0.738200  1.0  0.0174
  C  C87  1  0.047000  0.119800  0.810300  1.0  -0.0669
  C  C88  1  0.053300  0.069000  0.827600  1.0  -0.1187
  C  C89  1  0.081600  0.033000  0.773600  1.0  0.0079
  C  C90  1  0.108300  0.049000  0.700700  1.0  -0.1425
  C  C91  1  0.102100  0.099800  0.683600  1.0  -0.0258
  C  C92  1  0.146500  0.008300  0.647300  1.0  0.6533
  C  C93  1  0.021100  0.050000  0.905200  1.0  0.7187
  C  C94  1  0.652000  0.260500  0.828900  1.0  0.1561
  C  C95  1  0.647000  0.208400  0.825700  1.0  -0.1905
  C  C96  1  0.584400  0.184300  0.758600  1.0  0.0304
  C  C97  1  0.523000  0.215300  0.697100  1.0  -0.1481
  C  C98  1  0.527000  0.267300  0.704400  1.0  0.1724
  C  C99  1  0.582800  0.128500  0.753200  1.0  -0.0601
  C  C100  1  0.556600  0.100300  0.815600  1.0  -0.0777
  C  C101  1  0.550800  0.047400  0.812800  1.0  -0.1251
  C  C102  1  0.571800  0.023500  0.745000  1.0  -0.0219
  C  C103  1  0.605200  0.051400  0.682900  1.0  -0.1574
  C  C104  1  0.606800  0.104000  0.686000  1.0  -0.0321
  C  C105  1  0.519700  0.017500  0.880900  1.0  0.721
  C  C106  1  0.628400  0.026100  0.610100  1.0  0.717
  C  C107  1  0.523000  0.155000  0.019500  1.0  0.6227
  C  C108  1  0.402600  0.201700  0.001000  1.0  -0.1659
  C  C109  1  0.200800  0.198500  0.987500  1.0  -0.0972
  C  C110  1  0.093900  0.242000  0.969600  1.0  -0.1034
  C  C111  1  0.181100  0.288800  0.965200  1.0  -0.1049
  C  C112  1  0.383300  0.291700  0.979100  1.0  -0.1559
  C  C113  1  0.487400  0.340900  0.970700  1.0  0.6738
  C  C114  1  0.490800  0.248400  0.995200  1.0  -0.0684
  C  C115  1  0.904000  0.777700  0.742600  1.0  0.1748
  C  C116  1  0.877000  0.727000  0.725500  1.0  -0.2001
  C  C117  1  0.938900  0.690400  0.779600  1.0  0.0728
  C  C118  1  0.014000  0.709100  0.850900  1.0  -0.1728
  C  C119  1  0.035000  0.761300  0.862300  1.0  0.1683
  C  C120  1  0.926000  0.635800  0.761800  1.0  0.0179
  C  C121  1  0.953000  0.619800  0.689700  1.0  -0.0677
  C  C122  1  0.946700  0.569000  0.672400  1.0  -0.118
  C  C123  1  0.918400  0.533000  0.726400  1.0  0.0086
  C  C124  1  0.891700  0.549000  0.799300  1.0  -0.1433
  C  C125  1  0.897900  0.599800  0.816400  1.0  -0.0239
  C  C126  1  0.853500  0.508300  0.852700  1.0  0.6546
  C  C127  1  0.978900  0.550000  0.594800  1.0  0.7182
  C  C128  1  0.348000  0.760500  0.671100  1.0  0.1567
  C  C129  1  0.353000  0.708400  0.674300  1.0  -0.1912
  C  C130  1  0.415600  0.684300  0.741400  1.0  0.0303
  C  C131  1  0.477000  0.715300  0.802900  1.0  -0.1487
  C  C132  1  0.473000  0.767300  0.795600  1.0  0.1737
  C  C133  1  0.417200  0.628500  0.746800  1.0  -0.0604
  C  C134  1  0.443400  0.600300  0.684400  1.0  -0.0785
  C  C135  1  0.449200  0.547400  0.687200  1.0  -0.1273
  C  C136  1  0.428200  0.523500  0.755000  1.0  -0.0229
  C  C137  1  0.394800  0.551400  0.817100  1.0  -0.1582
  C  C138  1  0.393200  0.604000  0.814000  1.0  -0.0326
  C  C139  1  0.480300  0.517500  0.619100  1.0  0.7191
  C  C140  1  0.371600  0.526100  0.889900  1.0  0.7169
  C  C141  1  0.477000  0.655000  0.480500  1.0  0.6232
  C  C142  1  0.597400  0.701700  0.499000  1.0  -0.1663
  C  C143  1  0.799200  0.698500  0.512500  1.0  -0.0993
  C  C144  1  0.906100  0.742000  0.530400  1.0  -0.1019
  C  C145  1  0.818900  0.788800  0.534800  1.0  -0.104
  C  C146  1  0.616700  0.791700  0.520900  1.0  -0.1556
  C  C147  1  0.512600  0.840900  0.529300  1.0  0.6732
  C  C148  1  0.509200  0.748400  0.504800  1.0  -0.0669
  C  C149  1  0.904000  0.722300  0.242600  1.0  0.1737
  C  C150  1  0.877000  0.773000  0.225500  1.0  -0.2007
  C  C151  1  0.938900  0.809600  0.279600  1.0  0.0731
  C  C152  1  0.014000  0.790900  0.350900  1.0  -0.1726
  C  C153  1  0.035000  0.738700  0.362300  1.0  0.1681
  C  C154  1  0.926000  0.864200  0.261800  1.0  0.018
  C  C155  1  0.953000  0.880200  0.189700  1.0  -0.0668
  C  C156  1  0.946700  0.931000  0.172400  1.0  -0.118
  C  C157  1  0.918400  0.967000  0.226400  1.0  0.0091
  C  C158  1  0.891700  0.951000  0.299300  1.0  -0.1429
  C  C159  1  0.897900  0.900200  0.316400  1.0  -0.0236
  C  C160  1  0.853500  0.991700  0.352700  1.0  0.6533
  C  C161  1  0.978900  0.950000  0.094800  1.0  0.7174
  C  C162  1  0.348000  0.739500  0.171100  1.0  0.1562
  C  C163  1  0.353000  0.791600  0.174300  1.0  -0.191
  C  C164  1  0.415600  0.815700  0.241400  1.0  0.0307
  C  C165  1  0.477000  0.784700  0.302900  1.0  -0.1485
  C  C166  1  0.473000  0.732700  0.295600  1.0  0.1726
  C  C167  1  0.417200  0.871500  0.246800  1.0  -0.0607
  C  C168  1  0.443400  0.899700  0.184400  1.0  -0.078
  C  C169  1  0.449200  0.952600  0.187200  1.0  -0.1265
  C  C170  1  0.428200  0.976500  0.255000  1.0  -0.0235
  C  C171  1  0.394800  0.948600  0.317100  1.0  -0.158
  C  C172  1  0.393200  0.896000  0.314000  1.0  -0.0325
  C  C173  1  0.480300  0.982500  0.119100  1.0  0.7215
  C  C174  1  0.371600  0.973900  0.389900  1.0  0.7183
  C  C175  1  0.477000  0.845000  0.980500  1.0  0.6254
  C  C176  1  0.597400  0.798300  0.999000  1.0  -0.1657
  C  C177  1  0.799200  0.801500  0.012500  1.0  -0.0989
  C  C178  1  0.906100  0.758000  0.030400  1.0  -0.1016
  C  C179  1  0.818900  0.711200  0.034800  1.0  -0.1055
  C  C180  1  0.616700  0.708300  0.020900  1.0  -0.1561
  C  C181  1  0.512600  0.659100  0.029300  1.0  0.674
  C  C182  1  0.509200  0.751600  0.004800  1.0  -0.0669
  C  C183  1  0.096000  0.222300  0.257400  1.0  0.1743
  C  C184  1  0.123000  0.273000  0.274500  1.0  -0.2009
  C  C185  1  0.061100  0.309600  0.220400  1.0  0.0731
  C  C186  1  0.986000  0.290900  0.149100  1.0  -0.1747
  C  C187  1  0.965000  0.238700  0.137700  1.0  0.1685
  C  C188  1  0.074000  0.364200  0.238200  1.0  0.0171
  C  C189  1  0.047000  0.380200  0.310300  1.0  -0.0665
  C  C190  1  0.053300  0.431000  0.327600  1.0  -0.1189
  C  C191  1  0.081600  0.467000  0.273600  1.0  0.0086
  C  C192  1  0.108300  0.451000  0.200700  1.0  -0.1417
  C  C193  1  0.102100  0.400200  0.183600  1.0  -0.0257
  C  C194  1  0.146500  0.491700  0.147300  1.0  0.6525
  C  C195  1  0.021100  0.450000  0.405200  1.0  0.7186
  C  C196  1  0.652000  0.239500  0.328900  1.0  0.1556
  C  C197  1  0.647000  0.291600  0.325700  1.0  -0.1903
  C  C198  1  0.584400  0.315700  0.258600  1.0  0.0306
  C  C199  1  0.523000  0.284700  0.197100  1.0  -0.1478
  C  C200  1  0.527000  0.232700  0.204400  1.0  0.1728
  C  C201  1  0.582800  0.371500  0.253200  1.0  -0.0608
  C  C202  1  0.556600  0.399700  0.315600  1.0  -0.0774
  C  C203  1  0.550800  0.452600  0.312800  1.0  -0.1252
  C  C204  1  0.571800  0.476500  0.245000  1.0  -0.0237
  C  C205  1  0.605200  0.448600  0.182900  1.0  -0.156
  C  C206  1  0.606800  0.396000  0.186000  1.0  -0.0319
  C  C207  1  0.519700  0.482500  0.380900  1.0  0.721
  C  C208  1  0.628400  0.473900  0.110100  1.0  0.7177
  C  C209  1  0.523000  0.345000  0.519500  1.0  0.6236
  C  C210  1  0.402600  0.298300  0.501000  1.0  -0.1659
  C  C211  1  0.200800  0.301500  0.487500  1.0  -0.0982
  C  C212  1  0.093900  0.258000  0.469600  1.0  -0.1028
  C  C213  1  0.181100  0.211200  0.465200  1.0  -0.1046
  C  C214  1  0.383300  0.208300  0.479100  1.0  -0.156
  C  C215  1  0.487400  0.159100  0.470700  1.0  0.6728
  C  C216  1  0.490800  0.251600  0.495200  1.0  -0.0684
  N  N217  1  0.589000  0.290400  0.769500  1.0  -0.4283
  N  N218  1  0.021000  0.295200  0.691500  1.0  -0.4231
  N  N219  1  0.411000  0.790400  0.730500  1.0  -0.4285
  N  N220  1  0.979000  0.795200  0.808500  1.0  -0.4237
  N  N221  1  0.411000  0.709600  0.230500  1.0  -0.4238
  N  N222  1  0.979000  0.704800  0.308500  1.0  -0.4194
  N  N223  1  0.589000  0.209600  0.269500  1.0  -0.4238
  N  N224  1  0.021000  0.204800  0.191500  1.0  -0.4198
  O  O225  1  0.058900  0.004900  0.920700  1.0  -0.7205
  O  O226  1  0.570200  0.037700  0.944700  1.0  -0.7266
  O  O227  1  0.436600  0.975800  0.871700  1.0  -0.6506
  O  O228  1  0.690700  0.051500  0.559700  1.0  -0.7391
  O  O229  1  0.584000  0.979600  0.602700  1.0  -0.7098
  O  O230  1  0.954600  0.081200  0.948600  1.0  -0.7144
  O  O231  1  0.150000  0.963100  0.669100  1.0  -0.6421
  O  O232  1  0.184700  0.019300  0.581900  1.0  -0.6377
  O  O233  1  0.437400  0.115500  0.045100  1.0  -0.6462
  O  O234  1  0.702800  0.157100  0.014500  1.0  -0.69
  O  O235  1  0.668000  0.341100  0.974100  1.0  -0.6621
  O  O236  1  0.390600  0.381000  0.958900  1.0  -0.6516
  O  O237  1  0.941100  0.504900  0.579300  1.0  -0.7221
  O  O238  1  0.429800  0.537700  0.555300  1.0  -0.7236
  O  O239  1  0.563400  0.475800  0.628300  1.0  -0.6507
  O  O240  1  0.309300  0.551500  0.940300  1.0  -0.7385
  O  O241  1  0.416000  0.479600  0.897300  1.0  -0.7074
  O  O242  1  0.045400  0.581200  0.551400  1.0  -0.7145
  O  O243  1  0.850000  0.463100  0.830900  1.0  -0.6445
  O  O244  1  0.815300  0.519300  0.918100  1.0  -0.6398
  O  O245  1  0.562600  0.615500  0.454900  1.0  -0.6467
  O  O246  1  0.297200  0.657100  0.485500  1.0  -0.6915
  O  O247  1  0.332000  0.841100  0.525900  1.0  -0.6631
  O  O248  1  0.609400  0.881000  0.541100  1.0  -0.6528
  O  O249  1  0.941100  0.995100  0.079300  1.0  -0.7204
  O  O250  1  0.429800  0.962300  0.055300  1.0  -0.7229
  O  O251  1  0.563400  0.024200  0.128300  1.0  -0.6499
  O  O252  1  0.309300  0.948500  0.440300  1.0  -0.7397
  O  O253  1  0.416000  0.020400  0.397300  1.0  -0.7085
  O  O254  1  0.045400  0.918800  0.051400  1.0  -0.7149
  O  O255  1  0.850000  0.036900  0.330900  1.0  -0.6455
  O  O256  1  0.815300  0.980700  0.418100  1.0  -0.641
  O  O257  1  0.562600  0.884500  0.954900  1.0  -0.6469
  O  O258  1  0.297200  0.842900  0.985500  1.0  -0.6896
  O  O259  1  0.332000  0.658900  0.025900  1.0  -0.665
  O  O260  1  0.609400  0.619000  0.041100  1.0  -0.6518
  O  O261  1  0.058900  0.495100  0.420700  1.0  -0.7209
  O  O262  1  0.570200  0.462300  0.444700  1.0  -0.7265
  O  O263  1  0.436600  0.524200  0.371700  1.0  -0.6495
  O  O264  1  0.690700  0.448500  0.059700  1.0  -0.7395
  O  O265  1  0.584000  0.520400  0.102700  1.0  -0.7087
  O  O266  1  0.954600  0.418800  0.448600  1.0  -0.7151
  O  O267  1  0.150000  0.536900  0.169100  1.0  -0.6456
  O  O268  1  0.184700  0.480700  0.081900  1.0  -0.6386
  O  O269  1  0.437400  0.384500  0.545100  1.0  -0.646
  O  O270  1  0.702800  0.342900  0.514500  1.0  -0.6896
  O  O271  1  0.668000  0.158900  0.474100  1.0  -0.6652
  O  O272  1  0.390600  0.119000  0.458900  1.0  -0.6502
