# generated using pymatgen
data_DyH9C17NO6
_symmetry_space_group_name_H-M   'P 1'
_cell_length_a   6.96100000
_cell_length_b   26.30300000
_cell_length_c   17.79700000
_cell_angle_alpha   90.00000000
_cell_angle_beta   97.86000000
_cell_angle_gamma   90.00000000
_symmetry_Int_Tables_number   1
_chemical_formula_structural   DyH9C17NO6
_chemical_formula_sum   'Dy8 H72 C136 N8 O48'
_cell_volume   3227.93151614
_cell_formula_units_Z   8
loop_
 _symmetry_equiv_pos_site_id
 _symmetry_equiv_pos_as_xyz
  1  'x, y, z'
loop_
 _atom_site_type_symbol
 _atom_site_label
 _atom_site_symmetry_multiplicity
 _atom_site_fract_x
 _atom_site_fract_y
 _atom_site_fract_z
 _atom_site_occupancy
 _atom_site_charge
  Dy  Dy1  1  0.318030  0.430030  0.066190  1.0  2.2945
  Dy  Dy2  1  0.236590  0.431750  0.450850  1.0  2.2745
  Dy  Dy3  1  0.681970  0.930030  0.433810  1.0  2.2944
  Dy  Dy4  1  0.763410  0.931750  0.049150  1.0  2.2769
  Dy  Dy5  1  0.681970  0.569970  0.933810  1.0  2.2964
  Dy  Dy6  1  0.763410  0.568250  0.549150  1.0  2.2762
  Dy  Dy7  1  0.318030  0.069970  0.566190  1.0  2.2968
  Dy  Dy8  1  0.236590  0.068250  0.950850  1.0  2.2735
  H  H9  1  0.701900  0.777000  0.374900  1.0  0.0715
  H  H10  1  0.490600  0.787900  0.162400  1.0  0.0689
  H  H11  1  0.566000  0.488300  0.242800  1.0  0.1013
  H  H12  1  0.544700  0.615800  0.361600  1.0  0.0916
  H  H13  1  0.368400  0.249900  0.497100  1.0  0.1011
  H  H14  1  0.031200  0.642600  0.348300  1.0  0.1
  H  H15  1  0.082300  0.498200  0.285100  1.0  0.0981
  H  H16  1  0.118700  0.609900  0.134900  1.0  0.108
  H  H17  1  0.625600  0.623000  0.143200  1.0  0.1089
  H  H18  1  0.696900  0.691200  0.369300  1.0  0.1119
  H  H19  1  0.477500  0.701000  0.151200  1.0  0.1045
  H  H20  1  0.884400  0.182100  0.543900  1.0  0.103
  H  H21  1  0.854300  0.332600  0.508800  1.0  0.1102
  H  H22  1  0.939000  0.686500  0.110100  1.0  0.1243
  H  H23  1  0.035400  0.259800  0.538000  1.0  0.1012
  H  H24  1  0.184600  0.717400  0.323600  1.0  0.1098
  H  H25  1  0.141800  0.802300  0.294000  1.0  0.0646
  H  H26  1  0.917500  0.772900  0.090600  1.0  0.0619
  H  H27  1  0.298100  0.277000  0.125100  1.0  0.0717
  H  H28  1  0.509400  0.287900  0.337600  1.0  0.0673
  H  H29  1  0.434000  0.988300  0.257200  1.0  0.1012
  H  H30  1  0.455300  0.115800  0.138400  1.0  0.0921
  H  H31  1  0.631600  0.749900  0.002900  1.0  0.1017
  H  H32  1  0.968800  0.142600  0.151700  1.0  0.0999
  H  H33  1  0.917700  0.998200  0.214900  1.0  0.0978
  H  H34  1  0.881300  0.109900  0.365100  1.0  0.1075
  H  H35  1  0.374400  0.123000  0.356800  1.0  0.1094
  H  H36  1  0.303100  0.191200  0.130700  1.0  0.1119
  H  H37  1  0.522500  0.201000  0.348800  1.0  0.1041
  H  H38  1  0.115600  0.682100  0.956100  1.0  0.1022
  H  H39  1  0.145700  0.832600  0.991200  1.0  0.1099
  H  H40  1  0.061000  0.186500  0.389900  1.0  0.124
  H  H41  1  0.964600  0.759800  0.962000  1.0  0.1007
  H  H42  1  0.815400  0.217400  0.176400  1.0  0.1089
  H  H43  1  0.858200  0.302300  0.206000  1.0  0.0661
  H  H44  1  0.082500  0.272900  0.409400  1.0  0.0621
  H  H45  1  0.298100  0.223000  0.625100  1.0  0.0722
  H  H46  1  0.509400  0.212100  0.837600  1.0  0.0704
  H  H47  1  0.434000  0.511700  0.757200  1.0  0.0962
  H  H48  1  0.455300  0.384200  0.638400  1.0  0.0921
  H  H49  1  0.631600  0.750100  0.502900  1.0  0.1016
  H  H50  1  0.968800  0.357400  0.651700  1.0  0.1003
  H  H51  1  0.917700  0.501800  0.714900  1.0  0.0949
  H  H52  1  0.881300  0.390100  0.865100  1.0  0.1075
  H  H53  1  0.374400  0.377000  0.856800  1.0  0.1093
  H  H54  1  0.303100  0.308800  0.630700  1.0  0.1121
  H  H55  1  0.522500  0.299000  0.848800  1.0  0.104
  H  H56  1  0.115600  0.817900  0.456100  1.0  0.1028
  H  H57  1  0.145700  0.667400  0.491200  1.0  0.1104
  H  H58  1  0.061000  0.313500  0.889900  1.0  0.1236
  H  H59  1  0.964600  0.740200  0.462000  1.0  0.1008
  H  H60  1  0.815400  0.282600  0.676400  1.0  0.1091
  H  H61  1  0.858200  0.197700  0.706000  1.0  0.0718
  H  H62  1  0.082500  0.227100  0.909400  1.0  0.0624
  H  H63  1  0.701900  0.723000  0.874900  1.0  0.072
  H  H64  1  0.490600  0.712100  0.662400  1.0  0.0681
  H  H65  1  0.566000  0.011700  0.742800  1.0  0.0963
  H  H66  1  0.544700  0.884200  0.861600  1.0  0.0918
  H  H67  1  0.368400  0.250100  0.997100  1.0  0.1011
  H  H68  1  0.031200  0.857400  0.848300  1.0  0.1004
  H  H69  1  0.082300  0.001800  0.785100  1.0  0.0954
  H  H70  1  0.118700  0.890100  0.634900  1.0  0.1084
  H  H71  1  0.625600  0.877000  0.643200  1.0  0.1087
  H  H72  1  0.696900  0.808800  0.869300  1.0  0.112
  H  H73  1  0.477500  0.799000  0.651200  1.0  0.1046
  H  H74  1  0.884400  0.317900  0.043900  1.0  0.1027
  H  H75  1  0.854300  0.167400  0.008800  1.0  0.1099
  H  H76  1  0.939000  0.813500  0.610100  1.0  0.1243
  H  H77  1  0.035400  0.240200  0.038000  1.0  0.1012
  H  H78  1  0.184600  0.782600  0.823600  1.0  0.11
  H  H79  1  0.141800  0.697700  0.794000  1.0  0.0714
  H  H80  1  0.917500  0.727100  0.590600  1.0  0.0622
  C  C81  1  0.507300  0.157900  0.528400  1.0  0.6639
  C  C82  1  0.022700  0.548800  0.407600  1.0  0.724
  C  C83  1  0.656000  0.761500  0.329000  1.0  0.1659
  C  C84  1  0.532000  0.768200  0.204800  1.0  0.1737
  C  C85  1  0.609700  0.207900  0.520300  1.0  -0.15
  C  C86  1  0.573600  0.523500  0.245800  1.0  -0.0184
  C  C87  1  0.052800  0.567100  0.328300  1.0  -0.133
  C  C88  1  0.603400  0.550900  0.183200  1.0  -0.1408
  C  C89  1  0.558500  0.599700  0.316100  1.0  -0.1067
  C  C90  1  0.503100  0.251500  0.504700  1.0  -0.0871
  C  C91  1  0.471200  0.344200  0.480300  1.0  0.659
  C  C92  1  0.148000  0.507800  0.145700  1.0  0.6467
  C  C93  1  0.520400  0.517700  0.383600  1.0  0.7176
  C  C94  1  0.049800  0.619000  0.311200  1.0  -0.0984
  C  C95  1  0.080600  0.532600  0.273300  1.0  -0.0139
  C  C96  1  0.582100  0.629200  0.253600  1.0  -0.0136
  C  C97  1  0.554700  0.547300  0.313300  1.0  -0.1338
  C  C98  1  0.596000  0.298300  0.500100  1.0  -0.1621
  C  C99  1  0.102400  0.599500  0.183500  1.0  -0.0583
  C  C100  1  0.106000  0.547100  0.201000  1.0  -0.1291
  C  C101  1  0.606900  0.604300  0.186000  1.0  -0.0676
  C  C102  1  0.654100  0.710100  0.326100  1.0  -0.1959
  C  C103  1  0.623800  0.525800  0.108700  1.0  0.7343
  C  C104  1  0.074900  0.635500  0.238000  1.0  -0.0357
  C  C105  1  0.587600  0.685600  0.257900  1.0  0.104
  C  C106  1  0.525000  0.715600  0.197600  1.0  -0.1829
  C  C107  1  0.810400  0.211200  0.532900  1.0  -0.0526
  C  C108  1  0.064000  0.690400  0.219700  1.0  0.0859
  C  C109  1  0.793000  0.301500  0.512000  1.0  -0.0841
  C  C110  1  0.982800  0.708800  0.149400  1.0  -0.2178
  C  C111  1  0.900800  0.257800  0.529100  1.0  -0.1044
  C  C112  1  0.126800  0.727100  0.275600  1.0  -0.2138
  C  C113  1  0.100000  0.778500  0.256800  1.0  0.1785
  C  C114  1  0.968000  0.761400  0.138700  1.0  0.1849
  C  C115  1  0.492700  0.657900  0.971600  1.0  0.6643
  C  C116  1  0.977300  0.048800  0.092400  1.0  0.7263
  C  C117  1  0.344000  0.261500  0.171000  1.0  0.1665
  C  C118  1  0.468000  0.268200  0.295200  1.0  0.1746
  C  C119  1  0.390300  0.707900  0.979700  1.0  -0.1505
  C  C120  1  0.426400  0.023500  0.254200  1.0  -0.0193
  C  C121  1  0.947200  0.067100  0.171700  1.0  -0.1336
  C  C122  1  0.396600  0.050900  0.316800  1.0  -0.1414
  C  C123  1  0.441500  0.099700  0.183900  1.0  -0.1063
  C  C124  1  0.496900  0.751500  0.995300  1.0  -0.088
  C  C125  1  0.528800  0.844200  0.019700  1.0  0.6579
  C  C126  1  0.852000  0.007800  0.354300  1.0  0.6487
  C  C127  1  0.479600  0.017700  0.116400  1.0  0.7175
  C  C128  1  0.950200  0.119000  0.188800  1.0  -0.0991
  C  C129  1  0.919400  0.032600  0.226700  1.0  -0.0137
  C  C130  1  0.417900  0.129200  0.246400  1.0  -0.0137
  C  C131  1  0.445300  0.047300  0.186700  1.0  -0.1356
  C  C132  1  0.404000  0.798300  0.999900  1.0  -0.1618
  C  C133  1  0.897600  0.099500  0.316500  1.0  -0.0572
  C  C134  1  0.894000  0.047100  0.299000  1.0  -0.1298
  C  C135  1  0.393100  0.104300  0.314000  1.0  -0.0662
  C  C136  1  0.345900  0.210100  0.173900  1.0  -0.1956
  C  C137  1  0.376200  0.025800  0.391300  1.0  0.7321
  C  C138  1  0.925100  0.135500  0.262000  1.0  -0.0356
  C  C139  1  0.412400  0.185600  0.242100  1.0  0.1038
  C  C140  1  0.475000  0.215600  0.302400  1.0  -0.1813
  C  C141  1  0.189600  0.711200  0.967100  1.0  -0.0511
  C  C142  1  0.936000  0.190400  0.280300  1.0  0.0862
  C  C143  1  0.207000  0.801500  0.988000  1.0  -0.0837
  C  C144  1  0.017200  0.208800  0.350600  1.0  -0.2166
  C  C145  1  0.099200  0.757800  0.970900  1.0  -0.0992
  C  C146  1  0.873200  0.227100  0.224400  1.0  -0.2137
  C  C147  1  0.900000  0.278500  0.243200  1.0  0.1775
  C  C148  1  0.032000  0.261400  0.361300  1.0  0.1859
  C  C149  1  0.492700  0.842100  0.471600  1.0  0.665
  C  C150  1  0.977300  0.451200  0.592400  1.0  0.726
  C  C151  1  0.344000  0.238500  0.671000  1.0  0.1693
  C  C152  1  0.468000  0.231800  0.795200  1.0  0.1739
  C  C153  1  0.390300  0.792100  0.479700  1.0  -0.1506
  C  C154  1  0.426400  0.476500  0.754200  1.0  -0.0228
  C  C155  1  0.947200  0.432900  0.671700  1.0  -0.133
  C  C156  1  0.396600  0.449100  0.816800  1.0  -0.1421
  C  C157  1  0.441500  0.400300  0.683900  1.0  -0.1055
  C  C158  1  0.496900  0.748500  0.495300  1.0  -0.0882
  C  C159  1  0.528800  0.655800  0.519700  1.0  0.6594
  C  C160  1  0.852000  0.492200  0.854300  1.0  0.6484
  C  C161  1  0.479600  0.482300  0.616400  1.0  0.7191
  C  C162  1  0.950200  0.381000  0.688800  1.0  -0.0986
  C  C163  1  0.919400  0.467400  0.726700  1.0  -0.0127
  C  C164  1  0.417900  0.370800  0.746400  1.0  -0.0143
  C  C165  1  0.445300  0.452700  0.686700  1.0  -0.134
  C  C166  1  0.404000  0.701700  0.499900  1.0  -0.1615
  C  C167  1  0.897600  0.400500  0.816500  1.0  -0.0573
  C  C168  1  0.894000  0.452900  0.799000  1.0  -0.1304
  C  C169  1  0.393100  0.395700  0.814000  1.0  -0.0664
  C  C170  1  0.345900  0.289900  0.673900  1.0  -0.1955
  C  C171  1  0.376200  0.474200  0.891300  1.0  0.7337
  C  C172  1  0.925100  0.364500  0.762000  1.0  -0.0361
  C  C173  1  0.412400  0.314400  0.742100  1.0  0.1037
  C  C174  1  0.475000  0.284400  0.802400  1.0  -0.1812
  C  C175  1  0.189600  0.788800  0.467100  1.0  -0.0507
  C  C176  1  0.936000  0.309600  0.780300  1.0  0.0864
  C  C177  1  0.207000  0.698500  0.488000  1.0  -0.0835
  C  C178  1  0.017200  0.291200  0.850600  1.0  -0.216
  C  C179  1  0.099200  0.742200  0.470900  1.0  -0.1054
  C  C180  1  0.873200  0.272900  0.724400  1.0  -0.2142
  C  C181  1  0.900000  0.221500  0.743200  1.0  0.1756
  C  C182  1  0.032000  0.238600  0.861300  1.0  0.1867
  C  C183  1  0.507300  0.342100  0.028400  1.0  0.664
  C  C184  1  0.022700  0.951200  0.907600  1.0  0.7243
  C  C185  1  0.656000  0.738500  0.829000  1.0  0.1676
  C  C186  1  0.532000  0.731800  0.704800  1.0  0.173
  C  C187  1  0.609700  0.292100  0.020300  1.0  -0.15
  C  C188  1  0.573600  0.976500  0.745800  1.0  -0.0223
  C  C189  1  0.052800  0.932900  0.828300  1.0  -0.1331
  C  C190  1  0.603400  0.949100  0.683200  1.0  -0.1417
  C  C191  1  0.558500  0.900300  0.816100  1.0  -0.1064
  C  C192  1  0.503100  0.248500  0.004700  1.0  -0.0869
  C  C193  1  0.471200  0.155800  0.980300  1.0  0.6581
  C  C194  1  0.148000  0.992200  0.645700  1.0  0.649
  C  C195  1  0.520400  0.982300  0.883600  1.0  0.7173
  C  C196  1  0.049800  0.881000  0.811200  1.0  -0.0984
  C  C197  1  0.080600  0.967400  0.773300  1.0  -0.0137
  C  C198  1  0.582100  0.870800  0.753600  1.0  -0.0143
  C  C199  1  0.554700  0.952700  0.813300  1.0  -0.133
  C  C200  1  0.596000  0.201700  0.000100  1.0  -0.1617
  C  C201  1  0.102400  0.900500  0.683500  1.0  -0.0582
  C  C202  1  0.106000  0.952900  0.701000  1.0  -0.1296
  C  C203  1  0.606900  0.895700  0.686000  1.0  -0.0673
  C  C204  1  0.654100  0.789900  0.826100  1.0  -0.1955
  C  C205  1  0.623800  0.974200  0.608700  1.0  0.7361
  C  C206  1  0.074900  0.864500  0.738000  1.0  -0.0364
  C  C207  1  0.587600  0.814400  0.757900  1.0  0.1038
  C  C208  1  0.525000  0.784400  0.697600  1.0  -0.1828
  C  C209  1  0.810400  0.288800  0.032900  1.0  -0.0506
  C  C210  1  0.064000  0.809600  0.719700  1.0  0.0862
  C  C211  1  0.793000  0.198500  0.012000  1.0  -0.0852
  C  C212  1  0.982800  0.791200  0.649400  1.0  -0.2175
  C  C213  1  0.900800  0.242200  0.029100  1.0  -0.0988
  C  C214  1  0.126800  0.772900  0.775600  1.0  -0.2143
  C  C215  1  0.100000  0.721500  0.756800  1.0  0.1764
  C  C216  1  0.968000  0.738600  0.638700  1.0  0.1858
  N  N217  1  0.595900  0.791500  0.269600  1.0  -0.4284
  N  N218  1  0.019000  0.795600  0.190200  1.0  -0.4168
  N  N219  1  0.404100  0.291500  0.230400  1.0  -0.4282
  N  N220  1  0.981000  0.295600  0.309800  1.0  -0.4182
  N  N221  1  0.404100  0.208500  0.730400  1.0  -0.4244
  N  N222  1  0.981000  0.204400  0.809800  1.0  -0.4116
  N  N223  1  0.595900  0.708500  0.769600  1.0  -0.4243
  N  N224  1  0.019000  0.704400  0.690200  1.0  -0.4112
  O  O225  1  0.605300  0.118300  0.539700  1.0  -0.6239
  O  O226  1  0.327100  0.157100  0.527300  1.0  -0.6369
  O  O227  1  0.954900  0.579700  0.450100  1.0  -0.6874
  O  O228  1  0.576000  0.537500  0.446300  1.0  -0.7129
  O  O229  1  0.692800  0.551400  0.059100  1.0  -0.7042
  O  O230  1  0.432300  0.476000  0.375300  1.0  -0.6912
  O  O231  1  0.294100  0.343700  0.485600  1.0  -0.6453
  O  O232  1  0.183200  0.517600  0.080100  1.0  -0.6305
  O  O233  1  0.153800  0.460900  0.168000  1.0  -0.6878
  O  O234  1  0.549300  0.384100  0.458500  1.0  -0.6786
  O  O235  1  0.579400  0.479500  0.101300  1.0  -0.7025
  O  O236  1  0.060800  0.503200  0.422300  1.0  -0.7154
  O  O237  1  0.394700  0.618300  0.960300  1.0  -0.6241
  O  O238  1  0.672900  0.657100  0.972700  1.0  -0.6366
  O  O239  1  0.045100  0.079700  0.049900  1.0  -0.6888
  O  O240  1  0.424000  0.037500  0.053700  1.0  -0.7129
  O  O241  1  0.307200  0.051400  0.440900  1.0  -0.703
  O  O242  1  0.567700  0.976000  0.124700  1.0  -0.6916
  O  O243  1  0.705900  0.843700  0.014400  1.0  -0.6453
  O  O244  1  0.816800  0.017600  0.419900  1.0  -0.6315
  O  O245  1  0.846200  0.960900  0.332000  1.0  -0.689
  O  O246  1  0.450700  0.884100  0.041500  1.0  -0.6774
  O  O247  1  0.420600  0.979500  0.398700  1.0  -0.7016
  O  O248  1  0.939200  0.003200  0.077700  1.0  -0.7151
  O  O249  1  0.394700  0.881700  0.460300  1.0  -0.6235
  O  O250  1  0.672900  0.842900  0.472700  1.0  -0.6362
  O  O251  1  0.045100  0.420300  0.549900  1.0  -0.6889
  O  O252  1  0.424000  0.462500  0.553700  1.0  -0.7126
  O  O253  1  0.307200  0.448600  0.940900  1.0  -0.7042
  O  O254  1  0.567700  0.524000  0.624700  1.0  -0.6909
  O  O255  1  0.705900  0.656300  0.514400  1.0  -0.6446
  O  O256  1  0.816800  0.482400  0.919900  1.0  -0.6319
  O  O257  1  0.846200  0.539100  0.832000  1.0  -0.6864
  O  O258  1  0.450700  0.615900  0.541500  1.0  -0.6767
  O  O259  1  0.420600  0.520500  0.898700  1.0  -0.701
  O  O260  1  0.939200  0.496800  0.577700  1.0  -0.7145
  O  O261  1  0.605300  0.381700  0.039700  1.0  -0.6235
  O  O262  1  0.327100  0.342900  0.027300  1.0  -0.6375
  O  O263  1  0.954900  0.920300  0.950100  1.0  -0.6878
  O  O264  1  0.576000  0.962500  0.946300  1.0  -0.7133
  O  O265  1  0.692800  0.948600  0.559100  1.0  -0.7037
  O  O266  1  0.432300  0.024000  0.875300  1.0  -0.6908
  O  O267  1  0.294100  0.156300  0.985600  1.0  -0.645
  O  O268  1  0.183200  0.982400  0.580100  1.0  -0.6314
  O  O269  1  0.153800  0.039100  0.668000  1.0  -0.6876
  O  O270  1  0.549300  0.115900  0.958500  1.0  -0.6778
  O  O271  1  0.579400  0.020500  0.601300  1.0  -0.7004
  O  O272  1  0.060800  0.996800  0.922300  1.0  -0.7154
