# generated using pymatgen
data_TbH9C17NO6
_symmetry_space_group_name_H-M   'P 1'
_cell_length_a   6.96500000
_cell_length_b   26.43300000
_cell_length_c   17.87900000
_cell_angle_alpha   90.00000000
_cell_angle_beta   97.90000000
_cell_angle_gamma   90.00000000
_symmetry_Int_Tables_number   1
_chemical_formula_structural   TbH9C17NO6
_chemical_formula_sum   'Tb8 H72 C136 N8 O48'
_cell_volume   3260.38908239
_cell_formula_units_Z   8
loop_
 _symmetry_equiv_pos_site_id
 _symmetry_equiv_pos_as_xyz
  1  'x, y, z'
loop_
 _atom_site_type_symbol
 _atom_site_label
 _atom_site_symmetry_multiplicity
 _atom_site_fract_x
 _atom_site_fract_y
 _atom_site_fract_z
 _atom_site_occupancy
 _atom_site_charge
  Tb  Tb1  1  0.681860  0.070020  0.933590  1.0  2.2726
  Tb  Tb2  1  0.236790  0.931730  0.450740  1.0  2.2612
  Tb  Tb3  1  0.318140  0.570020  0.566410  1.0  2.2737
  Tb  Tb4  1  0.763210  0.431730  0.049260  1.0  2.2609
  Tb  Tb5  1  0.318140  0.929980  0.066410  1.0  2.2734
  Tb  Tb6  1  0.763210  0.068270  0.549260  1.0  2.2606
  Tb  Tb7  1  0.681860  0.429980  0.433590  1.0  2.2723
  Tb  Tb8  1  0.236790  0.568270  0.950740  1.0  2.2608
  H  H9  1  0.627000  0.123100  0.144200  1.0  0.0999
  H  H10  1  0.878800  0.890200  0.865000  1.0  0.1079
  H  H11  1  0.566300  0.988000  0.242700  1.0  0.1153
  H  H12  1  0.915400  0.001800  0.714400  1.0  0.1039
  H  H13  1  0.630900  0.249500  0.004000  1.0  0.099
  H  H14  1  0.051800  0.813100  0.890200  1.0  0.1131
  H  H15  1  0.111300  0.182200  0.954800  1.0  0.1004
  H  H16  1  0.962500  0.260400  0.960700  1.0  0.0936
  H  H17  1  0.702800  0.277300  0.373700  1.0  0.0703
  H  H18  1  0.487700  0.287800  0.162500  1.0  0.0693
  H  H19  1  0.970400  0.857600  0.652500  1.0  0.0924
  H  H20  1  0.694300  0.190900  0.369100  1.0  0.1074
  H  H21  1  0.478900  0.201300  0.150000  1.0  0.1103
  H  H22  1  0.543900  0.115700  0.362200  1.0  0.0918
  H  H23  1  0.822600  0.782700  0.676500  1.0  0.0983
  H  H24  1  0.087500  0.728100  0.909300  1.0  0.0648
  H  H25  1  0.859800  0.698100  0.704800  1.0  0.078
  H  H26  1  0.145600  0.332500  0.989500  1.0  0.1027
  H  H27  1  0.373000  0.623100  0.355800  1.0  0.1007
  H  H28  1  0.121200  0.390200  0.635000  1.0  0.1086
  H  H29  1  0.433700  0.488000  0.257300  1.0  0.1153
  H  H30  1  0.084600  0.501800  0.785600  1.0  0.1042
  H  H31  1  0.369100  0.749500  0.496000  1.0  0.0983
  H  H32  1  0.948200  0.313100  0.609800  1.0  0.1136
  H  H33  1  0.888700  0.682200  0.545200  1.0  0.1013
  H  H34  1  0.037500  0.760400  0.539300  1.0  0.0941
  H  H35  1  0.297200  0.777300  0.126300  1.0  0.07
  H  H36  1  0.512300  0.787800  0.337500  1.0  0.0697
  H  H37  1  0.029600  0.357600  0.847500  1.0  0.0926
  H  H38  1  0.305700  0.690900  0.130900  1.0  0.1071
  H  H39  1  0.521100  0.701300  0.350000  1.0  0.1106
  H  H40  1  0.456100  0.615700  0.137800  1.0  0.0922
  H  H41  1  0.177400  0.282700  0.823500  1.0  0.0995
  H  H42  1  0.912500  0.228100  0.590700  1.0  0.0646
  H  H43  1  0.140200  0.198100  0.795200  1.0  0.0778
  H  H44  1  0.854400  0.832500  0.510500  1.0  0.103
  H  H45  1  0.373000  0.876900  0.855800  1.0  0.101
  H  H46  1  0.121200  0.109800  0.135000  1.0  0.1084
  H  H47  1  0.433700  0.012000  0.757300  1.0  0.112
  H  H48  1  0.084600  0.998200  0.285600  1.0  0.1046
  H  H49  1  0.369100  0.750500  0.996000  1.0  0.0982
  H  H50  1  0.948200  0.186900  0.109800  1.0  0.1132
  H  H51  1  0.888700  0.817800  0.045200  1.0  0.1008
  H  H52  1  0.037500  0.739600  0.039300  1.0  0.0942
  H  H53  1  0.297200  0.722700  0.626300  1.0  0.0705
  H  H54  1  0.512300  0.712200  0.837500  1.0  0.0701
  H  H55  1  0.029600  0.142400  0.347500  1.0  0.0922
  H  H56  1  0.305700  0.809100  0.630900  1.0  0.1072
  H  H57  1  0.521100  0.798700  0.850000  1.0  0.1104
  H  H58  1  0.456100  0.884300  0.637800  1.0  0.092
  H  H59  1  0.177400  0.217300  0.323500  1.0  0.0995
  H  H60  1  0.912500  0.271900  0.090700  1.0  0.0645
  H  H61  1  0.140200  0.301900  0.295200  1.0  0.0743
  H  H62  1  0.854400  0.667500  0.010500  1.0  0.1027
  H  H63  1  0.627000  0.376900  0.644200  1.0  0.1
  H  H64  1  0.878800  0.609800  0.365000  1.0  0.1078
  H  H65  1  0.566300  0.512000  0.742700  1.0  0.112
  H  H66  1  0.915400  0.498200  0.214400  1.0  0.1044
  H  H67  1  0.630900  0.250500  0.504000  1.0  0.0989
  H  H68  1  0.051800  0.686900  0.390200  1.0  0.1134
  H  H69  1  0.111300  0.317800  0.454800  1.0  0.1008
  H  H70  1  0.962500  0.239600  0.460700  1.0  0.094
  H  H71  1  0.702800  0.222700  0.873700  1.0  0.0706
  H  H72  1  0.487700  0.212200  0.662500  1.0  0.0695
  H  H73  1  0.970400  0.642400  0.152500  1.0  0.0921
  H  H74  1  0.694300  0.309100  0.869100  1.0  0.1074
  H  H75  1  0.478900  0.298700  0.650000  1.0  0.11
  H  H76  1  0.543900  0.384300  0.862200  1.0  0.0919
  H  H77  1  0.822600  0.717300  0.176500  1.0  0.0987
  H  H78  1  0.087500  0.771900  0.409300  1.0  0.0643
  H  H79  1  0.859800  0.801900  0.204800  1.0  0.0755
  H  H80  1  0.145600  0.167500  0.489500  1.0  0.1032
  C  C81  1  0.606800  0.104320  0.186400  1.0  -0.0517
  C  C82  1  0.948900  0.932360  0.671300  1.0  -0.166
  C  C83  1  0.897000  0.900670  0.816800  1.0  -0.0336
  C  C84  1  0.518700  0.018120  0.382700  1.0  0.715
  C  C85  1  0.572700  0.023110  0.245600  1.0  0.0098
  C  C86  1  0.581000  0.129210  0.253500  1.0  0.0307
  C  C87  1  0.602300  0.051420  0.182200  1.0  -0.1512
  C  C88  1  0.894600  0.952290  0.799400  1.0  -0.1316
  C  C89  1  0.852800  0.992580  0.853900  1.0  0.6578
  C  C90  1  0.919100  0.967550  0.726400  1.0  -0.0029
  C  C91  1  0.488400  0.158260  0.971400  1.0  0.6639
  C  C92  1  0.496300  0.251400  0.995900  1.0  -0.0656
  C  C93  1  0.926300  0.864740  0.762400  1.0  0.0054
  C  C94  1  0.013400  0.790900  0.850600  1.0  -0.2001
  C  C95  1  0.186100  0.211110  0.966000  1.0  -0.0514
  C  C96  1  0.978000  0.951100  0.593700  1.0  0.7397
  C  C97  1  0.388900  0.207460  0.979000  1.0  -0.1556
  C  C98  1  0.096900  0.258050  0.969800  1.0  -0.1113
  C  C99  1  0.936100  0.809660  0.779600  1.0  0.0718
  C  C100  1  0.654700  0.261760  0.328300  1.0  0.165
  C  C101  1  0.529700  0.268000  0.204500  1.0  0.1682
  C  C102  1  0.625900  0.026070  0.108700  1.0  0.7373
  C  C103  1  0.527100  0.344670  0.020300  1.0  0.6546
  C  C104  1  0.406600  0.298120  0.000900  1.0  -0.1655
  C  C105  1  0.951600  0.881330  0.689200  1.0  -0.0979
  C  C106  1  0.652300  0.209550  0.325900  1.0  -0.2103
  C  C107  1  0.586300  0.185030  0.258200  1.0  0.0759
  C  C108  1  0.524100  0.215730  0.196500  1.0  -0.2038
  C  C109  1  0.557000  0.099700  0.316900  1.0  -0.1002
  C  C110  1  0.877300  0.772900  0.724700  1.0  -0.2042
  C  C111  1  0.032600  0.739200  0.861800  1.0  0.179
  C  C112  1  0.900800  0.721600  0.742300  1.0  0.1608
  C  C113  1  0.552600  0.047860  0.313600  1.0  -0.1022
  C  C114  1  0.206400  0.301390  0.987200  1.0  -0.0736
  C  C115  1  0.393200  0.604320  0.313600  1.0  -0.0515
  C  C116  1  0.051100  0.432360  0.828700  1.0  -0.1658
  C  C117  1  0.103000  0.400670  0.683200  1.0  -0.0349
  C  C118  1  0.481300  0.518120  0.117300  1.0  0.7133
  C  C119  1  0.427300  0.523110  0.254400  1.0  0.0083
  C  C120  1  0.419000  0.629210  0.246500  1.0  0.0308
  C  C121  1  0.397700  0.551420  0.317800  1.0  -0.1517
  C  C122  1  0.105400  0.452290  0.700600  1.0  -0.1277
  C  C123  1  0.147200  0.492580  0.646100  1.0  0.6596
  C  C124  1  0.080900  0.467550  0.773600  1.0  -0.0037
  C  C125  1  0.511600  0.658260  0.528600  1.0  0.6649
  C  C126  1  0.503700  0.751400  0.504100  1.0  -0.0637
  C  C127  1  0.073700  0.364740  0.737600  1.0  0.005
  C  C128  1  0.986600  0.290900  0.649400  1.0  -0.2019
  C  C129  1  0.813900  0.711110  0.534000  1.0  -0.0528
  C  C130  1  0.022000  0.451100  0.906300  1.0  0.7388
  C  C131  1  0.611100  0.707460  0.521000  1.0  -0.1549
  C  C132  1  0.903100  0.758050  0.530200  1.0  -0.1115
  C  C133  1  0.063900  0.309660  0.720400  1.0  0.0715
  C  C134  1  0.345300  0.761760  0.171700  1.0  0.1641
  C  C135  1  0.470300  0.768000  0.295500  1.0  0.1695
  C  C136  1  0.374100  0.526070  0.391300  1.0  0.7364
  C  C137  1  0.472900  0.844670  0.479700  1.0  0.655
  C  C138  1  0.593400  0.798120  0.499100  1.0  -0.1649
  C  C139  1  0.048400  0.381330  0.810800  1.0  -0.0974
  C  C140  1  0.347700  0.709550  0.174100  1.0  -0.21
  C  C141  1  0.413700  0.685030  0.241800  1.0  0.0756
  C  C142  1  0.475900  0.715730  0.303500  1.0  -0.204
  C  C143  1  0.443000  0.599700  0.183100  1.0  -0.1006
  C  C144  1  0.122700  0.272900  0.775300  1.0  -0.2047
  C  C145  1  0.967400  0.239200  0.638200  1.0  0.1794
  C  C146  1  0.099200  0.221600  0.757700  1.0  0.1612
  C  C147  1  0.447400  0.547860  0.186400  1.0  -0.1042
  C  C148  1  0.793600  0.801390  0.512800  1.0  -0.0746
  C  C149  1  0.393200  0.895680  0.813600  1.0  -0.052
  C  C150  1  0.051100  0.067640  0.328700  1.0  -0.1666
  C  C151  1  0.103000  0.099330  0.183200  1.0  -0.0347
  C  C152  1  0.481300  0.981880  0.617300  1.0  0.7162
  C  C153  1  0.427300  0.976890  0.754400  1.0  0.0067
  C  C154  1  0.419000  0.870790  0.746500  1.0  0.0302
  C  C155  1  0.397700  0.948580  0.817800  1.0  -0.1522
  C  C156  1  0.105400  0.047710  0.200600  1.0  -0.1293
  C  C157  1  0.147200  0.007420  0.146100  1.0  0.6603
  C  C158  1  0.080900  0.032450  0.273600  1.0  -0.0045
  C  C159  1  0.511600  0.841740  0.028600  1.0  0.6639
  C  C160  1  0.503700  0.748600  0.004100  1.0  -0.0634
  C  C161  1  0.073700  0.135260  0.237600  1.0  0.0056
  C  C162  1  0.986600  0.209100  0.149400  1.0  -0.2022
  C  C163  1  0.813900  0.788890  0.034000  1.0  -0.0529
  C  C164  1  0.022000  0.048900  0.406300  1.0  0.7389
  C  C165  1  0.611100  0.792540  0.021000  1.0  -0.1543
  C  C166  1  0.903100  0.741950  0.030200  1.0  -0.1117
  C  C167  1  0.063900  0.190340  0.220400  1.0  0.0711
  C  C168  1  0.345300  0.738240  0.671700  1.0  0.1652
  C  C169  1  0.470300  0.732000  0.795500  1.0  0.1698
  C  C170  1  0.374100  0.973930  0.891300  1.0  0.739
  C  C171  1  0.472900  0.655330  0.979700  1.0  0.6529
  C  C172  1  0.593400  0.701880  0.999100  1.0  -0.1655
  C  C173  1  0.048400  0.118670  0.310800  1.0  -0.0974
  C  C174  1  0.347700  0.790450  0.674100  1.0  -0.2097
  C  C175  1  0.413700  0.814970  0.741800  1.0  0.0756
  C  C176  1  0.475900  0.784270  0.803500  1.0  -0.2043
  C  C177  1  0.443000  0.900300  0.683100  1.0  -0.1
  C  C178  1  0.122700  0.227100  0.275300  1.0  -0.2044
  C  C179  1  0.967400  0.260800  0.138200  1.0  0.1784
  C  C180  1  0.099200  0.278400  0.257700  1.0  0.1618
  C  C181  1  0.447400  0.952140  0.686400  1.0  -0.1027
  C  C182  1  0.793600  0.698610  0.012800  1.0  -0.0746
  C  C183  1  0.606800  0.395680  0.686400  1.0  -0.0519
  C  C184  1  0.948900  0.567640  0.171300  1.0  -0.1673
  C  C185  1  0.897000  0.599330  0.316800  1.0  -0.0337
  C  C186  1  0.518700  0.481880  0.882700  1.0  0.7167
  C  C187  1  0.572700  0.476890  0.745600  1.0  0.0067
  C  C188  1  0.581000  0.370790  0.753500  1.0  0.0301
  C  C189  1  0.602300  0.448580  0.682200  1.0  -0.1503
  C  C190  1  0.894600  0.547710  0.299400  1.0  -0.1321
  C  C191  1  0.852800  0.507420  0.353900  1.0  0.6606
  C  C192  1  0.919100  0.532450  0.226400  1.0  -0.0039
  C  C193  1  0.488400  0.341740  0.471400  1.0  0.6647
  C  C194  1  0.496300  0.248600  0.495900  1.0  -0.0657
  C  C195  1  0.926300  0.635260  0.262400  1.0  0.0059
  C  C196  1  0.013400  0.709100  0.350600  1.0  -0.2003
  C  C197  1  0.186100  0.288890  0.466000  1.0  -0.0529
  C  C198  1  0.978000  0.548900  0.093700  1.0  0.7388
  C  C199  1  0.388900  0.292540  0.479000  1.0  -0.155
  C  C200  1  0.096900  0.241950  0.469800  1.0  -0.1116
  C  C201  1  0.936100  0.690340  0.279600  1.0  0.0714
  C  C202  1  0.654700  0.238240  0.828300  1.0  0.1659
  C  C203  1  0.529700  0.232000  0.704500  1.0  0.169
  C  C204  1  0.625900  0.473930  0.608700  1.0  0.739
  C  C205  1  0.527100  0.155330  0.520300  1.0  0.6543
  C  C206  1  0.406600  0.201880  0.500900  1.0  -0.165
  C  C207  1  0.951600  0.618670  0.189200  1.0  -0.098
  C  C208  1  0.652300  0.290450  0.825900  1.0  -0.2097
  C  C209  1  0.586300  0.314970  0.758200  1.0  0.0759
  C  C210  1  0.524100  0.284270  0.696500  1.0  -0.2044
  C  C211  1  0.557000  0.400300  0.816900  1.0  -0.1001
  C  C212  1  0.877300  0.727100  0.224700  1.0  -0.2043
  C  C213  1  0.032600  0.760800  0.361800  1.0  0.1786
  C  C214  1  0.900800  0.778400  0.242300  1.0  0.1603
  C  C215  1  0.552600  0.452140  0.813600  1.0  -0.1019
  C  C216  1  0.206400  0.198610  0.487200  1.0  -0.0723
  N  N217  1  0.592500  0.291160  0.269600  1.0  -0.4328
  N  N218  1  0.978500  0.704420  0.809900  1.0  -0.4227
  N  N219  1  0.407500  0.791160  0.230400  1.0  -0.4327
  N  N220  1  0.021500  0.204420  0.690100  1.0  -0.4229
  N  N221  1  0.407500  0.708840  0.730400  1.0  -0.4277
  N  N222  1  0.021500  0.295580  0.190100  1.0  -0.4274
  N  N223  1  0.592500  0.208840  0.769600  1.0  -0.4275
  N  N224  1  0.978500  0.795580  0.309900  1.0  -0.4281
  O  O225  1  0.579900  0.980110  0.101140  1.0  -0.7126
  O  O226  1  0.816400  0.981670  0.919480  1.0  -0.6521
  O  O227  1  0.706900  0.343600  0.014520  1.0  -0.6369
  O  O228  1  0.692100  0.051600  0.059060  1.0  -0.7013
  O  O229  1  0.391700  0.118270  0.959800  1.0  -0.6351
  O  O230  1  0.846700  0.038390  0.832120  1.0  -0.6964
  O  O231  1  0.450000  0.383810  0.042000  1.0  -0.6126
  O  O232  1  0.043600  0.920060  0.549930  1.0  -0.7045
  O  O233  1  0.433900  0.976070  0.374130  1.0  -0.7024
  O  O234  1  0.939000  0.996380  0.578510  1.0  -0.7225
  O  O235  1  0.574600  0.037690  0.445950  1.0  -0.7224
  O  O236  1  0.672100  0.157590  0.972980  1.0  -0.6536
  O  O237  1  0.420100  0.480110  0.398860  1.0  -0.7117
  O  O238  1  0.183600  0.481670  0.580520  1.0  -0.6522
  O  O239  1  0.293100  0.843600  0.485480  1.0  -0.6359
  O  O240  1  0.307900  0.551600  0.440940  1.0  -0.6998
  O  O241  1  0.608300  0.618270  0.540200  1.0  -0.6356
  O  O242  1  0.153300  0.538390  0.667880  1.0  -0.6979
  O  O243  1  0.550000  0.883810  0.458000  1.0  -0.6125
  O  O244  1  0.956400  0.420060  0.950070  1.0  -0.7043
  O  O245  1  0.566100  0.476070  0.125870  1.0  -0.7033
  O  O246  1  0.061000  0.496380  0.921490  1.0  -0.7234
  O  O247  1  0.425400  0.537690  0.054050  1.0  -0.7226
  O  O248  1  0.327900  0.657590  0.527020  1.0  -0.6521
  O  O249  1  0.420100  0.019890  0.898860  1.0  -0.7117
  O  O250  1  0.183600  0.018330  0.080520  1.0  -0.6517
  O  O251  1  0.293100  0.656400  0.985480  1.0  -0.637
  O  O252  1  0.307900  0.948400  0.940940  1.0  -0.7014
  O  O253  1  0.608300  0.881730  0.040200  1.0  -0.6359
  O  O254  1  0.153300  0.961610  0.167880  1.0  -0.6962
  O  O255  1  0.550000  0.616190  0.958000  1.0  -0.6126
  O  O256  1  0.956400  0.079940  0.450070  1.0  -0.7031
  O  O257  1  0.566100  0.023930  0.625870  1.0  -0.7029
  O  O258  1  0.061000  0.003620  0.421490  1.0  -0.722
  O  O259  1  0.425400  0.962310  0.554050  1.0  -0.7218
  O  O260  1  0.327900  0.842410  0.027020  1.0  -0.6536
  O  O261  1  0.579900  0.519890  0.601140  1.0  -0.7109
  O  O262  1  0.816400  0.518330  0.419480  1.0  -0.6516
  O  O263  1  0.706900  0.156400  0.514520  1.0  -0.6374
  O  O264  1  0.692100  0.448400  0.559060  1.0  -0.701
  O  O265  1  0.391700  0.381730  0.459800  1.0  -0.6352
  O  O266  1  0.846700  0.461610  0.332120  1.0  -0.6983
  O  O267  1  0.450000  0.116190  0.542000  1.0  -0.6121
  O  O268  1  0.043600  0.579940  0.049930  1.0  -0.704
  O  O269  1  0.433900  0.523930  0.874130  1.0  -0.7016
  O  O270  1  0.939000  0.503620  0.078510  1.0  -0.7219
  O  O271  1  0.574600  0.462310  0.945950  1.0  -0.723
  O  O272  1  0.672100  0.342410  0.472980  1.0  -0.6543
