# generated using pymatgen
data_MnH8(C7O2)2
_symmetry_space_group_name_H-M   'P 1'
_cell_length_a   13.81900000
_cell_length_b   15.38200000
_cell_length_c   24.38300000
_cell_angle_alpha   100.41000000
_cell_angle_beta   95.25000000
_cell_angle_gamma   101.09000000
_symmetry_Int_Tables_number   1
_chemical_formula_structural   MnH8(C7O2)2
_chemical_formula_sum   'Mn8 H64 C112 O32'
_cell_volume   4959.45516844
_cell_formula_units_Z   8
loop_
 _symmetry_equiv_pos_site_id
 _symmetry_equiv_pos_as_xyz
  1  'x, y, z'
loop_
 _atom_site_type_symbol
 _atom_site_label
 _atom_site_symmetry_multiplicity
 _atom_site_fract_x
 _atom_site_fract_y
 _atom_site_fract_z
 _atom_site_occupancy
 _atom_site_charge
  Mn  Mn1  1  0.174610  0.643560  0.323390  1.0  1.1187
  Mn  Mn2  1  0.367870  0.556130  0.273840  1.0  1.1435
  Mn  Mn3  1  0.608760  0.654090  0.324760  1.0  1.0918
  Mn  Mn4  1  0.818580  0.698370  0.262630  1.0  1.2054
  Mn  Mn5  1  0.825390  0.356440  0.676610  1.0  1.1201
  Mn  Mn6  1  0.632130  0.443870  0.726160  1.0  1.1439
  Mn  Mn7  1  0.391240  0.345910  0.675240  1.0  1.0916
  Mn  Mn8  1  0.181420  0.301630  0.737370  1.0  1.205
  H  H9  1  0.288000  0.353000  0.312600  1.0  0.0959
  H  H10  1  0.261200  0.199600  0.310600  1.0  0.1036
  H  H11  1  0.980600  0.196000  0.335100  1.0  0.1165
  H  H12  1  0.006400  0.347800  0.333000  1.0  0.0912
  H  H13  1  0.239100  0.077100  0.350000  1.0  0.1088
  H  H14  1  0.211500  0.925000  0.347300  1.0  0.0921
  H  H15  1  0.932800  0.896900  0.284400  1.0  0.081
  H  H16  1  0.958700  0.049700  0.288900  1.0  0.0962
  H  H17  1  0.220700  0.475100  0.100900  1.0  0.0977
  H  H18  1  0.135800  0.444000  0.011400  1.0  0.105
  H  H19  1  0.934100  0.576000  0.069300  1.0  0.1054
  H  H20  1  0.020900  0.611700  0.156200  1.0  0.1022
  H  H21  1  0.550500  0.763800  0.442600  1.0  0.1095
  H  H22  1  0.590300  0.896600  0.508500  1.0  0.1139
  H  H23  1  0.370300  0.984600  0.434500  1.0  0.1068
  H  H24  1  0.327200  0.850600  0.369900  1.0  0.1026
  H  H25  1  0.686100  0.588300  0.135400  1.0  0.0961
  H  H26  1  0.656300  0.532600  0.039900  1.0  0.1092
  H  H27  1  0.370300  0.521100  0.044400  1.0  0.0947
  H  H28  1  0.396800  0.565200  0.138700  1.0  0.0962
  H  H29  1  0.693500  0.407300  0.313500  1.0  0.1031
  H  H30  1  0.740200  0.272600  0.319200  1.0  0.1075
  H  H31  1  0.459800  0.138700  0.262600  1.0  0.1133
  H  H32  1  0.413500  0.272500  0.258700  1.0  0.1127
  H  H33  1  0.753600  0.116600  0.260000  1.0  0.104
  H  H34  1  0.787800  0.977200  0.263300  1.0  0.0975
  H  H35  1  0.559400  0.925400  0.349300  1.0  0.0826
  H  H36  1  0.520000  0.059900  0.340700  1.0  0.1039
  H  H37  1  0.766900  0.601800  0.485900  1.0  0.1018
  H  H38  1  0.865700  0.530900  0.537000  1.0  0.114
  H  H39  1  0.039800  0.522100  0.417600  1.0  0.095
  H  H40  1  0.935300  0.582500  0.364600  1.0  0.0992
  H  H41  1  0.712000  0.647000  0.687400  1.0  0.0957
  H  H42  1  0.738800  0.800400  0.689400  1.0  0.104
  H  H43  1  0.019400  0.804000  0.664900  1.0  0.1164
  H  H44  1  0.993600  0.652200  0.667000  1.0  0.092
  H  H45  1  0.760900  0.922900  0.650000  1.0  0.1088
  H  H46  1  0.788500  0.075000  0.652700  1.0  0.0924
  H  H47  1  0.067200  0.103100  0.715600  1.0  0.0813
  H  H48  1  0.041300  0.950300  0.711100  1.0  0.0963
  H  H49  1  0.779300  0.524900  0.899100  1.0  0.0979
  H  H50  1  0.864200  0.556000  0.988600  1.0  0.1047
  H  H51  1  0.065900  0.424000  0.930700  1.0  0.108
  H  H52  1  0.979100  0.388300  0.843800  1.0  0.1027
  H  H53  1  0.449500  0.236200  0.557400  1.0  0.1099
  H  H54  1  0.409700  0.103400  0.491500  1.0  0.113
  H  H55  1  0.629700  0.015400  0.565500  1.0  0.1069
  H  H56  1  0.672800  0.149400  0.630100  1.0  0.1037
  H  H57  1  0.313900  0.411700  0.864600  1.0  0.1002
  H  H58  1  0.343700  0.467400  0.960100  1.0  0.109
  H  H59  1  0.629700  0.478900  0.955600  1.0  0.0944
  H  H60  1  0.603200  0.434800  0.861300  1.0  0.0965
  H  H61  1  0.306500  0.592700  0.686500  1.0  0.1032
  H  H62  1  0.259800  0.727400  0.680800  1.0  0.1098
  H  H63  1  0.540200  0.861300  0.737400  1.0  0.1137
  H  H64  1  0.586500  0.727500  0.741300  1.0  0.1119
  H  H65  1  0.246400  0.883400  0.740000  1.0  0.1046
  H  H66  1  0.212200  0.022800  0.736700  1.0  0.0983
  H  H67  1  0.440600  0.074600  0.650700  1.0  0.0826
  H  H68  1  0.480000  0.940100  0.659300  1.0  0.1043
  H  H69  1  0.233100  0.398200  0.514100  1.0  0.1011
  H  H70  1  0.134300  0.469100  0.463000  1.0  0.1128
  H  H71  1  0.960200  0.477900  0.582400  1.0  0.0963
  H  H72  1  0.064700  0.417500  0.635400  1.0  0.099
  C  C73  1  0.149600  0.366800  0.323100  1.0  -0.1501
  C  C74  1  0.225200  0.321700  0.316500  1.0  -0.0245
  C  C75  1  0.208800  0.229100  0.315400  1.0  -0.135
  C  C76  1  0.118400  0.180500  0.321200  1.0  0.0473
  C  C77  1  0.042600  0.226500  0.329400  1.0  -0.1617
  C  C78  1  0.059000  0.318400  0.329000  1.0  -0.0226
  C  C79  1  0.101400  0.081400  0.320100  1.0  0.0612
  C  C80  1  0.175900  0.041600  0.336900  1.0  -0.1452
  C  C81  1  0.159200  0.949600  0.334800  1.0  -0.0176
  C  C82  1  0.068600  0.893400  0.315000  1.0  -0.1649
  C  C83  1  0.995600  0.932600  0.298200  1.0  -0.0191
  C  C84  1  0.011500  0.025200  0.300800  1.0  -0.138
  C  C85  1  0.166800  0.466200  0.322900  1.0  0.6981
  C  C86  1  0.053000  0.792700  0.312500  1.0  0.7617
  C  C87  1  0.130600  0.548500  0.138400  1.0  -0.1584
  C  C88  1  0.163600  0.497300  0.094400  1.0  -0.0315
  C  C89  1  0.112300  0.478500  0.040600  1.0  -0.1381
  C  C90  1  0.027200  0.510000  0.029500  1.0  0.0442
  C  C91  1  0.993700  0.557300  0.074800  1.0  -0.1366
  C  C92  1  0.044800  0.577400  0.127100  1.0  -0.0317
  C  C93  1  0.186300  0.568800  0.196700  1.0  0.7215
  C  C94  1  0.434700  0.793000  0.399140  1.0  -0.1847
  C  C95  1  0.513400  0.807900  0.440800  1.0  -0.0145
  C  C96  1  0.537600  0.888200  0.480100  1.0  -0.1262
  C  C97  1  0.486300  0.956200  0.478500  1.0  0.0481
  C  C98  1  0.407000  0.940300  0.436500  1.0  -0.1297
  C  C99  1  0.381300  0.859900  0.397600  1.0  -0.0281
  C  C100  1  0.408300  0.708600  0.355280  1.0  0.6895
  C  C101  1  0.545100  0.584600  0.147700  1.0  -0.1355
  C  C102  1  0.621100  0.573500  0.117400  1.0  -0.032
  C  C103  1  0.603000  0.540300  0.059600  1.0  -0.1183
  C  C104  1  0.509600  0.518700  0.031100  1.0  0.0619
  C  C105  1  0.434900  0.532300  0.062600  1.0  -0.1122
  C  C106  1  0.450800  0.561100  0.119000  1.0  -0.0201
  C  C107  1  0.563700  0.618700  0.210080  1.0  0.7283
  C  C108  1  0.548500  0.354200  0.288800  1.0  -0.1524
  C  C109  1  0.646000  0.353400  0.304800  1.0  -0.0373
  C  C110  1  0.673900  0.272400  0.308100  1.0  -0.1382
  C  C111  1  0.605100  0.191500  0.295200  1.0  0.0484
  C  C112  1  0.506400  0.192900  0.274500  1.0  -0.1419
  C  C113  1  0.478900  0.272500  0.271800  1.0  -0.045
  C  C114  1  0.633300  0.104000  0.300400  1.0  0.0651
  C  C115  1  0.713200  0.077500  0.277500  1.0  -0.1288
  C  C116  1  0.734600  0.994200  0.280000  1.0  -0.0335
  C  C117  1  0.677100  0.936000  0.307300  1.0  -0.1623
  C  C118  1  0.598400  0.963200  0.330300  1.0  -0.0197
  C  C119  1  0.575700  0.044600  0.326000  1.0  -0.1567
  C  C120  1  0.517300  0.443800  0.289300  1.0  0.714
  C  C121  1  0.694500  0.842800  0.308600  1.0  0.7208
  C  C122  1  0.838900  0.597100  0.419600  1.0  -0.1519
  C  C123  1  0.821200  0.583800  0.471000  1.0  -0.0302
  C  C124  1  0.882400  0.543300  0.502700  1.0  -0.1449
  C  C125  1  0.967000  0.521900  0.483500  1.0  0.0479
  C  C126  1  0.983800  0.537000  0.432000  1.0  -0.1256
  C  C127  1  0.921100  0.573700  0.400000  1.0  -0.053
  C  C128  1  0.769000  0.635800  0.384700  1.0  0.6884
  C  C129  1  0.850400  0.633200  0.676900  1.0  -0.1493
  C  C130  1  0.774800  0.678300  0.683500  1.0  -0.0238
  C  C131  1  0.791200  0.770900  0.684600  1.0  -0.1359
  C  C132  1  0.881600  0.819500  0.678800  1.0  0.0475
  C  C133  1  0.957400  0.773500  0.670600  1.0  -0.1621
  C  C134  1  0.941000  0.681600  0.671000  1.0  -0.0236
  C  C135  1  0.898600  0.918600  0.679900  1.0  0.0617
  C  C136  1  0.824100  0.958400  0.663100  1.0  -0.1453
  C  C137  1  0.840800  0.050400  0.665200  1.0  -0.0173
  C  C138  1  0.931400  0.106600  0.685000  1.0  -0.1637
  C  C139  1  0.004400  0.067400  0.701800  1.0  -0.019
  C  C140  1  0.988500  0.974800  0.699200  1.0  -0.1411
  C  C141  1  0.833200  0.533800  0.677100  1.0  0.6979
  C  C142  1  0.947000  0.207300  0.687500  1.0  0.7638
  C  C143  1  0.869400  0.451500  0.861600  1.0  -0.1541
  C  C144  1  0.836400  0.502700  0.905600  1.0  -0.0314
  C  C145  1  0.887700  0.521500  0.959400  1.0  -0.1374
  C  C146  1  0.972800  0.490000  0.970500  1.0  0.0445
  C  C147  1  0.006300  0.442700  0.925200  1.0  -0.1335
  C  C148  1  0.955200  0.422600  0.872900  1.0  -0.0317
  C  C149  1  0.813700  0.431200  0.803300  1.0  0.721
  C  C150  1  0.565300  0.207000  0.600860  1.0  -0.1826
  C  C151  1  0.486600  0.192100  0.559200  1.0  -0.0128
  C  C152  1  0.462400  0.111800  0.519900  1.0  -0.1278
  C  C153  1  0.513700  0.043800  0.521500  1.0  0.0487
  C  C154  1  0.593000  0.059700  0.563500  1.0  -0.1257
  C  C155  1  0.618700  0.140100  0.602400  1.0  -0.0252
  C  C156  1  0.591700  0.291400  0.644720  1.0  0.6894
  C  C157  1  0.454900  0.415400  0.852300  1.0  -0.138
  C  C158  1  0.378900  0.426500  0.882600  1.0  -0.0321
  C  C159  1  0.397000  0.459700  0.940400  1.0  -0.1169
  C  C160  1  0.490400  0.481300  0.968900  1.0  0.0615
  C  C161  1  0.565100  0.467700  0.937400  1.0  -0.1117
  C  C162  1  0.549200  0.438900  0.881000  1.0  -0.0265
  C  C163  1  0.436300  0.381300  0.789920  1.0  0.7282
  C  C164  1  0.451500  0.645800  0.711200  1.0  -0.1524
  C  C165  1  0.354000  0.646600  0.695200  1.0  -0.037
  C  C166  1  0.326100  0.727600  0.691900  1.0  -0.1386
  C  C167  1  0.394900  0.808500  0.704800  1.0  0.0481
  C  C168  1  0.493600  0.807100  0.725500  1.0  -0.1431
  C  C169  1  0.521100  0.727500  0.728200  1.0  -0.0445
  C  C170  1  0.366700  0.896000  0.699600  1.0  0.0646
  C  C171  1  0.286800  0.922500  0.722500  1.0  -0.1275
  C  C172  1  0.265400  0.005800  0.720000  1.0  -0.0329
  C  C173  1  0.322900  0.064000  0.692700  1.0  -0.1622
  C  C174  1  0.401600  0.036800  0.669700  1.0  -0.0224
  C  C175  1  0.424300  0.955400  0.674000  1.0  -0.1574
  C  C176  1  0.482700  0.556200  0.710700  1.0  0.7131
  C  C177  1  0.305500  0.157200  0.691400  1.0  0.7202
  C  C178  1  0.161100  0.402900  0.580400  1.0  -0.1518
  C  C179  1  0.178800  0.416200  0.529000  1.0  -0.0292
  C  C180  1  0.117600  0.456700  0.497300  1.0  -0.1467
  C  C181  1  0.033000  0.478100  0.516500  1.0  0.0494
  C  C182  1  0.016200  0.463000  0.568000  1.0  -0.1197
  C  C183  1  0.078900  0.426300  0.600000  1.0  -0.0488
  C  C184  1  0.231000  0.364200  0.615300  1.0  0.6844
  O  O185  1  0.254400  0.508900  0.322850  1.0  -0.6638
  O  O186  1  0.095700  0.505100  0.323820  1.0  -0.5856
  O  O187  1  0.127300  0.764100  0.329490  1.0  -0.637
  O  O188  1  0.971000  0.742800  0.294700  1.0  -0.6727
  O  O189  1  0.263700  0.538500  0.203320  1.0  -0.6012
  O  O190  1  0.149300  0.612500  0.234880  1.0  -0.6208
  O  O191  1  0.333600  0.694800  0.318360  1.0  -0.6385
  O  O192  1  0.462800  0.649900  0.354320  1.0  -0.6189
  O  O193  1  0.491000  0.625700  0.236590  1.0  -0.6405
  O  O194  1  0.650900  0.638700  0.234440  1.0  -0.6769
  O  O195  1  0.581000  0.512500  0.310940  1.0  -0.6055
  O  O196  1  0.429600  0.441600  0.268800  1.0  -0.6175
  O  O197  1  0.631900  0.791700  0.328660  1.0  -0.596
  O  O198  1  0.770100  0.821700  0.287730  1.0  -0.6419
  O  O199  1  0.692300  0.654200  0.404600  1.0  -0.5773
  O  O200  1  0.785300  0.643700  0.335710  1.0  -0.6869
  O  O201  1  0.745600  0.491100  0.677150  1.0  -0.664
  O  O202  1  0.904300  0.494900  0.676180  1.0  -0.5866
  O  O203  1  0.872700  0.235900  0.670510  1.0  -0.6369
  O  O204  1  0.029000  0.257200  0.705300  1.0  -0.6729
  O  O205  1  0.736300  0.461500  0.796680  1.0  -0.6012
  O  O206  1  0.850700  0.387500  0.765120  1.0  -0.6195
  O  O207  1  0.666400  0.305200  0.681640  1.0  -0.6373
  O  O208  1  0.537200  0.350100  0.645680  1.0  -0.6182
  O  O209  1  0.509000  0.374300  0.763410  1.0  -0.6398
  O  O210  1  0.349100  0.361300  0.765560  1.0  -0.677
  O  O211  1  0.419000  0.487500  0.689060  1.0  -0.6062
  O  O212  1  0.570400  0.558400  0.731200  1.0  -0.6186
  O  O213  1  0.368100  0.208300  0.671340  1.0  -0.5956
  O  O214  1  0.229900  0.178300  0.712270  1.0  -0.6405
  O  O215  1  0.307700  0.345800  0.595400  1.0  -0.5767
  O  O216  1  0.214700  0.356300  0.664290  1.0  -0.688
