# generated using pymatgen
data_MnH8(C7O2)2
_symmetry_space_group_name_H-M   'P 1'
_cell_length_a   13.81900000
_cell_length_b   15.38200000
_cell_length_c   24.38300000
_cell_angle_alpha   100.41000000
_cell_angle_beta   95.25000000
_cell_angle_gamma   101.09000000
_symmetry_Int_Tables_number   1
_chemical_formula_structural   MnH8(C7O2)2
_chemical_formula_sum   'Mn8 H64 C112 O32'
_cell_volume   4959.45516844
_cell_formula_units_Z   8
loop_
 _symmetry_equiv_pos_site_id
 _symmetry_equiv_pos_as_xyz
  1  'x, y, z'
loop_
 _atom_site_type_symbol
 _atom_site_label
 _atom_site_symmetry_multiplicity
 _atom_site_fract_x
 _atom_site_fract_y
 _atom_site_fract_z
 _atom_site_occupancy
 _atom_site_charge
  Mn  Mn1  1  0.174590  0.643620  0.323420  1.0  1.1243
  Mn  Mn2  1  0.367850  0.556190  0.273850  1.0  1.1512
  Mn  Mn3  1  0.608730  0.654040  0.324750  1.0  1.0918
  Mn  Mn4  1  0.818660  0.698430  0.262610  1.0  1.21
  Mn  Mn5  1  0.825410  0.356380  0.676580  1.0  1.128
  Mn  Mn6  1  0.632150  0.443810  0.726150  1.0  1.1514
  Mn  Mn7  1  0.391270  0.345960  0.675250  1.0  1.0915
  Mn  Mn8  1  0.181340  0.301570  0.737390  1.0  1.2083
  H  H9  1  0.287600  0.352500  0.312000  1.0  0.0958
  H  H10  1  0.260700  0.199100  0.309800  1.0  0.103
  H  H11  1  0.980400  0.195800  0.334000  1.0  0.1121
  H  H12  1  0.006300  0.347700  0.334200  1.0  0.0961
  H  H13  1  0.238800  0.077600  0.351000  1.0  0.1125
  H  H14  1  0.211400  0.924400  0.346500  1.0  0.0887
  H  H15  1  0.932700  0.896800  0.284200  1.0  0.0829
  H  H16  1  0.959700  0.049600  0.286700  1.0  0.0972
  H  H17  1  0.218700  0.472600  0.101100  1.0  0.1025
  H  H18  1  0.136400  0.445000  0.011500  1.0  0.1053
  H  H19  1  0.934200  0.576100  0.069100  1.0  0.1069
  H  H20  1  0.021100  0.611600  0.156300  1.0  0.0963
  H  H21  1  0.549400  0.762900  0.442700  1.0  0.115
  H  H22  1  0.591400  0.897300  0.507700  1.0  0.1128
  H  H23  1  0.368600  0.983300  0.435000  1.0  0.1066
  H  H24  1  0.326500  0.850300  0.370500  1.0  0.1019
  H  H25  1  0.685700  0.588200  0.135400  1.0  0.0906
  H  H26  1  0.656700  0.532800  0.040200  1.0  0.1055
  H  H27  1  0.370000  0.522700  0.044300  1.0  0.1011
  H  H28  1  0.398200  0.569100  0.139100  1.0  0.0912
  H  H29  1  0.693500  0.407400  0.314200  1.0  0.1004
  H  H30  1  0.740800  0.272500  0.318000  1.0  0.1089
  H  H31  1  0.459200  0.138300  0.264800  1.0  0.1095
  H  H32  1  0.413900  0.273500  0.258800  1.0  0.1025
  H  H33  1  0.753500  0.116400  0.259700  1.0  0.1054
  H  H34  1  0.787600  0.976800  0.263400  1.0  0.0953
  H  H35  1  0.561500  0.926500  0.350600  1.0  0.0817
  H  H36  1  0.519600  0.058800  0.340500  1.0  0.1029
  H  H37  1  0.763400  0.596600  0.484200  1.0  0.102
  H  H38  1  0.867100  0.533400  0.538000  1.0  0.1137
  H  H39  1  0.037700  0.518300  0.416300  1.0  0.0935
  H  H40  1  0.935100  0.581300  0.364300  1.0  0.0984
  H  H41  1  0.712400  0.647500  0.688000  1.0  0.0957
  H  H42  1  0.739300  0.800900  0.690200  1.0  0.1028
  H  H43  1  0.019600  0.804200  0.666000  1.0  0.1128
  H  H44  1  0.993700  0.652300  0.665800  1.0  0.0965
  H  H45  1  0.761200  0.922400  0.649000  1.0  0.1124
  H  H46  1  0.788600  0.075600  0.653500  1.0  0.0889
  H  H47  1  0.067300  0.103200  0.715800  1.0  0.083
  H  H48  1  0.040300  0.950400  0.713300  1.0  0.0975
  H  H49  1  0.781300  0.527400  0.898900  1.0  0.1022
  H  H50  1  0.863600  0.555000  0.988500  1.0  0.1052
  H  H51  1  0.065800  0.423900  0.930900  1.0  0.1093
  H  H52  1  0.978900  0.388400  0.843700  1.0  0.0969
  H  H53  1  0.450600  0.237100  0.557300  1.0  0.115
  H  H54  1  0.408600  0.102700  0.492300  1.0  0.1113
  H  H55  1  0.631400  0.016700  0.565000  1.0  0.1074
  H  H56  1  0.673500  0.149700  0.629500  1.0  0.1023
  H  H57  1  0.314300  0.411800  0.864600  1.0  0.0935
  H  H58  1  0.343300  0.467200  0.959800  1.0  0.1057
  H  H59  1  0.630000  0.477300  0.955700  1.0  0.1023
  H  H60  1  0.601800  0.430900  0.860900  1.0  0.0912
  H  H61  1  0.306500  0.592600  0.685800  1.0  0.1004
  H  H62  1  0.259200  0.727500  0.682000  1.0  0.11
  H  H63  1  0.540800  0.861700  0.735200  1.0  0.1097
  H  H64  1  0.586100  0.726500  0.741200  1.0  0.1016
  H  H65  1  0.246500  0.883600  0.740300  1.0  0.1058
  H  H66  1  0.212400  0.023200  0.736600  1.0  0.0959
  H  H67  1  0.438500  0.073500  0.649400  1.0  0.0815
  H  H68  1  0.480400  0.941200  0.659500  1.0  0.1035
  H  H69  1  0.236600  0.403400  0.515800  1.0  0.1011
  H  H70  1  0.132900  0.466600  0.462000  1.0  0.114
  H  H71  1  0.962300  0.481700  0.583700  1.0  0.0945
  H  H72  1  0.064900  0.418700  0.635700  1.0  0.0987
  C  C73  1  0.149500  0.366900  0.322630  1.0  -0.1397
  C  C74  1  0.224700  0.321300  0.315900  1.0  -0.0223
  C  C75  1  0.208500  0.228700  0.314900  1.0  -0.1358
  C  C76  1  0.118500  0.180600  0.321100  1.0  0.0505
  C  C77  1  0.042700  0.226700  0.328900  1.0  -0.144
  C  C78  1  0.058600  0.318200  0.329300  1.0  -0.0296
  C  C79  1  0.101100  0.081100  0.319600  1.0  0.0675
  C  C80  1  0.176000  0.041900  0.337200  1.0  -0.1457
  C  C81  1  0.159100  0.949300  0.334400  1.0  -0.0129
  C  C82  1  0.068800  0.893400  0.314810  1.0  -0.1627
  C  C83  1  0.995600  0.932500  0.297700  1.0  -0.028
  C  C84  1  0.011900  0.025300  0.299600  1.0  -0.1402
  C  C85  1  0.166600  0.465900  0.322840  1.0  0.6994
  C  C86  1  0.052900  0.792500  0.312710  1.0  0.7707
  C  C87  1  0.130800  0.548900  0.138380  1.0  -0.1426
  C  C88  1  0.162700  0.496400  0.094500  1.0  -0.0329
  C  C89  1  0.112200  0.478800  0.040700  1.0  -0.1364
  C  C90  1  0.027000  0.509900  0.028900  1.0  0.0524
  C  C91  1  0.993700  0.557300  0.074600  1.0  -0.1385
  C  C92  1  0.045200  0.577400  0.127200  1.0  -0.0305
  C  C93  1  0.186000  0.568800  0.196840  1.0  0.7134
  C  C94  1  0.434500  0.793200  0.399470  1.0  -0.1763
  C  C95  1  0.512900  0.807400  0.440730  1.0  -0.0096
  C  C96  1  0.537900  0.888500  0.479810  1.0  -0.1238
  C  C97  1  0.486100  0.956400  0.478640  1.0  0.0515
  C  C98  1  0.406100  0.939400  0.436900  1.0  -0.1299
  C  C99  1  0.380700  0.859700  0.398080  1.0  -0.0579
  C  C100  1  0.408300  0.708500  0.355200  1.0  0.6869
  C  C101  1  0.545200  0.585100  0.147650  1.0  -0.1544
  C  C102  1  0.620700  0.573600  0.117230  1.0  -0.031
  C  C103  1  0.603200  0.540400  0.059670  1.0  -0.1308
  C  C104  1  0.509900  0.518500  0.030900  1.0  0.0565
  C  C105  1  0.434700  0.533500  0.062400  1.0  -0.1214
  C  C106  1  0.451700  0.563400  0.119300  1.0  -0.0138
  C  C107  1  0.563800  0.618800  0.209970  1.0  0.7325
  C  C108  1  0.548700  0.354600  0.288900  1.0  -0.1436
  C  C109  1  0.646100  0.353500  0.304900  1.0  -0.0382
  C  C110  1  0.674300  0.272400  0.307500  1.0  -0.1366
  C  C111  1  0.604800  0.191100  0.294600  1.0  0.0538
  C  C112  1  0.506400  0.192300  0.275400  1.0  -0.1418
  C  C113  1  0.479100  0.273300  0.272200  1.0  -0.0442
  C  C114  1  0.633800  0.104300  0.300400  1.0  0.0693
  C  C115  1  0.713100  0.077500  0.277400  1.0  -0.1288
  C  C116  1  0.734300  0.993900  0.279900  1.0  -0.0507
  C  C117  1  0.676600  0.935600  0.306900  1.0  -0.165
  C  C118  1  0.599100  0.963500  0.330700  1.0  -0.0178
  C  C119  1  0.575700  0.044000  0.326100  1.0  -0.1574
  C  C120  1  0.517100  0.443300  0.288800  1.0  0.7133
  C  C121  1  0.694500  0.842700  0.308730  1.0  0.7254
  C  C122  1  0.839200  0.597500  0.419610  1.0  -0.151
  C  C123  1  0.820000  0.581800  0.470300  1.0  -0.0325
  C  C124  1  0.882600  0.543600  0.503100  1.0  -0.1538
  C  C125  1  0.967200  0.521100  0.483590  1.0  0.0489
  C  C126  1  0.982900  0.535000  0.431300  1.0  -0.1295
  C  C127  1  0.920900  0.572600  0.399700  1.0  -0.0343
  C  C128  1  0.768900  0.635700  0.385170  1.0  0.6946
  C  C129  1  0.850500  0.633100  0.677370  1.0  -0.1398
  C  C130  1  0.775300  0.678700  0.684100  1.0  -0.0211
  C  C131  1  0.791500  0.771300  0.685100  1.0  -0.136
  C  C132  1  0.881500  0.819400  0.678900  1.0  0.0505
  C  C133  1  0.957300  0.773300  0.671100  1.0  -0.1436
  C  C134  1  0.941400  0.681800  0.670700  1.0  -0.0298
  C  C135  1  0.898900  0.918900  0.680400  1.0  0.0675
  C  C136  1  0.824000  0.958100  0.662800  1.0  -0.1451
  C  C137  1  0.840900  0.050700  0.665600  1.0  -0.013
  C  C138  1  0.931200  0.106600  0.685190  1.0  -0.1617
  C  C139  1  0.004400  0.067500  0.702300  1.0  -0.0274
  C  C140  1  0.988100  0.974700  0.700400  1.0  -0.1417
  C  C141  1  0.833400  0.534100  0.677160  1.0  0.6998
  C  C142  1  0.947100  0.207500  0.687290  1.0  0.7725
  C  C143  1  0.869200  0.451100  0.861620  1.0  -0.1395
  C  C144  1  0.837300  0.503600  0.905500  1.0  -0.0328
  C  C145  1  0.887800  0.521200  0.959300  1.0  -0.1351
  C  C146  1  0.973000  0.490100  0.971100  1.0  0.0529
  C  C147  1  0.006300  0.442700  0.925400  1.0  -0.1365
  C  C148  1  0.954800  0.422600  0.872800  1.0  -0.031
  C  C149  1  0.814000  0.431200  0.803160  1.0  0.7135
  C  C150  1  0.565500  0.206800  0.600530  1.0  -0.175
  C  C151  1  0.487100  0.192600  0.559270  1.0  -0.0082
  C  C152  1  0.462100  0.111500  0.520190  1.0  -0.1258
  C  C153  1  0.513900  0.043600  0.521360  1.0  0.0521
  C  C154  1  0.593900  0.060600  0.563100  1.0  -0.1277
  C  C155  1  0.619300  0.140300  0.601920  1.0  -0.0505
  C  C156  1  0.591700  0.291500  0.644800  1.0  0.6872
  C  C157  1  0.454800  0.414900  0.852350  1.0  -0.1571
  C  C158  1  0.379300  0.426400  0.882770  1.0  -0.031
  C  C159  1  0.396800  0.459600  0.940330  1.0  -0.1294
  C  C160  1  0.490100  0.481500  0.969100  1.0  0.0562
  C  C161  1  0.565300  0.466500  0.937600  1.0  -0.1196
  C  C162  1  0.548300  0.436600  0.880700  1.0  -0.0123
  C  C163  1  0.436200  0.381200  0.790030  1.0  0.7314
  C  C164  1  0.451300  0.645400  0.711100  1.0  -0.1441
  C  C165  1  0.353900  0.646500  0.695100  1.0  -0.0373
  C  C166  1  0.325700  0.727600  0.692500  1.0  -0.1383
  C  C167  1  0.395200  0.808900  0.705400  1.0  0.0531
  C  C168  1  0.493600  0.807700  0.724600  1.0  -0.1427
  C  C169  1  0.520900  0.726700  0.727800  1.0  -0.0434
  C  C170  1  0.366200  0.895700  0.699600  1.0  0.0693
  C  C171  1  0.286900  0.922500  0.722600  1.0  -0.1278
  C  C172  1  0.265700  0.006100  0.720100  1.0  -0.05
  C  C173  1  0.323400  0.064400  0.693100  1.0  -0.1648
  C  C174  1  0.400900  0.036500  0.669300  1.0  -0.0201
  C  C175  1  0.424300  0.956000  0.673900  1.0  -0.1569
  C  C176  1  0.482900  0.556700  0.711200  1.0  0.7124
  C  C177  1  0.305500  0.157300  0.691270  1.0  0.7246
  C  C178  1  0.160800  0.402500  0.580390  1.0  -0.1502
  C  C179  1  0.180000  0.418200  0.529700  1.0  -0.0323
  C  C180  1  0.117400  0.456400  0.496900  1.0  -0.1553
  C  C181  1  0.032800  0.478900  0.516410  1.0  0.0493
  C  C182  1  0.017100  0.465000  0.568700  1.0  -0.1253
  C  C183  1  0.079100  0.427400  0.600300  1.0  -0.0333
  C  C184  1  0.231100  0.364300  0.614830  1.0  0.693
  O  O185  1  0.254400  0.508610  0.322740  1.0  -0.6638
  O  O186  1  0.095500  0.504800  0.323530  1.0  -0.5862
  O  O187  1  0.127300  0.764080  0.329510  1.0  -0.6357
  O  O188  1  0.970900  0.743280  0.294600  1.0  -0.6658
  O  O189  1  0.263600  0.538100  0.203210  1.0  -0.612
  O  O190  1  0.149100  0.612530  0.234920  1.0  -0.623
  O  O191  1  0.333540  0.694750  0.318310  1.0  -0.6372
  O  O192  1  0.462470  0.649600  0.354160  1.0  -0.6236
  O  O193  1  0.490770  0.625680  0.236560  1.0  -0.651
  O  O194  1  0.650840  0.639140  0.234310  1.0  -0.6787
  O  O195  1  0.581000  0.512660  0.310490  1.0  -0.6147
  O  O196  1  0.429800  0.441390  0.268870  1.0  -0.6105
  O  O197  1  0.632100  0.791900  0.328560  1.0  -0.5996
  O  O198  1  0.770240  0.822070  0.288050  1.0  -0.6401
  O  O199  1  0.692500  0.654000  0.404670  1.0  -0.5675
  O  O200  1  0.785300  0.643000  0.335480  1.0  -0.6961
  O  O201  1  0.745600  0.491390  0.677260  1.0  -0.6645
  O  O202  1  0.904500  0.495200  0.676470  1.0  -0.5862
  O  O203  1  0.872700  0.235920  0.670490  1.0  -0.6355
  O  O204  1  0.029100  0.256720  0.705400  1.0  -0.6674
  O  O205  1  0.736400  0.461900  0.796790  1.0  -0.6118
  O  O206  1  0.850900  0.387470  0.765080  1.0  -0.6213
  O  O207  1  0.666460  0.305250  0.681690  1.0  -0.6362
  O  O208  1  0.537530  0.350400  0.645840  1.0  -0.6234
  O  O209  1  0.509230  0.374320  0.763440  1.0  -0.6467
  O  O210  1  0.349160  0.360860  0.765690  1.0  -0.6792
  O  O211  1  0.419000  0.487340  0.689510  1.0  -0.6149
  O  O212  1  0.570200  0.558610  0.731130  1.0  -0.6118
  O  O213  1  0.367900  0.208100  0.671440  1.0  -0.5987
  O  O214  1  0.229760  0.177930  0.711950  1.0  -0.6398
  O  O215  1  0.307500  0.346000  0.595330  1.0  -0.5686
  O  O216  1  0.214700  0.357000  0.664520  1.0  -0.6961
