# generated using pymatgen
data_CdPH20C16N7(ClO)2
_symmetry_space_group_name_H-M   'P 1'
_cell_length_a   13.95700000
_cell_length_b   15.82700000
_cell_length_c   25.70400000
_cell_angle_alpha   90.00000000
_cell_angle_beta   90.00000000
_cell_angle_gamma   93.36200000
_symmetry_Int_Tables_number   1
_chemical_formula_structural   CdPH20C16N7(ClO)2
_chemical_formula_sum   'Cd8 P8 H160 C128 N56 Cl16 O16'
_cell_volume   5668.17569377
_cell_formula_units_Z   8
loop_
 _symmetry_equiv_pos_site_id
 _symmetry_equiv_pos_as_xyz
  1  'x, y, z'
loop_
 _atom_site_type_symbol
 _atom_site_label
 _atom_site_symmetry_multiplicity
 _atom_site_fract_x
 _atom_site_fract_y
 _atom_site_fract_z
 _atom_site_occupancy
 _atom_site_charge
  Cd  Cd1  1  0.872790  0.995780  0.034600  1.0  0.814
  Cd  Cd2  1  0.624660  0.994050  0.968600  1.0  0.817
  Cd  Cd3  1  0.127210  0.504220  0.534600  1.0  0.8146
  Cd  Cd4  1  0.375340  0.505950  0.468600  1.0  0.817
  Cd  Cd5  1  0.127210  0.004220  0.965400  1.0  0.8147
  Cd  Cd6  1  0.375340  0.005950  0.031400  1.0  0.8168
  Cd  Cd7  1  0.872790  0.495780  0.465400  1.0  0.8143
  Cd  Cd8  1  0.624660  0.494050  0.531400  1.0  0.8167
  P  P9  1  0.090780  0.303560  0.240690  1.0  1.4883
  P  P10  1  0.665130  0.754600  0.264320  1.0  1.4628
  P  P11  1  0.909220  0.196440  0.740690  1.0  1.4888
  P  P12  1  0.334870  0.745400  0.764320  1.0  1.4637
  P  P13  1  0.909220  0.696440  0.759310  1.0  1.4887
  P  P14  1  0.334870  0.245400  0.735680  1.0  1.464
  P  P15  1  0.090780  0.803560  0.259310  1.0  1.4881
  P  P16  1  0.665130  0.254600  0.235680  1.0  1.4629
  H  H17  1  0.364700  0.902400  0.218700  1.0  0.0777
  H  H18  1  0.393000  0.814700  0.240200  1.0  0.0979
  H  H19  1  0.452500  0.858500  0.195000  1.0  0.0971
  H  H20  1  0.408000  0.010100  0.268700  1.0  0.093
  H  H21  1  0.518100  0.023500  0.280300  1.0  0.0922
  H  H22  1  0.449700  0.978400  0.321400  1.0  0.0857
  H  H23  1  0.687900  0.895100  0.080100  1.0  0.0644
  H  H24  1  0.603400  0.508100  0.307800  1.0  0.1406
  H  H25  1  0.260600  0.520700  0.360000  1.0  0.0657
  H  H26  1  0.286600  0.317900  0.438400  1.0  0.0782
  H  H27  1  0.869800  0.211300  0.193800  1.0  0.1301
  H  H28  1  0.546800  0.743700  0.352600  1.0  0.1343
  H  H29  1  0.196300  0.241800  0.380900  1.0  0.1424
  H  H30  1  0.891900  0.804400  0.203300  1.0  0.1376
  H  H31  1  0.504000  0.456800  0.370900  1.0  0.0657
  H  H32  1  0.131400  0.134600  0.167200  1.0  0.1508
  H  H33  1  0.069800  0.059900  0.095400  1.0  0.0683
  H  H34  1  0.814400  0.136400  0.123200  1.0  0.0731
  H  H35  1  0.165900  0.449300  0.298700  1.0  0.1431
  H  H36  1  0.633700  0.789900  0.139800  1.0  0.1447
  H  H37  1  0.939700  0.897400  0.137700  1.0  0.0655
  H  H38  1  0.449400  0.681900  0.414800  1.0  0.0722
  H  H39  1  0.365900  0.331200  0.105100  1.0  0.1019
  H  H40  1  0.281700  0.267100  0.122000  1.0  0.1115
  H  H41  1  0.351200  0.308400  0.164000  1.0  0.1076
  H  H42  1  0.321500  0.447500  0.078700  1.0  0.0947
  H  H43  1  0.275300  0.508200  0.118500  1.0  0.1067
  H  H44  1  0.210100  0.455600  0.079100  1.0  0.0949
  H  H45  1  0.872200  0.556700  0.222600  1.0  0.1042
  H  H46  1  0.920500  0.506600  0.267100  1.0  0.0932
  H  H47  1  0.861700  0.457500  0.223500  1.0  0.0872
  H  H48  1  0.951400  0.609200  0.165900  1.0  0.1023
  H  H49  1  0.997400  0.546400  0.127300  1.0  0.1041
  H  H50  1  0.062600  0.599900  0.166300  1.0  0.1114
  H  H51  1  0.758500  0.017800  0.412200  1.0  0.104
  H  H52  1  0.651800  0.986000  0.401600  1.0  0.1098
  H  H53  1  0.710100  0.037500  0.358800  1.0  0.1129
  H  H54  1  0.861700  0.921400  0.409800  1.0  0.0946
  H  H55  1  0.877800  0.878300  0.355800  1.0  0.0973
  H  H56  1  0.818600  0.829300  0.399300  1.0  0.1133
  H  H57  1  0.635300  0.597600  0.718700  1.0  0.0784
  H  H58  1  0.607000  0.685300  0.740200  1.0  0.0994
  H  H59  1  0.547500  0.641500  0.695000  1.0  0.0978
  H  H60  1  0.592000  0.489900  0.768700  1.0  0.0923
  H  H61  1  0.481900  0.476500  0.780300  1.0  0.0931
  H  H62  1  0.550300  0.521600  0.821400  1.0  0.0866
  H  H63  1  0.312100  0.604900  0.580100  1.0  0.0641
  H  H64  1  0.396600  0.991900  0.807800  1.0  0.1405
  H  H65  1  0.739400  0.979300  0.860000  1.0  0.0653
  H  H66  1  0.713400  0.182100  0.938400  1.0  0.0782
  H  H67  1  0.130200  0.288700  0.693800  1.0  0.1311
  H  H68  1  0.453200  0.756300  0.852600  1.0  0.1319
  H  H69  1  0.803700  0.258200  0.880900  1.0  0.141
  H  H70  1  0.108100  0.695600  0.703300  1.0  0.1366
  H  H71  1  0.496000  0.043200  0.870900  1.0  0.0653
  H  H72  1  0.868600  0.365400  0.667200  1.0  0.1526
  H  H73  1  0.930200  0.440100  0.595400  1.0  0.0676
  H  H74  1  0.185600  0.363600  0.623200  1.0  0.0722
  H  H75  1  0.834100  0.050700  0.798700  1.0  0.1426
  H  H76  1  0.366300  0.710100  0.639800  1.0  0.1439
  H  H77  1  0.060300  0.602600  0.637700  1.0  0.0654
  H  H78  1  0.550600  0.818100  0.914800  1.0  0.0724
  H  H79  1  0.634100  0.168800  0.605100  1.0  0.1006
  H  H80  1  0.718300  0.232900  0.622000  1.0  0.1136
  H  H81  1  0.648800  0.191600  0.664000  1.0  0.1081
  H  H82  1  0.678500  0.052500  0.578700  1.0  0.0938
  H  H83  1  0.724700  0.991800  0.618500  1.0  0.1052
  H  H84  1  0.789900  0.044400  0.579100  1.0  0.0964
  H  H85  1  0.127800  0.943300  0.722600  1.0  0.1043
  H  H86  1  0.079500  0.993400  0.767100  1.0  0.0927
  H  H87  1  0.138300  0.042500  0.723500  1.0  0.0876
  H  H88  1  0.048600  0.890800  0.665900  1.0  0.102
  H  H89  1  0.002600  0.953600  0.627300  1.0  0.1056
  H  H90  1  0.937400  0.900100  0.666300  1.0  0.111
  H  H91  1  0.241500  0.482200  0.912200  1.0  0.1051
  H  H92  1  0.348200  0.514000  0.901600  1.0  0.1027
  H  H93  1  0.289900  0.462500  0.858800  1.0  0.1137
  H  H94  1  0.138300  0.578600  0.909800  1.0  0.0951
  H  H95  1  0.122200  0.621700  0.855800  1.0  0.0974
  H  H96  1  0.181400  0.670700  0.899300  1.0  0.1141
  H  H97  1  0.635300  0.097600  0.781300  1.0  0.0759
  H  H98  1  0.607000  0.185300  0.759800  1.0  0.1006
  H  H99  1  0.547500  0.141500  0.805000  1.0  0.0973
  H  H100  1  0.592000  0.989900  0.731300  1.0  0.0925
  H  H101  1  0.481900  0.976500  0.719700  1.0  0.0933
  H  H102  1  0.550300  0.021600  0.678600  1.0  0.0855
  H  H103  1  0.312100  0.104900  0.919900  1.0  0.0647
  H  H104  1  0.396600  0.491900  0.692200  1.0  0.1403
  H  H105  1  0.739400  0.479300  0.640000  1.0  0.0654
  H  H106  1  0.713400  0.682100  0.561600  1.0  0.0781
  H  H107  1  0.130200  0.788700  0.806200  1.0  0.1306
  H  H108  1  0.453200  0.256300  0.647400  1.0  0.1331
  H  H109  1  0.803700  0.758200  0.619100  1.0  0.1405
  H  H110  1  0.108100  0.195600  0.796700  1.0  0.1374
  H  H111  1  0.496000  0.543200  0.629100  1.0  0.065
  H  H112  1  0.868600  0.865400  0.832800  1.0  0.1525
  H  H113  1  0.930200  0.940100  0.904600  1.0  0.0683
  H  H114  1  0.185600  0.863600  0.876800  1.0  0.0716
  H  H115  1  0.834100  0.550700  0.701300  1.0  0.1436
  H  H116  1  0.366300  0.210100  0.860200  1.0  0.1437
  H  H117  1  0.060300  0.102600  0.862300  1.0  0.0653
  H  H118  1  0.550600  0.318100  0.585200  1.0  0.0723
  H  H119  1  0.634100  0.668800  0.894900  1.0  0.101
  H  H120  1  0.718300  0.732900  0.878000  1.0  0.1124
  H  H121  1  0.648800  0.691600  0.836000  1.0  0.1102
  H  H122  1  0.678500  0.552500  0.921300  1.0  0.0957
  H  H123  1  0.724700  0.491800  0.881500  1.0  0.1059
  H  H124  1  0.789900  0.544400  0.920900  1.0  0.0973
  H  H125  1  0.127800  0.443300  0.777400  1.0  0.1043
  H  H126  1  0.079500  0.493400  0.732900  1.0  0.093
  H  H127  1  0.138300  0.542500  0.776500  1.0  0.0878
  H  H128  1  0.048600  0.390800  0.834100  1.0  0.1027
  H  H129  1  0.002600  0.453600  0.872700  1.0  0.1043
  H  H130  1  0.937400  0.400100  0.833700  1.0  0.1129
  H  H131  1  0.241500  0.982200  0.587800  1.0  0.1042
  H  H132  1  0.348200  0.014000  0.598400  1.0  0.1054
  H  H133  1  0.289900  0.962500  0.641200  1.0  0.1141
  H  H134  1  0.138300  0.078600  0.590200  1.0  0.0943
  H  H135  1  0.122200  0.121700  0.644200  1.0  0.097
  H  H136  1  0.181400  0.170700  0.600700  1.0  0.1153
  H  H137  1  0.364700  0.402400  0.281300  1.0  0.0746
  H  H138  1  0.393000  0.314700  0.259800  1.0  0.099
  H  H139  1  0.452500  0.358500  0.305000  1.0  0.097
  H  H140  1  0.408000  0.510100  0.231300  1.0  0.0926
  H  H141  1  0.518100  0.523500  0.219700  1.0  0.0933
  H  H142  1  0.449700  0.478400  0.178600  1.0  0.0861
  H  H143  1  0.687900  0.395100  0.419900  1.0  0.0647
  H  H144  1  0.603400  0.008100  0.192200  1.0  0.1408
  H  H145  1  0.260600  0.020700  0.140000  1.0  0.0656
  H  H146  1  0.286600  0.817900  0.061600  1.0  0.0779
  H  H147  1  0.869800  0.711300  0.306200  1.0  0.1299
  H  H148  1  0.546800  0.243700  0.147400  1.0  0.1342
  H  H149  1  0.196300  0.741800  0.119100  1.0  0.1423
  H  H150  1  0.891900  0.304400  0.296700  1.0  0.1378
  H  H151  1  0.504000  0.956800  0.129100  1.0  0.0653
  H  H152  1  0.131400  0.634600  0.332800  1.0  0.1507
  H  H153  1  0.069800  0.559900  0.404600  1.0  0.0692
  H  H154  1  0.814400  0.636400  0.376800  1.0  0.0727
  H  H155  1  0.165900  0.949300  0.201300  1.0  0.144
  H  H156  1  0.633700  0.289900  0.360200  1.0  0.1445
  H  H157  1  0.939700  0.397400  0.362300  1.0  0.0654
  H  H158  1  0.449400  0.181900  0.085200  1.0  0.0721
  H  H159  1  0.365900  0.831200  0.394900  1.0  0.1009
  H  H160  1  0.281700  0.767100  0.378000  1.0  0.1129
  H  H161  1  0.351200  0.808400  0.336000  1.0  0.1087
  H  H162  1  0.321500  0.947500  0.421300  1.0  0.0952
  H  H163  1  0.275300  0.008200  0.381500  1.0  0.108
  H  H164  1  0.210100  0.955600  0.420900  1.0  0.0986
  H  H165  1  0.872200  0.056700  0.277400  1.0  0.1043
  H  H166  1  0.920500  0.006600  0.232900  1.0  0.0933
  H  H167  1  0.861700  0.957500  0.276500  1.0  0.087
  H  H168  1  0.951400  0.109200  0.334100  1.0  0.1026
  H  H169  1  0.997400  0.046400  0.372700  1.0  0.1029
  H  H170  1  0.062600  0.099900  0.333700  1.0  0.1094
  H  H171  1  0.758500  0.517800  0.087800  1.0  0.1034
  H  H172  1  0.651800  0.486000  0.098400  1.0  0.1066
  H  H173  1  0.710100  0.537500  0.141200  1.0  0.113
  H  H174  1  0.861700  0.421400  0.090200  1.0  0.0945
  H  H175  1  0.877800  0.378300  0.144200  1.0  0.0972
  H  H176  1  0.818600  0.329300  0.100700  1.0  0.1114
  C  C177  1  0.417300  0.868000  0.226300  1.0  -0.172
  C  C178  1  0.462100  0.986100  0.284900  1.0  -0.1762
  C  C179  1  0.731000  0.874200  0.103800  1.0  0.2272
  C  C180  1  0.173800  0.335900  0.333000  1.0  0.3986
  C  C181  1  0.571700  0.544900  0.329100  1.0  -0.2879
  C  C182  1  0.003800  0.177900  0.187800  1.0  0.3602
  C  C183  1  0.248000  0.462700  0.364000  1.0  0.2126
  C  C184  1  0.263200  0.345100  0.409400  1.0  0.2023
  C  C185  1  0.911300  0.179700  0.174500  1.0  -0.2821
  C  C186  1  0.755500  0.789100  0.177500  1.0  0.3464
  C  C187  1  0.539100  0.685100  0.355200  1.0  -0.2994
  C  C188  1  0.209200  0.299300  0.375200  1.0  -0.283
  C  C189  1  0.848900  0.820100  0.177900  1.0  -0.275
  C  C190  1  0.512300  0.515100  0.366500  1.0  0.1976
  C  C191  1  0.066600  0.134400  0.158800  1.0  -0.2683
  C  C192  1  0.028500  0.089600  0.115900  1.0  0.2057
  C  C193  1  0.185100  0.379600  0.172000  1.0  0.6265
  C  C194  1  0.048200  0.440400  0.202000  1.0  0.6307
  C  C195  1  0.585600  0.633900  0.322400  1.0  0.3723
  C  C196  1  0.878700  0.134600  0.132300  1.0  0.1847
  C  C197  1  0.191100  0.420800  0.326700  1.0  -0.2965
  C  C198  1  0.696600  0.812700  0.141200  1.0  -0.2736
  C  C199  1  0.876200  0.876100  0.138300  1.0  0.2006
  C  C200  1  0.480400  0.647000  0.392000  1.0  0.2232
  C  C201  1  0.319100  0.317600  0.131700  1.0  -0.1725
  C  C202  1  0.266700  0.455300  0.100400  1.0  -0.1494
  C  C203  1  0.903800  0.506200  0.230900  1.0  -0.1622
  C  C204  1  0.001100  0.570400  0.161600  1.0  -0.1696
  C  C205  1  0.690400  0.881100  0.325100  1.0  0.5554
  C  C206  1  0.561200  0.870000  0.275700  1.0  0.5766
  C  C207  1  0.714000  0.996500  0.386200  1.0  -0.1651
  C  C208  1  0.833400  0.883800  0.384000  1.0  -0.155
  C  C209  1  0.582700  0.632000  0.726300  1.0  -0.1729
  C  C210  1  0.537900  0.513900  0.784900  1.0  -0.1739
  C  C211  1  0.269000  0.625800  0.603800  1.0  0.2257
  C  C212  1  0.826200  0.164100  0.833000  1.0  0.4019
  C  C213  1  0.428300  0.955100  0.829100  1.0  -0.2876
  C  C214  1  0.996200  0.322100  0.687800  1.0  0.3609
  C  C215  1  0.752000  0.037300  0.864000  1.0  0.2109
  C  C216  1  0.736800  0.154900  0.909400  1.0  0.2014
  C  C217  1  0.088700  0.320300  0.674500  1.0  -0.2822
  C  C218  1  0.244500  0.710900  0.677500  1.0  0.3446
  C  C219  1  0.460900  0.814900  0.855200  1.0  -0.3012
  C  C220  1  0.790800  0.200700  0.875200  1.0  -0.2775
  C  C221  1  0.151100  0.679900  0.677900  1.0  -0.2748
  C  C222  1  0.487700  0.984900  0.866500  1.0  0.1972
  C  C223  1  0.933400  0.365600  0.658800  1.0  -0.2656
  C  C224  1  0.971500  0.410400  0.615900  1.0  0.2069
  C  C225  1  0.814900  0.120400  0.672000  1.0  0.6236
  C  C226  1  0.951800  0.059600  0.702000  1.0  0.6313
  C  C227  1  0.414400  0.866100  0.822400  1.0  0.3709
  C  C228  1  0.121300  0.365400  0.632300  1.0  0.1878
  C  C229  1  0.808900  0.079200  0.826700  1.0  -0.296
  C  C230  1  0.303400  0.687300  0.641200  1.0  -0.2799
  C  C231  1  0.123800  0.623900  0.638300  1.0  0.1994
  C  C232  1  0.519600  0.853000  0.892000  1.0  0.2244
  C  C233  1  0.680900  0.182400  0.631700  1.0  -0.1706
  C  C234  1  0.733300  0.044700  0.600400  1.0  -0.1503
  C  C235  1  0.096200  0.993800  0.730900  1.0  -0.1626
  C  C236  1  0.998900  0.929600  0.661600  1.0  -0.1683
  C  C237  1  0.309600  0.618900  0.825100  1.0  0.5582
  C  C238  1  0.438800  0.630000  0.775700  1.0  0.5737
  C  C239  1  0.286000  0.503500  0.886200  1.0  -0.1646
  C  C240  1  0.166600  0.616200  0.884000  1.0  -0.1584
  C  C241  1  0.582700  0.132000  0.773700  1.0  -0.1729
  C  C242  1  0.537900  0.013900  0.715100  1.0  -0.1735
  C  C243  1  0.269000  0.125800  0.896200  1.0  0.227
  C  C244  1  0.826200  0.664100  0.667000  1.0  0.4007
  C  C245  1  0.428300  0.455100  0.670900  1.0  -0.2885
  C  C246  1  0.996200  0.822100  0.812200  1.0  0.3615
  C  C247  1  0.752000  0.537300  0.636000  1.0  0.2108
  C  C248  1  0.736800  0.654900  0.590600  1.0  0.2037
  C  C249  1  0.088700  0.820300  0.825500  1.0  -0.2825
  C  C250  1  0.244500  0.210900  0.822500  1.0  0.3502
  C  C251  1  0.460900  0.314900  0.644800  1.0  -0.3018
  C  C252  1  0.790800  0.700700  0.624800  1.0  -0.2737
  C  C253  1  0.151100  0.179900  0.822100  1.0  -0.2751
  C  C254  1  0.487700  0.484900  0.633500  1.0  0.1979
  C  C255  1  0.933400  0.865600  0.841200  1.0  -0.2624
  C  C256  1  0.971500  0.910400  0.884100  1.0  0.2063
  C  C257  1  0.814900  0.620400  0.828000  1.0  0.6191
  C  C258  1  0.951800  0.559600  0.798000  1.0  0.6315
  C  C259  1  0.414400  0.366100  0.677600  1.0  0.3701
  C  C260  1  0.121300  0.865400  0.867700  1.0  0.1881
  C  C261  1  0.808900  0.579200  0.673300  1.0  -0.3071
  C  C262  1  0.303400  0.187300  0.858800  1.0  -0.2837
  C  C263  1  0.123800  0.123900  0.861700  1.0  0.1996
  C  C264  1  0.519600  0.353000  0.608000  1.0  0.2248
  C  C265  1  0.680900  0.682400  0.868300  1.0  -0.1714
  C  C266  1  0.733300  0.544700  0.899600  1.0  -0.15
  C  C267  1  0.096200  0.493800  0.769100  1.0  -0.1635
  C  C268  1  0.998900  0.429600  0.838400  1.0  -0.1687
  C  C269  1  0.309600  0.118900  0.674900  1.0  0.5655
  C  C270  1  0.438800  0.130000  0.724300  1.0  0.5741
  C  C271  1  0.286000  0.003500  0.613800  1.0  -0.1652
  C  C272  1  0.166600  0.116200  0.616000  1.0  -0.1548
  C  C273  1  0.417300  0.368000  0.273700  1.0  -0.1721
  C  C274  1  0.462100  0.486100  0.215100  1.0  -0.1744
  C  C275  1  0.731000  0.374200  0.396200  1.0  0.2281
  C  C276  1  0.173800  0.835900  0.167000  1.0  0.3985
  C  C277  1  0.571700  0.044900  0.170900  1.0  -0.2885
  C  C278  1  0.003800  0.677900  0.312200  1.0  0.3615
  C  C279  1  0.248000  0.962700  0.136000  1.0  0.2121
  C  C280  1  0.263200  0.845100  0.090600  1.0  0.2034
  C  C281  1  0.911300  0.679700  0.325500  1.0  -0.2825
  C  C282  1  0.755500  0.289100  0.322500  1.0  0.3504
  C  C283  1  0.539100  0.185100  0.144800  1.0  -0.2997
  C  C284  1  0.209200  0.799300  0.124800  1.0  -0.2832
  C  C285  1  0.848900  0.320100  0.322100  1.0  -0.2749
  C  C286  1  0.512300  0.015100  0.133500  1.0  0.1987
  C  C287  1  0.066600  0.634400  0.341200  1.0  -0.2658
  C  C288  1  0.028500  0.589600  0.384100  1.0  0.2063
  C  C289  1  0.185100  0.879600  0.328000  1.0  0.6214
  C  C290  1  0.048200  0.940400  0.298000  1.0  0.6309
  C  C291  1  0.585600  0.133900  0.177600  1.0  0.3707
  C  C292  1  0.878700  0.634600  0.367700  1.0  0.1846
  C  C293  1  0.191100  0.920800  0.173300  1.0  -0.3081
  C  C294  1  0.696600  0.312700  0.358800  1.0  -0.2804
  C  C295  1  0.876200  0.376100  0.361700  1.0  0.2012
  C  C296  1  0.480400  0.147000  0.108000  1.0  0.2248
  C  C297  1  0.319100  0.817600  0.368300  1.0  -0.1719
  C  C298  1  0.266700  0.955300  0.399600  1.0  -0.1504
  C  C299  1  0.903800  0.006200  0.269100  1.0  -0.1623
  C  C300  1  0.001100  0.070400  0.338400  1.0  -0.1692
  C  C301  1  0.690400  0.381100  0.174900  1.0  0.5633
  C  C302  1  0.561200  0.370000  0.224300  1.0  0.5769
  C  C303  1  0.714000  0.496500  0.113800  1.0  -0.1636
  C  C304  1  0.833400  0.383800  0.116000  1.0  -0.1568
  N  N305  1  0.935500  0.087600  0.103100  1.0  -0.3593
  N  N306  1  0.818900  0.901100  0.101800  1.0  -0.3248
  N  N307  1  0.464500  0.564900  0.397700  1.0  -0.3561
  N  N308  1  0.284700  0.426600  0.403800  1.0  -0.3545
  N  N309  1  0.256300  0.387200  0.137400  1.0  -0.0914
  N  N310  1  0.989000  0.502800  0.200300  1.0  -0.0788
  N  N311  1  0.747000  0.917400  0.364600  1.0  -0.1201
  N  N312  1  0.477200  0.908800  0.262300  1.0  -0.0741
  N  N313  1  0.021800  0.378800  0.237000  1.0  -0.892
  N  N314  1  0.180300  0.312000  0.204200  1.0  -0.8999
  N  N315  1  0.126300  0.443500  0.171500  1.0  -0.7379
  N  N316  1  0.727100  0.807500  0.305100  1.0  -0.8837
  N  N317  1  0.567300  0.798400  0.248900  1.0  -0.846
  N  N318  1  0.606500  0.913700  0.310300  1.0  -0.6395
  N  N319  1  0.064500  0.412400  0.603100  1.0  -0.3567
  N  N320  1  0.181100  0.598900  0.601800  1.0  -0.3278
  N  N321  1  0.535500  0.935100  0.897700  1.0  -0.3556
  N  N322  1  0.715300  0.073400  0.903800  1.0  -0.355
  N  N323  1  0.743700  0.112800  0.637400  1.0  -0.0903
  N  N324  1  0.011000  0.997200  0.700300  1.0  -0.083
  N  N325  1  0.253000  0.582600  0.864600  1.0  -0.116
  N  N326  1  0.522800  0.591200  0.762300  1.0  -0.0751
  N  N327  1  0.978200  0.121200  0.737000  1.0  -0.8896
  N  N328  1  0.819700  0.188000  0.704200  1.0  -0.8995
  N  N329  1  0.873700  0.056500  0.671500  1.0  -0.7378
  N  N330  1  0.272900  0.692500  0.805100  1.0  -0.8843
  N  N331  1  0.432700  0.701600  0.748900  1.0  -0.8492
  N  N332  1  0.393500  0.586300  0.810300  1.0  -0.6417
  N  N333  1  0.064500  0.912400  0.896900  1.0  -0.3587
  N  N334  1  0.181100  0.098900  0.898200  1.0  -0.3258
  N  N335  1  0.535500  0.435100  0.602300  1.0  -0.3557
  N  N336  1  0.715300  0.573400  0.596200  1.0  -0.3558
  N  N337  1  0.743700  0.612800  0.862600  1.0  -0.0909
  N  N338  1  0.011000  0.497200  0.799700  1.0  -0.0839
  N  N339  1  0.253000  0.082600  0.635400  1.0  -0.1203
  N  N340  1  0.522800  0.091200  0.737700  1.0  -0.0748
  N  N341  1  0.978200  0.621200  0.763000  1.0  -0.8904
  N  N342  1  0.819700  0.688000  0.795800  1.0  -0.9002
  N  N343  1  0.873700  0.556500  0.828500  1.0  -0.7376
  N  N344  1  0.272900  0.192500  0.694900  1.0  -0.8839
  N  N345  1  0.432700  0.201600  0.751100  1.0  -0.8498
  N  N346  1  0.393500  0.086300  0.689700  1.0  -0.6382
  N  N347  1  0.935500  0.587600  0.396900  1.0  -0.3612
  N  N348  1  0.818900  0.401100  0.398200  1.0  -0.325
  N  N349  1  0.464500  0.064900  0.102300  1.0  -0.3557
  N  N350  1  0.284700  0.926600  0.096200  1.0  -0.3551
  N  N351  1  0.256300  0.887200  0.362600  1.0  -0.0914
  N  N352  1  0.989000  0.002800  0.299700  1.0  -0.0806
  N  N353  1  0.747000  0.417400  0.135400  1.0  -0.1252
  N  N354  1  0.477200  0.408800  0.237700  1.0  -0.074
  N  N355  1  0.021800  0.878800  0.263000  1.0  -0.8931
  N  N356  1  0.180300  0.812000  0.295800  1.0  -0.9011
  N  N357  1  0.126300  0.943500  0.328500  1.0  -0.738
  N  N358  1  0.727100  0.307500  0.194900  1.0  -0.8831
  N  N359  1  0.567300  0.298400  0.251100  1.0  -0.8473
  N  N360  1  0.606500  0.413700  0.189700  1.0  -0.6329
  Cl  Cl361  1  0.716600  0.078940  0.040260  1.0  -0.5146
  Cl  Cl362  1  0.768270  0.894330  0.969230  1.0  -0.5436
  Cl  Cl363  1  0.964970  0.087060  0.965120  1.0  -0.5255
  Cl  Cl364  1  0.511580  0.893670  0.027680  1.0  -0.5481
  Cl  Cl365  1  0.283400  0.421060  0.540260  1.0  -0.5149
  Cl  Cl366  1  0.231730  0.605670  0.469230  1.0  -0.5433
  Cl  Cl367  1  0.035030  0.412940  0.465120  1.0  -0.5248
  Cl  Cl368  1  0.488420  0.606330  0.527680  1.0  -0.5479
  Cl  Cl369  1  0.283400  0.921060  0.959740  1.0  -0.5159
  Cl  Cl370  1  0.231730  0.105670  0.030770  1.0  -0.543
  Cl  Cl371  1  0.035030  0.912940  0.034880  1.0  -0.5254
  Cl  Cl372  1  0.488420  0.106330  0.972320  1.0  -0.548
  Cl  Cl373  1  0.716600  0.578940  0.459740  1.0  -0.5151
  Cl  Cl374  1  0.768270  0.394330  0.530770  1.0  -0.5429
  Cl  Cl375  1  0.964970  0.587060  0.534880  1.0  -0.5253
  Cl  Cl376  1  0.511580  0.393670  0.472320  1.0  -0.5483
  O  O377  1  0.035700  0.212200  0.235700  1.0  -0.4558
  O  O378  1  0.118900  0.283900  0.299800  1.0  -0.4604
  O  O379  1  0.646000  0.658600  0.282000  1.0  -0.4285
  O  O380  1  0.723900  0.729500  0.215800  1.0  -0.4467
  O  O381  1  0.964300  0.287800  0.735700  1.0  -0.456
  O  O382  1  0.881100  0.216100  0.799800  1.0  -0.4634
  O  O383  1  0.354000  0.841400  0.782000  1.0  -0.4287
  O  O384  1  0.276100  0.770500  0.715800  1.0  -0.447
  O  O385  1  0.964300  0.787800  0.764300  1.0  -0.4566
  O  O386  1  0.881100  0.716100  0.700200  1.0  -0.4609
  O  O387  1  0.354000  0.341400  0.718000  1.0  -0.4283
  O  O388  1  0.276100  0.270500  0.784200  1.0  -0.4468
  O  O389  1  0.035700  0.712200  0.264300  1.0  -0.4569
  O  O390  1  0.118900  0.783900  0.200200  1.0  -0.4592
  O  O391  1  0.646000  0.158600  0.218000  1.0  -0.4282
  O  O392  1  0.723900  0.229500  0.284200  1.0  -0.447
