# generated using pymatgen
data_MnH8(C7O2)2
_symmetry_space_group_name_H-M   'P 1'
_cell_length_a   12.16870000
_cell_length_b   13.94300000
_cell_length_c   18.25010000
_cell_angle_alpha   90.00000000
_cell_angle_beta   90.00000000
_cell_angle_gamma   113.16900000
_symmetry_Int_Tables_number   1
_chemical_formula_structural   MnH8(C7O2)2
_chemical_formula_sum   'Mn6 H48 C84 O24'
_cell_volume   2846.72660467
_cell_formula_units_Z   6
loop_
 _symmetry_equiv_pos_site_id
 _symmetry_equiv_pos_as_xyz
  1  'x, y, z'
loop_
 _atom_site_type_symbol
 _atom_site_label
 _atom_site_symmetry_multiplicity
 _atom_site_fract_x
 _atom_site_fract_y
 _atom_site_fract_z
 _atom_site_occupancy
 _atom_site_charge
  Mn  Mn1  1  0.326870  0.582370  0.519380  1.0  1.1444
  Mn  Mn2  1  0.173130  0.417630  0.019380  1.0  1.1449
  Mn  Mn3  1  0.673130  0.417630  0.480620  1.0  1.1445
  Mn  Mn4  1  0.826870  0.582370  0.980620  1.0  1.144
  Mn  Mn5  1  0.000000  0.500000  0.500000  1.0  1.2274
  Mn  Mn6  1  0.500000  0.500000  0.000000  1.0  1.2274
  H  H7  1  0.346100  0.792000  0.701600  1.0  0.1056
  H  H8  1  0.366100  0.937000  0.772000  1.0  0.0945
  H  H9  1  0.054800  0.931500  0.690000  1.0  0.0988
  H  H10  1  0.031200  0.783100  0.622500  1.0  0.0848
  H  H11  1  0.060200  0.014400  0.806300  1.0  0.1052
  H  H12  1  0.093900  0.167600  0.870700  1.0  0.1065
  H  H13  1  0.445400  0.275300  0.821000  1.0  0.1106
  H  H14  1  0.413400  0.121200  0.758200  1.0  0.0992
  H  H15  1  0.249500  0.247400  0.416600  1.0  0.1089
  H  H16  1  0.157300  0.066600  0.422900  1.0  0.108
  H  H17  1  0.912700  0.089700  0.563900  1.0  0.1068
  H  H18  1  0.999800  0.270400  0.553600  1.0  0.093
  H  H19  1  0.153900  0.208000  0.201600  1.0  0.1062
  H  H20  1  0.133900  0.063000  0.272000  1.0  0.0948
  H  H21  1  0.445200  0.068500  0.190000  1.0  0.0984
  H  H22  1  0.468800  0.216900  0.122500  1.0  0.0851
  H  H23  1  0.439800  0.985600  0.306300  1.0  0.105
  H  H24  1  0.406100  0.832400  0.370700  1.0  0.1063
  H  H25  1  0.054600  0.724700  0.321000  1.0  0.1105
  H  H26  1  0.086600  0.878800  0.258200  1.0  0.0989
  H  H27  1  0.250500  0.752600  0.916600  1.0  0.1082
  H  H28  1  0.342700  0.933400  0.922900  1.0  0.1075
  H  H29  1  0.587300  0.910300  0.063900  1.0  0.1072
  H  H30  1  0.500200  0.729600  0.053600  1.0  0.0932
  H  H31  1  0.653900  0.208000  0.298400  1.0  0.1062
  H  H32  1  0.633900  0.063000  0.228000  1.0  0.0943
  H  H33  1  0.945200  0.068500  0.310000  1.0  0.0985
  H  H34  1  0.968800  0.216900  0.377500  1.0  0.0847
  H  H35  1  0.939800  0.985600  0.193700  1.0  0.1053
  H  H36  1  0.906100  0.832400  0.129300  1.0  0.1059
  H  H37  1  0.554600  0.724700  0.179000  1.0  0.1106
  H  H38  1  0.586600  0.878800  0.241800  1.0  0.0992
  H  H39  1  0.750500  0.752600  0.583400  1.0  0.1086
  H  H40  1  0.842700  0.933400  0.577100  1.0  0.1081
  H  H41  1  0.087300  0.910300  0.436100  1.0  0.1073
  H  H42  1  0.000200  0.729600  0.446400  1.0  0.0929
  H  H43  1  0.846100  0.792000  0.798400  1.0  0.106
  H  H44  1  0.866100  0.937000  0.728000  1.0  0.0938
  H  H45  1  0.554800  0.931500  0.810000  1.0  0.0987
  H  H46  1  0.531200  0.783100  0.877500  1.0  0.0846
  H  H47  1  0.560200  0.014400  0.693700  1.0  0.1051
  H  H48  1  0.593900  0.167600  0.629300  1.0  0.1063
  H  H49  1  0.945400  0.275300  0.679000  1.0  0.1106
  H  H50  1  0.913400  0.121200  0.741800  1.0  0.0997
  H  H51  1  0.749500  0.247400  0.083400  1.0  0.1085
  H  H52  1  0.657300  0.066600  0.077100  1.0  0.1079
  H  H53  1  0.412700  0.089700  0.936100  1.0  0.1063
  H  H54  1  0.499800  0.270400  0.946400  1.0  0.0929
  C  C55  1  0.187650  0.773970  0.653570  1.0  -0.1504
  C  C56  1  0.286750  0.820230  0.699040  1.0  -0.0415
  C  C57  1  0.299000  0.907200  0.740580  1.0  -0.1465
  C  C58  1  0.214500  0.951650  0.737020  1.0  0.0481
  C  C59  1  0.114380  0.903510  0.692460  1.0  -0.1402
  C  C60  1  0.100630  0.815420  0.651820  1.0  -0.0232
  C  C61  1  0.233810  0.050180  0.776790  1.0  0.058
  C  C62  1  0.139010  0.066410  0.809910  1.0  -0.1512
  C  C63  1  0.159200  0.158020  0.848130  1.0  -0.034
  C  C64  1  0.273060  0.235700  0.853920  1.0  -0.1546
  C  C65  1  0.367330  0.221720  0.819010  1.0  -0.0337
  C  C66  1  0.347990  0.129960  0.781300  1.0  -0.1441
  C  C67  1  0.177420  0.682250  0.605500  1.0  0.7374
  C  C68  1  0.294650  0.330800  0.901360  1.0  0.7327
  C  C69  1  0.134490  0.276990  0.485390  1.0  -0.1281
  C  C70  1  0.180680  0.215490  0.446460  1.0  -0.0377
  C  C71  1  0.126440  0.107650  0.451140  1.0  -0.1279
  C  C72  1  0.027790  0.057980  0.496200  1.0  0.0539
  C  C73  1  0.981280  0.121230  0.533840  1.0  -0.1282
  C  C74  1  0.033520  0.229090  0.528070  1.0  -0.0219
  C  C75  1  0.196690  0.392920  0.485260  1.0  0.6856
  C  C76  1  0.312350  0.226030  0.153570  1.0  -0.1513
  C  C77  1  0.213250  0.179770  0.199040  1.0  -0.0405
  C  C78  1  0.201000  0.092800  0.240580  1.0  -0.1464
  C  C79  1  0.285500  0.048350  0.237020  1.0  0.0481
  C  C80  1  0.385620  0.096490  0.192460  1.0  -0.141
  C  C81  1  0.399370  0.184580  0.151820  1.0  -0.0236
  C  C82  1  0.266190  0.949820  0.276790  1.0  0.0594
  C  C83  1  0.360990  0.933590  0.309910  1.0  -0.1509
  C  C84  1  0.340800  0.841980  0.348130  1.0  -0.0321
  C  C85  1  0.226940  0.764300  0.353920  1.0  -0.1555
  C  C86  1  0.132670  0.778280  0.319010  1.0  -0.0372
  C  C87  1  0.152010  0.870040  0.281300  1.0  -0.1444
  C  C88  1  0.322580  0.317750  0.105500  1.0  0.7385
  C  C89  1  0.205350  0.669200  0.401360  1.0  0.7326
  C  C90  1  0.365510  0.723010  0.985390  1.0  -0.1262
  C  C91  1  0.319320  0.784510  0.946460  1.0  -0.0393
  C  C92  1  0.373560  0.892350  0.951140  1.0  -0.1256
  C  C93  1  0.472210  0.942020  0.996200  1.0  0.0534
  C  C94  1  0.518720  0.878770  0.033840  1.0  -0.1289
  C  C95  1  0.466480  0.770910  0.028070  1.0  -0.0233
  C  C96  1  0.303310  0.607080  0.985260  1.0  0.686
  C  C97  1  0.812350  0.226030  0.346430  1.0  -0.1511
  C  C98  1  0.713250  0.179770  0.300960  1.0  -0.0403
  C  C99  1  0.701000  0.092800  0.259420  1.0  -0.1465
  C  C100  1  0.785500  0.048350  0.262980  1.0  0.0481
  C  C101  1  0.885620  0.096490  0.307540  1.0  -0.141
  C  C102  1  0.899370  0.184580  0.348180  1.0  -0.024
  C  C103  1  0.766190  0.949820  0.223210  1.0  0.0592
  C  C104  1  0.860990  0.933590  0.190090  1.0  -0.1506
  C  C105  1  0.840800  0.841980  0.151870  1.0  -0.0328
  C  C106  1  0.726940  0.764300  0.146080  1.0  -0.1549
  C  C107  1  0.632670  0.778280  0.180990  1.0  -0.0348
  C  C108  1  0.652010  0.870040  0.218700  1.0  -0.1438
  C  C109  1  0.822580  0.317750  0.394500  1.0  0.7383
  C  C110  1  0.705350  0.669200  0.098640  1.0  0.7237
  C  C111  1  0.865510  0.723010  0.514610  1.0  -0.1263
  C  C112  1  0.819320  0.784510  0.553540  1.0  -0.0393
  C  C113  1  0.873560  0.892350  0.548860  1.0  -0.1252
  C  C114  1  0.972210  0.942020  0.503800  1.0  0.0535
  C  C115  1  0.018720  0.878770  0.466160  1.0  -0.1245
  C  C116  1  0.966480  0.770910  0.471930  1.0  -0.0229
  C  C117  1  0.803310  0.607080  0.514740  1.0  0.6858
  C  C118  1  0.687650  0.773970  0.846430  1.0  -0.1506
  C  C119  1  0.786750  0.820230  0.800960  1.0  -0.0413
  C  C120  1  0.799000  0.907200  0.759420  1.0  -0.1464
  C  C121  1  0.714500  0.951650  0.762980  1.0  0.048
  C  C122  1  0.614380  0.903510  0.807540  1.0  -0.1402
  C  C123  1  0.600630  0.815420  0.848180  1.0  -0.0235
  C  C124  1  0.733810  0.050180  0.723210  1.0  0.058
  C  C125  1  0.639010  0.066410  0.690090  1.0  -0.1507
  C  C126  1  0.659200  0.158020  0.651870  1.0  -0.0338
  C  C127  1  0.773060  0.235700  0.646080  1.0  -0.1544
  C  C128  1  0.867330  0.221720  0.680990  1.0  -0.0336
  C  C129  1  0.847990  0.129960  0.718700  1.0  -0.1431
  C  C130  1  0.677420  0.682250  0.894500  1.0  0.7382
  C  C131  1  0.794650  0.330800  0.598640  1.0  0.7249
  C  C132  1  0.634490  0.276990  0.014610  1.0  -0.1282
  C  C133  1  0.680680  0.215490  0.053540  1.0  -0.0367
  C  C134  1  0.626440  0.107650  0.048860  1.0  -0.1273
  C  C135  1  0.527790  0.057980  0.003800  1.0  0.0539
  C  C136  1  0.481280  0.121230  0.966160  1.0  -0.1232
  C  C137  1  0.533520  0.229090  0.971930  1.0  -0.0217
  C  C138  1  0.696690  0.392920  0.014740  1.0  0.6855
  O  O139  1  0.273410  0.670260  0.594990  1.0  -0.6672
  O  O140  1  0.076850  0.627020  0.580070  1.0  -0.6239
  O  O141  1  0.202680  0.339940  0.925830  1.0  -0.6546
  O  O142  1  0.400990  0.391080  0.913000  1.0  -0.6224
  O  O143  1  0.299990  0.434720  0.459860  1.0  -0.5991
  O  O144  1  0.144930  0.446820  0.515540  1.0  -0.6639
  O  O145  1  0.226590  0.329740  0.094990  1.0  -0.6689
  O  O146  1  0.423150  0.372980  0.080070  1.0  -0.6226
  O  O147  1  0.297320  0.660060  0.425830  1.0  -0.6551
  O  O148  1  0.099010  0.608920  0.413000  1.0  -0.6229
  O  O149  1  0.200010  0.565280  0.959860  1.0  -0.5987
  O  O150  1  0.355070  0.553180  0.015540  1.0  -0.663
  O  O151  1  0.726590  0.329740  0.405010  1.0  -0.6696
  O  O152  1  0.923150  0.372980  0.419930  1.0  -0.6228
  O  O153  1  0.797320  0.660060  0.074170  1.0  -0.6542
  O  O154  1  0.599010  0.608920  0.087000  1.0  -0.6224
  O  O155  1  0.700010  0.565280  0.540140  1.0  -0.5985
  O  O156  1  0.855070  0.553180  0.484460  1.0  -0.6635
  O  O157  1  0.773410  0.670260  0.905010  1.0  -0.6681
  O  O158  1  0.576850  0.627020  0.919930  1.0  -0.6253
  O  O159  1  0.702680  0.339940  0.574170  1.0  -0.6543
  O  O160  1  0.900990  0.391080  0.587000  1.0  -0.6232
  O  O161  1  0.799990  0.434720  0.040140  1.0  -0.5995
  O  O162  1  0.644930  0.446820  0.984460  1.0  -0.6625
