# generated using pymatgen
data_MnH8(C7O2)2
_symmetry_space_group_name_H-M   'P 1'
_cell_length_a   12.35100000
_cell_length_b   13.95800000
_cell_length_c   18.50700000
_cell_angle_alpha   90.00000000
_cell_angle_beta   90.00000000
_cell_angle_gamma   113.79000000
_symmetry_Int_Tables_number   1
_chemical_formula_structural   MnH8(C7O2)2
_chemical_formula_sum   'Mn6 H48 C84 O24'
_cell_volume   2919.42091092
_cell_formula_units_Z   6
loop_
 _symmetry_equiv_pos_site_id
 _symmetry_equiv_pos_as_xyz
  1  'x, y, z'
loop_
 _atom_site_type_symbol
 _atom_site_label
 _atom_site_symmetry_multiplicity
 _atom_site_fract_x
 _atom_site_fract_y
 _atom_site_fract_z
 _atom_site_occupancy
 _atom_site_charge
  Mn  Mn1  1  0.677210  0.915080  0.480990  1.0  1.1426
  Mn  Mn2  1  0.822790  0.084920  0.980990  1.0  1.1431
  Mn  Mn3  1  0.322790  0.084920  0.519010  1.0  1.1438
  Mn  Mn4  1  0.177210  0.915080  0.019010  1.0  1.1428
  Mn  Mn5  1  0.000000  0.000000  0.500000  1.0  1.2225
  Mn  Mn6  1  0.500000  0.000000  0.000000  1.0  1.2225
  H  H7  1  0.598200  0.662100  0.627700  1.0  0.1067
  H  H8  1  0.565100  0.512300  0.693300  1.0  0.0968
  H  H9  1  0.909400  0.619900  0.739300  1.0  0.1007
  H  H10  1  0.943100  0.772400  0.676700  1.0  0.1137
  H  H11  1  0.862900  0.435200  0.729700  1.0  0.0937
  H  H12  1  0.843100  0.293500  0.801200  1.0  0.1032
  H  H13  1  0.535300  0.284600  0.876700  1.0  0.0819
  H  H14  1  0.557800  0.428600  0.808100  1.0  0.0983
  H  H15  1  0.998500  0.230900  0.448100  1.0  0.0858
  H  H16  1  0.085200  0.410700  0.438300  1.0  0.1009
  H  H17  1  0.846900  0.431300  0.576300  1.0  0.1051
  H  H18  1  0.755600  0.251200  0.582800  1.0  0.1111
  H  H19  1  0.901800  0.337900  0.127700  1.0  0.1062
  H  H20  1  0.934900  0.487700  0.193300  1.0  0.0969
  H  H21  1  0.590600  0.380100  0.239300  1.0  0.1005
  H  H22  1  0.556900  0.227600  0.176700  1.0  0.1141
  H  H23  1  0.637100  0.564800  0.229700  1.0  0.0933
  H  H24  1  0.656900  0.706500  0.301200  1.0  0.1033
  H  H25  1  0.964700  0.715400  0.376700  1.0  0.082
  H  H26  1  0.942200  0.571400  0.308100  1.0  0.0988
  H  H27  1  0.501500  0.769100  0.948100  1.0  0.086
  H  H28  1  0.414800  0.589300  0.938300  1.0  0.1007
  H  H29  1  0.653100  0.568700  0.076300  1.0  0.1053
  H  H30  1  0.744400  0.748800  0.082800  1.0  0.1114
  H  H31  1  0.401800  0.337900  0.372300  1.0  0.1066
  H  H32  1  0.434900  0.487700  0.306700  1.0  0.0969
  H  H33  1  0.090600  0.380100  0.260700  1.0  0.1005
  H  H34  1  0.056900  0.227600  0.323300  1.0  0.1138
  H  H35  1  0.137100  0.564800  0.270300  1.0  0.0935
  H  H36  1  0.156900  0.706500  0.198800  1.0  0.1031
  H  H37  1  0.464700  0.715400  0.123300  1.0  0.0823
  H  H38  1  0.442200  0.571400  0.191900  1.0  0.0987
  H  H39  1  0.001500  0.769100  0.551900  1.0  0.0861
  H  H40  1  0.914800  0.589300  0.561700  1.0  0.1014
  H  H41  1  0.153100  0.568700  0.423700  1.0  0.1058
  H  H42  1  0.244400  0.748800  0.417200  1.0  0.1117
  H  H43  1  0.098200  0.662100  0.872300  1.0  0.107
  H  H44  1  0.065100  0.512300  0.806700  1.0  0.0971
  H  H45  1  0.409400  0.619900  0.760700  1.0  0.1008
  H  H46  1  0.443100  0.772400  0.823300  1.0  0.1135
  H  H47  1  0.362900  0.435200  0.770300  1.0  0.0939
  H  H48  1  0.343100  0.293500  0.698800  1.0  0.1029
  H  H49  1  0.035300  0.284600  0.623300  1.0  0.0822
  H  H50  1  0.057800  0.428600  0.691900  1.0  0.0984
  H  H51  1  0.498500  0.230900  0.051900  1.0  0.0863
  H  H52  1  0.585200  0.410700  0.061700  1.0  0.1014
  H  H53  1  0.346900  0.431300  0.923700  1.0  0.1056
  H  H54  1  0.255600  0.251200  0.917200  1.0  0.1107
  C  C55  1  0.774100  0.732600  0.643900  1.0  -0.1551
  C  C56  1  0.661500  0.654100  0.650000  1.0  -0.0423
  C  C57  1  0.641700  0.563400  0.689100  1.0  -0.1355
  C  C58  1  0.734600  0.548000  0.722000  1.0  0.0472
  C  C59  1  0.846200  0.627800  0.716700  1.0  -0.1343
  C  C60  1  0.867100  0.719800  0.678700  1.0  -0.0409
  C  C61  1  0.714400  0.450100  0.762800  1.0  0.0608
  C  C62  1  0.797900  0.406300  0.760200  1.0  -0.1453
  C  C63  1  0.785300  0.320300  0.802500  1.0  -0.0417
  C  C64  1  0.686400  0.273700  0.847100  1.0  -0.1545
  C  C65  1  0.602200  0.315300  0.847900  1.0  -0.0235
  C  C66  1  0.615800  0.402000  0.806500  1.0  -0.1344
  C  C67  1  0.795700  0.827300  0.596400  1.0  0.7378
  C  C68  1  0.675200  0.182400  0.895500  1.0  0.7389
  C  C69  1  0.867300  0.222600  0.515300  1.0  -0.1421
  C  C70  1  0.966300  0.271100  0.473000  1.0  -0.0103
  C  C71  1  0.018500  0.379200  0.467100  1.0  -0.1246
  C  C72  1  0.972200  0.441500  0.504000  1.0  0.0495
  C  C73  1  0.876100  0.391300  0.548800  1.0  -0.1257
  C  C74  1  0.822000  0.283000  0.553700  1.0  -0.0418
  C  C75  1  0.806000  0.106100  0.516000  1.0  0.6844
  C  C76  1  0.725900  0.267400  0.143900  1.0  -0.1547
  C  C77  1  0.838500  0.345900  0.150000  1.0  -0.0398
  C  C78  1  0.858300  0.436600  0.189100  1.0  -0.1353
  C  C79  1  0.765400  0.452000  0.222000  1.0  0.0482
  C  C80  1  0.653800  0.372200  0.216700  1.0  -0.137
  C  C81  1  0.632900  0.280200  0.178700  1.0  -0.0431
  C  C82  1  0.785600  0.549900  0.262800  1.0  0.0612
  C  C83  1  0.702100  0.593700  0.260200  1.0  -0.1449
  C  C84  1  0.714700  0.679700  0.302500  1.0  -0.0438
  C  C85  1  0.813600  0.726300  0.347100  1.0  -0.1546
  C  C86  1  0.897800  0.684700  0.347900  1.0  -0.0232
  C  C87  1  0.884200  0.598000  0.306500  1.0  -0.1347
  C  C88  1  0.704300  0.172700  0.096400  1.0  0.7368
  C  C89  1  0.824800  0.817600  0.395500  1.0  0.7388
  C  C90  1  0.632700  0.777400  0.015300  1.0  -0.1431
  C  C91  1  0.533700  0.728900  0.973000  1.0  -0.0088
  C  C92  1  0.481500  0.620800  0.967100  1.0  -0.1237
  C  C93  1  0.527800  0.558500  0.004000  1.0  0.0503
  C  C94  1  0.623900  0.608700  0.048800  1.0  -0.1265
  C  C95  1  0.678000  0.717000  0.053700  1.0  -0.0387
  C  C96  1  0.694000  0.893900  0.016000  1.0  0.6851
  C  C97  1  0.225900  0.267400  0.356100  1.0  -0.154
  C  C98  1  0.338500  0.345900  0.350000  1.0  -0.0402
  C  C99  1  0.358300  0.436600  0.310900  1.0  -0.1353
  C  C100  1  0.265400  0.452000  0.278000  1.0  0.0487
  C  C101  1  0.153800  0.372200  0.283300  1.0  -0.1381
  C  C102  1  0.132900  0.280200  0.321300  1.0  -0.0493
  C  C103  1  0.285600  0.549900  0.237200  1.0  0.0613
  C  C104  1  0.202100  0.593700  0.239800  1.0  -0.1447
  C  C105  1  0.214700  0.679700  0.197500  1.0  -0.044
  C  C106  1  0.313600  0.726300  0.152900  1.0  -0.1541
  C  C107  1  0.397800  0.684700  0.152100  1.0  -0.0232
  C  C108  1  0.384200  0.598000  0.193500  1.0  -0.135
  C  C109  1  0.204300  0.172700  0.403600  1.0  0.731
  C  C110  1  0.324800  0.817600  0.104500  1.0  0.7387
  C  C111  1  0.132700  0.777400  0.484700  1.0  -0.1429
  C  C112  1  0.033700  0.728900  0.527000  1.0  -0.0085
  C  C113  1  0.981500  0.620800  0.532900  1.0  -0.1242
  C  C114  1  0.027800  0.558500  0.496000  1.0  0.0505
  C  C115  1  0.123900  0.608700  0.451200  1.0  -0.1211
  C  C116  1  0.178000  0.717000  0.446300  1.0  -0.04
  C  C117  1  0.194000  0.893900  0.484000  1.0  0.6853
  C  C118  1  0.274100  0.732600  0.856100  1.0  -0.154
  C  C119  1  0.161500  0.654100  0.850000  1.0  -0.0426
  C  C120  1  0.141700  0.563400  0.810900  1.0  -0.1358
  C  C121  1  0.234600  0.548000  0.778000  1.0  0.0478
  C  C122  1  0.346200  0.627800  0.783300  1.0  -0.1366
  C  C123  1  0.367100  0.719800  0.821300  1.0  -0.043
  C  C124  1  0.214400  0.450100  0.737200  1.0  0.061
  C  C125  1  0.297900  0.406300  0.739800  1.0  -0.1453
  C  C126  1  0.285300  0.320300  0.697500  1.0  -0.0417
  C  C127  1  0.186400  0.273700  0.652900  1.0  -0.154
  C  C128  1  0.102200  0.315300  0.652100  1.0  -0.0237
  C  C129  1  0.115800  0.402000  0.693500  1.0  -0.1346
  C  C130  1  0.295700  0.827300  0.903600  1.0  0.731
  C  C131  1  0.175200  0.182400  0.604500  1.0  0.7381
  C  C132  1  0.367300  0.222600  0.984700  1.0  -0.1419
  C  C133  1  0.466300  0.271100  0.027000  1.0  -0.0103
  C  C134  1  0.518500  0.379200  0.032900  1.0  -0.125
  C  C135  1  0.472200  0.441500  0.996000  1.0  0.0496
  C  C136  1  0.376100  0.391300  0.951200  1.0  -0.1196
  C  C137  1  0.322000  0.283000  0.946300  1.0  -0.0434
  C  C138  1  0.306000  0.106100  0.984000  1.0  0.6847
  O  O139  1  0.901000  0.888700  0.585100  1.0  -0.6262
  O  O140  1  0.705500  0.835900  0.572500  1.0  -0.6502
  O  O141  1  0.770700  0.171900  0.906200  1.0  -0.6694
  O  O142  1  0.576500  0.126900  0.920400  1.0  -0.6102
  O  O143  1  0.856300  0.052100  0.485900  1.0  -0.6608
  O  O144  1  0.703100  0.062400  0.540900  1.0  -0.6011
  O  O145  1  0.599000  0.111300  0.085100  1.0  -0.6268
  O  O146  1  0.794500  0.164100  0.072500  1.0  -0.6498
  O  O147  1  0.729300  0.828100  0.406200  1.0  -0.6707
  O  O148  1  0.923500  0.873100  0.420400  1.0  -0.6086
  O  O149  1  0.643700  0.947900  0.985900  1.0  -0.6599
  O  O150  1  0.796900  0.937600  0.040900  1.0  -0.6013
  O  O151  1  0.099000  0.111300  0.414900  1.0  -0.6274
  O  O152  1  0.294500  0.164100  0.427500  1.0  -0.6501
  O  O153  1  0.229300  0.828100  0.093800  1.0  -0.6702
  O  O154  1  0.423500  0.873100  0.079600  1.0  -0.6086
  O  O155  1  0.143700  0.947900  0.514100  1.0  -0.6616
  O  O156  1  0.296900  0.937600  0.459100  1.0  -0.6008
  O  O157  1  0.401000  0.888700  0.914900  1.0  -0.6264
  O  O158  1  0.205500  0.835900  0.927500  1.0  -0.6504
  O  O159  1  0.270700  0.171900  0.593800  1.0  -0.6686
  O  O160  1  0.076500  0.126900  0.579600  1.0  -0.6096
  O  O161  1  0.356300  0.052100  0.014100  1.0  -0.6608
  O  O162  1  0.203100  0.062400  0.959100  1.0  -0.6013
