# generated using pymatgen
data_Cd3P2H40C32N14(Cl3O2)2
_symmetry_space_group_name_H-M   'P 1'
_cell_length_a   14.19600000
_cell_length_b   15.36700000
_cell_length_c   16.61500000
_cell_angle_alpha   76.16700000
_cell_angle_beta   87.91900000
_cell_angle_gamma   64.59500000
_symmetry_Int_Tables_number   1
_chemical_formula_structural   Cd3P2H40C32N14(Cl3O2)2
_chemical_formula_sum   'Cd6 P4 H80 C64 N28 Cl12 O8'
_cell_volume   3170.01492323
_cell_formula_units_Z   2
loop_
 _symmetry_equiv_pos_site_id
 _symmetry_equiv_pos_as_xyz
  1  'x, y, z'
loop_
 _atom_site_type_symbol
 _atom_site_label
 _atom_site_symmetry_multiplicity
 _atom_site_fract_x
 _atom_site_fract_y
 _atom_site_fract_z
 _atom_site_occupancy
 _atom_site_charge
  Cd  Cd1  1  0.499660  0.440440  0.321590  1.0  0.8169
  Cd  Cd2  1  0.654460  0.437140  0.509470  1.0  0.8611
  Cd  Cd3  1  0.456860  0.568660  0.087980  1.0  0.8088
  Cd  Cd4  1  0.500340  0.559560  0.678410  1.0  0.8153
  Cd  Cd5  1  0.345540  0.562860  0.490530  1.0  0.86
  Cd  Cd6  1  0.543140  0.431340  0.912020  1.0  0.8073
  P  P7  1  0.447000  0.026480  0.199210  1.0  1.4581
  P  P8  1  0.014300  0.995490  0.828970  1.0  1.4665
  P  P9  1  0.553000  0.973520  0.800790  1.0  1.4567
  P  P10  1  0.985700  0.004510  0.171030  1.0  1.4674
  H  H11  1  0.153900  0.169500  0.166300  1.0  0.1191
  H  H12  1  0.055100  0.179800  0.215900  1.0  0.1039
  H  H13  1  0.109300  0.249100  0.218600  1.0  0.1204
  H  H14  1  0.155500  0.132700  0.406700  1.0  0.1195
  H  H15  1  0.072500  0.111000  0.366100  1.0  0.1158
  H  H16  1  0.180900  0.023700  0.404000  1.0  0.1068
  H  H17  1  0.492100  0.798700  0.529200  1.0  0.1061
  H  H18  1  0.454900  0.911300  0.526700  1.0  0.1051
  H  H19  1  0.384300  0.878300  0.482900  1.0  0.1063
  H  H20  1  0.653700  0.830100  0.466200  1.0  0.1093
  H  H21  1  0.634600  0.747900  0.438700  1.0  0.104
  H  H22  1  0.648400  0.831900  0.371700  1.0  0.1133
  H  H23  1  0.473900  0.824300  0.243900  1.0  0.1328
  H  H24  1  0.474300  0.681200  0.223800  1.0  0.0637
  H  H25  1  0.454900  0.777200  0.984900  1.0  0.071
  H  H26  1  0.457900  0.922000  0.995900  1.0  0.1301
  H  H27  1  0.335700  0.248600  0.199400  1.0  0.1468
  H  H28  1  0.346700  0.363200  0.262400  1.0  0.0803
  H  H29  1  0.649800  0.238800  0.269000  1.0  0.0741
  H  H30  1  0.649300  0.122100  0.206100  1.0  0.1334
  H  H31  1  0.669100  0.230700  0.600100  1.0  0.0666
  H  H32  1  0.749500  0.092800  0.707500  1.0  0.1251
  H  H33  1  0.925000  0.215200  0.768600  1.0  0.1392
  H  H34  1  0.841500  0.347100  0.655700  1.0  0.0763
  H  H35  1  0.158000  0.756100  0.839400  1.0  0.1444
  H  H36  1  0.084000  0.872500  0.037800  1.0  0.1284
  H  H37  1  0.091100  0.988900  0.558800  1.0  0.1049
  H  H38  1  0.202200  0.898800  0.575100  1.0  0.1002
  H  H39  1  0.115800  0.899400  0.636700  1.0  0.1111
  H  H40  1  0.285700  0.039400  0.657100  1.0  0.1066
  H  H41  1  0.301100  0.986500  0.584600  1.0  0.0901
  H  H42  1  0.211900  0.094100  0.575200  1.0  0.1143
  H  H43  1  0.118200  0.084700  0.981300  1.0  0.1118
  H  H44  1  0.214600  0.106000  0.993400  1.0  0.1152
  H  H45  1  0.108500  0.193100  0.950600  1.0  0.1093
  H  H46  1  0.223500  0.211900  0.807600  1.0  0.0981
  H  H47  1  0.310600  0.137100  0.877900  1.0  0.107
  H  H48  1  0.297800  0.105300  0.797600  1.0  0.1129
  H  H49  1  0.241000  0.750800  0.104900  1.0  0.0646
  H  H50  1  0.315700  0.639800  0.911800  1.0  0.0639
  H  H51  1  0.846100  0.830500  0.833700  1.0  0.1191
  H  H52  1  0.944900  0.820200  0.784100  1.0  0.1015
  H  H53  1  0.890700  0.750900  0.781400  1.0  0.1113
  H  H54  1  0.844500  0.867300  0.593300  1.0  0.1192
  H  H55  1  0.927500  0.889000  0.633900  1.0  0.1127
  H  H56  1  0.819100  0.976300  0.596000  1.0  0.1064
  H  H57  1  0.507900  0.201300  0.470800  1.0  0.1083
  H  H58  1  0.545100  0.088700  0.473300  1.0  0.1003
  H  H59  1  0.615700  0.121700  0.517100  1.0  0.1079
  H  H60  1  0.346300  0.169900  0.533800  1.0  0.108
  H  H61  1  0.365400  0.252100  0.561300  1.0  0.1057
  H  H62  1  0.351600  0.168100  0.628300  1.0  0.1128
  H  H63  1  0.526100  0.175700  0.756100  1.0  0.1331
  H  H64  1  0.525700  0.318800  0.776200  1.0  0.0631
  H  H65  1  0.545100  0.222800  0.015100  1.0  0.0714
  H  H66  1  0.542100  0.078000  0.004100  1.0  0.1302
  H  H67  1  0.664300  0.751400  0.800600  1.0  0.1444
  H  H68  1  0.653300  0.636800  0.737600  1.0  0.0803
  H  H69  1  0.350200  0.761200  0.731000  1.0  0.0737
  H  H70  1  0.350700  0.877900  0.793900  1.0  0.1323
  H  H71  1  0.330900  0.769300  0.399900  1.0  0.0671
  H  H72  1  0.250500  0.907200  0.292500  1.0  0.1245
  H  H73  1  0.075000  0.784800  0.231400  1.0  0.1392
  H  H74  1  0.158500  0.652900  0.344300  1.0  0.0762
  H  H75  1  0.842000  0.243900  0.160600  1.0  0.1428
  H  H76  1  0.916000  0.127500  0.962200  1.0  0.1287
  H  H77  1  0.908900  0.011100  0.441200  1.0  0.1039
  H  H78  1  0.797800  0.101200  0.424900  1.0  0.1013
  H  H79  1  0.884200  0.100600  0.363300  1.0  0.1124
  H  H80  1  0.714300  0.960600  0.342900  1.0  0.1075
  H  H81  1  0.698900  0.013500  0.415400  1.0  0.0912
  H  H82  1  0.788100  0.905900  0.424800  1.0  0.1136
  H  H83  1  0.881800  0.915300  0.018700  1.0  0.1123
  H  H84  1  0.785400  0.894000  0.006600  1.0  0.1154
  H  H85  1  0.891500  0.806900  0.049400  1.0  0.1081
  H  H86  1  0.776500  0.788100  0.192400  1.0  0.0976
  H  H87  1  0.689400  0.862900  0.122100  1.0  0.1058
  H  H88  1  0.702200  0.894700  0.202400  1.0  0.1136
  H  H89  1  0.759000  0.249200  0.895100  1.0  0.0645
  H  H90  1  0.684300  0.360200  0.088200  1.0  0.0648
  C  C91  1  0.293500  0.058100  0.283500  1.0  0.6226
  C  C92  1  0.455200  0.947300  0.348300  1.0  0.596
  C  C93  1  0.120900  0.183600  0.216100  1.0  -0.1557
  C  C94  1  0.145800  0.092400  0.374700  1.0  -0.1626
  C  C95  1  0.455000  0.865600  0.496100  1.0  -0.1647
  C  C96  1  0.620900  0.816800  0.424100  1.0  -0.1621
  C  C97  1  0.466300  0.889200  0.121200  1.0  0.3597
  C  C98  1  0.470700  0.816200  0.190500  1.0  -0.2847
  C  C99  1  0.470100  0.731000  0.177400  1.0  0.1931
  C  C100  1  0.459300  0.786800  0.037600  1.0  0.1866
  C  C101  1  0.460700  0.874200  0.043400  1.0  -0.2614
  C  C102  1  0.491500  0.173200  0.198000  1.0  0.3427
  C  C103  1  0.400100  0.245300  0.213400  1.0  -0.2701
  C  C104  1  0.408000  0.313400  0.251000  1.0  0.1892
  C  C105  1  0.586100  0.240600  0.254900  1.0  0.189
  C  C106  1  0.586900  0.170400  0.217800  1.0  -0.2704
  C  C107  1  0.722400  0.227000  0.633600  1.0  0.2005
  C  C108  1  0.769500  0.144400  0.698500  1.0  -0.257
  C  C109  1  0.845900  0.139100  0.749600  1.0  0.3577
  C  C110  1  0.873900  0.215800  0.734700  1.0  -0.2846
  C  C111  1  0.822800  0.294700  0.666900  1.0  0.1917
  C  C112  1  0.107800  0.827500  0.931600  1.0  0.3309
  C  C113  1  0.174800  0.757000  0.892700  1.0  -0.2657
  C  C114  1  0.130300  0.826100  0.011200  1.0  -0.271
  C  C115  1  0.136600  0.006900  0.721300  1.0  0.6338
  C  C116  1  0.140800  0.066400  0.835600  1.0  0.6189
  C  C117  1  0.144000  0.939900  0.600900  1.0  -0.156
  C  C118  1  0.250500  0.030800  0.613400  1.0  -0.1706
  C  C119  1  0.154400  0.123900  0.957400  1.0  -0.1534
  C  C120  1  0.261200  0.143200  0.836500  1.0  -0.1696
  C  C121  1  0.224700  0.753100  0.050500  1.0  0.1851
  C  C122  1  0.268500  0.687400  0.937000  1.0  0.1775
  C  C123  1  0.706500  0.941900  0.716500  1.0  0.6211
  C  C124  1  0.544800  0.052700  0.651700  1.0  0.5917
  C  C125  1  0.879100  0.816400  0.783900  1.0  -0.1566
  C  C126  1  0.854200  0.907600  0.625300  1.0  -0.164
  C  C127  1  0.545000  0.134400  0.503900  1.0  -0.1642
  C  C128  1  0.379100  0.183200  0.575900  1.0  -0.161
  C  C129  1  0.533700  0.110800  0.878800  1.0  0.3595
  C  C130  1  0.529300  0.183800  0.809500  1.0  -0.283
  C  C131  1  0.529900  0.269000  0.822600  1.0  0.1909
  C  C132  1  0.540700  0.213200  0.962400  1.0  0.1876
  C  C133  1  0.539300  0.125800  0.956600  1.0  -0.2624
  C  C134  1  0.508500  0.826800  0.802000  1.0  0.3466
  C  C135  1  0.599900  0.754700  0.786600  1.0  -0.2709
  C  C136  1  0.592000  0.686600  0.749000  1.0  0.1896
  C  C137  1  0.413900  0.759400  0.745100  1.0  0.1879
  C  C138  1  0.413100  0.829600  0.782200  1.0  -0.2723
  C  C139  1  0.277600  0.773000  0.366400  1.0  0.1998
  C  C140  1  0.230500  0.855600  0.301500  1.0  -0.259
  C  C141  1  0.154100  0.860900  0.250400  1.0  0.3571
  C  C142  1  0.126100  0.784200  0.265300  1.0  -0.2853
  C  C143  1  0.177200  0.705300  0.333100  1.0  0.1914
  C  C144  1  0.892200  0.172500  0.068400  1.0  0.3291
  C  C145  1  0.825200  0.243000  0.107300  1.0  -0.2696
  C  C146  1  0.869700  0.173900  0.988800  1.0  -0.2694
  C  C147  1  0.863400  0.993100  0.278700  1.0  0.6342
  C  C148  1  0.859200  0.933600  0.164400  1.0  0.6199
  C  C149  1  0.856000  0.060100  0.399100  1.0  -0.1555
  C  C150  1  0.749500  0.969200  0.386600  1.0  -0.1707
  C  C151  1  0.845600  0.876100  0.042600  1.0  -0.1535
  C  C152  1  0.738800  0.856800  0.163500  1.0  -0.1723
  C  C153  1  0.775300  0.246900  0.949500  1.0  0.1832
  C  C154  1  0.731500  0.312600  0.063000  1.0  0.1854
  N  N155  1  0.513500  0.955000  0.283800  1.0  -0.877
  N  N156  1  0.352900  0.996300  0.352300  1.0  -0.6809
  N  N157  1  0.326000  0.078200  0.206300  1.0  -0.8679
  N  N158  1  0.507600  0.878700  0.417700  1.0  -0.1273
  N  N159  1  0.191100  0.108000  0.291400  1.0  -0.1518
  N  N160  1  0.464000  0.715400  0.103100  1.0  -0.3461
  N  N161  1  0.499000  0.311500  0.271800  1.0  -0.3487
  N  N162  1  0.748900  0.300000  0.616900  1.0  -0.3619
  N  N163  1  0.062800  0.974200  0.744700  1.0  -0.8702
  N  N164  1  0.175300  0.050500  0.761800  1.0  -0.6526
  N  N165  1  0.066000  0.045100  0.875300  1.0  -0.871
  N  N166  1  0.178400  0.988900  0.649200  1.0  -0.114
  N  N167  1  0.187400  0.105600  0.876700  1.0  -0.1242
  N  N168  1  0.293900  0.685700  0.014400  1.0  -0.346
  N  N169  1  0.486500  0.045000  0.716200  1.0  -0.8773
  N  N170  1  0.647100  0.003700  0.647700  1.0  -0.6837
  N  N171  1  0.674000  0.921800  0.793700  1.0  -0.8684
  N  N172  1  0.492400  0.121300  0.582300  1.0  -0.1287
  N  N173  1  0.808900  0.892000  0.708600  1.0  -0.1523
  N  N174  1  0.536000  0.284600  0.896900  1.0  -0.3454
  N  N175  1  0.501000  0.688500  0.728200  1.0  -0.349
  N  N176  1  0.251100  0.700000  0.383100  1.0  -0.3593
  N  N177  1  0.937200  0.025800  0.255300  1.0  -0.8566
  N  N178  1  0.824700  0.949500  0.238200  1.0  -0.6767
  N  N179  1  0.934000  0.954900  0.124700  1.0  -0.871
  N  N180  1  0.821600  0.011100  0.350800  1.0  -0.1123
  N  N181  1  0.812600  0.894400  0.123300  1.0  -0.1255
  N  N182  1  0.706100  0.314300  0.985600  1.0  -0.3478
  Cl  Cl183  1  0.662540  0.315400  0.422520  1.0  -0.5129
  Cl  Cl184  1  0.509470  0.572360  0.396230  1.0  -0.4719
  Cl  Cl185  1  0.617180  0.469330  0.201130  1.0  -0.5424
  Cl  Cl186  1  0.345190  0.568780  0.216610  1.0  -0.5197
  Cl  Cl187  1  0.353940  0.428420  0.422290  1.0  -0.5118
  Cl  Cl188  1  0.556810  0.578510  0.953060  1.0  -0.5122
  Cl  Cl189  1  0.337460  0.684600  0.577480  1.0  -0.5121
  Cl  Cl190  1  0.490530  0.427640  0.603770  1.0  -0.4721
  Cl  Cl191  1  0.382820  0.530670  0.798870  1.0  -0.5425
  Cl  Cl192  1  0.654810  0.431220  0.783390  1.0  -0.52
  Cl  Cl193  1  0.646060  0.571580  0.577710  1.0  -0.512
  Cl  Cl194  1  0.443190  0.421490  0.046940  1.0  -0.5133
  O  O195  1  0.475000  0.975000  0.123200  1.0  -0.4433
  O  O196  1  0.492100  0.104100  0.156300  1.0  -0.4338
  O  O197  1  0.889900  0.056100  0.816200  1.0  -0.4305
  O  O198  1  0.011200  0.900000  0.890300  1.0  -0.4345
  O  O199  1  0.525000  0.025000  0.876800  1.0  -0.4439
  O  O200  1  0.507900  0.895900  0.843700  1.0  -0.4344
  O  O201  1  0.110100  0.943900  0.183800  1.0  -0.43
  O  O202  1  0.988800  0.100000  0.109700  1.0  -0.4359
