# generated using pymatgen
data_MnH8(C7O2)2
_symmetry_space_group_name_H-M   'P 1'
_cell_length_a   13.94440000
_cell_length_b   18.11870000
_cell_length_c   12.07580000
_cell_angle_alpha   90.00000000
_cell_angle_beta   112.89400000
_cell_angle_gamma   90.00000000
_symmetry_Int_Tables_number   1
_chemical_formula_structural   MnH8(C7O2)2
_chemical_formula_sum   'Mn6 H48 C84 O24'
_cell_volume   2810.66467332
_cell_formula_units_Z   6
loop_
 _symmetry_equiv_pos_site_id
 _symmetry_equiv_pos_as_xyz
  1  'x, y, z'
loop_
 _atom_site_type_symbol
 _atom_site_label
 _atom_site_symmetry_multiplicity
 _atom_site_fract_x
 _atom_site_fract_y
 _atom_site_fract_z
 _atom_site_occupancy
 _atom_site_charge
  Mn  Mn1  1  0.418650  0.519440  0.170750  1.0  1.125
  Mn  Mn2  1  0.581350  0.019440  0.329250  1.0  1.1283
  Mn  Mn3  1  0.581350  0.480560  0.829250  1.0  1.1282
  Mn  Mn4  1  0.418650  0.980560  0.670750  1.0  1.1263
  Mn  Mn5  1  0.500000  0.500000  0.500000  1.0  1.2273
  Mn  Mn6  1  0.500000  0.000000  0.000000  1.0  1.2273
  H  H7  1  0.216700  0.622900  0.468400  1.0  0.0823
  H  H8  1  0.068400  0.689300  0.445000  1.0  0.0975
  H  H9  1  0.062900  0.772100  0.133800  1.0  0.0971
  H  H10  1  0.206700  0.701700  0.152800  1.0  0.107
  H  H11  1  0.831300  0.870000  0.406900  1.0  0.1063
  H  H12  1  0.983000  0.805900  0.439300  1.0  0.1007
  H  H13  1  0.877900  0.757300  0.086800  1.0  0.0981
  H  H14  1  0.724200  0.818800  0.055700  1.0  0.1046
  H  H15  1  0.730500  0.554200  0.499700  1.0  0.0864
  H  H16  1  0.909400  0.564200  0.586500  1.0  0.106
  H  H17  1  0.933100  0.422900  0.342100  1.0  0.1178
  H  H18  1  0.753800  0.416600  0.250400  1.0  0.1113
  H  H19  1  0.783300  0.122900  0.031600  1.0  0.0825
  H  H20  1  0.931600  0.189300  0.055000  1.0  0.0973
  H  H21  1  0.937100  0.272100  0.366200  1.0  0.0971
  H  H22  1  0.793300  0.201700  0.347200  1.0  0.1073
  H  H23  1  0.168700  0.370000  0.093100  1.0  0.1062
  H  H24  1  0.017000  0.305900  0.060700  1.0  0.1006
  H  H25  1  0.122100  0.257300  0.413200  1.0  0.0981
  H  H26  1  0.275800  0.318800  0.444300  1.0  0.1048
  H  H27  1  0.269500  0.054200  0.000300  1.0  0.0865
  H  H28  1  0.090600  0.064200  0.913500  1.0  0.1059
  H  H29  1  0.066900  0.922900  0.157900  1.0  0.1167
  H  H30  1  0.246200  0.916600  0.249600  1.0  0.1119
  H  H31  1  0.783300  0.377100  0.531600  1.0  0.0822
  H  H32  1  0.931600  0.310700  0.555000  1.0  0.0972
  H  H33  1  0.937100  0.227900  0.866200  1.0  0.0973
  H  H34  1  0.793300  0.298300  0.847200  1.0  0.1072
  H  H35  1  0.168700  0.130000  0.593100  1.0  0.1061
  H  H36  1  0.017000  0.194100  0.560700  1.0  0.1007
  H  H37  1  0.122100  0.242700  0.913200  1.0  0.0981
  H  H38  1  0.275800  0.181200  0.944300  1.0  0.1045
  H  H39  1  0.269500  0.445800  0.500300  1.0  0.0862
  H  H40  1  0.090600  0.435800  0.413500  1.0  0.1052
  H  H41  1  0.066900  0.577100  0.657900  1.0  0.1174
  H  H42  1  0.246200  0.583400  0.749600  1.0  0.1116
  H  H43  1  0.216700  0.877100  0.968400  1.0  0.0823
  H  H44  1  0.068400  0.810700  0.945000  1.0  0.0972
  H  H45  1  0.062900  0.727900  0.633800  1.0  0.0972
  H  H46  1  0.206700  0.798300  0.652800  1.0  0.1071
  H  H47  1  0.831300  0.630000  0.906900  1.0  0.1061
  H  H48  1  0.983000  0.694100  0.939300  1.0  0.1013
  H  H49  1  0.877900  0.742700  0.586800  1.0  0.0981
  H  H50  1  0.724200  0.681200  0.555700  1.0  0.1046
  H  H51  1  0.730500  0.945800  0.999700  1.0  0.0864
  H  H52  1  0.909400  0.935800  0.086500  1.0  0.1061
  H  H53  1  0.933100  0.077100  0.842100  1.0  0.1182
  H  H54  1  0.753800  0.083400  0.750400  1.0  0.1118
  C  C55  1  0.317910  0.605650  0.321960  1.0  0.7218
  C  C56  1  0.226110  0.653610  0.311780  1.0  -0.1355
  C  C57  1  0.184740  0.651530  0.399910  1.0  -0.0258
  C  C58  1  0.095870  0.692000  0.386220  1.0  -0.104
  C  C59  1  0.047360  0.736720  0.285220  1.0  0.0547
  C  C60  1  0.092040  0.740940  0.199660  1.0  -0.1378
  C  C61  1  0.179310  0.699230  0.211680  1.0  -0.0444
  C  C62  1  0.667400  0.900050  0.206010  1.0  0.7455
  C  C63  1  0.762390  0.852850  0.227360  1.0  -0.1464
  C  C64  1  0.840560  0.847660  0.342540  1.0  -0.0356
  C  C65  1  0.932200  0.809360  0.361910  1.0  -0.1212
  C  C66  1  0.948820  0.775980  0.266130  1.0  0.0674
  C  C67  1  0.869030  0.780000  0.151270  1.0  -0.1228
  C  C68  1  0.776690  0.817410  0.132290  1.0  -0.0633
  C  C69  1  0.607700  0.485700  0.302100  1.0  0.661
  C  C70  1  0.723420  0.485830  0.364430  1.0  -0.1409
  C  C71  1  0.770980  0.528970  0.466500  1.0  -0.0423
  C  C72  1  0.878750  0.534530  0.519100  1.0  -0.1054
  C  C73  1  0.942290  0.496280  0.472560  1.0  0.0379
  C  C74  1  0.892800  0.450710  0.372550  1.0  -0.1064
  C  C75  1  0.784930  0.446110  0.317940  1.0  -0.0614
  C  C76  1  0.682090  0.105650  0.178040  1.0  0.7213
  C  C77  1  0.773890  0.153610  0.188220  1.0  -0.1342
  C  C78  1  0.815260  0.151530  0.100090  1.0  -0.0244
  C  C79  1  0.904130  0.192000  0.113780  1.0  -0.1041
  C  C80  1  0.952640  0.236720  0.214780  1.0  0.0544
  C  C81  1  0.907960  0.240940  0.300340  1.0  -0.1379
  C  C82  1  0.820690  0.199230  0.288320  1.0  -0.0429
  C  C83  1  0.332600  0.400050  0.293990  1.0  0.7463
  C  C84  1  0.237610  0.352850  0.272640  1.0  -0.1468
  C  C85  1  0.159440  0.347660  0.157460  1.0  -0.0358
  C  C86  1  0.067800  0.309360  0.138090  1.0  -0.1216
  C  C87  1  0.051180  0.275980  0.233870  1.0  0.0683
  C  C88  1  0.130970  0.280000  0.348730  1.0  -0.1225
  C  C89  1  0.223310  0.317410  0.367710  1.0  -0.062
  C  C90  1  0.392300  0.985700  0.197900  1.0  0.6636
  C  C91  1  0.276580  0.985830  0.135570  1.0  -0.1413
  C  C92  1  0.229020  0.028970  0.033500  1.0  -0.0425
  C  C93  1  0.121250  0.034530  0.980900  1.0  -0.1048
  C  C94  1  0.057710  0.996280  0.027440  1.0  0.0373
  C  C95  1  0.107200  0.950710  0.127450  1.0  -0.1067
  C  C96  1  0.215070  0.946110  0.182060  1.0  -0.0641
  C  C97  1  0.682090  0.394350  0.678040  1.0  0.7217
  C  C98  1  0.773890  0.346390  0.688220  1.0  -0.1347
  C  C99  1  0.815260  0.348470  0.600090  1.0  -0.0239
  C  C100  1  0.904130  0.308000  0.613780  1.0  -0.1042
  C  C101  1  0.952640  0.263280  0.714780  1.0  0.0545
  C  C102  1  0.907960  0.259060  0.800340  1.0  -0.1376
  C  C103  1  0.820690  0.300770  0.788320  1.0  -0.0427
  C  C104  1  0.332600  0.099950  0.793990  1.0  0.7245
  C  C105  1  0.237610  0.147150  0.772640  1.0  -0.1462
  C  C106  1  0.159440  0.152340  0.657460  1.0  -0.0354
  C  C107  1  0.067800  0.190640  0.638090  1.0  -0.122
  C  C108  1  0.051180  0.224020  0.733870  1.0  0.0684
  C  C109  1  0.130970  0.220000  0.848730  1.0  -0.1219
  C  C110  1  0.223310  0.182590  0.867710  1.0  -0.0602
  C  C111  1  0.392300  0.514300  0.697900  1.0  0.6634
  C  C112  1  0.276580  0.514170  0.635570  1.0  -0.1409
  C  C113  1  0.229020  0.471030  0.533500  1.0  -0.0437
  C  C114  1  0.121250  0.465470  0.480900  1.0  -0.1062
  C  C115  1  0.057710  0.503720  0.527440  1.0  0.0375
  C  C116  1  0.107200  0.549290  0.627450  1.0  -0.1007
  C  C117  1  0.215070  0.553890  0.682060  1.0  -0.0639
  C  C118  1  0.317910  0.894350  0.821960  1.0  0.7223
  C  C119  1  0.226110  0.846390  0.811780  1.0  -0.1353
  C  C120  1  0.184740  0.848470  0.899910  1.0  -0.0253
  C  C121  1  0.095870  0.808000  0.886220  1.0  -0.1041
  C  C122  1  0.047360  0.763280  0.785220  1.0  0.0549
  C  C123  1  0.092040  0.759060  0.699660  1.0  -0.138
  C  C124  1  0.179310  0.800770  0.711680  1.0  -0.0442
  C  C125  1  0.667400  0.599950  0.706010  1.0  0.7228
  C  C126  1  0.762390  0.647150  0.727360  1.0  -0.1452
  C  C127  1  0.840560  0.652340  0.842540  1.0  -0.0357
  C  C128  1  0.932200  0.690640  0.861910  1.0  -0.1214
  C  C129  1  0.948820  0.724020  0.766130  1.0  0.0673
  C  C130  1  0.869030  0.720000  0.651270  1.0  -0.1218
  C  C131  1  0.776690  0.682590  0.632290  1.0  -0.0625
  C  C132  1  0.607700  0.014300  0.802100  1.0  0.6612
  C  C133  1  0.723420  0.014170  0.864430  1.0  -0.1417
  C  C134  1  0.770980  0.971030  0.966500  1.0  -0.0429
  C  C135  1  0.878750  0.965470  0.019100  1.0  -0.1061
  C  C136  1  0.942290  0.003720  0.972560  1.0  0.0379
  C  C137  1  0.892800  0.049290  0.872550  1.0  -0.1011
  C  C138  1  0.784930  0.053890  0.817940  1.0  -0.0614
  O  O139  1  0.373050  0.580030  0.423530  1.0  -0.6206
  O  O140  1  0.330410  0.595420  0.225180  1.0  -0.6662
  O  O141  1  0.657710  0.924450  0.298880  1.0  -0.6538
  O  O142  1  0.607400  0.911900  0.098770  1.0  -0.6225
  O  O143  1  0.553300  0.516250  0.353940  1.0  -0.6743
  O  O144  1  0.566550  0.460240  0.197750  1.0  -0.6062
  O  O145  1  0.626950  0.080030  0.076470  1.0  -0.6204
  O  O146  1  0.669590  0.095420  0.274820  1.0  -0.6713
  O  O147  1  0.342290  0.424450  0.201120  1.0  -0.6511
  O  O148  1  0.392600  0.411900  0.401230  1.0  -0.6216
  O  O149  1  0.446700  0.016250  0.146060  1.0  -0.674
  O  O150  1  0.433450  0.960240  0.302250  1.0  -0.6078
  O  O151  1  0.626950  0.419970  0.576470  1.0  -0.6231
  O  O152  1  0.669590  0.404580  0.774820  1.0  -0.6718
  O  O153  1  0.342290  0.075550  0.701120  1.0  -0.6513
  O  O154  1  0.392600  0.088100  0.901230  1.0  -0.6217
  O  O155  1  0.446700  0.483750  0.646060  1.0  -0.6736
  O  O156  1  0.433450  0.539760  0.802250  1.0  -0.608
  O  O157  1  0.373050  0.919970  0.923530  1.0  -0.6219
  O  O158  1  0.330410  0.904580  0.725180  1.0  -0.665
  O  O159  1  0.657710  0.575550  0.798880  1.0  -0.6538
  O  O160  1  0.607400  0.588100  0.598770  1.0  -0.6221
  O  O161  1  0.553300  0.983750  0.853940  1.0  -0.6731
  O  O162  1  0.566550  0.039760  0.697750  1.0  -0.6075
