# generated using pymatgen
data_Eu5H64C16S12(NO6)8
_symmetry_space_group_name_H-M   'P 1'
_cell_length_a   10.13330000
_cell_length_b   18.69790000
_cell_length_c   20.49510000
_cell_angle_alpha   115.91200000
_cell_angle_beta   102.23100000
_cell_angle_gamma   94.44560000
_symmetry_Int_Tables_number   1
_chemical_formula_structural   Eu5H64C16S12(NO6)8
_chemical_formula_sum   'Eu10 H128 C32 S24 N16 O96'
_cell_volume   3349.04624023
_cell_formula_units_Z   2
loop_
 _symmetry_equiv_pos_site_id
 _symmetry_equiv_pos_as_xyz
  1  'x, y, z'
loop_
 _atom_site_type_symbol
 _atom_site_label
 _atom_site_symmetry_multiplicity
 _atom_site_fract_x
 _atom_site_fract_y
 _atom_site_fract_z
 _atom_site_occupancy
 _atom_site_charge
  Eu  Eu1  1  0.941100  0.950220  0.384800  1.0  2.1311
  Eu  Eu2  1  0.689110  0.667720  0.062340  1.0  2.1819
  Eu  Eu3  1  0.943700  0.434580  0.384800  1.0  2.1336
  Eu  Eu4  1  0.873230  0.394620  0.062340  1.0  2.1814
  Eu  Eu5  1  0.058900  0.049780  0.615200  1.0  2.1358
  Eu  Eu6  1  0.310890  0.332280  0.937660  1.0  2.1811
  Eu  Eu7  1  0.056300  0.565420  0.615200  1.0  2.1336
  Eu  Eu8  1  0.126770  0.605380  0.937660  1.0  2.1818
  Eu  Eu9  1  0.970320  0.220320  0.440640  1.0  2.1627
  Eu  Eu10  1  0.029680  0.779680  0.559360  1.0  2.164
  H  H11  1  0.630600  0.458000  0.898400  1.0  0.1643
  H  H12  1  0.620900  0.325700  0.858400  1.0  0.1201
  H  H13  1  0.536800  0.340200  0.793200  1.0  0.1153
  H  H14  1  0.685500  0.321900  0.794200  1.0  0.122
  H  H15  1  0.767800  0.440400  0.898400  1.0  0.1439
  H  H16  1  0.737500  0.532700  0.858400  1.0  0.1218
  H  H17  1  0.756400  0.453000  0.793200  1.0  0.1144
  H  H18  1  0.608700  0.472300  0.794200  1.0  0.1231
  H  H19  1  0.677700  0.548700  0.601000  1.0  0.2307
  H  H20  1  0.548300  0.492800  0.576000  1.0  0.2532
  H  H21  1  0.695300  0.477900  0.666000  1.0  0.1227
  H  H22  1  0.708200  0.570000  0.721000  1.0  0.1219
  H  H23  1  0.568700  0.509400  0.694000  1.0  0.1205
  H  H24  1  0.501500  0.613300  0.586000  1.0  0.1219
  H  H25  1  0.447900  0.595200  0.644600  1.0  0.1199
  H  H26  1  0.587400  0.655400  0.670800  1.0  0.1292
  H  H27  1  0.969700  0.217700  0.221200  1.0  0.18
  H  H28  1  0.039200  0.251100  0.183200  1.0  0.1717
  H  H29  1  0.186800  0.238100  0.268000  1.0  0.11
  H  H30  1  0.126400  0.144800  0.226600  1.0  0.116
  H  H31  1  0.202800  0.183600  0.187400  1.0  0.1012
  H  H32  1  0.851000  0.168200  0.105600  1.0  0.1026
  H  H33  1  0.978700  0.136200  0.079200  1.0  0.1117
  H  H34  1  0.905100  0.098800  0.120400  1.0  0.1187
  H  H35  1  0.996500  0.118900  0.846600  1.0  0.1233
  H  H36  1  0.962700  0.178000  0.912600  1.0  0.1373
  H  H37  1  0.903300  0.049100  0.900800  1.0  0.1207
  H  H38  1  0.771400  0.086800  0.893800  1.0  0.1165
  H  H39  1  0.803700  0.023300  0.821200  1.0  0.1199
  H  H40  1  0.907300  0.207800  0.820600  1.0  0.115
  H  H41  1  0.811500  0.122100  0.771600  1.0  0.1162
  H  H42  1  0.776400  0.186500  0.842800  1.0  0.1129
  H  H43  1  0.845700  0.651600  0.230200  1.0  0.2288
  H  H44  1  0.074300  0.672900  0.270800  1.0  0.1245
  H  H45  1  0.015500  0.731300  0.335000  1.0  0.1315
  H  H46  1  0.059000  0.653000  0.336000  1.0  0.1191
  H  H47  1  0.884500  0.578600  0.230200  1.0  0.2256
  H  H48  1  0.696500  0.597900  0.270800  1.0  0.1221
  H  H49  1  0.819500  0.603700  0.335000  1.0  0.1302
  H  H50  1  0.777000  0.683000  0.336000  1.0  0.1183
  H  H51  1  0.423300  0.052300  0.601000  1.0  0.218
  H  H52  1  0.527700  0.083200  0.576000  1.0  0.2535
  H  H53  1  0.470700  0.188100  0.666000  1.0  0.1209
  H  H54  1  0.512800  0.151000  0.721000  1.0  0.1231
  H  H55  1  0.625300  0.184600  0.694000  1.0  0.1211
  H  H56  1  0.584500  0.972700  0.586000  1.0  0.1243
  H  H57  1  0.696700  0.049400  0.644600  1.0  0.1237
  H  H58  1  0.583400  0.015400  0.670800  1.0  0.1249
  H  H59  1  0.751500  0.003500  0.221200  1.0  0.1574
  H  H60  1  0.644000  0.932100  0.183200  1.0  0.1749
  H  H61  1  0.581200  0.029900  0.268000  1.0  0.1069
  H  H62  1  0.600200  0.081800  0.226600  1.0  0.1177
  H  H63  1  0.484600  0.003800  0.187400  1.0  0.1039
  H  H64  1  0.754600  0.937400  0.105600  1.0  0.1018
  H  H65  1  0.600500  0.943000  0.079200  1.0  0.1114
  H  H66  1  0.715300  0.021600  0.120400  1.0  0.1178
  H  H67  1  0.350100  0.727700  0.846600  1.0  0.1299
  H  H68  1  0.449900  0.734600  0.912600  1.0  0.1377
  H  H69  1  0.497500  0.851700  0.900800  1.0  0.1235
  H  H70  1  0.622400  0.807000  0.893800  1.0  0.1191
  H  H71  1  0.517500  0.797900  0.821200  1.0  0.1199
  H  H72  1  0.413300  0.612800  0.820600  1.0  0.1161
  H  H73  1  0.460100  0.649500  0.771600  1.0  0.1174
  H  H74  1  0.566400  0.656300  0.842800  1.0  0.1168
  H  H75  1  0.369400  0.542000  0.101600  1.0  0.1654
  H  H76  1  0.379100  0.674300  0.141600  1.0  0.1198
  H  H77  1  0.463200  0.659800  0.206800  1.0  0.1157
  H  H78  1  0.314500  0.678100  0.205800  1.0  0.1215
  H  H79  1  0.232200  0.559600  0.101600  1.0  0.157
  H  H80  1  0.262500  0.467300  0.141600  1.0  0.1237
  H  H81  1  0.243600  0.547000  0.206800  1.0  0.1137
  H  H82  1  0.391300  0.527700  0.205800  1.0  0.125
  H  H83  1  0.322300  0.451300  0.399000  1.0  0.2299
  H  H84  1  0.451700  0.507200  0.424000  1.0  0.2515
  H  H85  1  0.304700  0.522100  0.334000  1.0  0.122
  H  H86  1  0.291800  0.430000  0.279000  1.0  0.1214
  H  H87  1  0.431300  0.490600  0.306000  1.0  0.1196
  H  H88  1  0.498500  0.386700  0.414000  1.0  0.1217
  H  H89  1  0.552100  0.404800  0.355400  1.0  0.1235
  H  H90  1  0.412600  0.344600  0.329200  1.0  0.1284
  H  H91  1  0.030300  0.782300  0.778800  1.0  0.1798
  H  H92  1  0.960800  0.748900  0.816800  1.0  0.1734
  H  H93  1  0.813200  0.761900  0.732000  1.0  0.1096
  H  H94  1  0.873600  0.855200  0.773400  1.0  0.1168
  H  H95  1  0.797200  0.816400  0.812600  1.0  0.1025
  H  H96  1  0.149000  0.831800  0.894400  1.0  0.1062
  H  H97  1  0.021300  0.863800  0.920800  1.0  0.1135
  H  H98  1  0.094900  0.901200  0.879600  1.0  0.1179
  H  H99  1  0.003500  0.881100  0.153400  1.0  0.1291
  H  H100  1  0.037300  0.822000  0.087400  1.0  0.1365
  H  H101  1  0.096700  0.950900  0.099200  1.0  0.1223
  H  H102  1  0.228600  0.913200  0.106200  1.0  0.1175
  H  H103  1  0.196300  0.976700  0.178800  1.0  0.1201
  H  H104  1  0.092700  0.792200  0.179400  1.0  0.1148
  H  H105  1  0.188500  0.877900  0.228400  1.0  0.1164
  H  H106  1  0.223600  0.813500  0.157200  1.0  0.1128
  H  H107  1  0.154300  0.348400  0.769800  1.0  0.2279
  H  H108  1  0.925700  0.327100  0.729200  1.0  0.1236
  H  H109  1  0.984500  0.268700  0.665000  1.0  0.1298
  H  H110  1  0.941000  0.347000  0.664000  1.0  0.1181
  H  H111  1  0.115500  0.421400  0.769800  1.0  0.2278
  H  H112  1  0.303500  0.402100  0.729200  1.0  0.1251
  H  H113  1  0.180500  0.396300  0.665000  1.0  0.1309
  H  H114  1  0.223000  0.317000  0.664000  1.0  0.1192
  H  H115  1  0.576700  0.947700  0.399000  1.0  0.2128
  H  H116  1  0.472300  0.916800  0.424000  1.0  0.2513
  H  H117  1  0.529300  0.811900  0.334000  1.0  0.1212
  H  H118  1  0.487200  0.849000  0.279000  1.0  0.1228
  H  H119  1  0.374700  0.815400  0.306000  1.0  0.1206
  H  H120  1  0.415500  0.027300  0.414000  1.0  0.1232
  H  H121  1  0.303300  0.950600  0.355400  1.0  0.1186
  H  H122  1  0.416600  0.984600  0.329200  1.0  0.1246
  H  H123  1  0.248500  0.996500  0.778800  1.0  0.1614
  H  H124  1  0.356000  0.067900  0.816800  1.0  0.1732
  H  H125  1  0.418800  0.970100  0.732000  1.0  0.1065
  H  H126  1  0.399800  0.918200  0.773400  1.0  0.1205
  H  H127  1  0.515400  0.996200  0.812600  1.0  0.1042
  H  H128  1  0.245400  0.062600  0.894400  1.0  0.1021
  H  H129  1  0.399500  0.057000  0.920800  1.0  0.1122
  H  H130  1  0.284700  0.978400  0.879600  1.0  0.1177
  H  H131  1  0.649900  0.272300  0.153400  1.0  0.1253
  H  H132  1  0.550100  0.265400  0.087400  1.0  0.1372
  H  H133  1  0.502500  0.148300  0.099200  1.0  0.1224
  H  H134  1  0.377600  0.193000  0.106200  1.0  0.1189
  H  H135  1  0.482500  0.202100  0.178800  1.0  0.1203
  H  H136  1  0.586700  0.387200  0.179400  1.0  0.1149
  H  H137  1  0.539900  0.350500  0.228400  1.0  0.1158
  H  H138  1  0.433600  0.343700  0.157200  1.0  0.1142
  C  C139  1  0.627000  0.348200  0.824800  1.0  -0.1709
  C  C140  1  0.697800  0.476600  0.824800  1.0  -0.1696
  C  C141  1  0.647700  0.522500  0.679600  1.0  -0.1629
  C  C142  1  0.528300  0.606500  0.630400  1.0  -0.1777
  C  C143  1  0.143100  0.192100  0.220000  1.0  -0.1691
  C  C144  1  0.931600  0.147600  0.117600  1.0  -0.1712
  C  C145  1  0.843400  0.067400  0.870800  1.0  -0.2623
  C  C146  1  0.849500  0.165400  0.821800  1.0  -0.1868
  C  C147  1  0.018700  0.675700  0.304200  1.0  -0.166
  C  C148  1  0.785500  0.628500  0.304200  1.0  -0.1692
  C  C149  1  0.531900  0.157100  0.679600  1.0  -0.1616
  C  C150  1  0.602100  0.023900  0.630400  1.0  -0.1768
  C  C151  1  0.576900  0.027900  0.220000  1.0  -0.1727
  C  C152  1  0.686000  0.970000  0.117600  1.0  -0.1671
  C  C153  1  0.527400  0.803400  0.870800  1.0  -0.263
  C  C154  1  0.472300  0.656400  0.821800  1.0  -0.1864
  C  C155  1  0.373000  0.651800  0.175200  1.0  -0.1699
  C  C156  1  0.302200  0.523400  0.175200  1.0  -0.17
  C  C157  1  0.352300  0.477500  0.320400  1.0  -0.1619
  C  C158  1  0.471700  0.393500  0.369600  1.0  -0.1782
  C  C159  1  0.856900  0.807900  0.780000  1.0  -0.1707
  C  C160  1  0.068400  0.852400  0.882400  1.0  -0.1687
  C  C161  1  0.156600  0.932600  0.129200  1.0  -0.262
  C  C162  1  0.150500  0.834600  0.178200  1.0  -0.1865
  C  C163  1  0.981300  0.324300  0.695800  1.0  -0.1685
  C  C164  1  0.214500  0.371500  0.695800  1.0  -0.1682
  C  C165  1  0.468100  0.842900  0.320400  1.0  -0.1602
  C  C166  1  0.397900  0.976100  0.369600  1.0  -0.1771
  C  C167  1  0.423100  0.972100  0.780000  1.0  -0.1722
  C  C168  1  0.314000  0.030000  0.882400  1.0  -0.1666
  C  C169  1  0.472600  0.196600  0.129200  1.0  -0.2632
  C  C170  1  0.527700  0.343600  0.178200  1.0  -0.1846
  S  S171  1  0.190170  0.135470  0.536000  1.0  1.6529
  S  S172  1  0.801750  0.818150  0.220980  1.0  1.6297
  S  S173  1  0.776900  0.096900  0.505580  1.0  1.5878
  S  S174  1  0.954550  0.593550  0.070960  1.0  1.6326
  S  S175  1  0.024390  0.063490  0.315420  1.0  1.6404
  S  S176  1  0.407930  0.779330  0.053820  1.0  1.5741
  S  S177  1  0.845830  0.400530  0.536000  1.0  1.6524
  S  S178  1  0.919230  0.402830  0.220980  1.0  1.6294
  S  S179  1  0.228680  0.408680  0.505580  1.0  1.5899
  S  S180  1  0.616410  0.477410  0.070960  1.0  1.6327
  S  S181  1  0.791030  0.251930  0.315420  1.0  1.6422
  S  S182  1  0.145890  0.274490  0.053820  1.0  1.5735
  S  S183  1  0.809830  0.864530  0.464000  1.0  1.6562
  S  S184  1  0.198250  0.181850  0.779020  1.0  1.6291
  S  S185  1  0.223100  0.903100  0.494420  1.0  1.5874
  S  S186  1  0.045450  0.406450  0.929040  1.0  1.6326
  S  S187  1  0.975610  0.936510  0.684580  1.0  1.6408
  S  S188  1  0.592070  0.220670  0.946180  1.0  1.5738
  S  S189  1  0.154170  0.599470  0.464000  1.0  1.6557
  S  S190  1  0.080770  0.597170  0.779020  1.0  1.6294
  S  S191  1  0.771320  0.591320  0.494420  1.0  1.5878
  S  S192  1  0.383590  0.522590  0.929040  1.0  1.6327
  S  S193  1  0.208970  0.748070  0.684580  1.0  1.6403
  S  S194  1  0.854110  0.725510  0.946180  1.0  1.574
  N  N195  1  0.684200  0.434200  0.868400  1.0  -0.042
  N  N196  1  0.603400  0.538000  0.615000  1.0  -0.0525
  N  N197  1  0.019300  0.205900  0.187600  1.0  -0.0224
  N  N198  1  0.926800  0.136800  0.865800  1.0  -0.1126
  N  N199  1  0.880100  0.630100  0.260200  1.0  -0.0333
  N  N200  1  0.511600  0.077000  0.615000  1.0  -0.0505
  N  N201  1  0.668300  0.981700  0.187600  1.0  -0.0231
  N  N202  1  0.439000  0.729000  0.865800  1.0  -0.1151
  N  N203  1  0.315800  0.565800  0.131600  1.0  -0.0427
  N  N204  1  0.396600  0.462000  0.385000  1.0  -0.0501
  N  N205  1  0.980700  0.794100  0.812400  1.0  -0.0246
  N  N206  1  0.073200  0.863200  0.134200  1.0  -0.1151
  N  N207  1  0.119900  0.369900  0.739800  1.0  -0.0328
  N  N208  1  0.488400  0.923000  0.385000  1.0  -0.05
  N  N209  1  0.331700  0.018300  0.812400  1.0  -0.0226
  N  N210  1  0.561000  0.271000  0.134200  1.0  -0.115
  O  O211  1  0.974400  0.037800  0.235400  1.0  -0.6447
  O  O212  1  0.436100  0.835700  0.131600  1.0  -0.5288
  O  O213  1  0.511100  0.729900  0.042000  1.0  -0.6747
  O  O214  1  0.271800  0.725800  0.026800  1.0  -0.8234
  O  O215  1  0.408000  0.823400  0.010400  1.0  -0.6356
  O  O216  1  0.111000  0.145200  0.357600  1.0  -0.7869
  O  O217  1  0.769870  0.017170  0.437740  1.0  -0.7911
  O  O218  1  0.074620  0.062420  0.494840  1.0  -0.903
  O  O219  1  0.209880  0.156580  0.615560  1.0  -0.7018
  O  O220  1  0.922770  0.665570  0.129740  1.0  -0.7737
  O  O221  1  0.144930  0.202030  0.522660  1.0  -0.7453
  O  O222  1  0.090200  0.000800  0.328000  1.0  -0.8034
  O  O223  1  0.833380  0.163480  0.493560  1.0  -0.7348
  O  O224  1  0.907200  0.070500  0.352000  1.0  -0.9039
  O  O225  1  0.865330  0.099630  0.574060  1.0  -0.7641
  O  O226  1  0.314000  0.117200  0.512200  1.0  -0.6571
  O  O227  1  0.639420  0.104120  0.513440  1.0  -0.6389
  O  O228  1  0.972500  0.532500  0.098000  1.0  -0.7748
  O  O229  1  0.081900  0.612200  0.053800  1.0  -0.7172
  O  O230  1  0.812300  0.813500  0.148600  1.0  -0.7513
  O  O231  1  0.749700  0.891300  0.264400  1.0  -0.7786
  O  O232  1  0.936810  0.826710  0.270020  1.0  -0.7191
  O  O233  1  0.711370  0.742070  0.200140  1.0  -0.7439
  O  O234  1  0.835570  0.566470  0.005340  1.0  -0.7292
  O  O235  1  0.761000  0.197600  0.235400  1.0  -0.6448
  O  O236  1  0.195500  0.295900  0.131600  1.0  -0.5284
  O  O237  1  0.030900  0.312100  0.042000  1.0  -0.6731
  O  O238  1  0.255000  0.301000  0.026800  1.0  -0.8266
  O  O239  1  0.102400  0.187000  0.010400  1.0  -0.6327
  O  O240  1  0.746600  0.212400  0.357600  1.0  -0.7922
  O  O241  1  0.167870  0.420570  0.437740  1.0  -0.7916
  O  O242  1  0.920220  0.432420  0.494840  1.0  -0.9036
  O  O243  1  0.905680  0.458980  0.615560  1.0  -0.6998
  O  O244  1  0.706970  0.464170  0.129740  1.0  -0.7752
  O  O245  1  0.877730  0.320630  0.522660  1.0  -0.7451
  O  O246  1  0.737800  0.327200  0.328000  1.0  -0.8036
  O  O247  1  0.160180  0.330080  0.493560  1.0  -0.7359
  O  O248  1  0.944800  0.281500  0.352000  1.0  -0.9025
  O  O249  1  0.208730  0.474430  0.574060  1.0  -0.7627
  O  O250  1  0.698200  0.395000  0.512200  1.0  -0.6595
  O  O251  1  0.374020  0.409320  0.513440  1.0  -0.64
  O  O252  1  0.625500  0.565500  0.098000  1.0  -0.7708
  O  O253  1  0.471900  0.441600  0.053800  1.0  -0.7151
  O  O254  1  0.836300  0.335100  0.148600  1.0  -0.7517
  O  O255  1  0.014700  0.373100  0.264400  1.0  -0.7787
  O  O256  1  0.833210  0.443310  0.270020  1.0  -0.7204
  O  O257  1  0.988770  0.458070  0.200140  1.0  -0.7451
  O  O258  1  0.669770  0.438870  0.005340  1.0  -0.7295
  O  O259  1  0.025600  0.962200  0.764600  1.0  -0.6464
  O  O260  1  0.563900  0.164300  0.868400  1.0  -0.5293
  O  O261  1  0.488900  0.270100  0.958000  1.0  -0.6736
  O  O262  1  0.728200  0.274200  0.973200  1.0  -0.8241
  O  O263  1  0.592000  0.176600  0.989600  1.0  -0.6365
  O  O264  1  0.889000  0.854800  0.642400  1.0  -0.7867
  O  O265  1  0.230130  0.982830  0.562260  1.0  -0.7922
  O  O266  1  0.925380  0.937580  0.505160  1.0  -0.9025
  O  O267  1  0.790120  0.843420  0.384440  1.0  -0.7009
  O  O268  1  0.077230  0.334430  0.870260  1.0  -0.7735
  O  O269  1  0.855070  0.797970  0.477340  1.0  -0.7467
  O  O270  1  0.909800  0.999200  0.672000  1.0  -0.8032
  O  O271  1  0.166620  0.836520  0.506440  1.0  -0.7359
  O  O272  1  0.092800  0.929500  0.648000  1.0  -0.9045
  O  O273  1  0.134670  0.900370  0.425940  1.0  -0.7645
  O  O274  1  0.686000  0.882800  0.487800  1.0  -0.6571
  O  O275  1  0.360580  0.895880  0.486560  1.0  -0.6396
  O  O276  1  0.027500  0.467500  0.902000  1.0  -0.775
  O  O277  1  0.918100  0.387800  0.946200  1.0  -0.7158
  O  O278  1  0.187700  0.186500  0.851400  1.0  -0.7508
  O  O279  1  0.250300  0.108700  0.735600  1.0  -0.78
  O  O280  1  0.063190  0.173290  0.729980  1.0  -0.719
  O  O281  1  0.288630  0.257930  0.799860  1.0  -0.7427
  O  O282  1  0.164430  0.433530  0.994660  1.0  -0.7289
  O  O283  1  0.239000  0.802400  0.764600  1.0  -0.6446
  O  O284  1  0.804500  0.704100  0.868400  1.0  -0.5277
  O  O285  1  0.969100  0.687900  0.958000  1.0  -0.6746
  O  O286  1  0.745000  0.699000  0.973200  1.0  -0.8258
  O  O287  1  0.897600  0.813000  0.989600  1.0  -0.6336
  O  O288  1  0.253400  0.787600  0.642400  1.0  -0.7946
  O  O289  1  0.832130  0.579430  0.562260  1.0  -0.7914
  O  O290  1  0.079780  0.567580  0.505160  1.0  -0.9046
  O  O291  1  0.094320  0.541020  0.384440  1.0  -0.701
  O  O292  1  0.293030  0.535830  0.870260  1.0  -0.7746
  O  O293  1  0.122270  0.679370  0.477340  1.0  -0.7442
  O  O294  1  0.262200  0.672800  0.672000  1.0  -0.8033
  O  O295  1  0.839820  0.669920  0.506440  1.0  -0.7338
  O  O296  1  0.055200  0.718500  0.648000  1.0  -0.9016
  O  O297  1  0.791270  0.525570  0.425940  1.0  -0.7642
  O  O298  1  0.301800  0.605000  0.487800  1.0  -0.6571
  O  O299  1  0.625980  0.590680  0.486560  1.0  -0.6391
  O  O300  1  0.374500  0.434500  0.902000  1.0  -0.7722
  O  O301  1  0.528100  0.558400  0.946200  1.0  -0.7156
  O  O302  1  0.163700  0.664900  0.851400  1.0  -0.7506
  O  O303  1  0.985300  0.626900  0.735600  1.0  -0.7784
  O  O304  1  0.166790  0.556690  0.729980  1.0  -0.7219
  O  O305  1  0.011230  0.541930  0.799860  1.0  -0.7447
  O  O306  1  0.330230  0.561130  0.994660  1.0  -0.7289
