# generated using pymatgen
data_Zn2H6C16N3O11
_symmetry_space_group_name_H-M   'P 1'
_cell_length_a   27.76800000
_cell_length_b   7.90000000
_cell_length_c   18.29800000
_cell_angle_alpha   90.00000000
_cell_angle_beta   108.32900000
_cell_angle_gamma   90.00000000
_symmetry_Int_Tables_number   1
_chemical_formula_structural   Zn2H6C16N3O11
_chemical_formula_sum   'Zn8 H24 C64 N12 O44'
_cell_volume   3810.33743895
_cell_formula_units_Z   4
loop_
 _symmetry_equiv_pos_site_id
 _symmetry_equiv_pos_as_xyz
  1  'x, y, z'
loop_
 _atom_site_type_symbol
 _atom_site_label
 _atom_site_symmetry_multiplicity
 _atom_site_fract_x
 _atom_site_fract_y
 _atom_site_fract_z
 _atom_site_occupancy
 _atom_site_charge
  Zn  Zn1  1  0.040980  0.173190  0.197150  1.0  1.1143
  Zn  Zn2  1  0.540980  0.673190  0.197150  1.0  1.1143
  Zn  Zn3  1  0.959020  0.173190  0.302850  1.0  1.1141
  Zn  Zn4  1  0.459020  0.673190  0.302850  1.0  1.1141
  Zn  Zn5  1  0.959020  0.826810  0.802850  1.0  1.1114
  Zn  Zn6  1  0.459020  0.326810  0.802850  1.0  1.1114
  Zn  Zn7  1  0.040980  0.826810  0.697150  1.0  1.1116
  Zn  Zn8  1  0.540980  0.326810  0.697150  1.0  1.1116
  H  H9  1  0.056500  0.060100  0.977800  1.0  0.1308
  H  H10  1  0.162300  0.082600  0.870600  1.0  0.1505
  H  H11  1  0.193100  0.262700  0.086000  1.0  0.1416
  H  H12  1  0.556500  0.560100  0.977800  1.0  0.1308
  H  H13  1  0.662300  0.582600  0.870600  1.0  0.1505
  H  H14  1  0.693100  0.762700  0.086000  1.0  0.1416
  H  H15  1  0.943500  0.060100  0.522200  1.0  0.131
  H  H16  1  0.837700  0.082600  0.629400  1.0  0.1505
  H  H17  1  0.806900  0.262700  0.414000  1.0  0.1419
  H  H18  1  0.443500  0.560100  0.522200  1.0  0.131
  H  H19  1  0.337700  0.582600  0.629400  1.0  0.1505
  H  H20  1  0.306900  0.762700  0.414000  1.0  0.1419
  H  H21  1  0.943500  0.939900  0.022200  1.0  0.1311
  H  H22  1  0.837700  0.917400  0.129400  1.0  0.1505
  H  H23  1  0.806900  0.737300  0.914000  1.0  0.1418
  H  H24  1  0.443500  0.439900  0.022200  1.0  0.1311
  H  H25  1  0.337700  0.417400  0.129400  1.0  0.1505
  H  H26  1  0.306900  0.237300  0.914000  1.0  0.1418
  H  H27  1  0.056500  0.939900  0.477800  1.0  0.1307
  H  H28  1  0.162300  0.917400  0.370600  1.0  0.1506
  H  H29  1  0.193100  0.737300  0.586000  1.0  0.1416
  H  H30  1  0.556500  0.439900  0.477800  1.0  0.1307
  H  H31  1  0.662300  0.417400  0.370600  1.0  0.1506
  H  H32  1  0.693100  0.237300  0.586000  1.0  0.1416
  C  C33  1  0.088920  0.090000  0.977850  1.0  0.0486
  C  C34  1  0.067280  0.976700  0.844950  1.0  0.7551
  C  C35  1  0.103450  0.059200  0.913420  1.0  -0.1432
  C  C36  1  0.151970  0.103400  0.913520  1.0  -0.0605
  C  C37  1  0.122450  0.165500  0.042840  1.0  -0.1368
  C  C38  1  0.184840  0.179200  0.978840  1.0  0.1793
  C  C39  1  0.170620  0.211100  0.042990  1.0  0.0534
  C  C40  1  0.106670  0.197000  0.112880  1.0  0.6761
  C  C41  1  0.588920  0.590000  0.977850  1.0  0.0486
  C  C42  1  0.567280  0.476700  0.844950  1.0  0.7551
  C  C43  1  0.603450  0.559200  0.913420  1.0  -0.1432
  C  C44  1  0.651970  0.603400  0.913520  1.0  -0.0605
  C  C45  1  0.622450  0.665500  0.042840  1.0  -0.1368
  C  C46  1  0.684840  0.679200  0.978840  1.0  0.1793
  C  C47  1  0.670620  0.711100  0.042990  1.0  0.0534
  C  C48  1  0.606670  0.697000  0.112880  1.0  0.6761
  C  C49  1  0.911080  0.090000  0.522150  1.0  0.0496
  C  C50  1  0.932720  0.976700  0.655050  1.0  0.7554
  C  C51  1  0.896550  0.059200  0.586580  1.0  -0.143
  C  C52  1  0.848030  0.103400  0.586480  1.0  -0.0601
  C  C53  1  0.877550  0.165500  0.457160  1.0  -0.1361
  C  C54  1  0.815160  0.179200  0.521160  1.0  0.1795
  C  C55  1  0.829380  0.211100  0.457010  1.0  0.053
  C  C56  1  0.893330  0.197000  0.387120  1.0  0.6762
  C  C57  1  0.411080  0.590000  0.522150  1.0  0.0496
  C  C58  1  0.432720  0.476700  0.655050  1.0  0.7554
  C  C59  1  0.396550  0.559200  0.586580  1.0  -0.143
  C  C60  1  0.348030  0.603400  0.586480  1.0  -0.0601
  C  C61  1  0.377550  0.665500  0.457160  1.0  -0.1361
  C  C62  1  0.315160  0.679200  0.521160  1.0  0.1795
  C  C63  1  0.329380  0.711100  0.457010  1.0  0.053
  C  C64  1  0.393330  0.697000  0.387120  1.0  0.6762
  C  C65  1  0.911080  0.910000  0.022150  1.0  0.0496
  C  C66  1  0.932720  0.023300  0.155050  1.0  0.7553
  C  C67  1  0.896550  0.940800  0.086580  1.0  -0.1432
  C  C68  1  0.848030  0.896600  0.086480  1.0  -0.0602
  C  C69  1  0.877550  0.834500  0.957160  1.0  -0.1363
  C  C70  1  0.815160  0.820800  0.021160  1.0  0.1805
  C  C71  1  0.829380  0.788900  0.957010  1.0  0.0527
  C  C72  1  0.893330  0.803000  0.887120  1.0  0.6755
  C  C73  1  0.411080  0.410000  0.022150  1.0  0.0496
  C  C74  1  0.432720  0.523300  0.155050  1.0  0.7553
  C  C75  1  0.396550  0.440800  0.086580  1.0  -0.1432
  C  C76  1  0.348030  0.396600  0.086480  1.0  -0.0602
  C  C77  1  0.377550  0.334500  0.957160  1.0  -0.1363
  C  C78  1  0.315160  0.320800  0.021160  1.0  0.1805
  C  C79  1  0.329380  0.288900  0.957010  1.0  0.0527
  C  C80  1  0.393330  0.303000  0.887120  1.0  0.6755
  C  C81  1  0.088920  0.910000  0.477850  1.0  0.0483
  C  C82  1  0.067280  0.023300  0.344950  1.0  0.755
  C  C83  1  0.103450  0.940800  0.413420  1.0  -0.1429
  C  C84  1  0.151970  0.896600  0.413520  1.0  -0.0611
  C  C85  1  0.122450  0.834500  0.542840  1.0  -0.1368
  C  C86  1  0.184840  0.820800  0.478840  1.0  0.1802
  C  C87  1  0.170620  0.788900  0.542990  1.0  0.0535
  C  C88  1  0.106670  0.803000  0.612880  1.0  0.6768
  C  C89  1  0.588920  0.410000  0.477850  1.0  0.0483
  C  C90  1  0.567280  0.523300  0.344950  1.0  0.755
  C  C91  1  0.603450  0.440800  0.413420  1.0  -0.1429
  C  C92  1  0.651970  0.396600  0.413520  1.0  -0.0611
  C  C93  1  0.622450  0.334500  0.542840  1.0  -0.1368
  C  C94  1  0.684840  0.320800  0.478840  1.0  0.1802
  C  C95  1  0.670620  0.288900  0.542990  1.0  0.0535
  C  C96  1  0.606670  0.303000  0.612880  1.0  0.6768
  N  N97  1  0.233680  0.222600  0.972510  1.0  -0.1885
  N  N98  1  0.733680  0.722600  0.972510  1.0  -0.1885
  N  N99  1  0.766320  0.222600  0.527490  1.0  -0.189
  N  N100  1  0.266320  0.722600  0.527490  1.0  -0.189
  N  N101  1  0.766320  0.777400  0.027490  1.0  -0.1885
  N  N102  1  0.266320  0.277400  0.027490  1.0  -0.1885
  N  N103  1  0.233680  0.777400  0.472510  1.0  -0.1877
  N  N104  1  0.733680  0.277400  0.472510  1.0  -0.1877
  N  N105  1  0.000000  0.474900  0.250000  1.0  0.5496
  N  N106  1  0.500000  0.974900  0.250000  1.0  0.5496
  N  N107  1  0.000000  0.525100  0.750000  1.0  0.5487
  N  N108  1  0.500000  0.025100  0.750000  1.0  0.5487
  O  O109  1  0.023870  0.943900  0.848300  1.0  -0.6144
  O  O110  1  0.082690  0.944600  0.788700  1.0  -0.5498
  O  O111  1  0.062310  0.147600  0.108220  1.0  -0.5699
  O  O112  1  0.028300  0.405200  0.218660  1.0  -0.5554
  O  O113  1  0.135260  0.265500  0.169890  1.0  -0.4417
  O  O114  1  0.523870  0.443900  0.848300  1.0  -0.6144
  O  O115  1  0.582690  0.444600  0.788700  1.0  -0.5498
  O  O116  1  0.562310  0.647600  0.108220  1.0  -0.5699
  O  O117  1  0.528300  0.905200  0.218660  1.0  -0.5554
  O  O118  1  0.635260  0.765500  0.169890  1.0  -0.4417
  O  O119  1  0.976130  0.943900  0.651700  1.0  -0.6138
  O  O120  1  0.917310  0.944600  0.711300  1.0  -0.55
  O  O121  1  0.937690  0.147600  0.391780  1.0  -0.5686
  O  O122  1  0.971700  0.405200  0.281340  1.0  -0.555
  O  O123  1  0.864740  0.265500  0.330110  1.0  -0.4399
  O  O124  1  0.476130  0.443900  0.651700  1.0  -0.6138
  O  O125  1  0.417310  0.444600  0.711300  1.0  -0.55
  O  O126  1  0.437690  0.647600  0.391780  1.0  -0.5686
  O  O127  1  0.471700  0.905200  0.281340  1.0  -0.555
  O  O128  1  0.364740  0.765500  0.330110  1.0  -0.4399
  O  O129  1  0.976130  0.056100  0.151700  1.0  -0.6138
  O  O130  1  0.917310  0.055400  0.211300  1.0  -0.55
  O  O131  1  0.937690  0.852400  0.891780  1.0  -0.5686
  O  O132  1  0.971700  0.594800  0.781340  1.0  -0.5562
  O  O133  1  0.864740  0.734500  0.830110  1.0  -0.4405
  O  O134  1  0.476130  0.556100  0.151700  1.0  -0.6138
  O  O135  1  0.417310  0.555400  0.211300  1.0  -0.55
  O  O136  1  0.437690  0.352400  0.891780  1.0  -0.5686
  O  O137  1  0.471700  0.094800  0.781340  1.0  -0.5562
  O  O138  1  0.364740  0.234500  0.830110  1.0  -0.4405
  O  O139  1  0.023870  0.056100  0.348300  1.0  -0.6142
  O  O140  1  0.082690  0.055400  0.288700  1.0  -0.55
  O  O141  1  0.062310  0.852400  0.608220  1.0  -0.5699
  O  O142  1  0.028300  0.594800  0.718660  1.0  -0.5561
  O  O143  1  0.135260  0.734500  0.669890  1.0  -0.4397
  O  O144  1  0.523870  0.556100  0.348300  1.0  -0.6142
  O  O145  1  0.582690  0.555400  0.288700  1.0  -0.55
  O  O146  1  0.562310  0.352400  0.608220  1.0  -0.5699
  O  O147  1  0.528300  0.094800  0.718660  1.0  -0.5561
  O  O148  1  0.635260  0.234500  0.669890  1.0  -0.4397
  O  O149  1  0.000000  0.666300  0.250000  1.0  -0.5329
  O  O150  1  0.500000  0.166300  0.250000  1.0  -0.5329
  O  O151  1  0.000000  0.333700  0.750000  1.0  -0.5318
  O  O152  1  0.500000  0.833700  0.750000  1.0  -0.5318
