# generated using pymatgen
data_CuH6C11(NO)4
_symmetry_space_group_name_H-M   'P 1'
_cell_length_a   4.70830000
_cell_length_b   10.98000000
_cell_length_c   31.01100000
_cell_angle_alpha   90.00000000
_cell_angle_beta   90.00000000
_cell_angle_gamma   96.14500000
_symmetry_Int_Tables_number   1
_chemical_formula_structural   CuH6C11(NO)4
_chemical_formula_sum   'Cu4 H24 C44 N16 O16'
_cell_volume   1593.96823635
_cell_formula_units_Z   4
loop_
 _symmetry_equiv_pos_site_id
 _symmetry_equiv_pos_as_xyz
  1  'x, y, z'
loop_
 _atom_site_type_symbol
 _atom_site_label
 _atom_site_symmetry_multiplicity
 _atom_site_fract_x
 _atom_site_fract_y
 _atom_site_fract_z
 _atom_site_occupancy
 _atom_site_charge
  Cu  Cu1  1  0.518730  0.397260  0.806170  1.0  1.0037
  Cu  Cu2  1  0.481270  0.102740  0.306170  1.0  1.0048
  Cu  Cu3  1  0.481270  0.602740  0.193830  1.0  1.006
  Cu  Cu4  1  0.518730  0.897260  0.693830  1.0  1.0047
  H  H5  1  0.630000  0.461000  0.708000  1.0  0.1188
  H  H6  1  0.450000  0.364000  0.646000  1.0  0.0898
  H  H7  1  0.770000  0.297000  0.869400  1.0  0.0995
  H  H8  1  0.455800  0.610700  0.878000  1.0  0.0829
  H  H9  1  0.656200  0.636600  0.946600  1.0  0.1251
  H  H10  1  0.958600  0.320700  0.937600  1.0  0.1284
  H  H11  1  0.370000  0.039000  0.208000  1.0  0.1188
  H  H12  1  0.550000  0.136000  0.146000  1.0  0.0894
  H  H13  1  0.230000  0.203000  0.369400  1.0  0.0998
  H  H14  1  0.544200  0.889300  0.378000  1.0  0.0832
  H  H15  1  0.343800  0.863400  0.446600  1.0  0.1243
  H  H16  1  0.041400  0.179300  0.437600  1.0  0.1317
  H  H17  1  0.370000  0.539000  0.292000  1.0  0.1198
  H  H18  1  0.550000  0.636000  0.354000  1.0  0.0893
  H  H19  1  0.230000  0.703000  0.130600  1.0  0.0996
  H  H20  1  0.544200  0.389300  0.122000  1.0  0.0826
  H  H21  1  0.343800  0.363400  0.053400  1.0  0.1249
  H  H22  1  0.041400  0.679300  0.062400  1.0  0.1331
  H  H23  1  0.630000  0.961000  0.792000  1.0  0.1194
  H  H24  1  0.450000  0.864000  0.854000  1.0  0.0892
  H  H25  1  0.770000  0.797000  0.630600  1.0  0.0998
  H  H26  1  0.455800  0.110700  0.622000  1.0  0.0822
  H  H27  1  0.656200  0.136600  0.553400  1.0  0.1265
  H  H28  1  0.958600  0.820700  0.562400  1.0  0.1289
  C  C29  1  0.216500  0.177000  0.794700  1.0  0.5569
  C  C30  1  0.267400  0.229400  0.749300  1.0  0.0479
  C  C31  1  0.509500  0.386700  0.709800  1.0  0.1072
  C  C32  1  0.397500  0.328600  0.673300  1.0  0.1339
  C  C33  1  0.155200  0.175300  0.712100  1.0  0.157
  C  C34  1  0.968300  0.057200  0.708400  1.0  0.602
  C  C35  1  0.746340  0.369420  0.885530  1.0  0.1377
  C  C36  1  0.564970  0.550380  0.889550  1.0  0.2133
  C  C37  1  0.676210  0.564020  0.930700  1.0  -0.2561
  C  C38  1  0.852810  0.381830  0.925820  1.0  -0.2215
  C  C39  1  0.810990  0.475910  0.948120  1.0  0.2528
  C  C40  1  0.783500  0.323000  0.294700  1.0  0.5566
  C  C41  1  0.732600  0.270600  0.249300  1.0  0.0474
  C  C42  1  0.490500  0.113300  0.209800  1.0  0.1062
  C  C43  1  0.602500  0.171400  0.173300  1.0  0.1336
  C  C44  1  0.844800  0.324700  0.212100  1.0  0.1577
  C  C45  1  0.031700  0.442800  0.208400  1.0  0.6048
  C  C46  1  0.253660  0.130580  0.385530  1.0  0.1379
  C  C47  1  0.435030  0.949620  0.389550  1.0  0.2176
  C  C48  1  0.323790  0.935980  0.430700  1.0  -0.2581
  C  C49  1  0.147190  0.118170  0.425820  1.0  -0.2206
  C  C50  1  0.189010  0.024090  0.448120  1.0  0.2537
  C  C51  1  0.783500  0.823000  0.205300  1.0  0.5571
  C  C52  1  0.732600  0.770600  0.250700  1.0  0.0455
  C  C53  1  0.490500  0.613300  0.290200  1.0  0.1053
  C  C54  1  0.602500  0.671400  0.326700  1.0  0.1317
  C  C55  1  0.844800  0.824700  0.287900  1.0  0.1577
  C  C56  1  0.031700  0.942800  0.291600  1.0  0.6058
  C  C57  1  0.253660  0.630580  0.114470  1.0  0.139
  C  C58  1  0.435030  0.449620  0.110450  1.0  0.2189
  C  C59  1  0.323790  0.435980  0.069300  1.0  -0.2588
  C  C60  1  0.147190  0.618170  0.074180  1.0  -0.2202
  C  C61  1  0.189010  0.524090  0.051880  1.0  0.2537
  C  C62  1  0.216500  0.677000  0.705300  1.0  0.557
  C  C63  1  0.267400  0.729400  0.750700  1.0  0.045
  C  C64  1  0.509500  0.886700  0.790200  1.0  0.1067
  C  C65  1  0.397500  0.828600  0.826700  1.0  0.1314
  C  C66  1  0.155200  0.675300  0.787900  1.0  0.157
  C  C67  1  0.968300  0.557200  0.791600  1.0  0.603
  C  C68  1  0.746340  0.869420  0.614470  1.0  0.1393
  C  C69  1  0.564970  0.050380  0.610450  1.0  0.2149
  C  C70  1  0.676210  0.064020  0.569300  1.0  -0.2551
  C  C71  1  0.852810  0.881830  0.574180  1.0  -0.2213
  C  C72  1  0.810990  0.975910  0.551880  1.0  0.2541
  N  N73  1  0.439500  0.334000  0.748100  1.0  -0.23
  N  N74  1  0.223300  0.226400  0.674300  1.0  -0.3586
  N  N75  1  0.606880  0.460600  0.867880  1.0  -0.2998
  N  N76  1  0.877750  0.479050  0.995830  1.0  -0.1282
  N  N77  1  0.560500  0.166000  0.248100  1.0  -0.2299
  N  N78  1  0.776700  0.273600  0.174300  1.0  -0.3581
  N  N79  1  0.393120  0.039400  0.367880  1.0  -0.2992
  N  N80  1  0.122250  0.020950  0.495830  1.0  -0.1276
  N  N81  1  0.560500  0.666000  0.251900  1.0  -0.2287
  N  N82  1  0.776700  0.773600  0.325700  1.0  -0.3575
  N  N83  1  0.393120  0.539400  0.132120  1.0  -0.2987
  N  N84  1  0.122250  0.520950  0.004170  1.0  -0.127
  N  N85  1  0.439500  0.834000  0.751900  1.0  -0.2287
  N  N86  1  0.223300  0.726400  0.825700  1.0  -0.3577
  N  N87  1  0.606880  0.960600  0.632120  1.0  -0.2984
  N  N88  1  0.877750  0.979050  0.504170  1.0  -0.1279
  O  O89  1  0.313400  0.248050  0.824240  1.0  -0.5705
  O  O90  1  0.043820  0.067310  0.799990  1.0  -0.5941
  O  O91  1  0.682420  0.010070  0.708590  1.0  -0.6543
  O  O92  1  0.126910  0.978110  0.703160  1.0  -0.5538
  O  O93  1  0.686600  0.251950  0.324240  1.0  -0.5696
  O  O94  1  0.956180  0.432690  0.299990  1.0  -0.5946
  O  O95  1  0.317580  0.489930  0.208590  1.0  -0.6522
  O  O96  1  0.873090  0.521890  0.203160  1.0  -0.5542
  O  O97  1  0.686600  0.751950  0.175760  1.0  -0.5688
  O  O98  1  0.956180  0.932690  0.200010  1.0  -0.5954
  O  O99  1  0.317580  0.989930  0.291410  1.0  -0.6522
  O  O100  1  0.873090  0.021890  0.296840  1.0  -0.5542
  O  O101  1  0.313400  0.748050  0.675760  1.0  -0.5693
  O  O102  1  0.043820  0.567310  0.700010  1.0  -0.5948
  O  O103  1  0.682420  0.510070  0.791410  1.0  -0.6544
  O  O104  1  0.126910  0.478110  0.796840  1.0  -0.5536
