# generated using pymatgen
data_CuH6C13N3O4
_symmetry_space_group_name_H-M   'P 1'
_cell_length_a   4.71300000
_cell_length_b   11.10100000
_cell_length_c   26.79700000
_cell_angle_alpha   90.00000000
_cell_angle_beta   90.00000000
_cell_angle_gamma   96.52000000
_symmetry_Int_Tables_number   1
_chemical_formula_structural   CuH6C13N3O4
_chemical_formula_sum   'Cu4 H24 C52 N12 O16'
_cell_volume   1392.92489551
_cell_formula_units_Z   4
loop_
 _symmetry_equiv_pos_site_id
 _symmetry_equiv_pos_as_xyz
  1  'x, y, z'
loop_
 _atom_site_type_symbol
 _atom_site_label
 _atom_site_symmetry_multiplicity
 _atom_site_fract_x
 _atom_site_fract_y
 _atom_site_fract_z
 _atom_site_occupancy
 _atom_site_charge
  Cu  Cu1  1  0.388000  0.120000  0.819400  1.0  0.9148
  Cu  Cu2  1  0.612000  0.380000  0.319400  1.0  0.9148
  Cu  Cu3  1  0.612000  0.880000  0.180600  1.0  0.9155
  Cu  Cu4  1  0.388000  0.620000  0.680600  1.0  0.9155
  H  H5  1  0.214000  0.036300  0.708700  1.0  0.1063
  H  H6  1  0.375900  0.135300  0.637400  1.0  0.0723
  H  H7  1  0.079900  0.209300  0.895200  1.0  0.1028
  H  H8  1  0.408600  0.898100  0.891700  1.0  0.0841
  H  H9  1  0.392800  0.761600  0.962100  1.0  0.1194
  H  H10  1  0.864700  0.276900  0.964500  1.0  0.1028
  H  H11  1  0.786000  0.463700  0.208700  1.0  0.107
  H  H12  1  0.624100  0.364700  0.137400  1.0  0.0722
  H  H13  1  0.920100  0.290700  0.395200  1.0  0.1032
  H  H14  1  0.591400  0.601900  0.391700  1.0  0.0844
  H  H15  1  0.607200  0.738400  0.462100  1.0  0.1224
  H  H16  1  0.135300  0.223100  0.464500  1.0  0.1037
  H  H17  1  0.786000  0.963700  0.291300  1.0  0.1062
  H  H18  1  0.624100  0.864700  0.362600  1.0  0.0722
  H  H19  1  0.920100  0.790700  0.104800  1.0  0.1032
  H  H20  1  0.591400  0.101900  0.108300  1.0  0.0842
  H  H21  1  0.607200  0.238400  0.037900  1.0  0.1226
  H  H22  1  0.135300  0.723100  0.035500  1.0  0.1042
  H  H23  1  0.214000  0.536300  0.791300  1.0  0.1063
  H  H24  1  0.375900  0.635300  0.862600  1.0  0.0725
  H  H25  1  0.079900  0.709300  0.604800  1.0  0.1025
  H  H26  1  0.408600  0.398100  0.608300  1.0  0.0845
  H  H27  1  0.392800  0.261600  0.537900  1.0  0.1195
  H  H28  1  0.864700  0.776900  0.535500  1.0  0.1027
  C  C29  1  0.650900  0.320800  0.802500  1.0  0.6454
  C  C30  1  0.586300  0.268700  0.752400  1.0  0.0173
  C  C31  1  0.334600  0.110900  0.710000  1.0  0.1048
  C  C32  1  0.433400  0.169700  0.668800  1.0  0.1323
  C  C33  1  0.685200  0.323500  0.710400  1.0  0.1608
  C  C34  1  0.868400  0.442300  0.705000  1.0  0.6652
  C  C35  1  0.113000  0.136100  0.911400  1.0  0.0981
  C  C36  1  0.305900  0.953300  0.909400  1.0  0.1164
  C  C37  1  0.214500  0.924900  0.955800  1.0  -0.0044
  C  C38  1  0.013900  0.114900  0.957900  1.0  -0.0201
  C  C39  1  0.063100  0.007800  0.981200  1.0  0.038
  C  C40  1  0.272900  0.815600  0.976400  1.0  -0.1073
  C  C41  1  0.866300  0.200900  0.980700  1.0  -0.0901
  C  C42  1  0.349100  0.179200  0.302500  1.0  0.6457
  C  C43  1  0.413700  0.231300  0.252400  1.0  0.0186
  C  C44  1  0.665400  0.389100  0.210000  1.0  0.1059
  C  C45  1  0.566600  0.330300  0.168800  1.0  0.1338
  C  C46  1  0.314800  0.176500  0.210400  1.0  0.1599
  C  C47  1  0.131600  0.057700  0.205000  1.0  0.6625
  C  C48  1  0.887000  0.363900  0.411400  1.0  0.0999
  C  C49  1  0.694100  0.546700  0.409400  1.0  0.1179
  C  C50  1  0.785500  0.575100  0.455800  1.0  -0.0033
  C  C51  1  0.986100  0.385100  0.457900  1.0  -0.0201
  C  C52  1  0.936900  0.492200  0.481200  1.0  0.0399
  C  C53  1  0.727100  0.684400  0.476400  1.0  -0.1071
  C  C54  1  0.133700  0.299100  0.480700  1.0  -0.0881
  C  C55  1  0.349100  0.679200  0.197500  1.0  0.6452
  C  C56  1  0.413700  0.731300  0.247600  1.0  0.0167
  C  C57  1  0.665400  0.889100  0.290000  1.0  0.1049
  C  C58  1  0.566600  0.830300  0.331200  1.0  0.1318
  C  C59  1  0.314800  0.676500  0.289600  1.0  0.1603
  C  C60  1  0.131600  0.557700  0.295000  1.0  0.6625
  C  C61  1  0.887000  0.863900  0.088600  1.0  0.1006
  C  C62  1  0.694100  0.046700  0.090600  1.0  0.1175
  C  C63  1  0.785500  0.075100  0.044200  1.0  -0.0035
  C  C64  1  0.986100  0.885100  0.042100  1.0  -0.0197
  C  C65  1  0.936900  0.992200  0.018800  1.0  0.0402
  C  C66  1  0.727100  0.184400  0.023600  1.0  -0.1062
  C  C67  1  0.133700  0.799100  0.019300  1.0  -0.088
  C  C68  1  0.650900  0.820800  0.697500  1.0  0.6448
  C  C69  1  0.586300  0.768700  0.747600  1.0  0.0154
  C  C70  1  0.334600  0.610900  0.790000  1.0  0.1038
  C  C71  1  0.433400  0.669700  0.831200  1.0  0.1312
  C  C72  1  0.685200  0.823500  0.789600  1.0  0.1615
  C  C73  1  0.868400  0.942300  0.795000  1.0  0.6652
  C  C74  1  0.113000  0.636100  0.588600  1.0  0.099
  C  C75  1  0.305900  0.453300  0.590600  1.0  0.1163
  C  C76  1  0.214500  0.424900  0.544200  1.0  -0.0039
  C  C77  1  0.013900  0.614900  0.542100  1.0  -0.0198
  C  C78  1  0.063100  0.507800  0.518800  1.0  0.0393
  C  C79  1  0.272900  0.315600  0.523600  1.0  -0.1066
  C  C80  1  0.866300  0.700900  0.519300  1.0  -0.0902
  N  N81  1  0.416000  0.163500  0.752200  1.0  -0.187
  N  N82  1  0.605800  0.272500  0.668800  1.0  -0.3678
  N  N83  1  0.256700  0.057000  0.887400  1.0  -0.3094
  N  N84  1  0.584000  0.336500  0.252200  1.0  -0.1874
  N  N85  1  0.394200  0.227500  0.168800  1.0  -0.3678
  N  N86  1  0.743300  0.443000  0.387400  1.0  -0.3104
  N  N87  1  0.584000  0.836500  0.247800  1.0  -0.1862
  N  N88  1  0.394200  0.727500  0.331200  1.0  -0.3661
  N  N89  1  0.743300  0.943000  0.112600  1.0  -0.3079
  N  N90  1  0.416000  0.663500  0.747800  1.0  -0.186
  N  N91  1  0.605800  0.772500  0.831200  1.0  -0.3659
  N  N92  1  0.256700  0.557000  0.612600  1.0  -0.3079
  O  O93  1  0.533000  0.258300  0.835200  1.0  -0.6005
  O  O94  1  0.789000  0.420400  0.806600  1.0  -0.5647
  O  O95  1  0.119000  0.488000  0.712000  1.0  -0.6232
  O  O96  1  0.755000  0.534100  0.694300  1.0  -0.6143
  O  O97  1  0.467000  0.241700  0.335200  1.0  -0.6004
  O  O98  1  0.211000  0.079600  0.306600  1.0  -0.5648
  O  O99  1  0.881000  0.012000  0.212000  1.0  -0.6232
  O  O100  1  0.245000  0.965900  0.194300  1.0  -0.6147
  O  O101  1  0.467000  0.741700  0.164800  1.0  -0.6002
  O  O102  1  0.211000  0.579600  0.193400  1.0  -0.5658
  O  O103  1  0.881000  0.512000  0.288000  1.0  -0.6234
  O  O104  1  0.245000  0.465900  0.305700  1.0  -0.6143
  O  O105  1  0.533000  0.758300  0.664800  1.0  -0.6003
  O  O106  1  0.789000  0.920400  0.693400  1.0  -0.5654
  O  O107  1  0.119000  0.988000  0.788000  1.0  -0.6234
  O  O108  1  0.755000  0.034100  0.805700  1.0  -0.6139
