# generated using pymatgen
data_Zn4H12C24O13
_symmetry_space_group_name_H-M   'P 1'
_cell_length_a   18.25190000
_cell_length_b   18.25190000
_cell_length_c   18.25200000
_cell_angle_alpha   60.00370000
_cell_angle_beta   60.00370000
_cell_angle_gamma   60.00050000
_symmetry_Int_Tables_number   1
_chemical_formula_structural   Zn4H12C24O13
_chemical_formula_sum   'Zn8 H24 C48 O26'
_cell_volume   4299.69401806
_cell_formula_units_Z   2
loop_
 _symmetry_equiv_pos_site_id
 _symmetry_equiv_pos_as_xyz
  1  'x, y, z'
loop_
 _atom_site_type_symbol
 _atom_site_label
 _atom_site_symmetry_multiplicity
 _atom_site_fract_x
 _atom_site_fract_y
 _atom_site_fract_z
 _atom_site_occupancy
 _atom_site_charge
  Zn  Zn1  1  0.880880  0.706520  0.206310  1.0  1.0886
  Zn  Zn2  1  0.293480  0.119120  0.793690  1.0  1.0887
  Zn  Zn3  1  0.119120  0.293480  0.793690  1.0  1.0885
  Zn  Zn4  1  0.706520  0.880880  0.206310  1.0  1.0885
  Zn  Zn5  1  0.706330  0.706330  0.380800  1.0  1.1181
  Zn  Zn6  1  0.706450  0.706450  0.206100  1.0  1.0974
  Zn  Zn7  1  0.293670  0.293670  0.619200  1.0  1.1165
  Zn  Zn8  1  0.293550  0.293550  0.793900  1.0  1.0979
  H  H9  1  0.543800  0.063800  0.347700  1.0  0.1127
  H  H10  1  0.540700  0.847700  0.561600  1.0  0.1084
  H  H11  1  0.547400  0.061800  0.045200  1.0  0.1093
  H  H12  1  0.546900  0.846500  0.039900  1.0  0.1066
  H  H13  1  0.062900  0.847100  0.047000  1.0  0.1087
  H  H14  1  0.936200  0.456200  0.652300  1.0  0.1126
  H  H15  1  0.152300  0.459300  0.438400  1.0  0.1085
  H  H16  1  0.938200  0.452600  0.954800  1.0  0.1091
  H  H17  1  0.153500  0.453100  0.960100  1.0  0.1067
  H  H18  1  0.152900  0.937100  0.953000  1.0  0.1091
  H  H19  1  0.456200  0.936200  0.652300  1.0  0.1125
  H  H20  1  0.459300  0.152300  0.438400  1.0  0.1086
  H  H21  1  0.452600  0.938200  0.954800  1.0  0.1089
  H  H22  1  0.453100  0.153500  0.960100  1.0  0.1067
  H  H23  1  0.937100  0.152900  0.953000  1.0  0.1084
  H  H24  1  0.063800  0.543800  0.347700  1.0  0.1128
  H  H25  1  0.847700  0.540700  0.561600  1.0  0.1083
  H  H26  1  0.061800  0.547400  0.045200  1.0  0.1092
  H  H27  1  0.846500  0.546900  0.039900  1.0  0.1077
  H  H28  1  0.847100  0.062900  0.047000  1.0  0.1092
  H  H29  1  0.545100  0.545100  0.347000  1.0  0.1131
  H  H30  1  0.542400  0.542400  0.565500  1.0  0.0997
  H  H31  1  0.454900  0.454900  0.653000  1.0  0.1132
  H  H32  1  0.457600  0.457600  0.434500  1.0  0.1002
  C  C33  1  0.611800  0.890600  0.386400  1.0  0.6817
  C  C34  1  0.553000  0.947600  0.446800  1.0  -0.115
  C  C35  1  0.526900  0.037300  0.410000  1.0  -0.0632
  C  C36  1  0.525100  0.909900  0.536000  1.0  -0.058
  C  C37  1  0.612200  0.889400  0.109800  1.0  0.7097
  C  C38  1  0.556300  0.945100  0.052900  1.0  -0.1121
  C  C39  1  0.528500  0.036100  0.027700  1.0  -0.0675
  C  C40  1  0.528100  0.908500  0.024300  1.0  -0.0493
  C  C41  1  0.036600  0.909200  0.027500  1.0  -0.0641
  C  C42  1  0.109400  0.388200  0.613600  1.0  0.6817
  C  C43  1  0.052400  0.447000  0.553200  1.0  -0.114
  C  C44  1  0.962700  0.473100  0.590000  1.0  -0.0603
  C  C45  1  0.090100  0.474900  0.464000  1.0  -0.0545
  C  C46  1  0.110600  0.387800  0.890200  1.0  0.709
  C  C47  1  0.054900  0.443700  0.947100  1.0  -0.1132
  C  C48  1  0.963900  0.471500  0.972300  1.0  -0.0659
  C  C49  1  0.091500  0.471900  0.975700  1.0  -0.0495
  C  C50  1  0.090800  0.963400  0.972500  1.0  -0.0655
  C  C51  1  0.388200  0.109400  0.613600  1.0  0.6818
  C  C52  1  0.447000  0.052400  0.553200  1.0  -0.1154
  C  C53  1  0.473100  0.962700  0.590000  1.0  -0.0624
  C  C54  1  0.474900  0.090100  0.464000  1.0  -0.057
  C  C55  1  0.387800  0.110600  0.890200  1.0  0.7088
  C  C56  1  0.443700  0.054900  0.947100  1.0  -0.1141
  C  C57  1  0.471500  0.963900  0.972300  1.0  -0.0685
  C  C58  1  0.471900  0.091500  0.975700  1.0  -0.0496
  C  C59  1  0.963400  0.090800  0.972500  1.0  -0.0693
  C  C60  1  0.890600  0.611800  0.386400  1.0  0.6817
  C  C61  1  0.947600  0.553000  0.446800  1.0  -0.115
  C  C62  1  0.037300  0.526900  0.410000  1.0  -0.0612
  C  C63  1  0.909900  0.525100  0.536000  1.0  -0.0532
  C  C64  1  0.889400  0.612200  0.109800  1.0  0.7087
  C  C65  1  0.945100  0.556300  0.052900  1.0  -0.1131
  C  C66  1  0.036100  0.528500  0.027700  1.0  -0.0661
  C  C67  1  0.908500  0.528100  0.024300  1.0  -0.0495
  C  C68  1  0.909200  0.036600  0.027500  1.0  -0.0636
  C  C69  1  0.610100  0.610100  0.393000  1.0  0.7243
  C  C70  1  0.554000  0.554000  0.446000  1.0  -0.1242
  C  C71  1  0.527400  0.527400  0.409000  1.0  -0.0642
  C  C72  1  0.525000  0.525000  0.538000  1.0  -0.0604
  C  C73  1  0.886500  0.886500  0.115000  1.0  0.6876
  C  C74  1  0.946700  0.946700  0.053000  1.0  -0.118
  C  C75  1  0.389900  0.389900  0.607000  1.0  0.7252
  C  C76  1  0.446000  0.446000  0.554000  1.0  -0.124
  C  C77  1  0.472600  0.472600  0.591000  1.0  -0.064
  C  C78  1  0.475000  0.475000  0.462000  1.0  -0.0621
  C  C79  1  0.113500  0.113500  0.885000  1.0  0.6867
  C  C80  1  0.053300  0.053300  0.947000  1.0  -0.1162
  O  O81  1  0.631900  0.804900  0.429900  1.0  -0.601
  O  O82  1  0.634300  0.931100  0.303700  1.0  -0.5831
  O  O83  1  0.631600  0.803800  0.135100  1.0  -0.6067
  O  O84  1  0.633800  0.929600  0.132300  1.0  -0.5994
  O  O85  1  0.928900  0.803500  0.134600  1.0  -0.5943
  O  O86  1  0.195100  0.368100  0.570100  1.0  -0.5995
  O  O87  1  0.068900  0.365700  0.696300  1.0  -0.584
  O  O88  1  0.196200  0.368400  0.864900  1.0  -0.6059
  O  O89  1  0.070400  0.366200  0.867700  1.0  -0.6012
  O  O90  1  0.196500  0.071100  0.865400  1.0  -0.5934
  O  O91  1  0.368100  0.195100  0.570100  1.0  -0.6006
  O  O92  1  0.365700  0.068900  0.696300  1.0  -0.583
  O  O93  1  0.368400  0.196200  0.864900  1.0  -0.6064
  O  O94  1  0.366200  0.070400  0.867700  1.0  -0.6005
  O  O95  1  0.071100  0.196500  0.865400  1.0  -0.5951
  O  O96  1  0.804900  0.631900  0.429900  1.0  -0.5988
  O  O97  1  0.931100  0.634300  0.303700  1.0  -0.584
  O  O98  1  0.803800  0.631600  0.135100  1.0  -0.6064
  O  O99  1  0.929600  0.633800  0.132300  1.0  -0.6004
  O  O100  1  0.803500  0.928900  0.134600  1.0  -0.5936
  O  O101  1  0.749900  0.749900  0.250200  1.0  -1.2632
  O  O102  1  0.633300  0.633300  0.428900  1.0  -0.6048
  O  O103  1  0.631700  0.631700  0.308400  1.0  -0.6316
  O  O104  1  0.250100  0.250100  0.749800  1.0  -1.2629
  O  O105  1  0.366700  0.366700  0.571100  1.0  -0.6055
  O  O106  1  0.368300  0.368300  0.691600  1.0  -0.6326
