# generated using pymatgen
data_Zn4H12C24O13
_symmetry_space_group_name_H-M   'P 1'
_cell_length_a   18.25190000
_cell_length_b   18.25190000
_cell_length_c   18.25200000
_cell_angle_alpha   60.00370000
_cell_angle_beta   60.00370000
_cell_angle_gamma   60.00050000
_symmetry_Int_Tables_number   1
_chemical_formula_structural   Zn4H12C24O13
_chemical_formula_sum   'Zn8 H24 C48 O26'
_cell_volume   4299.69401806
_cell_formula_units_Z   2
loop_
 _symmetry_equiv_pos_site_id
 _symmetry_equiv_pos_as_xyz
  1  'x, y, z'
loop_
 _atom_site_type_symbol
 _atom_site_label
 _atom_site_symmetry_multiplicity
 _atom_site_fract_x
 _atom_site_fract_y
 _atom_site_fract_z
 _atom_site_occupancy
 _atom_site_charge
  Zn  Zn1  1  0.881270  0.706390  0.206240  1.0  1.0649
  Zn  Zn2  1  0.293610  0.118730  0.793760  1.0  1.0663
  Zn  Zn3  1  0.118730  0.293610  0.793760  1.0  1.0655
  Zn  Zn4  1  0.706390  0.881270  0.206240  1.0  1.0669
  Zn  Zn5  1  0.706060  0.706060  0.381330  1.0  1.0554
  Zn  Zn6  1  0.706240  0.706240  0.206140  1.0  1.0429
  Zn  Zn7  1  0.293940  0.293940  0.618670  1.0  1.0526
  Zn  Zn8  1  0.293760  0.293760  0.793860  1.0  1.0436
  H  H9  1  0.546300  0.060900  0.349800  1.0  0.102
  H  H10  1  0.543100  0.846100  0.561500  1.0  0.1178
  H  H11  1  0.547200  0.059800  0.046100  1.0  0.1066
  H  H12  1  0.543200  0.848600  0.043800  1.0  0.1036
  H  H13  1  0.062600  0.846600  0.048600  1.0  0.1118
  H  H14  1  0.939100  0.453700  0.650200  1.0  0.1007
  H  H15  1  0.153900  0.456900  0.438500  1.0  0.1172
  H  H16  1  0.940200  0.452800  0.953900  1.0  0.1066
  H  H17  1  0.151400  0.456800  0.956200  1.0  0.1031
  H  H18  1  0.153400  0.937400  0.951400  1.0  0.1113
  H  H19  1  0.453700  0.939100  0.650200  1.0  0.1014
  H  H20  1  0.456900  0.153900  0.438500  1.0  0.1169
  H  H21  1  0.452800  0.940200  0.953900  1.0  0.1066
  H  H22  1  0.456800  0.151400  0.956200  1.0  0.1034
  H  H23  1  0.937400  0.153400  0.951400  1.0  0.1113
  H  H24  1  0.060900  0.546300  0.349800  1.0  0.1017
  H  H25  1  0.846100  0.543100  0.561500  1.0  0.1164
  H  H26  1  0.059800  0.547200  0.046100  1.0  0.1064
  H  H27  1  0.848600  0.543200  0.043800  1.0  0.1029
  H  H28  1  0.846600  0.062600  0.048600  1.0  0.112
  H  H29  1  0.544400  0.544400  0.347700  1.0  0.1073
  H  H30  1  0.543300  0.543300  0.563800  1.0  0.1041
  H  H31  1  0.455600  0.455600  0.652300  1.0  0.1075
  H  H32  1  0.456700  0.456700  0.436200  1.0  0.1041
  C  C33  1  0.612200  0.889800  0.386200  1.0  0.6527
  C  C34  1  0.552500  0.947900  0.447400  1.0  -0.1058
  C  C35  1  0.527600  0.035200  0.412000  1.0  -0.0489
  C  C36  1  0.526400  0.908200  0.535500  1.0  -0.0615
  C  C37  1  0.613400  0.886600  0.109100  1.0  0.6906
  C  C38  1  0.556100  0.945100  0.053800  1.0  -0.1158
  C  C39  1  0.529200  0.033600  0.028100  1.0  -0.0471
  C  C40  1  0.526400  0.910600  0.026300  1.0  -0.0703
  C  C41  1  0.036500  0.908700  0.028500  1.0  -0.059
  C  C42  1  0.110200  0.387800  0.613800  1.0  0.6531
  C  C43  1  0.052100  0.447500  0.552600  1.0  -0.1047
  C  C44  1  0.964800  0.472400  0.588000  1.0  -0.0479
  C  C45  1  0.091800  0.473600  0.464500  1.0  -0.0583
  C  C46  1  0.113400  0.386600  0.890900  1.0  0.6909
  C  C47  1  0.054900  0.443900  0.946200  1.0  -0.117
  C  C48  1  0.966400  0.470800  0.971900  1.0  -0.0462
  C  C49  1  0.089400  0.473600  0.973700  1.0  -0.0683
  C  C50  1  0.091300  0.963500  0.971500  1.0  -0.0585
  C  C51  1  0.387800  0.110200  0.613800  1.0  0.6535
  C  C52  1  0.447500  0.052100  0.552600  1.0  -0.1064
  C  C53  1  0.472400  0.964800  0.588000  1.0  -0.0488
  C  C54  1  0.473600  0.091800  0.464500  1.0  -0.0619
  C  C55  1  0.386600  0.113400  0.890900  1.0  0.6908
  C  C56  1  0.443900  0.054900  0.946200  1.0  -0.1157
  C  C57  1  0.470800  0.966400  0.971900  1.0  -0.048
  C  C58  1  0.473600  0.089400  0.973700  1.0  -0.0714
  C  C59  1  0.963500  0.091300  0.971500  1.0  -0.0591
  C  C60  1  0.889800  0.612200  0.386200  1.0  0.6524
  C  C61  1  0.947900  0.552500  0.447400  1.0  -0.1075
  C  C62  1  0.035200  0.527600  0.412000  1.0  -0.046
  C  C63  1  0.908200  0.526400  0.535500  1.0  -0.0586
  C  C64  1  0.886600  0.613400  0.109100  1.0  0.6906
  C  C65  1  0.945100  0.556100  0.053800  1.0  -0.1154
  C  C66  1  0.033600  0.529200  0.028100  1.0  -0.0445
  C  C67  1  0.910600  0.526400  0.026300  1.0  -0.0697
  C  C68  1  0.908700  0.036500  0.028500  1.0  -0.0598
  C  C69  1  0.611400  0.611400  0.393000  1.0  0.7099
  C  C70  1  0.554200  0.554200  0.445200  1.0  -0.1233
  C  C71  1  0.527000  0.527000  0.409700  1.0  -0.0541
  C  C72  1  0.525800  0.525800  0.536700  1.0  -0.0594
  C  C73  1  0.884800  0.884800  0.117100  1.0  0.6473
  C  C74  1  0.946500  0.946500  0.053700  1.0  -0.1147
  C  C75  1  0.388600  0.388600  0.607000  1.0  0.7106
  C  C76  1  0.445800  0.445800  0.554800  1.0  -0.1233
  C  C77  1  0.473000  0.473000  0.590300  1.0  -0.0551
  C  C78  1  0.474200  0.474200  0.463300  1.0  -0.0607
  C  C79  1  0.115200  0.115200  0.882900  1.0  0.6472
  C  C80  1  0.053500  0.053500  0.946300  1.0  -0.113
  O  O81  1  0.631600  0.804400  0.432100  1.0  -0.5878
  O  O82  1  0.633700  0.933700  0.302000  1.0  -0.5643
  O  O83  1  0.630200  0.803400  0.135600  1.0  -0.5776
  O  O84  1  0.633100  0.930700  0.131600  1.0  -0.6109
  O  O85  1  0.930800  0.802400  0.134400  1.0  -0.5544
  O  O86  1  0.195600  0.368400  0.567900  1.0  -0.5864
  O  O87  1  0.066300  0.366300  0.698000  1.0  -0.5652
  O  O88  1  0.196600  0.369800  0.864400  1.0  -0.5773
  O  O89  1  0.069300  0.366900  0.868400  1.0  -0.6097
  O  O90  1  0.197600  0.069200  0.865600  1.0  -0.5527
  O  O91  1  0.368400  0.195600  0.567900  1.0  -0.5877
  O  O92  1  0.366300  0.066300  0.698000  1.0  -0.5664
  O  O93  1  0.369800  0.196600  0.864400  1.0  -0.5769
  O  O94  1  0.366900  0.069300  0.868400  1.0  -0.6102
  O  O95  1  0.069200  0.197600  0.865600  1.0  -0.5538
  O  O96  1  0.804400  0.631600  0.432100  1.0  -0.5857
  O  O97  1  0.933700  0.633700  0.302000  1.0  -0.5654
  O  O98  1  0.803400  0.630200  0.135600  1.0  -0.5766
  O  O99  1  0.930700  0.633100  0.131600  1.0  -0.6101
  O  O100  1  0.802400  0.930800  0.134400  1.0  -0.552
  O  O101  1  0.750200  0.750200  0.250300  1.0  -1.2445
  O  O102  1  0.632600  0.632600  0.431400  1.0  -0.5669
  O  O103  1  0.630300  0.630300  0.310000  1.0  -0.6056
  O  O104  1  0.249800  0.249800  0.749700  1.0  -1.2443
  O  O105  1  0.367400  0.367400  0.568600  1.0  -0.5672
  O  O106  1  0.369700  0.369700  0.690000  1.0  -0.605
