# generated using pymatgen
data_NiSb2H26W18C30(NO10)6
_symmetry_space_group_name_H-M   'P 1'
_cell_length_a   19.04350000
_cell_length_b   21.60230000
_cell_length_c   22.22980000
_cell_angle_alpha   90.00000000
_cell_angle_beta   90.00000000
_cell_angle_gamma   90.00000000
_symmetry_Int_Tables_number   1
_chemical_formula_structural   NiSb2H26W18C30(NO10)6
_chemical_formula_sum   'Ni4 Sb8 H104 W72 C120 N24 O240'
_cell_volume   9144.97070643
_cell_formula_units_Z   4
loop_
 _symmetry_equiv_pos_site_id
 _symmetry_equiv_pos_as_xyz
  1  'x, y, z'
loop_
 _atom_site_type_symbol
 _atom_site_label
 _atom_site_symmetry_multiplicity
 _atom_site_fract_x
 _atom_site_fract_y
 _atom_site_fract_z
 _atom_site_occupancy
 _atom_site_charge
  Ni  Ni1  1  0.750000  0.750000  0.903820  1.0  0.6427
  Ni  Ni2  1  0.250000  0.250000  0.596180  1.0  0.6426
  Ni  Ni3  1  0.250000  0.250000  0.096180  1.0  0.6426
  Ni  Ni4  1  0.750000  0.750000  0.403820  1.0  0.6427
  Sb  Sb5  1  0.965410  0.988670  0.036820  1.0  1.2248
  Sb  Sb6  1  0.534590  0.511330  0.036820  1.0  1.2256
  Sb  Sb7  1  0.034590  0.488670  0.463180  1.0  1.2269
  Sb  Sb8  1  0.465410  0.011330  0.463180  1.0  1.2258
  Sb  Sb9  1  0.034590  0.011330  0.963180  1.0  1.2267
  Sb  Sb10  1  0.465410  0.488670  0.963180  1.0  1.2259
  Sb  Sb11  1  0.965410  0.511330  0.536820  1.0  1.2248
  Sb  Sb12  1  0.534590  0.988670  0.536820  1.0  1.2257
  H  H13  1  0.306200  0.977600  0.818900  1.0  0.2512
  H  H14  1  0.487500  0.776600  0.876700  1.0  0.1015
  H  H15  1  0.591200  0.728900  0.892000  1.0  0.0418
  H  H16  1  0.694000  0.884900  0.888500  1.0  0.1021
  H  H17  1  0.591100  0.934300  0.864600  1.0  0.0635
  H  H18  1  0.495900  0.961500  0.801900  1.0  0.0449
  H  H19  1  0.402100  0.015800  0.778300  1.0  0.1132
  H  H20  1  0.288200  0.894100  0.874200  1.0  0.091
  H  H21  1  0.393400  0.838600  0.900400  1.0  0.0876
  H  H22  1  0.796000  0.669300  0.303400  1.0  0.054
  H  H23  1  0.800800  0.667900  0.199500  1.0  0.1057
  H  H24  1  0.845900  0.717100  0.006600  1.0  0.0634
  H  H25  1  0.847900  0.714800  0.109000  1.0  0.1026
  H  H26  1  0.193800  0.522400  0.818900  1.0  0.2506
  H  H27  1  0.012500  0.723400  0.876700  1.0  0.1018
  H  H28  1  0.908800  0.771100  0.892000  1.0  0.0416
  H  H29  1  0.806000  0.615100  0.888500  1.0  0.1014
  H  H30  1  0.908900  0.565700  0.864600  1.0  0.0639
  H  H31  1  0.004100  0.538500  0.801900  1.0  0.0446
  H  H32  1  0.097900  0.484200  0.778300  1.0  0.1133
  H  H33  1  0.211800  0.605900  0.874200  1.0  0.0911
  H  H34  1  0.106600  0.661400  0.900400  1.0  0.0869
  H  H35  1  0.704000  0.830700  0.303400  1.0  0.0539
  H  H36  1  0.699200  0.832100  0.199500  1.0  0.1061
  H  H37  1  0.654100  0.782900  0.006600  1.0  0.0627
  H  H38  1  0.652100  0.785200  0.109000  1.0  0.1024
  H  H39  1  0.693800  0.477600  0.681100  1.0  0.2514
  H  H40  1  0.512500  0.276600  0.623300  1.0  0.1017
  H  H41  1  0.408800  0.228900  0.608000  1.0  0.0419
  H  H42  1  0.306000  0.384900  0.611500  1.0  0.1016
  H  H43  1  0.408900  0.434300  0.635400  1.0  0.0633
  H  H44  1  0.504100  0.461500  0.698100  1.0  0.0432
  H  H45  1  0.597900  0.515800  0.721700  1.0  0.1128
  H  H46  1  0.711800  0.394100  0.625800  1.0  0.0913
  H  H47  1  0.606600  0.338600  0.599600  1.0  0.0867
  H  H48  1  0.204000  0.169300  0.196600  1.0  0.0535
  H  H49  1  0.199200  0.167900  0.300500  1.0  0.1058
  H  H50  1  0.154100  0.217100  0.493400  1.0  0.0625
  H  H51  1  0.152100  0.214800  0.391000  1.0  0.1022
  H  H52  1  0.806200  0.022400  0.681100  1.0  0.2509
  H  H53  1  0.987500  0.223400  0.623300  1.0  0.1017
  H  H54  1  0.091200  0.271100  0.608000  1.0  0.0415
  H  H55  1  0.194000  0.115100  0.611500  1.0  0.1019
  H  H56  1  0.091100  0.065700  0.635400  1.0  0.0639
  H  H57  1  0.995900  0.038500  0.698100  1.0  0.0444
  H  H58  1  0.902100  0.984200  0.721700  1.0  0.1129
  H  H59  1  0.788200  0.105900  0.625800  1.0  0.0912
  H  H60  1  0.893400  0.161400  0.599600  1.0  0.0873
  H  H61  1  0.296000  0.330700  0.196600  1.0  0.0535
  H  H62  1  0.300800  0.332100  0.300500  1.0  0.1055
  H  H63  1  0.345900  0.282900  0.493400  1.0  0.0628
  H  H64  1  0.347900  0.285200  0.391000  1.0  0.103
  H  H65  1  0.693800  0.022400  0.181100  1.0  0.2516
  H  H66  1  0.512500  0.223400  0.123300  1.0  0.1015
  H  H67  1  0.408800  0.271100  0.108000  1.0  0.0415
  H  H68  1  0.306000  0.115100  0.111500  1.0  0.1013
  H  H69  1  0.408900  0.065700  0.135400  1.0  0.0635
  H  H70  1  0.504100  0.038500  0.198100  1.0  0.0439
  H  H71  1  0.597900  0.984200  0.221700  1.0  0.1131
  H  H72  1  0.711800  0.105900  0.125800  1.0  0.0914
  H  H73  1  0.606600  0.161400  0.099600  1.0  0.087
  H  H74  1  0.204000  0.330700  0.696600  1.0  0.0537
  H  H75  1  0.199200  0.332100  0.800500  1.0  0.106
  H  H76  1  0.154100  0.282900  0.993400  1.0  0.0628
  H  H77  1  0.152100  0.285200  0.891000  1.0  0.1026
  H  H78  1  0.806200  0.477600  0.181100  1.0  0.2513
  H  H79  1  0.987500  0.276600  0.123300  1.0  0.1019
  H  H80  1  0.091200  0.228900  0.108000  1.0  0.0417
  H  H81  1  0.194000  0.384900  0.111500  1.0  0.102
  H  H82  1  0.091100  0.434300  0.135400  1.0  0.0637
  H  H83  1  0.995900  0.461500  0.198100  1.0  0.0441
  H  H84  1  0.902100  0.515800  0.221700  1.0  0.1128
  H  H85  1  0.788200  0.394100  0.125800  1.0  0.091
  H  H86  1  0.893400  0.338600  0.099600  1.0  0.0871
  H  H87  1  0.296000  0.169300  0.696600  1.0  0.0536
  H  H88  1  0.300800  0.167900  0.800500  1.0  0.1055
  H  H89  1  0.345900  0.217100  0.993400  1.0  0.0626
  H  H90  1  0.347900  0.214800  0.891000  1.0  0.1026
  H  H91  1  0.306200  0.522400  0.318900  1.0  0.2504
  H  H92  1  0.487500  0.723400  0.376700  1.0  0.1017
  H  H93  1  0.591200  0.771100  0.392000  1.0  0.0414
  H  H94  1  0.694000  0.615100  0.388500  1.0  0.102
  H  H95  1  0.591100  0.565700  0.364600  1.0  0.0641
  H  H96  1  0.495900  0.538500  0.301900  1.0  0.045
  H  H97  1  0.402100  0.484200  0.278300  1.0  0.1132
  H  H98  1  0.288200  0.605900  0.374200  1.0  0.0908
  H  H99  1  0.393400  0.661400  0.400400  1.0  0.0872
  H  H100  1  0.796000  0.830700  0.803400  1.0  0.0541
  H  H101  1  0.800800  0.832100  0.699500  1.0  0.1058
  H  H102  1  0.845900  0.782900  0.506600  1.0  0.0633
  H  H103  1  0.847900  0.785200  0.609000  1.0  0.1027
  H  H104  1  0.193800  0.977600  0.318900  1.0  0.251
  H  H105  1  0.012500  0.776600  0.376700  1.0  0.1016
  H  H106  1  0.908800  0.728900  0.392000  1.0  0.0419
  H  H107  1  0.806000  0.884900  0.388500  1.0  0.1018
  H  H108  1  0.908900  0.934300  0.364600  1.0  0.0634
  H  H109  1  0.004100  0.961500  0.301900  1.0  0.0442
  H  H110  1  0.097900  0.015800  0.278300  1.0  0.1131
  H  H111  1  0.211800  0.894100  0.374200  1.0  0.0912
  H  H112  1  0.106600  0.838600  0.400400  1.0  0.0872
  H  H113  1  0.704000  0.669300  0.803400  1.0  0.0537
  H  H114  1  0.699200  0.667900  0.699500  1.0  0.1059
  H  H115  1  0.654100  0.717100  0.506600  1.0  0.0624
  H  H116  1  0.652100  0.714800  0.609000  1.0  0.1023
  W  W117  1  0.839290  0.892420  0.960760  1.0  2.011
  W  W118  1  0.770780  0.935870  0.091330  1.0  2.3148
  W  W119  1  0.796510  0.038800  0.981520  1.0  2.3834
  W  W120  1  0.902800  0.136850  0.086800  1.0  2.2643
  W  W121  1  0.921350  0.869200  0.174440  1.0  2.2828
  W  W122  1  0.990820  0.822280  0.044590  1.0  2.3566
  W  W123  1  0.964930  0.924100  0.839440  1.0  2.069
  W  W124  1  0.084490  0.909460  0.137020  1.0  2.3703
  W  W125  1  0.873830  0.033610  0.195890  1.0  2.4071
  W  W126  1  0.660710  0.607580  0.960760  1.0  2.0104
  W  W127  1  0.729220  0.564130  0.091330  1.0  2.3128
  W  W128  1  0.703490  0.461200  0.981520  1.0  2.3849
  W  W129  1  0.597200  0.363150  0.086800  1.0  2.2631
  W  W130  1  0.578650  0.630800  0.174440  1.0  2.2827
  W  W131  1  0.509180  0.677720  0.044590  1.0  2.3583
  W  W132  1  0.535070  0.575900  0.839440  1.0  2.0703
  W  W133  1  0.415510  0.590540  0.137020  1.0  2.3724
  W  W134  1  0.626170  0.466390  0.195890  1.0  2.4063
  W  W135  1  0.160710  0.392420  0.539240  1.0  2.0109
  W  W136  1  0.229220  0.435870  0.408670  1.0  2.3112
  W  W137  1  0.203490  0.538800  0.518480  1.0  2.3846
  W  W138  1  0.097200  0.636850  0.413200  1.0  2.2651
  W  W139  1  0.078650  0.369200  0.325560  1.0  2.2829
  W  W140  1  0.009180  0.322280  0.455410  1.0  2.3562
  W  W141  1  0.035070  0.424100  0.660560  1.0  2.0718
  W  W142  1  0.915510  0.409460  0.362980  1.0  2.3718
  W  W143  1  0.126170  0.533610  0.304110  1.0  2.4058
  W  W144  1  0.339290  0.107580  0.539240  1.0  2.0117
  W  W145  1  0.270780  0.064130  0.408670  1.0  2.3137
  W  W146  1  0.296510  0.961200  0.518480  1.0  2.3861
  W  W147  1  0.402800  0.863150  0.413200  1.0  2.2622
  W  W148  1  0.421350  0.130800  0.325560  1.0  2.2815
  W  W149  1  0.490820  0.177720  0.455410  1.0  2.3577
  W  W150  1  0.464930  0.075900  0.660560  1.0  2.0716
  W  W151  1  0.584490  0.090540  0.362980  1.0  2.3704
  W  W152  1  0.373830  0.966390  0.304110  1.0  2.4084
  W  W153  1  0.160710  0.107580  0.039240  1.0  2.011
  W  W154  1  0.229220  0.064130  0.908670  1.0  2.3116
  W  W155  1  0.203490  0.961200  0.018480  1.0  2.3859
  W  W156  1  0.097200  0.863150  0.913200  1.0  2.2609
  W  W157  1  0.078650  0.130800  0.825560  1.0  2.2822
  W  W158  1  0.009180  0.177720  0.955410  1.0  2.3581
  W  W159  1  0.035070  0.075900  0.160560  1.0  2.0722
  W  W160  1  0.915510  0.090540  0.862980  1.0  2.3724
  W  W161  1  0.126170  0.966390  0.804110  1.0  2.4067
  W  W162  1  0.339290  0.392420  0.039240  1.0  2.0115
  W  W163  1  0.270780  0.435870  0.908670  1.0  2.3135
  W  W164  1  0.296510  0.538800  0.018480  1.0  2.3856
  W  W165  1  0.402800  0.636850  0.913200  1.0  2.2617
  W  W166  1  0.421350  0.369200  0.825560  1.0  2.282
  W  W167  1  0.490820  0.322280  0.955410  1.0  2.3567
  W  W168  1  0.464930  0.424100  0.160560  1.0  2.0711
  W  W169  1  0.584490  0.409460  0.862980  1.0  2.3709
  W  W170  1  0.373830  0.533610  0.804110  1.0  2.4075
  W  W171  1  0.839290  0.607580  0.460760  1.0  2.011
  W  W172  1  0.770780  0.564130  0.591330  1.0  2.315
  W  W173  1  0.796510  0.461200  0.481520  1.0  2.384
  W  W174  1  0.902800  0.363150  0.586800  1.0  2.2609
  W  W175  1  0.921350  0.630800  0.674440  1.0  2.2822
  W  W176  1  0.990820  0.677720  0.544590  1.0  2.357
  W  W177  1  0.964930  0.575900  0.339440  1.0  2.0697
  W  W178  1  0.084490  0.590540  0.637020  1.0  2.3704
  W  W179  1  0.873830  0.466390  0.695890  1.0  2.4078
  W  W180  1  0.660710  0.892420  0.460760  1.0  2.0104
  W  W181  1  0.729220  0.935870  0.591330  1.0  2.3124
  W  W182  1  0.703490  0.038800  0.481520  1.0  2.3835
  W  W183  1  0.597200  0.136850  0.586800  1.0  2.2633
  W  W184  1  0.578650  0.869200  0.674440  1.0  2.2838
  W  W185  1  0.509180  0.822280  0.544590  1.0  2.3568
  W  W186  1  0.535070  0.924100  0.339440  1.0  2.0698
  W  W187  1  0.415510  0.909460  0.637020  1.0  2.3722
  W  W188  1  0.626170  0.033610  0.695890  1.0  2.4059
  C  C189  1  0.529100  0.865100  0.868900  1.0  0.0242
  C  C190  1  0.528900  0.799300  0.878100  1.0  -0.2296
  C  C191  1  0.591200  0.771800  0.889000  1.0  0.1459
  C  C192  1  0.652300  0.862500  0.885900  1.0  0.0603
  C  C193  1  0.589500  0.892000  0.872100  1.0  -0.1408
  C  C194  1  0.459200  0.894700  0.853300  1.0  0.0488
  C  C195  1  0.453000  0.947700  0.817600  1.0  -0.1319
  C  C196  1  0.401000  0.981000  0.802500  1.0  -0.0095
  C  C197  1  0.332500  0.906000  0.861000  1.0  -0.0187
  C  C198  1  0.395200  0.874000  0.876000  1.0  -0.1184
  C  C199  1  0.777600  0.702500  0.281900  1.0  0.1358
  C  C200  1  0.780000  0.700800  0.219700  1.0  -0.1995
  C  C201  1  0.806500  0.730400  0.027600  1.0  0.1453
  C  C202  1  0.808300  0.729200  0.088900  1.0  -0.2027
  C  C203  1  0.970900  0.634900  0.868900  1.0  0.0235
  C  C204  1  0.971100  0.700700  0.878100  1.0  -0.2314
  C  C205  1  0.908800  0.728200  0.889000  1.0  0.1451
  C  C206  1  0.847700  0.637500  0.885900  1.0  0.0618
  C  C207  1  0.910500  0.608000  0.872100  1.0  -0.1421
  C  C208  1  0.040800  0.605300  0.853300  1.0  0.0482
  C  C209  1  0.047000  0.552300  0.817600  1.0  -0.1318
  C  C210  1  0.099000  0.519000  0.802500  1.0  -0.0113
  C  C211  1  0.167500  0.594000  0.861000  1.0  -0.0192
  C  C212  1  0.104800  0.626000  0.876000  1.0  -0.1195
  C  C213  1  0.722400  0.797500  0.281900  1.0  0.1377
  C  C214  1  0.720000  0.799200  0.219700  1.0  -0.2007
  C  C215  1  0.693500  0.769600  0.027600  1.0  0.1466
  C  C216  1  0.691700  0.770800  0.088900  1.0  -0.2017
  C  C217  1  0.470900  0.365100  0.631100  1.0  0.0235
  C  C218  1  0.471100  0.299300  0.621900  1.0  -0.2299
  C  C219  1  0.408800  0.271800  0.611000  1.0  0.1455
  C  C220  1  0.347700  0.362500  0.614100  1.0  0.06
  C  C221  1  0.410500  0.392000  0.627900  1.0  -0.1405
  C  C222  1  0.540800  0.394700  0.646700  1.0  0.0482
  C  C223  1  0.547000  0.447700  0.682400  1.0  -0.1304
  C  C224  1  0.599000  0.481000  0.697500  1.0  -0.0112
  C  C225  1  0.667500  0.406000  0.639000  1.0  -0.0199
  C  C226  1  0.604800  0.374000  0.624000  1.0  -0.119
  C  C227  1  0.222400  0.202500  0.218100  1.0  0.1375
  C  C228  1  0.220000  0.200800  0.280300  1.0  -0.1995
  C  C229  1  0.193500  0.230400  0.472400  1.0  0.1461
  C  C230  1  0.191700  0.229200  0.411100  1.0  -0.2011
  C  C231  1  0.029100  0.134900  0.631100  1.0  0.0233
  C  C232  1  0.028900  0.200700  0.621900  1.0  -0.2312
  C  C233  1  0.091200  0.228200  0.611000  1.0  0.1454
  C  C234  1  0.152300  0.137500  0.614100  1.0  0.0612
  C  C235  1  0.089500  0.108000  0.627900  1.0  -0.1419
  C  C236  1  0.959200  0.105300  0.646700  1.0  0.0492
  C  C237  1  0.953000  0.052300  0.682400  1.0  -0.131
  C  C238  1  0.901000  0.019000  0.697500  1.0  -0.0118
  C  C239  1  0.832500  0.094000  0.639000  1.0  -0.0193
  C  C240  1  0.895200  0.126000  0.624000  1.0  -0.1178
  C  C241  1  0.277600  0.297500  0.218100  1.0  0.1375
  C  C242  1  0.280000  0.299200  0.280300  1.0  -0.2012
  C  C243  1  0.306500  0.269600  0.472400  1.0  0.1431
  C  C244  1  0.308300  0.270800  0.411100  1.0  -0.2036
  C  C245  1  0.470900  0.134900  0.131100  1.0  0.0233
  C  C246  1  0.471100  0.200700  0.121900  1.0  -0.2316
  C  C247  1  0.408800  0.228200  0.111000  1.0  0.1449
  C  C248  1  0.347700  0.137500  0.114100  1.0  0.0615
  C  C249  1  0.410500  0.108000  0.127900  1.0  -0.1418
  C  C250  1  0.540800  0.105300  0.146700  1.0  0.0485
  C  C251  1  0.547000  0.052300  0.182400  1.0  -0.1306
  C  C252  1  0.599000  0.019000  0.197500  1.0  -0.0119
  C  C253  1  0.667500  0.094000  0.139000  1.0  -0.0188
  C  C254  1  0.604800  0.126000  0.124000  1.0  -0.1186
  C  C255  1  0.222400  0.297500  0.718100  1.0  0.1372
  C  C256  1  0.220000  0.299200  0.780300  1.0  -0.2009
  C  C257  1  0.193500  0.269600  0.972400  1.0  0.1458
  C  C258  1  0.191700  0.270800  0.911100  1.0  -0.2011
  C  C259  1  0.029100  0.365100  0.131100  1.0  0.0238
  C  C260  1  0.028900  0.299300  0.121900  1.0  -0.2299
  C  C261  1  0.091200  0.271800  0.111000  1.0  0.1456
  C  C262  1  0.152300  0.362500  0.114100  1.0  0.0603
  C  C263  1  0.089500  0.392000  0.127900  1.0  -0.1407
  C  C264  1  0.959200  0.394700  0.146700  1.0  0.0489
  C  C265  1  0.953000  0.447700  0.182400  1.0  -0.1311
  C  C266  1  0.901000  0.481000  0.197500  1.0  -0.0108
  C  C267  1  0.832500  0.406000  0.139000  1.0  -0.0194
  C  C268  1  0.895200  0.374000  0.124000  1.0  -0.1187
  C  C269  1  0.277600  0.202500  0.718100  1.0  0.1381
  C  C270  1  0.280000  0.200800  0.780300  1.0  -0.1997
  C  C271  1  0.306500  0.230400  0.972400  1.0  0.1439
  C  C272  1  0.308300  0.229200  0.911100  1.0  -0.2034
  C  C273  1  0.529100  0.634900  0.368900  1.0  0.0238
  C  C274  1  0.528900  0.700700  0.378100  1.0  -0.231
  C  C275  1  0.591200  0.728200  0.389000  1.0  0.1456
  C  C276  1  0.652300  0.637500  0.385900  1.0  0.0615
  C  C277  1  0.589500  0.608000  0.372100  1.0  -0.1418
  C  C278  1  0.459200  0.605300  0.353300  1.0  0.0487
  C  C279  1  0.453000  0.552300  0.317600  1.0  -0.132
  C  C280  1  0.401000  0.519000  0.302500  1.0  -0.0113
  C  C281  1  0.332500  0.594000  0.361000  1.0  -0.0199
  C  C282  1  0.395200  0.626000  0.376000  1.0  -0.1189
  C  C283  1  0.777600  0.797500  0.781900  1.0  0.1352
  C  C284  1  0.780000  0.799200  0.719700  1.0  -0.2011
  C  C285  1  0.806500  0.769600  0.527600  1.0  0.1448
  C  C286  1  0.808300  0.770800  0.588900  1.0  -0.2027
  C  C287  1  0.970900  0.865100  0.368900  1.0  0.0236
  C  C288  1  0.971100  0.799300  0.378100  1.0  -0.2296
  C  C289  1  0.908800  0.771800  0.389000  1.0  0.1457
  C  C290  1  0.847700  0.862500  0.385900  1.0  0.06
  C  C291  1  0.910500  0.892000  0.372100  1.0  -0.1411
  C  C292  1  0.040800  0.894700  0.353300  1.0  0.0483
  C  C293  1  0.047000  0.947700  0.317600  1.0  -0.1317
  C  C294  1  0.099000  0.981000  0.302500  1.0  -0.0098
  C  C295  1  0.167500  0.906000  0.361000  1.0  -0.0193
  C  C296  1  0.104800  0.874000  0.376000  1.0  -0.1184
  C  C297  1  0.722400  0.702500  0.781900  1.0  0.1381
  C  C298  1  0.720000  0.700800  0.719700  1.0  -0.1992
  C  C299  1  0.693500  0.730400  0.527600  1.0  0.1466
  C  C300  1  0.691700  0.729200  0.588900  1.0  -0.2017
  C  C301  1  0.750000  0.750000  0.188500  1.0  0.0292
  C  C302  1  0.750000  0.750000  0.121100  1.0  0.0465
  C  C303  1  0.250000  0.250000  0.311500  1.0  0.0287
  C  C304  1  0.250000  0.250000  0.378900  1.0  0.0466
  C  C305  1  0.250000  0.250000  0.811500  1.0  0.0287
  C  C306  1  0.250000  0.250000  0.878900  1.0  0.0466
  C  C307  1  0.750000  0.750000  0.688500  1.0  0.0292
  C  C308  1  0.750000  0.750000  0.621100  1.0  0.0465
  N  N309  1  0.651700  0.800000  0.895600  1.0  -0.3487
  N  N310  1  0.344000  0.956900  0.826600  1.0  -0.2846
  N  N311  1  0.848300  0.700000  0.895600  1.0  -0.3485
  N  N312  1  0.156000  0.543100  0.826600  1.0  -0.2836
  N  N313  1  0.348300  0.300000  0.604400  1.0  -0.3487
  N  N314  1  0.656000  0.456900  0.673400  1.0  -0.2837
  N  N315  1  0.151700  0.200000  0.604400  1.0  -0.3487
  N  N316  1  0.844000  0.043100  0.673400  1.0  -0.2844
  N  N317  1  0.348300  0.200000  0.104400  1.0  -0.3485
  N  N318  1  0.656000  0.043100  0.173400  1.0  -0.2835
  N  N319  1  0.151700  0.300000  0.104400  1.0  -0.3489
  N  N320  1  0.844000  0.456900  0.173400  1.0  -0.2844
  N  N321  1  0.651700  0.700000  0.395600  1.0  -0.3487
  N  N322  1  0.344000  0.543100  0.326600  1.0  -0.2846
  N  N323  1  0.848300  0.800000  0.395600  1.0  -0.3484
  N  N324  1  0.156000  0.956900  0.326600  1.0  -0.284
  N  N325  1  0.750000  0.750000  0.995500  1.0  -0.3359
  N  N326  1  0.750000  0.750000  0.312300  1.0  -0.3369
  N  N327  1  0.250000  0.250000  0.504500  1.0  -0.336
  N  N328  1  0.250000  0.250000  0.187700  1.0  -0.3393
  N  N329  1  0.250000  0.250000  0.004500  1.0  -0.336
  N  N330  1  0.250000  0.250000  0.687700  1.0  -0.3393
  N  N331  1  0.750000  0.750000  0.495500  1.0  -0.3359
  N  N332  1  0.750000  0.750000  0.812300  1.0  -0.3369
  O  O333  1  0.835800  0.885100  0.130600  1.0  -0.7294
  O  O334  1  0.863500  0.966800  0.027100  1.0  -0.8306
  O  O335  1  0.804300  0.836200  0.912400  1.0  -0.7092
  O  O336  1  0.832000  0.095700  0.038900  1.0  -0.7571
  O  O337  1  0.736700  0.000100  0.041800  1.0  -0.7242
  O  O338  1  0.979000  0.915500  0.092300  1.0  -0.8331
  O  O339  1  0.013800  0.852500  0.864500  1.0  -0.7329
  O  O340  1  0.785400  0.961500  0.935100  1.0  -0.748
  O  O341  1  0.802700  0.999100  0.146100  1.0  -0.8351
  O  O342  1  0.074500  0.831700  0.092400  1.0  -0.707
  O  O343  1  0.852900  0.109900  0.160400  1.0  -0.715
  O  O344  1  0.915800  0.921700  0.915200  1.0  -0.7484
  O  O345  1  0.692200  0.917200  0.124200  1.0  -0.6038
  O  O346  1  0.036100  0.939400  0.779500  1.0  -0.7434
  O  O347  1  0.768500  0.883200  0.023100  1.0  -0.7258
  O  O348  1  0.942500  0.040300  0.109700  1.0  -0.8499
  O  O349  1  0.904200  0.844200  0.006300  1.0  -0.8002
  O  O350  1  0.879600  0.054300  0.933800  1.0  -0.785
  O  O351  1  0.905000  0.891100  0.792400  1.0  -0.6419
  O  O352  1  0.017200  0.875200  0.195800  1.0  -0.7108
  O  O353  1  0.002600  0.748600  0.021500  1.0  -0.6346
  O  O354  1  0.942800  0.804300  0.118500  1.0  -0.7187
  O  O355  1  0.159400  0.893000  0.175800  1.0  -0.6128
  O  O356  1  0.036900  0.866500  0.982600  1.0  -0.7803
  O  O357  1  0.874900  0.212100  0.085000  1.0  -0.6656
  O  O358  1  0.908100  0.951900  0.202200  1.0  -0.7825
  O  O359  1  0.935300  0.009700  0.834800  1.0  -0.8166
  O  O360  1  0.735700  0.083700  0.945100  1.0  -0.6045
  O  O361  1  0.893200  0.826100  0.231900  1.0  -0.642
  O  O362  1  0.829800  0.043500  0.261700  1.0  -0.6239
  O  O363  1  0.664200  0.614900  0.130600  1.0  -0.7296
  O  O364  1  0.636500  0.533200  0.027100  1.0  -0.8295
  O  O365  1  0.695700  0.663800  0.912400  1.0  -0.7089
  O  O366  1  0.668000  0.404300  0.038900  1.0  -0.7558
  O  O367  1  0.763300  0.499900  0.041800  1.0  -0.7242
  O  O368  1  0.521000  0.584500  0.092300  1.0  -0.8351
  O  O369  1  0.486200  0.647500  0.864500  1.0  -0.7328
  O  O370  1  0.714600  0.538500  0.935100  1.0  -0.7457
  O  O371  1  0.697300  0.500900  0.146100  1.0  -0.8323
  O  O372  1  0.425500  0.668300  0.092400  1.0  -0.6996
  O  O373  1  0.647100  0.390100  0.160400  1.0  -0.7177
  O  O374  1  0.584200  0.578300  0.915200  1.0  -0.749
  O  O375  1  0.807800  0.582800  0.124200  1.0  -0.6031
  O  O376  1  0.463900  0.560600  0.779500  1.0  -0.7468
  O  O377  1  0.731500  0.616800  0.023100  1.0  -0.7275
  O  O378  1  0.557500  0.459700  0.109700  1.0  -0.8488
  O  O379  1  0.595800  0.655800  0.006300  1.0  -0.801
  O  O380  1  0.620400  0.445700  0.933800  1.0  -0.7816
  O  O381  1  0.595000  0.608900  0.792400  1.0  -0.6431
  O  O382  1  0.482800  0.624800  0.195800  1.0  -0.7089
  O  O383  1  0.497400  0.751400  0.021500  1.0  -0.6342
  O  O384  1  0.557200  0.695700  0.118500  1.0  -0.717
  O  O385  1  0.340600  0.607000  0.175800  1.0  -0.61
  O  O386  1  0.463100  0.633500  0.982600  1.0  -0.7824
  O  O387  1  0.625100  0.287900  0.085000  1.0  -0.6662
  O  O388  1  0.591900  0.548100  0.202200  1.0  -0.7814
  O  O389  1  0.564700  0.490300  0.834800  1.0  -0.816
  O  O390  1  0.764300  0.416300  0.945100  1.0  -0.6045
  O  O391  1  0.606800  0.673900  0.231900  1.0  -0.6409
  O  O392  1  0.670200  0.456500  0.261700  1.0  -0.6237
  O  O393  1  0.164200  0.385100  0.369400  1.0  -0.7306
  O  O394  1  0.136500  0.466800  0.472900  1.0  -0.8293
  O  O395  1  0.195700  0.336200  0.587600  1.0  -0.7093
  O  O396  1  0.168000  0.595700  0.461100  1.0  -0.7547
  O  O397  1  0.263300  0.500100  0.458200  1.0  -0.7223
  O  O398  1  0.021000  0.415500  0.407700  1.0  -0.8347
  O  O399  1  0.986200  0.352500  0.635500  1.0  -0.7311
  O  O400  1  0.214600  0.461500  0.564900  1.0  -0.7454
  O  O401  1  0.197300  0.499100  0.353900  1.0  -0.8326
  O  O402  1  0.925500  0.331700  0.407600  1.0  -0.7067
  O  O403  1  0.147100  0.609900  0.339600  1.0  -0.717
  O  O404  1  0.084200  0.421700  0.584800  1.0  -0.7489
  O  O405  1  0.307800  0.417200  0.375800  1.0  -0.6038
  O  O406  1  0.963900  0.439400  0.720500  1.0  -0.7453
  O  O407  1  0.231500  0.383200  0.476900  1.0  -0.7271
  O  O408  1  0.057500  0.540300  0.390300  1.0  -0.8502
  O  O409  1  0.095800  0.344200  0.493700  1.0  -0.8017
  O  O410  1  0.120400  0.554300  0.566200  1.0  -0.7833
  O  O411  1  0.095000  0.391100  0.707600  1.0  -0.6414
  O  O412  1  0.982800  0.375200  0.304200  1.0  -0.7097
  O  O413  1  0.997400  0.248600  0.478500  1.0  -0.6334
  O  O414  1  0.057200  0.304300  0.381500  1.0  -0.7195
  O  O415  1  0.840600  0.393000  0.324200  1.0  -0.6106
  O  O416  1  0.963100  0.366500  0.517400  1.0  -0.7811
  O  O417  1  0.125100  0.712100  0.415000  1.0  -0.6659
  O  O418  1  0.091900  0.451900  0.297800  1.0  -0.782
  O  O419  1  0.064700  0.509700  0.665200  1.0  -0.8164
  O  O420  1  0.264300  0.583700  0.554900  1.0  -0.6048
  O  O421  1  0.106800  0.326100  0.268100  1.0  -0.6407
  O  O422  1  0.170200  0.543500  0.238300  1.0  -0.6252
  O  O423  1  0.335800  0.114900  0.369400  1.0  -0.7308
  O  O424  1  0.363500  0.033200  0.472900  1.0  -0.8299
  O  O425  1  0.304300  0.163800  0.587600  1.0  -0.7086
  O  O426  1  0.332000  0.904300  0.461100  1.0  -0.7564
  O  O427  1  0.236700  0.999900  0.458200  1.0  -0.7218
  O  O428  1  0.479000  0.084500  0.407700  1.0  -0.8345
  O  O429  1  0.513800  0.147500  0.635500  1.0  -0.7311
  O  O430  1  0.285400  0.038500  0.564900  1.0  -0.7468
  O  O431  1  0.302700  0.000900  0.353900  1.0  -0.8334
  O  O432  1  0.574500  0.168300  0.407600  1.0  -0.7004
  O  O433  1  0.352900  0.890100  0.339600  1.0  -0.7174
  O  O434  1  0.415800  0.078300  0.584800  1.0  -0.7494
  O  O435  1  0.192200  0.082800  0.375800  1.0  -0.6037
  O  O436  1  0.536100  0.060600  0.720500  1.0  -0.7415
  O  O437  1  0.268500  0.116800  0.476900  1.0  -0.7261
  O  O438  1  0.442500  0.959700  0.390300  1.0  -0.8495
  O  O439  1  0.404200  0.155800  0.493700  1.0  -0.7994
  O  O440  1  0.379600  0.945700  0.566200  1.0  -0.7833
  O  O441  1  0.405000  0.108900  0.707600  1.0  -0.6415
  O  O442  1  0.517200  0.124800  0.304200  1.0  -0.7107
  O  O443  1  0.502600  0.251400  0.478500  1.0  -0.6335
  O  O444  1  0.442800  0.195700  0.381500  1.0  -0.7168
  O  O445  1  0.659400  0.107000  0.324200  1.0  -0.6117
  O  O446  1  0.536900  0.133500  0.517400  1.0  -0.7824
  O  O447  1  0.374900  0.787900  0.415000  1.0  -0.6651
  O  O448  1  0.408100  0.048100  0.297800  1.0  -0.7829
  O  O449  1  0.435300  0.990300  0.665200  1.0  -0.8173
  O  O450  1  0.235700  0.916300  0.554900  1.0  -0.6041
  O  O451  1  0.393200  0.173900  0.268100  1.0  -0.6401
  O  O452  1  0.329800  0.956500  0.238300  1.0  -0.6239
  O  O453  1  0.164200  0.114900  0.869400  1.0  -0.7308
  O  O454  1  0.136500  0.033200  0.972900  1.0  -0.829
  O  O455  1  0.195700  0.163800  0.087600  1.0  -0.7089
  O  O456  1  0.168000  0.904300  0.961100  1.0  -0.7556
  O  O457  1  0.263300  0.999900  0.958200  1.0  -0.7231
  O  O458  1  0.021000  0.084500  0.907700  1.0  -0.8354
  O  O459  1  0.986200  0.147500  0.135500  1.0  -0.7318
  O  O460  1  0.214600  0.038500  0.064900  1.0  -0.7454
  O  O461  1  0.197300  0.000900  0.853900  1.0  -0.8317
  O  O462  1  0.925500  0.168300  0.907600  1.0  -0.6995
  O  O463  1  0.147100  0.890100  0.839600  1.0  -0.7166
  O  O464  1  0.084200  0.078300  0.084800  1.0  -0.7494
  O  O465  1  0.307800  0.082800  0.875800  1.0  -0.6033
  O  O466  1  0.963900  0.060600  0.220500  1.0  -0.7423
  O  O467  1  0.231500  0.116800  0.976900  1.0  -0.7278
  O  O468  1  0.057500  0.959700  0.890300  1.0  -0.8493
  O  O469  1  0.095800  0.155800  0.993700  1.0  -0.801
  O  O470  1  0.120400  0.945700  0.066200  1.0  -0.7821
  O  O471  1  0.095000  0.108900  0.207600  1.0  -0.6419
  O  O472  1  0.982800  0.124800  0.804200  1.0  -0.7105
  O  O473  1  0.997400  0.251400  0.978500  1.0  -0.6347
  O  O474  1  0.057200  0.195700  0.881500  1.0  -0.7183
  O  O475  1  0.840600  0.107000  0.824200  1.0  -0.6101
  O  O476  1  0.963100  0.133500  0.017400  1.0  -0.7829
  O  O477  1  0.125100  0.787900  0.915000  1.0  -0.6665
  O  O478  1  0.091900  0.048100  0.797800  1.0  -0.7819
  O  O479  1  0.064700  0.990300  0.165200  1.0  -0.8167
  O  O480  1  0.264300  0.916300  0.054900  1.0  -0.6053
  O  O481  1  0.106800  0.173900  0.768100  1.0  -0.6398
  O  O482  1  0.170200  0.956500  0.738300  1.0  -0.624
  O  O483  1  0.335800  0.385100  0.869400  1.0  -0.7306
  O  O484  1  0.363500  0.466800  0.972900  1.0  -0.8304
  O  O485  1  0.304300  0.336200  0.087600  1.0  -0.709
  O  O486  1  0.332000  0.595700  0.961100  1.0  -0.7569
  O  O487  1  0.236700  0.500100  0.958200  1.0  -0.7222
  O  O488  1  0.479000  0.415500  0.907700  1.0  -0.8336
  O  O489  1  0.513800  0.352500  0.135500  1.0  -0.7312
  O  O490  1  0.285400  0.461500  0.064900  1.0  -0.7469
  O  O491  1  0.302700  0.499100  0.853900  1.0  -0.8344
  O  O492  1  0.574500  0.331700  0.907600  1.0  -0.7063
  O  O493  1  0.352900  0.609900  0.839600  1.0  -0.7169
  O  O494  1  0.415800  0.421700  0.084800  1.0  -0.7488
  O  O495  1  0.192200  0.417200  0.875800  1.0  -0.6042
  O  O496  1  0.536100  0.439400  0.220500  1.0  -0.7447
  O  O497  1  0.268500  0.383200  0.976900  1.0  -0.7258
  O  O498  1  0.442500  0.540300  0.890300  1.0  -0.8504
  O  O499  1  0.404200  0.344200  0.993700  1.0  -0.8
  O  O500  1  0.379600  0.554300  0.066200  1.0  -0.7851
  O  O501  1  0.405000  0.391100  0.207600  1.0  -0.6407
  O  O502  1  0.517200  0.375200  0.804200  1.0  -0.71
  O  O503  1  0.502600  0.248600  0.978500  1.0  -0.633
  O  O504  1  0.442800  0.304300  0.881500  1.0  -0.718
  O  O505  1  0.659400  0.393000  0.824200  1.0  -0.6123
  O  O506  1  0.536900  0.366500  0.017400  1.0  -0.7805
  O  O507  1  0.374900  0.712100  0.915000  1.0  -0.6655
  O  O508  1  0.408100  0.451900  0.797800  1.0  -0.783
  O  O509  1  0.435300  0.509700  0.165200  1.0  -0.817
  O  O510  1  0.235700  0.583700  0.054900  1.0  -0.6041
  O  O511  1  0.393200  0.326100  0.768100  1.0  -0.6413
  O  O512  1  0.329800  0.543500  0.738300  1.0  -0.6252
  O  O513  1  0.835800  0.614900  0.630600  1.0  -0.7295
  O  O514  1  0.863500  0.533200  0.527100  1.0  -0.8303
  O  O515  1  0.804300  0.663800  0.412400  1.0  -0.7086
  O  O516  1  0.832000  0.404300  0.538900  1.0  -0.7567
  O  O517  1  0.736700  0.499900  0.541800  1.0  -0.7232
  O  O518  1  0.979000  0.584500  0.592300  1.0  -0.8338
  O  O519  1  0.013800  0.647500  0.364500  1.0  -0.7326
  O  O520  1  0.785400  0.538500  0.435100  1.0  -0.7469
  O  O521  1  0.802700  0.500900  0.646100  1.0  -0.8338
  O  O522  1  0.074500  0.668300  0.592400  1.0  -0.7014
  O  O523  1  0.852900  0.390100  0.660400  1.0  -0.7185
  O  O524  1  0.915800  0.578300  0.415200  1.0  -0.749
  O  O525  1  0.692200  0.582800  0.624200  1.0  -0.6036
  O  O526  1  0.036100  0.560600  0.279500  1.0  -0.7469
  O  O527  1  0.768500  0.616800  0.523100  1.0  -0.7262
  O  O528  1  0.942500  0.459700  0.609700  1.0  -0.849
  O  O529  1  0.904200  0.655800  0.506300  1.0  -0.7995
  O  O530  1  0.879600  0.445700  0.433800  1.0  -0.7832
  O  O531  1  0.905000  0.608900  0.292400  1.0  -0.6422
  O  O532  1  0.017200  0.624800  0.695800  1.0  -0.7091
  O  O533  1  0.002600  0.751400  0.521500  1.0  -0.6344
  O  O534  1  0.942800  0.695700  0.618500  1.0  -0.716
  O  O535  1  0.159400  0.607000  0.675800  1.0  -0.6117
  O  O536  1  0.036900  0.633500  0.482600  1.0  -0.7822
  O  O537  1  0.874900  0.287900  0.585000  1.0  -0.6649
  O  O538  1  0.908100  0.548100  0.702200  1.0  -0.7826
  O  O539  1  0.935300  0.490300  0.334800  1.0  -0.8168
  O  O540  1  0.735700  0.416300  0.445100  1.0  -0.6038
  O  O541  1  0.893200  0.673900  0.731900  1.0  -0.6411
  O  O542  1  0.829800  0.456500  0.761700  1.0  -0.6244
  O  O543  1  0.664200  0.885100  0.630600  1.0  -0.7294
  O  O544  1  0.636500  0.966800  0.527100  1.0  -0.8297
  O  O545  1  0.695700  0.836200  0.412400  1.0  -0.7096
  O  O546  1  0.668000  0.095700  0.538900  1.0  -0.7545
  O  O547  1  0.763300  0.000100  0.541800  1.0  -0.7242
  O  O548  1  0.521000  0.915500  0.592300  1.0  -0.8344
  O  O549  1  0.486200  0.852500  0.364500  1.0  -0.7325
  O  O550  1  0.714600  0.961500  0.435100  1.0  -0.7467
  O  O551  1  0.697300  0.999100  0.646100  1.0  -0.8335
  O  O552  1  0.425500  0.831700  0.592400  1.0  -0.7069
  O  O553  1  0.647100  0.109900  0.660400  1.0  -0.7147
  O  O554  1  0.584200  0.921700  0.415200  1.0  -0.7483
  O  O555  1  0.807800  0.917200  0.624200  1.0  -0.6033
  O  O556  1  0.463900  0.939400  0.279500  1.0  -0.7431
  O  O557  1  0.731500  0.883200  0.523100  1.0  -0.7269
  O  O558  1  0.557500  0.040300  0.609700  1.0  -0.8497
  O  O559  1  0.595800  0.844200  0.506300  1.0  -0.8017
  O  O560  1  0.620400  0.054300  0.433800  1.0  -0.7828
  O  O561  1  0.595000  0.891100  0.292400  1.0  -0.6424
  O  O562  1  0.482800  0.875200  0.695800  1.0  -0.7105
  O  O563  1  0.497400  0.748600  0.521500  1.0  -0.6337
  O  O564  1  0.557200  0.804300  0.618500  1.0  -0.7199
  O  O565  1  0.340600  0.893000  0.675800  1.0  -0.6108
  O  O566  1  0.463100  0.866500  0.482600  1.0  -0.7806
  O  O567  1  0.625100  0.212100  0.585000  1.0  -0.6659
  O  O568  1  0.591900  0.951900  0.702200  1.0  -0.7813
  O  O569  1  0.564700  0.009700  0.334800  1.0  -0.8158
  O  O570  1  0.764300  0.083700  0.445100  1.0  -0.6046
  O  O571  1  0.606800  0.826100  0.731900  1.0  -0.6413
  O  O572  1  0.670200  0.043500  0.761700  1.0  -0.6228
