# generated using pymatgen
data_DyH5C9NO6
_symmetry_space_group_name_H-M   'P 1'
_cell_length_a   10.10450000
_cell_length_b   15.49940000
_cell_length_c   10.47540000
_cell_angle_alpha   90.00000000
_cell_angle_beta   102.20700000
_cell_angle_gamma   90.00000000
_symmetry_Int_Tables_number   1
_chemical_formula_structural   DyH5C9NO6
_chemical_formula_sum   'Dy4 H20 C36 N4 O24'
_cell_volume   1603.49736985
_cell_formula_units_Z   4
loop_
 _symmetry_equiv_pos_site_id
 _symmetry_equiv_pos_as_xyz
  1  'x, y, z'
loop_
 _atom_site_type_symbol
 _atom_site_label
 _atom_site_symmetry_multiplicity
 _atom_site_fract_x
 _atom_site_fract_y
 _atom_site_fract_z
 _atom_site_occupancy
 _atom_site_charge
  Dy  Dy1  1  0.085810  0.002600  0.310940  1.0  2.2363
  Dy  Dy2  1  0.414190  0.502600  0.189060  1.0  2.2397
  Dy  Dy3  1  0.914190  0.997400  0.689060  1.0  2.2396
  Dy  Dy4  1  0.585810  0.497400  0.810940  1.0  2.2354
  H  H5  1  0.945700  0.273800  0.278700  1.0  0.086
  H  H6  1  0.817000  0.256300  0.613900  1.0  0.0933
  H  H7  1  0.788900  0.478600  0.414600  1.0  0.0948
  H  H8  1  0.927000  0.395200  0.159900  1.0  0.0994
  H  H9  1  0.922800  0.483000  0.233200  1.0  0.1275
  H  H10  1  0.554300  0.773800  0.221300  1.0  0.086
  H  H11  1  0.683000  0.756300  0.886100  1.0  0.0926
  H  H12  1  0.711100  0.978600  0.085400  1.0  0.0951
  H  H13  1  0.573000  0.895200  0.340100  1.0  0.1004
  H  H14  1  0.577200  0.983000  0.266800  1.0  0.1282
  H  H15  1  0.054300  0.726200  0.721300  1.0  0.0857
  H  H16  1  0.183000  0.743700  0.386100  1.0  0.0926
  H  H17  1  0.211100  0.521400  0.585400  1.0  0.0949
  H  H18  1  0.073000  0.604800  0.840100  1.0  0.1003
  H  H19  1  0.077200  0.517000  0.766800  1.0  0.1279
  H  H20  1  0.445700  0.226200  0.778700  1.0  0.0857
  H  H21  1  0.317000  0.243700  0.113900  1.0  0.093
  H  H22  1  0.288900  0.021400  0.914600  1.0  0.0946
  H  H23  1  0.427000  0.104800  0.659900  1.0  0.0996
  H  H24  1  0.422800  0.017000  0.733200  1.0  0.1277
  C  C25  1  0.906400  0.298660  0.342500  1.0  0.0186
  C  C26  1  0.890000  0.250300  0.447800  1.0  -0.1616
  C  C27  1  0.831300  0.288490  0.543100  1.0  0.0034
  C  C28  1  0.794600  0.374910  0.531400  1.0  -0.1671
  C  C29  1  0.813200  0.420640  0.423300  1.0  0.0546
  C  C30  1  0.933200  0.156600  0.456300  1.0  0.7292
  C  C31  1  0.730400  0.419780  0.630800  1.0  0.6398
  C  C32  1  0.875000  0.429200  0.209700  1.0  -0.221
  C  C33  1  0.736110  0.448570  0.124140  1.0  0.714
  C  C34  1  0.593600  0.798660  0.157500  1.0  0.0192
  C  C35  1  0.610000  0.750300  0.052200  1.0  -0.1617
  C  C36  1  0.668700  0.788490  0.956900  1.0  0.0027
  C  C37  1  0.705400  0.874910  0.968600  1.0  -0.1675
  C  C38  1  0.686800  0.920640  0.076700  1.0  0.0552
  C  C39  1  0.566800  0.656600  0.043700  1.0  0.7298
  C  C40  1  0.769600  0.919780  0.869200  1.0  0.6391
  C  C41  1  0.625000  0.929200  0.290300  1.0  -0.2207
  C  C42  1  0.763890  0.948570  0.375860  1.0  0.7145
  C  C43  1  0.093600  0.701340  0.657500  1.0  0.018
  C  C44  1  0.110000  0.749700  0.552200  1.0  -0.1607
  C  C45  1  0.168700  0.711510  0.456900  1.0  0.0025
  C  C46  1  0.205400  0.625090  0.468600  1.0  -0.1682
  C  C47  1  0.186800  0.579360  0.576700  1.0  0.0556
  C  C48  1  0.066800  0.843400  0.543700  1.0  0.7294
  C  C49  1  0.269600  0.580220  0.369200  1.0  0.6383
  C  C50  1  0.125000  0.570800  0.790300  1.0  -0.2205
  C  C51  1  0.263890  0.551430  0.875860  1.0  0.7146
  C  C52  1  0.406400  0.201340  0.842500  1.0  0.019
  C  C53  1  0.390000  0.249700  0.947800  1.0  -0.1611
  C  C54  1  0.331300  0.211510  0.043100  1.0  0.0019
  C  C55  1  0.294600  0.125090  0.031400  1.0  -0.1671
  C  C56  1  0.313200  0.079360  0.923300  1.0  0.0549
  C  C57  1  0.433200  0.343400  0.956300  1.0  0.729
  C  C58  1  0.230400  0.080220  0.130800  1.0  0.6398
  C  C59  1  0.375000  0.070800  0.709700  1.0  -0.2209
  C  C60  1  0.236110  0.051430  0.624140  1.0  0.7139
  N  N61  1  0.866300  0.381840  0.330300  1.0  0.0275
  N  N62  1  0.633700  0.881840  0.169700  1.0  0.0296
  N  N63  1  0.133700  0.618160  0.669700  1.0  0.0296
  N  N64  1  0.366300  0.118160  0.830300  1.0  0.0275
  O  O65  1  0.994600  0.131520  0.371400  1.0  -0.7554
  O  O66  1  0.902060  0.113470  0.545270  1.0  -0.7867
  O  O67  1  0.728760  0.382940  0.737450  1.0  -0.6781
  O  O68  1  0.678900  0.492920  0.603600  1.0  -0.6782
  O  O69  1  0.735200  0.452390  0.003800  1.0  -0.744
  O  O70  1  0.640400  0.463710  0.178500  1.0  -0.732
  O  O71  1  0.505400  0.631520  0.128600  1.0  -0.756
  O  O72  1  0.597940  0.613470  0.954730  1.0  -0.7865
  O  O73  1  0.771240  0.882940  0.762550  1.0  -0.6799
  O  O74  1  0.821100  0.992920  0.896400  1.0  -0.6772
  O  O75  1  0.764800  0.952390  0.496200  1.0  -0.747
  O  O76  1  0.859600  0.963710  0.321500  1.0  -0.7322
  O  O77  1  0.005400  0.868480  0.628600  1.0  -0.7564
  O  O78  1  0.097940  0.886530  0.454730  1.0  -0.7864
  O  O79  1  0.271240  0.617060  0.262550  1.0  -0.6802
  O  O80  1  0.321100  0.507080  0.396400  1.0  -0.6776
  O  O81  1  0.264800  0.547610  0.996200  1.0  -0.7469
  O  O82  1  0.359600  0.536290  0.821500  1.0  -0.7326
  O  O83  1  0.494600  0.368480  0.871400  1.0  -0.7571
  O  O84  1  0.402060  0.386530  0.045270  1.0  -0.7863
  O  O85  1  0.228760  0.117060  0.237450  1.0  -0.6789
  O  O86  1  0.178900  0.007080  0.103600  1.0  -0.6769
  O  O87  1  0.235200  0.047610  0.503800  1.0  -0.7446
  O  O88  1  0.140400  0.036290  0.678500  1.0  -0.7324
