# generated using pymatgen
data_In2CoH6C18(BrO7)2
_symmetry_space_group_name_H-M   'P 1'
_cell_length_a   10.27300000
_cell_length_b   11.31800000
_cell_length_c   16.46100000
_cell_angle_alpha   90.00000000
_cell_angle_beta   100.06400000
_cell_angle_gamma   90.00000000
_symmetry_Int_Tables_number   1
_chemical_formula_structural   In2CoH6C18(BrO7)2
_chemical_formula_sum   'In4 Co2 H12 C36 Br4 O28'
_cell_volume   1884.46828990
_cell_formula_units_Z   2
loop_
 _symmetry_equiv_pos_site_id
 _symmetry_equiv_pos_as_xyz
  1  'x, y, z'
loop_
 _atom_site_type_symbol
 _atom_site_label
 _atom_site_symmetry_multiplicity
 _atom_site_fract_x
 _atom_site_fract_y
 _atom_site_fract_z
 _atom_site_occupancy
 _atom_site_charge
  In  In1  1  0.737970  0.197240  0.076690  1.0  1.5142
  In  In2  1  0.262030  0.697240  0.423310  1.0  1.5146
  In  In3  1  0.262030  0.802760  0.923310  1.0  1.5159
  In  In4  1  0.737970  0.302760  0.576690  1.0  1.5146
  Co  Co5  1  0.500000  0.000000  0.000000  1.0  1.1884
  Co  Co6  1  0.500000  0.500000  0.500000  1.0  1.1884
  H  H7  1  0.524100  0.868500  0.266100  1.0  0.1368
  H  H8  1  0.911100  0.908700  0.259600  1.0  0.1376
  H  H9  1  0.796500  0.684000  0.421000  1.0  0.1338
  H  H10  1  0.475900  0.368500  0.233900  1.0  0.1365
  H  H11  1  0.088900  0.408700  0.240400  1.0  0.1367
  H  H12  1  0.203500  0.184000  0.079000  1.0  0.1333
  H  H13  1  0.475900  0.131500  0.733900  1.0  0.1367
  H  H14  1  0.088900  0.091300  0.740400  1.0  0.1373
  H  H15  1  0.203500  0.316000  0.579000  1.0  0.1339
  H  H16  1  0.524100  0.631500  0.766100  1.0  0.1375
  H  H17  1  0.911100  0.591300  0.759600  1.0  0.1375
  H  H18  1  0.796500  0.816000  0.921000  1.0  0.1338
  C  C19  1  0.680000  0.979000  0.175500  1.0  0.7577
  C  C20  1  0.612000  0.850200  0.286400  1.0  0.0322
  C  C21  1  0.843600  0.871700  0.281000  1.0  0.0336
  C  C22  1  0.015000  0.752200  0.370100  1.0  0.6682
  C  C23  1  0.537800  0.724300  0.395000  1.0  0.727
  C  C24  1  0.712700  0.899500  0.250300  1.0  -0.1018
  C  C25  1  0.644000  0.773700  0.352600  1.0  -0.1235
  C  C26  1  0.775600  0.739700  0.379200  1.0  0.0393
  C  C27  1  0.873900  0.789300  0.343200  1.0  -0.1125
  C  C28  1  0.320000  0.479000  0.324500  1.0  0.7578
  C  C29  1  0.388000  0.350200  0.213600  1.0  0.0338
  C  C30  1  0.156400  0.371700  0.219000  1.0  0.0334
  C  C31  1  0.985000  0.252200  0.129900  1.0  0.667
  C  C32  1  0.462200  0.224300  0.105000  1.0  0.7276
  C  C33  1  0.287300  0.399500  0.249700  1.0  -0.1022
  C  C34  1  0.356000  0.273700  0.147400  1.0  -0.1235
  C  C35  1  0.224400  0.239700  0.120800  1.0  0.0394
  C  C36  1  0.126100  0.289300  0.156800  1.0  -0.1129
  C  C37  1  0.320000  0.021000  0.824500  1.0  0.7577
  C  C38  1  0.388000  0.149800  0.713600  1.0  0.0341
  C  C39  1  0.156400  0.128300  0.719000  1.0  0.0336
  C  C40  1  0.985000  0.247800  0.629900  1.0  0.6671
  C  C41  1  0.462200  0.275700  0.605000  1.0  0.7269
  C  C42  1  0.287300  0.100500  0.749700  1.0  -0.102
  C  C43  1  0.356000  0.226300  0.647400  1.0  -0.123
  C  C44  1  0.224400  0.260300  0.620800  1.0  0.0386
  C  C45  1  0.126100  0.210700  0.656800  1.0  -0.1129
  C  C46  1  0.680000  0.521000  0.675500  1.0  0.7574
  C  C47  1  0.612000  0.649800  0.786400  1.0  0.0319
  C  C48  1  0.843600  0.628300  0.781000  1.0  0.0336
  C  C49  1  0.015000  0.747800  0.870100  1.0  0.6684
  C  C50  1  0.537800  0.775700  0.895000  1.0  0.7266
  C  C51  1  0.712700  0.600500  0.750300  1.0  -0.1022
  C  C52  1  0.644000  0.726300  0.852600  1.0  -0.1233
  C  C53  1  0.775600  0.760300  0.879200  1.0  0.037
  C  C54  1  0.873900  0.710700  0.843200  1.0  -0.1126
  Br  Br55  1  0.711710  0.367180  0.968340  1.0  -0.3535
  Br  Br56  1  0.288290  0.867180  0.531660  1.0  -0.3548
  Br  Br57  1  0.288290  0.632820  0.031660  1.0  -0.3532
  Br  Br58  1  0.711710  0.132820  0.468340  1.0  -0.3552
  O  O59  1  0.105600  0.799800  0.339100  1.0  -0.541
  O  O60  1  0.572200  0.662200  0.458000  1.0  -0.5887
  O  O61  1  0.766700  0.055200  0.167100  1.0  -0.5719
  O  O62  1  0.043100  0.673800  0.425500  1.0  -0.5512
  O  O63  1  0.419800  0.752100  0.364700  1.0  -0.5643
  O  O64  1  0.574800  0.960300  0.127500  1.0  -0.5921
  O  O65  1  0.671500  0.074100  0.986000  1.0  -0.6755
  O  O66  1  0.894400  0.299800  0.160900  1.0  -0.5384
  O  O67  1  0.427800  0.162200  0.042000  1.0  -0.5868
  O  O68  1  0.233300  0.555200  0.332900  1.0  -0.572
  O  O69  1  0.956900  0.173800  0.074500  1.0  -0.5515
  O  O70  1  0.580200  0.252100  0.135300  1.0  -0.5663
  O  O71  1  0.425200  0.460300  0.372500  1.0  -0.5916
  O  O72  1  0.328500  0.574100  0.514000  1.0  -0.6759
  O  O73  1  0.894400  0.200200  0.660900  1.0  -0.5383
  O  O74  1  0.427800  0.337800  0.542000  1.0  -0.5864
  O  O75  1  0.233300  0.944800  0.832900  1.0  -0.5721
  O  O76  1  0.956900  0.326200  0.574500  1.0  -0.5514
  O  O77  1  0.580200  0.247900  0.635300  1.0  -0.564
  O  O78  1  0.425200  0.039700  0.872500  1.0  -0.592
  O  O79  1  0.328500  0.925900  0.014000  1.0  -0.6758
  O  O80  1  0.105600  0.700200  0.839100  1.0  -0.5401
  O  O81  1  0.572200  0.837800  0.958000  1.0  -0.5877
  O  O82  1  0.766700  0.444800  0.667100  1.0  -0.5718
  O  O83  1  0.043100  0.826200  0.925500  1.0  -0.55
  O  O84  1  0.419800  0.747900  0.864700  1.0  -0.5649
  O  O85  1  0.574800  0.539700  0.627500  1.0  -0.5919
  O  O86  1  0.671500  0.425900  0.486000  1.0  -0.6751
