# generated using pymatgen
data_Ag2H2C2N3
_symmetry_space_group_name_H-M   'P 1'
_cell_length_a   19.33290000
_cell_length_b   19.33290000
_cell_length_c   19.33290000
_cell_angle_alpha   90.00000000
_cell_angle_beta   90.00000000
_cell_angle_gamma   90.00000000
_symmetry_Int_Tables_number   1
_chemical_formula_structural   Ag2H2C2N3
_chemical_formula_sum   'Ag72 H72 C72 N108'
_cell_volume   7225.88447015
_cell_formula_units_Z   36
loop_
 _symmetry_equiv_pos_site_id
 _symmetry_equiv_pos_as_xyz
  1  'x, y, z'
loop_
 _atom_site_type_symbol
 _atom_site_label
 _atom_site_symmetry_multiplicity
 _atom_site_fract_x
 _atom_site_fract_y
 _atom_site_fract_z
 _atom_site_occupancy
 _atom_site_charge
  Ag  Ag1  1  0.494720  0.005280  0.136460  1.0  0.2788
  Ag  Ag2  1  0.005280  0.494720  0.136460  1.0  0.2796
  Ag  Ag3  1  0.005280  0.005280  0.363540  1.0  0.2742
  Ag  Ag4  1  0.494720  0.494720  0.363540  1.0  0.2752
  Ag  Ag5  1  0.136460  0.494720  0.005280  1.0  0.2811
  Ag  Ag6  1  0.136460  0.005280  0.494720  1.0  0.2764
  Ag  Ag7  1  0.363540  0.005280  0.005280  1.0  0.2797
  Ag  Ag8  1  0.363540  0.494720  0.494720  1.0  0.2772
  Ag  Ag9  1  0.005280  0.136460  0.494720  1.0  0.2767
  Ag  Ag10  1  0.494720  0.136460  0.005280  1.0  0.2802
  Ag  Ag11  1  0.005280  0.363540  0.005280  1.0  0.2806
  Ag  Ag12  1  0.494720  0.363540  0.494720  1.0  0.277
  Ag  Ag13  1  0.769220  0.174340  0.174340  1.0  0.1938
  Ag  Ag14  1  0.730780  0.325660  0.174340  1.0  0.194
  Ag  Ag15  1  0.730780  0.174340  0.325660  1.0  0.1938
  Ag  Ag16  1  0.769220  0.325660  0.325660  1.0  0.1946
  Ag  Ag17  1  0.174340  0.769220  0.174340  1.0  0.1939
  Ag  Ag18  1  0.174340  0.730780  0.325660  1.0  0.1939
  Ag  Ag19  1  0.325660  0.730780  0.174340  1.0  0.1939
  Ag  Ag20  1  0.325660  0.769220  0.325660  1.0  0.1943
  Ag  Ag21  1  0.174340  0.174340  0.769220  1.0  0.1941
  Ag  Ag22  1  0.325660  0.174340  0.730780  1.0  0.1937
  Ag  Ag23  1  0.174340  0.325660  0.730780  1.0  0.1937
  Ag  Ag24  1  0.325660  0.325660  0.769220  1.0  0.1947
  Ag  Ag25  1  0.062600  0.223200  0.276800  1.0  0.4231
  Ag  Ag26  1  0.437400  0.276800  0.276800  1.0  0.4262
  Ag  Ag27  1  0.437400  0.223200  0.223200  1.0  0.4236
  Ag  Ag28  1  0.062600  0.276800  0.223200  1.0  0.4281
  Ag  Ag29  1  0.276800  0.062600  0.223200  1.0  0.4246
  Ag  Ag30  1  0.276800  0.437400  0.276800  1.0  0.4219
  Ag  Ag31  1  0.223200  0.437400  0.223200  1.0  0.4258
  Ag  Ag32  1  0.223200  0.062600  0.276800  1.0  0.4258
  Ag  Ag33  1  0.223200  0.276800  0.062600  1.0  0.417
  Ag  Ag34  1  0.276800  0.276800  0.437400  1.0  0.4233
  Ag  Ag35  1  0.223200  0.223200  0.437400  1.0  0.4222
  Ag  Ag36  1  0.276800  0.223200  0.062600  1.0  0.4118
  Ag  Ag37  1  0.505280  0.994720  0.863540  1.0  0.2759
  Ag  Ag38  1  0.994720  0.505280  0.863540  1.0  0.2747
  Ag  Ag39  1  0.505280  0.505280  0.636460  1.0  0.2783
  Ag  Ag40  1  0.994720  0.994720  0.636460  1.0  0.2797
  Ag  Ag41  1  0.994720  0.636460  0.994720  1.0  0.277
  Ag  Ag42  1  0.505280  0.636460  0.505280  1.0  0.2799
  Ag  Ag43  1  0.505280  0.863540  0.994720  1.0  0.2776
  Ag  Ag44  1  0.994720  0.863540  0.505280  1.0  0.2806
  Ag  Ag45  1  0.636460  0.505280  0.505280  1.0  0.2799
  Ag  Ag46  1  0.636460  0.994720  0.994720  1.0  0.2781
  Ag  Ag47  1  0.863540  0.505280  0.994720  1.0  0.2764
  Ag  Ag48  1  0.863540  0.994720  0.505280  1.0  0.2808
  Ag  Ag49  1  0.674340  0.269220  0.825660  1.0  0.1942
  Ag  Ag50  1  0.825660  0.230780  0.825660  1.0  0.1944
  Ag  Ag51  1  0.674340  0.230780  0.674340  1.0  0.1933
  Ag  Ag52  1  0.825660  0.269220  0.674340  1.0  0.1941
  Ag  Ag53  1  0.269220  0.674340  0.825660  1.0  0.1943
  Ag  Ag54  1  0.230780  0.674340  0.674340  1.0  0.193
  Ag  Ag55  1  0.230780  0.825660  0.825660  1.0  0.1944
  Ag  Ag56  1  0.269220  0.825660  0.674340  1.0  0.1943
  Ag  Ag57  1  0.674340  0.674340  0.230780  1.0  0.1925
  Ag  Ag58  1  0.674340  0.825660  0.269220  1.0  0.1945
  Ag  Ag59  1  0.825660  0.674340  0.269220  1.0  0.1947
  Ag  Ag60  1  0.825660  0.825660  0.230780  1.0  0.1945
  Ag  Ag61  1  0.723200  0.562600  0.723200  1.0  0.4273
  Ag  Ag62  1  0.776800  0.937400  0.723200  1.0  0.4235
  Ag  Ag63  1  0.723200  0.937400  0.776800  1.0  0.4242
  Ag  Ag64  1  0.776800  0.562600  0.776800  1.0  0.4232
  Ag  Ag65  1  0.562600  0.776800  0.776800  1.0  0.4262
  Ag  Ag66  1  0.937400  0.776800  0.723200  1.0  0.4281
  Ag  Ag67  1  0.937400  0.723200  0.776800  1.0  0.4229
  Ag  Ag68  1  0.562600  0.723200  0.723200  1.0  0.4244
  Ag  Ag69  1  0.776800  0.723200  0.937400  1.0  0.4202
  Ag  Ag70  1  0.776800  0.776800  0.562600  1.0  0.4164
  Ag  Ag71  1  0.723200  0.723200  0.562600  1.0  0.4126
  Ag  Ag72  1  0.723200  0.776800  0.937400  1.0  0.4251
  H  H73  1  0.651300  0.055800  0.195600  1.0  0.0244
  H  H74  1  0.848700  0.444200  0.195600  1.0  0.0241
  H  H75  1  0.848700  0.055800  0.304400  1.0  0.0239
  H  H76  1  0.651300  0.444200  0.304400  1.0  0.0242
  H  H77  1  0.195600  0.651300  0.055800  1.0  0.0219
  H  H78  1  0.195600  0.848700  0.444200  1.0  0.023
  H  H79  1  0.304400  0.848700  0.055800  1.0  0.023
  H  H80  1  0.304400  0.651300  0.444200  1.0  0.0229
  H  H81  1  0.055800  0.195600  0.651300  1.0  0.0242
  H  H82  1  0.444200  0.195600  0.848700  1.0  0.0231
  H  H83  1  0.055800  0.304400  0.848700  1.0  0.0254
  H  H84  1  0.444200  0.304400  0.651300  1.0  0.0252
  H  H85  1  0.444200  0.848700  0.195600  1.0  0.0234
  H  H86  1  0.055800  0.651300  0.195600  1.0  0.0236
  H  H87  1  0.444200  0.651300  0.304400  1.0  0.023
  H  H88  1  0.055800  0.848700  0.304400  1.0  0.0242
  H  H89  1  0.848700  0.304400  0.055800  1.0  0.026
  H  H90  1  0.651300  0.304400  0.444200  1.0  0.0271
  H  H91  1  0.651300  0.195600  0.055800  1.0  0.0245
  H  H92  1  0.848700  0.195600  0.444200  1.0  0.0249
  H  H93  1  0.304400  0.444200  0.651300  1.0  0.0226
  H  H94  1  0.304400  0.055800  0.848700  1.0  0.0223
  H  H95  1  0.195600  0.444200  0.848700  1.0  0.0218
  H  H96  1  0.195600  0.055800  0.651300  1.0  0.0221
  H  H97  1  0.936700  0.180700  0.180700  1.0  0.0364
  H  H98  1  0.563300  0.319300  0.180700  1.0  0.036
  H  H99  1  0.563300  0.180700  0.319300  1.0  0.0376
  H  H100  1  0.936700  0.319300  0.319300  1.0  0.0364
  H  H101  1  0.180700  0.936700  0.180700  1.0  0.0356
  H  H102  1  0.180700  0.563300  0.319300  1.0  0.0365
  H  H103  1  0.319300  0.563300  0.180700  1.0  0.0362
  H  H104  1  0.319300  0.936700  0.319300  1.0  0.036
  H  H105  1  0.180700  0.180700  0.936700  1.0  0.038
  H  H106  1  0.319300  0.180700  0.563300  1.0  0.0374
  H  H107  1  0.180700  0.319300  0.563300  1.0  0.0372
  H  H108  1  0.319300  0.319300  0.936700  1.0  0.0371
  H  H109  1  0.555800  0.151300  0.804400  1.0  0.0241
  H  H110  1  0.944200  0.348700  0.804400  1.0  0.0232
  H  H111  1  0.555800  0.348700  0.695600  1.0  0.024
  H  H112  1  0.944200  0.151300  0.695600  1.0  0.023
  H  H113  1  0.151300  0.695600  0.944200  1.0  0.0253
  H  H114  1  0.348700  0.695600  0.555800  1.0  0.0243
  H  H115  1  0.348700  0.804400  0.944200  1.0  0.0267
  H  H116  1  0.151300  0.804400  0.555800  1.0  0.0262
  H  H117  1  0.695600  0.555800  0.348700  1.0  0.0217
  H  H118  1  0.695600  0.944200  0.151300  1.0  0.022
  H  H119  1  0.804400  0.555800  0.151300  1.0  0.0225
  H  H120  1  0.804400  0.944200  0.348700  1.0  0.0226
  H  H121  1  0.348700  0.944200  0.804400  1.0  0.024
  H  H122  1  0.151300  0.555800  0.804400  1.0  0.0242
  H  H123  1  0.151300  0.944200  0.695600  1.0  0.0243
  H  H124  1  0.348700  0.555800  0.695600  1.0  0.0242
  H  H125  1  0.804400  0.348700  0.944200  1.0  0.0235
  H  H126  1  0.804400  0.151300  0.555800  1.0  0.0228
  H  H127  1  0.695600  0.151300  0.944200  1.0  0.0227
  H  H128  1  0.695600  0.348700  0.555800  1.0  0.022
  H  H129  1  0.944200  0.804400  0.348700  1.0  0.0251
  H  H130  1  0.555800  0.804400  0.151300  1.0  0.0254
  H  H131  1  0.944200  0.695600  0.151300  1.0  0.0236
  H  H132  1  0.555800  0.695600  0.348700  1.0  0.0239
  H  H133  1  0.680700  0.436700  0.819300  1.0  0.0364
  H  H134  1  0.819300  0.063300  0.819300  1.0  0.036
  H  H135  1  0.680700  0.063300  0.680700  1.0  0.0357
  H  H136  1  0.819300  0.436700  0.680700  1.0  0.0356
  H  H137  1  0.436700  0.680700  0.819300  1.0  0.0371
  H  H138  1  0.063300  0.680700  0.680700  1.0  0.0365
  H  H139  1  0.063300  0.819300  0.819300  1.0  0.0364
  H  H140  1  0.436700  0.819300  0.680700  1.0  0.0362
  H  H141  1  0.680700  0.680700  0.063300  1.0  0.0375
  H  H142  1  0.680700  0.819300  0.436700  1.0  0.0376
  H  H143  1  0.819300  0.680700  0.436700  1.0  0.0375
  H  H144  1  0.819300  0.819300  0.063300  1.0  0.037
  C  C145  1  0.637000  0.084600  0.159900  1.0  0.181
  C  C146  1  0.863000  0.415400  0.159900  1.0  0.1804
  C  C147  1  0.863000  0.084600  0.340100  1.0  0.1811
  C  C148  1  0.637000  0.415400  0.340100  1.0  0.1809
  C  C149  1  0.159900  0.637000  0.084600  1.0  0.1811
  C  C150  1  0.159900  0.863000  0.415400  1.0  0.1805
  C  C151  1  0.340100  0.863000  0.084600  1.0  0.181
  C  C152  1  0.340100  0.637000  0.415400  1.0  0.1792
  C  C153  1  0.084600  0.159900  0.637000  1.0  0.1808
  C  C154  1  0.415400  0.159900  0.863000  1.0  0.1811
  C  C155  1  0.084600  0.340100  0.863000  1.0  0.1815
  C  C156  1  0.415400  0.340100  0.637000  1.0  0.1809
  C  C157  1  0.415400  0.863000  0.159900  1.0  0.1815
  C  C158  1  0.084600  0.637000  0.159900  1.0  0.1807
  C  C159  1  0.415400  0.637000  0.340100  1.0  0.1811
  C  C160  1  0.084600  0.863000  0.340100  1.0  0.1821
  C  C161  1  0.863000  0.340100  0.084600  1.0  0.1797
  C  C162  1  0.637000  0.340100  0.415400  1.0  0.1787
  C  C163  1  0.637000  0.159900  0.084600  1.0  0.1802
  C  C164  1  0.863000  0.159900  0.415400  1.0  0.1781
  C  C165  1  0.340100  0.415400  0.637000  1.0  0.1814
  C  C166  1  0.340100  0.084600  0.863000  1.0  0.1814
  C  C167  1  0.159900  0.415400  0.863000  1.0  0.1822
  C  C168  1  0.159900  0.084600  0.637000  1.0  0.182
  C  C169  1  0.921300  0.213000  0.213000  1.0  0.1067
  C  C170  1  0.578700  0.287000  0.213000  1.0  0.1078
  C  C171  1  0.578700  0.213000  0.287000  1.0  0.1065
  C  C172  1  0.921300  0.287000  0.287000  1.0  0.1085
  C  C173  1  0.213000  0.921300  0.213000  1.0  0.106
  C  C174  1  0.213000  0.578700  0.287000  1.0  0.1049
  C  C175  1  0.287000  0.578700  0.213000  1.0  0.1073
  C  C176  1  0.287000  0.921300  0.287000  1.0  0.1089
  C  C177  1  0.213000  0.213000  0.921300  1.0  0.1058
  C  C178  1  0.287000  0.213000  0.578700  1.0  0.1072
  C  C179  1  0.213000  0.287000  0.578700  1.0  0.1066
  C  C180  1  0.287000  0.287000  0.921300  1.0  0.1098
  C  C181  1  0.584600  0.137000  0.840100  1.0  0.1814
  C  C182  1  0.915400  0.363000  0.840100  1.0  0.1819
  C  C183  1  0.584600  0.363000  0.659900  1.0  0.1817
  C  C184  1  0.915400  0.137000  0.659900  1.0  0.1805
  C  C185  1  0.137000  0.659900  0.915400  1.0  0.178
  C  C186  1  0.363000  0.659900  0.584600  1.0  0.1805
  C  C187  1  0.363000  0.840100  0.915400  1.0  0.1791
  C  C188  1  0.137000  0.840100  0.584600  1.0  0.1792
  C  C189  1  0.659900  0.584600  0.363000  1.0  0.1821
  C  C190  1  0.659900  0.915400  0.137000  1.0  0.182
  C  C191  1  0.840100  0.584600  0.137000  1.0  0.1813
  C  C192  1  0.840100  0.915400  0.363000  1.0  0.1815
  C  C193  1  0.363000  0.915400  0.840100  1.0  0.1814
  C  C194  1  0.137000  0.584600  0.840100  1.0  0.1807
  C  C195  1  0.137000  0.915400  0.659900  1.0  0.1804
  C  C196  1  0.363000  0.584600  0.659900  1.0  0.181
  C  C197  1  0.840100  0.363000  0.915400  1.0  0.1801
  C  C198  1  0.840100  0.137000  0.584600  1.0  0.1806
  C  C199  1  0.659900  0.137000  0.915400  1.0  0.1795
  C  C200  1  0.659900  0.363000  0.584600  1.0  0.1817
  C  C201  1  0.915400  0.840100  0.363000  1.0  0.181
  C  C202  1  0.584600  0.840100  0.137000  1.0  0.1812
  C  C203  1  0.915400  0.659900  0.137000  1.0  0.1808
  C  C204  1  0.584600  0.659900  0.363000  1.0  0.1814
  C  C205  1  0.713000  0.421300  0.787000  1.0  0.1051
  C  C206  1  0.787000  0.078700  0.787000  1.0  0.1084
  C  C207  1  0.713000  0.078700  0.713000  1.0  0.1055
  C  C208  1  0.787000  0.421300  0.713000  1.0  0.1086
  C  C209  1  0.421300  0.713000  0.787000  1.0  0.1076
  C  C210  1  0.078700  0.713000  0.713000  1.0  0.1063
  C  C211  1  0.078700  0.787000  0.787000  1.0  0.1068
  C  C212  1  0.421300  0.787000  0.713000  1.0  0.1085
  C  C213  1  0.713000  0.713000  0.078700  1.0  0.1051
  C  C214  1  0.713000  0.787000  0.421300  1.0  0.1059
  C  C215  1  0.787000  0.713000  0.421300  1.0  0.1091
  C  C216  1  0.787000  0.787000  0.078700  1.0  0.109
  N  N217  1  0.574000  0.079700  0.129700  1.0  -0.3227
  N  N218  1  0.926000  0.420300  0.129700  1.0  -0.3243
  N  N219  1  0.926000  0.079700  0.370300  1.0  -0.3226
  N  N220  1  0.574000  0.420300  0.370300  1.0  -0.3223
  N  N221  1  0.129700  0.574000  0.079700  1.0  -0.3213
  N  N222  1  0.129700  0.926000  0.420300  1.0  -0.3211
  N  N223  1  0.370300  0.926000  0.079700  1.0  -0.3223
  N  N224  1  0.370300  0.574000  0.420300  1.0  -0.323
  N  N225  1  0.079700  0.129700  0.574000  1.0  -0.3211
  N  N226  1  0.420300  0.129700  0.926000  1.0  -0.3207
  N  N227  1  0.079700  0.370300  0.926000  1.0  -0.3223
  N  N228  1  0.420300  0.370300  0.574000  1.0  -0.3202
  N  N229  1  0.420300  0.926000  0.129700  1.0  -0.3209
  N  N230  1  0.079700  0.574000  0.129700  1.0  -0.3229
  N  N231  1  0.420300  0.574000  0.370300  1.0  -0.3204
  N  N232  1  0.079700  0.926000  0.370300  1.0  -0.322
  N  N233  1  0.926000  0.370300  0.079700  1.0  -0.3238
  N  N234  1  0.574000  0.370300  0.420300  1.0  -0.3227
  N  N235  1  0.574000  0.129700  0.079700  1.0  -0.3214
  N  N236  1  0.926000  0.129700  0.420300  1.0  -0.324
  N  N237  1  0.370300  0.420300  0.574000  1.0  -0.3219
  N  N238  1  0.370300  0.079700  0.926000  1.0  -0.3234
  N  N239  1  0.129700  0.420300  0.926000  1.0  -0.322
  N  N240  1  0.129700  0.079700  0.574000  1.0  -0.3209
  N  N241  1  0.676000  0.133900  0.133900  1.0  -0.4395
  N  N242  1  0.855600  0.226400  0.226400  1.0  -0.2974
  N  N243  1  0.824000  0.366100  0.133900  1.0  -0.4423
  N  N244  1  0.644400  0.273600  0.226400  1.0  -0.2976
  N  N245  1  0.824000  0.133900  0.366100  1.0  -0.4403
  N  N246  1  0.644400  0.226400  0.273600  1.0  -0.2979
  N  N247  1  0.676000  0.366100  0.366100  1.0  -0.4392
  N  N248  1  0.855600  0.273600  0.273600  1.0  -0.298
  N  N249  1  0.133900  0.676000  0.133900  1.0  -0.4394
  N  N250  1  0.226400  0.855600  0.226400  1.0  -0.2991
  N  N251  1  0.133900  0.824000  0.366100  1.0  -0.4367
  N  N252  1  0.226400  0.644400  0.273600  1.0  -0.3
  N  N253  1  0.366100  0.824000  0.133900  1.0  -0.4384
  N  N254  1  0.273600  0.644400  0.226400  1.0  -0.2992
  N  N255  1  0.366100  0.676000  0.366100  1.0  -0.4386
  N  N256  1  0.273600  0.855600  0.273600  1.0  -0.2992
  N  N257  1  0.133900  0.133900  0.676000  1.0  -0.437
  N  N258  1  0.226400  0.226400  0.855600  1.0  -0.2973
  N  N259  1  0.366100  0.133900  0.824000  1.0  -0.4375
  N  N260  1  0.273600  0.226400  0.644400  1.0  -0.2991
  N  N261  1  0.133900  0.366100  0.824000  1.0  -0.4378
  N  N262  1  0.226400  0.273600  0.644400  1.0  -0.2997
  N  N263  1  0.366100  0.366100  0.676000  1.0  -0.4384
  N  N264  1  0.273600  0.273600  0.855600  1.0  -0.2969
  N  N265  1  0.960300  0.250000  0.250000  1.0  -0.133
  N  N266  1  0.539700  0.250000  0.250000  1.0  -0.1311
  N  N267  1  0.250000  0.960300  0.250000  1.0  -0.1319
  N  N268  1  0.250000  0.539700  0.250000  1.0  -0.1311
  N  N269  1  0.250000  0.250000  0.960300  1.0  -0.1338
  N  N270  1  0.250000  0.250000  0.539700  1.0  -0.1376
  N  N271  1  0.579700  0.074000  0.870300  1.0  -0.3225
  N  N272  1  0.920300  0.426000  0.870300  1.0  -0.3214
  N  N273  1  0.579700  0.426000  0.629700  1.0  -0.322
  N  N274  1  0.920300  0.074000  0.629700  1.0  -0.3207
  N  N275  1  0.074000  0.629700  0.920300  1.0  -0.3226
  N  N276  1  0.426000  0.629700  0.579700  1.0  -0.3233
  N  N277  1  0.426000  0.870300  0.920300  1.0  -0.3236
  N  N278  1  0.074000  0.870300  0.579700  1.0  -0.3222
  N  N279  1  0.629700  0.579700  0.426000  1.0  -0.3217
  N  N280  1  0.629700  0.920300  0.074000  1.0  -0.3223
  N  N281  1  0.870300  0.579700  0.074000  1.0  -0.3209
  N  N282  1  0.870300  0.920300  0.426000  1.0  -0.3233
  N  N283  1  0.426000  0.920300  0.870300  1.0  -0.3242
  N  N284  1  0.074000  0.579700  0.870300  1.0  -0.322
  N  N285  1  0.074000  0.920300  0.629700  1.0  -0.323
  N  N286  1  0.426000  0.579700  0.629700  1.0  -0.3228
  N  N287  1  0.870300  0.426000  0.920300  1.0  -0.3216
  N  N288  1  0.870300  0.074000  0.579700  1.0  -0.3225
  N  N289  1  0.629700  0.074000  0.920300  1.0  -0.3219
  N  N290  1  0.629700  0.426000  0.579700  1.0  -0.3217
  N  N291  1  0.920300  0.870300  0.426000  1.0  -0.3208
  N  N292  1  0.579700  0.870300  0.074000  1.0  -0.3215
  N  N293  1  0.920300  0.629700  0.074000  1.0  -0.3203
  N  N294  1  0.579700  0.629700  0.426000  1.0  -0.3223
  N  N295  1  0.633900  0.176000  0.866100  1.0  -0.4385
  N  N296  1  0.726400  0.355600  0.773600  1.0  -0.2995
  N  N297  1  0.866100  0.324000  0.866100  1.0  -0.4376
  N  N298  1  0.773600  0.144400  0.773600  1.0  -0.2993
  N  N299  1  0.633900  0.324000  0.633900  1.0  -0.4374
  N  N300  1  0.726400  0.144400  0.726400  1.0  -0.2993
  N  N301  1  0.866100  0.176000  0.633900  1.0  -0.4397
  N  N302  1  0.773600  0.355600  0.726400  1.0  -0.299
  N  N303  1  0.176000  0.633900  0.866100  1.0  -0.439
  N  N304  1  0.355600  0.726400  0.773600  1.0  -0.298
  N  N305  1  0.324000  0.633900  0.633900  1.0  -0.4411
  N  N306  1  0.144400  0.726400  0.726400  1.0  -0.2979
  N  N307  1  0.324000  0.866100  0.866100  1.0  -0.4416
  N  N308  1  0.144400  0.773600  0.773600  1.0  -0.2981
  N  N309  1  0.176000  0.866100  0.633900  1.0  -0.4399
  N  N310  1  0.355600  0.773600  0.726400  1.0  -0.2965
  N  N311  1  0.633900  0.633900  0.324000  1.0  -0.4366
  N  N312  1  0.726400  0.726400  0.144400  1.0  -0.2995
  N  N313  1  0.633900  0.866100  0.176000  1.0  -0.4373
  N  N314  1  0.726400  0.773600  0.355600  1.0  -0.296
  N  N315  1  0.866100  0.633900  0.176000  1.0  -0.4381
  N  N316  1  0.773600  0.726400  0.355600  1.0  -0.2982
  N  N317  1  0.866100  0.866100  0.324000  1.0  -0.4388
  N  N318  1  0.773600  0.773600  0.144400  1.0  -0.299
  N  N319  1  0.750000  0.460300  0.750000  1.0  -0.1319
  N  N320  1  0.750000  0.039700  0.750000  1.0  -0.1311
  N  N321  1  0.460300  0.750000  0.750000  1.0  -0.133
  N  N322  1  0.039700  0.750000  0.750000  1.0  -0.1311
  N  N323  1  0.750000  0.750000  0.039700  1.0  -0.1376
  N  N324  1  0.750000  0.750000  0.460300  1.0  -0.1338
