# generated using pymatgen
data_NdH9(C3O)6
_symmetry_space_group_name_H-M   'P 1'
_cell_length_a   18.85750000
_cell_length_b   21.81470000
_cell_length_c   12.88370000
_cell_angle_alpha   90.00000000
_cell_angle_beta   90.00000000
_cell_angle_gamma   90.00000000
_symmetry_Int_Tables_number   1
_chemical_formula_structural   NdH9(C3O)6
_chemical_formula_sum   'Nd8 H72 C144 O48'
_cell_volume   5299.97675523
_cell_formula_units_Z   8
loop_
 _symmetry_equiv_pos_site_id
 _symmetry_equiv_pos_as_xyz
  1  'x, y, z'
loop_
 _atom_site_type_symbol
 _atom_site_label
 _atom_site_symmetry_multiplicity
 _atom_site_fract_x
 _atom_site_fract_y
 _atom_site_fract_z
 _atom_site_occupancy
 _atom_site_charge
  Nd  Nd1  1  0.494670  0.750000  0.747180  1.0  2.3434
  Nd  Nd2  1  0.214650  0.750000  0.655270  1.0  2.3222
  Nd  Nd3  1  0.005330  0.250000  0.247180  1.0  2.3412
  Nd  Nd4  1  0.285350  0.250000  0.155270  1.0  2.3229
  Nd  Nd5  1  0.505330  0.250000  0.252820  1.0  2.3413
  Nd  Nd6  1  0.785350  0.250000  0.344730  1.0  2.3246
  Nd  Nd7  1  0.994670  0.750000  0.752820  1.0  2.3435
  Nd  Nd8  1  0.714650  0.750000  0.844730  1.0  2.3238
  H  H9  1  0.469600  0.569400  0.689100  1.0  0.1077
  H  H10  1  0.484700  0.475300  0.615300  1.0  0.1173
  H  H11  1  0.445100  0.395200  0.489200  1.0  0.1066
  H  H12  1  0.256900  0.414600  0.342600  1.0  0.1061
  H  H13  1  0.236300  0.506000  0.427300  1.0  0.0973
  H  H14  1  0.276900  0.586900  0.554900  1.0  0.1146
  H  H15  1  0.986100  0.592600  0.632300  1.0  0.1034
  H  H16  1  0.102000  0.493300  0.357900  1.0  0.0984
  H  H17  1  0.145000  0.584900  0.421200  1.0  0.126
  H  H18  1  0.030400  0.430600  0.189100  1.0  0.1079
  H  H19  1  0.015300  0.524700  0.115300  1.0  0.1175
  H  H20  1  0.054900  0.604800  0.989200  1.0  0.1074
  H  H21  1  0.243100  0.585400  0.842600  1.0  0.1061
  H  H22  1  0.263700  0.494000  0.927300  1.0  0.0968
  H  H23  1  0.223100  0.413100  0.054900  1.0  0.1144
  H  H24  1  0.513900  0.407400  0.132300  1.0  0.1037
  H  H25  1  0.398000  0.506700  0.857900  1.0  0.0981
  H  H26  1  0.355000  0.415100  0.921200  1.0  0.1262
  H  H27  1  0.530400  0.069400  0.310900  1.0  0.1079
  H  H28  1  0.515300  0.975300  0.384700  1.0  0.1176
  H  H29  1  0.554900  0.895200  0.510800  1.0  0.1068
  H  H30  1  0.743100  0.914600  0.657400  1.0  0.106
  H  H31  1  0.763700  0.006000  0.572700  1.0  0.0964
  H  H32  1  0.723100  0.086900  0.445100  1.0  0.115
  H  H33  1  0.013900  0.092600  0.367700  1.0  0.1043
  H  H34  1  0.898000  0.993300  0.642100  1.0  0.0986
  H  H35  1  0.855000  0.084900  0.578800  1.0  0.1264
  H  H36  1  0.969600  0.930600  0.810900  1.0  0.1078
  H  H37  1  0.984700  0.024700  0.884700  1.0  0.1174
  H  H38  1  0.945100  0.104800  0.010800  1.0  0.1062
  H  H39  1  0.756900  0.085400  0.157400  1.0  0.1058
  H  H40  1  0.736300  0.994000  0.072700  1.0  0.0968
  H  H41  1  0.776900  0.913100  0.945100  1.0  0.1148
  H  H42  1  0.486100  0.907400  0.867700  1.0  0.104
  H  H43  1  0.602000  0.006700  0.142100  1.0  0.0983
  H  H44  1  0.645000  0.915100  0.078800  1.0  0.126
  H  H45  1  0.530400  0.430600  0.310900  1.0  0.1077
  H  H46  1  0.515300  0.524700  0.384700  1.0  0.118
  H  H47  1  0.554900  0.604800  0.510800  1.0  0.1062
  H  H48  1  0.743100  0.585400  0.657400  1.0  0.1058
  H  H49  1  0.763700  0.494000  0.572700  1.0  0.0967
  H  H50  1  0.723100  0.413100  0.445100  1.0  0.1149
  H  H51  1  0.013900  0.407400  0.367700  1.0  0.1042
  H  H52  1  0.898000  0.506700  0.642100  1.0  0.0983
  H  H53  1  0.855000  0.415100  0.578800  1.0  0.1264
  H  H54  1  0.969600  0.569400  0.810900  1.0  0.1079
  H  H55  1  0.984700  0.475300  0.884700  1.0  0.1176
  H  H56  1  0.945100  0.395200  0.010800  1.0  0.1049
  H  H57  1  0.756900  0.414600  0.157400  1.0  0.1059
  H  H58  1  0.736300  0.506000  0.072700  1.0  0.0967
  H  H59  1  0.776900  0.586900  0.945100  1.0  0.115
  H  H60  1  0.486100  0.592600  0.867700  1.0  0.1041
  H  H61  1  0.602000  0.493300  0.142100  1.0  0.0985
  H  H62  1  0.645000  0.584900  0.078800  1.0  0.1261
  H  H63  1  0.469600  0.930600  0.689100  1.0  0.108
  H  H64  1  0.484700  0.024700  0.615300  1.0  0.117
  H  H65  1  0.445100  0.104800  0.489200  1.0  0.1056
  H  H66  1  0.256900  0.085400  0.342600  1.0  0.1065
  H  H67  1  0.236300  0.994000  0.427300  1.0  0.097
  H  H68  1  0.276900  0.913100  0.554900  1.0  0.1143
  H  H69  1  0.986100  0.907400  0.632300  1.0  0.1034
  H  H70  1  0.102000  0.006700  0.357900  1.0  0.098
  H  H71  1  0.145000  0.915100  0.421200  1.0  0.1256
  H  H72  1  0.030400  0.069400  0.189100  1.0  0.1077
  H  H73  1  0.015300  0.975300  0.115300  1.0  0.1173
  H  H74  1  0.054900  0.895200  0.989200  1.0  0.1059
  H  H75  1  0.243100  0.914600  0.842600  1.0  0.1059
  H  H76  1  0.263700  0.006000  0.927300  1.0  0.097
  H  H77  1  0.223100  0.086900  0.054900  1.0  0.1147
  H  H78  1  0.513900  0.092600  0.132300  1.0  0.1037
  H  H79  1  0.398000  0.993300  0.857900  1.0  0.0985
  H  H80  1  0.355000  0.084900  0.921200  1.0  0.1265
  C  C81  1  0.370600  0.586300  0.631100  1.0  -0.135
  C  C82  1  0.433400  0.553000  0.646100  1.0  -0.0698
  C  C83  1  0.442900  0.498100  0.600500  1.0  -0.0973
  C  C84  1  0.392400  0.473800  0.531500  1.0  0.0407
  C  C85  1  0.403100  0.418200  0.477000  1.0  -0.1281
  C  C86  1  0.354400  0.396700  0.407300  1.0  -0.1277
  C  C87  1  0.291200  0.430000  0.389900  1.0  -0.0418
  C  C88  1  0.279000  0.484100  0.440400  1.0  -0.1088
  C  C89  1  0.329300  0.508300  0.512400  1.0  0.0488
  C  C90  1  0.319400  0.564200  0.565100  1.0  -0.1134
  C  C91  1  0.362700  0.648100  0.683600  1.0  0.7528
  C  C92  1  0.370000  0.338800  0.346100  1.0  0.7634
  C  C93  1  0.069500  0.596900  0.534500  1.0  -0.1237
  C  C94  1  0.009600  0.571700  0.577600  1.0  -0.0779
  C  C95  1  0.982600  0.515100  0.542000  1.0  0.0621
  C  C96  1  0.078400  0.512800  0.414200  1.0  -0.1177
  C  C97  1  0.103900  0.567100  0.451400  1.0  -0.0856
  C  C98  1  0.098300  0.655500  0.577200  1.0  0.7644
  C  C99  1  0.129400  0.413700  0.131100  1.0  -0.1361
  C  C100  1  0.066600  0.447000  0.146100  1.0  -0.0697
  C  C101  1  0.057100  0.501900  0.100500  1.0  -0.0996
  C  C102  1  0.107600  0.526200  0.031500  1.0  0.0394
  C  C103  1  0.096900  0.581800  0.977000  1.0  -0.1318
  C  C104  1  0.145600  0.603300  0.907300  1.0  -0.1271
  C  C105  1  0.208800  0.570000  0.889900  1.0  -0.0419
  C  C106  1  0.221000  0.515900  0.940400  1.0  -0.1087
  C  C107  1  0.170700  0.491700  0.012400  1.0  0.0493
  C  C108  1  0.180600  0.435800  0.065100  1.0  -0.1137
  C  C109  1  0.137300  0.351900  0.183600  1.0  0.7521
  C  C110  1  0.130000  0.661200  0.846100  1.0  0.7652
  C  C111  1  0.430500  0.403100  0.034500  1.0  -0.1238
  C  C112  1  0.490400  0.428300  0.077600  1.0  -0.0785
  C  C113  1  0.517400  0.484900  0.042000  1.0  0.0622
  C  C114  1  0.421600  0.487200  0.914200  1.0  -0.1187
  C  C115  1  0.396100  0.432900  0.951400  1.0  -0.0876
  C  C116  1  0.401700  0.344500  0.077200  1.0  0.7645
  C  C117  1  0.629400  0.086300  0.368900  1.0  -0.1363
  C  C118  1  0.566600  0.053000  0.353900  1.0  -0.0694
  C  C119  1  0.557100  0.998100  0.399500  1.0  -0.098
  C  C120  1  0.607600  0.973800  0.468500  1.0  0.0405
  C  C121  1  0.596900  0.918200  0.523000  1.0  -0.1298
  C  C122  1  0.645600  0.896700  0.592700  1.0  -0.1275
  C  C123  1  0.708800  0.930000  0.610100  1.0  -0.0423
  C  C124  1  0.721000  0.984100  0.559600  1.0  -0.1094
  C  C125  1  0.670700  0.008300  0.487600  1.0  0.0493
  C  C126  1  0.680600  0.064200  0.434900  1.0  -0.1127
  C  C127  1  0.637300  0.148100  0.316400  1.0  0.7537
  C  C128  1  0.630000  0.838800  0.653900  1.0  0.7665
  C  C129  1  0.930500  0.096900  0.465500  1.0  -0.1233
  C  C130  1  0.990400  0.071700  0.422400  1.0  -0.0794
  C  C131  1  0.017400  0.015100  0.458000  1.0  0.0621
  C  C132  1  0.921600  0.012800  0.585800  1.0  -0.1194
  C  C133  1  0.896100  0.067100  0.548600  1.0  -0.0878
  C  C134  1  0.901700  0.155500  0.422800  1.0  0.7668
  C  C135  1  0.870600  0.913700  0.868900  1.0  -0.1349
  C  C136  1  0.933400  0.947000  0.853900  1.0  -0.0705
  C  C137  1  0.942900  0.001900  0.899500  1.0  -0.0973
  C  C138  1  0.892400  0.026200  0.968500  1.0  0.0414
  C  C139  1  0.903100  0.081800  0.023000  1.0  -0.129
  C  C140  1  0.854400  0.103300  0.092700  1.0  -0.1272
  C  C141  1  0.791200  0.070000  0.110100  1.0  -0.043
  C  C142  1  0.779000  0.015900  0.059600  1.0  -0.1084
  C  C143  1  0.829300  0.991700  0.987600  1.0  0.049
  C  C144  1  0.819400  0.935800  0.934900  1.0  -0.1128
  C  C145  1  0.862700  0.851900  0.816400  1.0  0.7506
  C  C146  1  0.870000  0.161200  0.153900  1.0  0.7654
  C  C147  1  0.569500  0.903100  0.965500  1.0  -0.1238
  C  C148  1  0.509600  0.928300  0.922400  1.0  -0.0786
  C  C149  1  0.482600  0.984900  0.958000  1.0  0.0621
  C  C150  1  0.578400  0.987200  0.085800  1.0  -0.1179
  C  C151  1  0.603900  0.932900  0.048600  1.0  -0.0863
  C  C152  1  0.598300  0.844500  0.922800  1.0  0.7652
  C  C153  1  0.629400  0.413700  0.368900  1.0  -0.1359
  C  C154  1  0.566600  0.447000  0.353900  1.0  -0.0699
  C  C155  1  0.557100  0.501900  0.399500  1.0  -0.0989
  C  C156  1  0.607600  0.526200  0.468500  1.0  0.0403
  C  C157  1  0.596900  0.581800  0.523000  1.0  -0.1314
  C  C158  1  0.645600  0.603300  0.592700  1.0  -0.1276
  C  C159  1  0.708800  0.570000  0.610100  1.0  -0.0424
  C  C160  1  0.721000  0.515900  0.559600  1.0  -0.109
  C  C161  1  0.670700  0.491700  0.487600  1.0  0.0494
  C  C162  1  0.680600  0.435800  0.434900  1.0  -0.1132
  C  C163  1  0.637300  0.351900  0.316400  1.0  0.7516
  C  C164  1  0.630000  0.661200  0.653900  1.0  0.7665
  C  C165  1  0.930500  0.403100  0.465500  1.0  -0.1237
  C  C166  1  0.990400  0.428300  0.422400  1.0  -0.0777
  C  C167  1  0.017400  0.484900  0.458000  1.0  0.0622
  C  C168  1  0.921600  0.487200  0.585800  1.0  -0.1153
  C  C169  1  0.896100  0.432900  0.548600  1.0  -0.0877
  C  C170  1  0.901700  0.344500  0.422800  1.0  0.7661
  C  C171  1  0.870600  0.586300  0.868900  1.0  -0.1351
  C  C172  1  0.933400  0.553000  0.853900  1.0  -0.0699
  C  C173  1  0.942900  0.498100  0.899500  1.0  -0.0976
  C  C174  1  0.892400  0.473800  0.968500  1.0  0.0411
  C  C175  1  0.903100  0.418200  0.023000  1.0  -0.1282
  C  C176  1  0.854400  0.396700  0.092700  1.0  -0.1274
  C  C177  1  0.791200  0.430000  0.110100  1.0  -0.0423
  C  C178  1  0.779000  0.484100  0.059600  1.0  -0.1092
  C  C179  1  0.829300  0.508300  0.987600  1.0  0.0489
  C  C180  1  0.819400  0.564200  0.934900  1.0  -0.113
  C  C181  1  0.862700  0.648100  0.816400  1.0  0.7529
  C  C182  1  0.870000  0.338800  0.153900  1.0  0.7655
  C  C183  1  0.569500  0.596900  0.965500  1.0  -0.1235
  C  C184  1  0.509600  0.571700  0.922400  1.0  -0.0772
  C  C185  1  0.482600  0.515100  0.958000  1.0  0.0621
  C  C186  1  0.578400  0.512800  0.085800  1.0  -0.1143
  C  C187  1  0.603900  0.567100  0.048600  1.0  -0.0859
  C  C188  1  0.598300  0.655500  0.922800  1.0  0.766
  C  C189  1  0.370600  0.913700  0.631100  1.0  -0.1346
  C  C190  1  0.433400  0.947000  0.646100  1.0  -0.0701
  C  C191  1  0.442900  0.001900  0.600500  1.0  -0.0977
  C  C192  1  0.392400  0.026200  0.531500  1.0  0.0408
  C  C193  1  0.403100  0.081800  0.477000  1.0  -0.1295
  C  C194  1  0.354400  0.103300  0.407300  1.0  -0.1274
  C  C195  1  0.291200  0.070000  0.389900  1.0  -0.042
  C  C196  1  0.279000  0.015900  0.440400  1.0  -0.1081
  C  C197  1  0.329300  0.991700  0.512400  1.0  0.0489
  C  C198  1  0.319400  0.935800  0.565100  1.0  -0.113
  C  C199  1  0.362700  0.851900  0.683600  1.0  0.7511
  C  C200  1  0.370000  0.161200  0.346100  1.0  0.7639
  C  C201  1  0.069500  0.903100  0.534500  1.0  -0.1237
  C  C202  1  0.009600  0.928300  0.577600  1.0  -0.0763
  C  C203  1  0.982600  0.984900  0.542000  1.0  0.0621
  C  C204  1  0.078400  0.987200  0.414200  1.0  -0.1139
  C  C205  1  0.103900  0.932900  0.451400  1.0  -0.0864
  C  C206  1  0.098300  0.844500  0.577200  1.0  0.7637
  C  C207  1  0.129400  0.086300  0.131100  1.0  -0.1366
  C  C208  1  0.066600  0.053000  0.146100  1.0  -0.0695
  C  C209  1  0.057100  0.998100  0.100500  1.0  -0.0979
  C  C210  1  0.107600  0.973800  0.031500  1.0  0.0398
  C  C211  1  0.096900  0.918200  0.977000  1.0  -0.1294
  C  C212  1  0.145600  0.896700  0.907300  1.0  -0.1272
  C  C213  1  0.208800  0.930000  0.889900  1.0  -0.0421
  C  C214  1  0.221000  0.984100  0.940400  1.0  -0.1092
  C  C215  1  0.170700  0.008300  0.012400  1.0  0.0492
  C  C216  1  0.180600  0.064200  0.065100  1.0  -0.1135
  C  C217  1  0.137300  0.148100  0.183600  1.0  0.7535
  C  C218  1  0.130000  0.838800  0.846100  1.0  0.7647
  C  C219  1  0.430500  0.096900  0.034500  1.0  -0.1236
  C  C220  1  0.490400  0.071700  0.077600  1.0  -0.0772
  C  C221  1  0.517400  0.015100  0.042000  1.0  0.0621
  C  C222  1  0.421600  0.012800  0.914200  1.0  -0.1151
  C  C223  1  0.396100  0.067100  0.951400  1.0  -0.0873
  C  C224  1  0.401700  0.155500  0.077200  1.0  0.7652
  O  O225  1  0.412580  0.665820  0.739600  1.0  -0.744
  O  O226  1  0.306510  0.677360  0.667300  1.0  -0.7905
  O  O227  1  0.430800  0.316850  0.356100  1.0  -0.7219
  O  O228  1  0.320300  0.317980  0.291600  1.0  -0.7596
  O  O229  1  0.062600  0.684800  0.641500  1.0  -0.8411
  O  O230  1  0.158900  0.672330  0.547500  1.0  -0.6602
  O  O231  1  0.087420  0.334180  0.239600  1.0  -0.742
  O  O232  1  0.193490  0.322640  0.167300  1.0  -0.7916
  O  O233  1  0.069200  0.683150  0.856100  1.0  -0.7221
  O  O234  1  0.179700  0.682020  0.791600  1.0  -0.7599
  O  O235  1  0.437400  0.315200  0.141500  1.0  -0.8399
  O  O236  1  0.341100  0.327670  0.047500  1.0  -0.659
  O  O237  1  0.587420  0.165820  0.260400  1.0  -0.7414
  O  O238  1  0.693490  0.177360  0.332700  1.0  -0.7913
  O  O239  1  0.569200  0.816850  0.643900  1.0  -0.722
  O  O240  1  0.679700  0.817980  0.708400  1.0  -0.7604
  O  O241  1  0.937400  0.184800  0.358500  1.0  -0.8395
  O  O242  1  0.841100  0.172330  0.452500  1.0  -0.6595
  O  O243  1  0.912580  0.834180  0.760400  1.0  -0.7438
  O  O244  1  0.806510  0.822640  0.832700  1.0  -0.7901
  O  O245  1  0.930800  0.183150  0.143900  1.0  -0.722
  O  O246  1  0.820300  0.182020  0.208400  1.0  -0.7605
  O  O247  1  0.562600  0.815200  0.858500  1.0  -0.8411
  O  O248  1  0.658900  0.827670  0.952500  1.0  -0.658
  O  O249  1  0.587420  0.334180  0.260400  1.0  -0.7426
  O  O250  1  0.693490  0.322640  0.332700  1.0  -0.7916
  O  O251  1  0.569200  0.683150  0.643900  1.0  -0.7215
  O  O252  1  0.679700  0.682020  0.708400  1.0  -0.7604
  O  O253  1  0.937400  0.315200  0.358500  1.0  -0.8386
  O  O254  1  0.841100  0.327670  0.452500  1.0  -0.6582
  O  O255  1  0.912580  0.665820  0.760400  1.0  -0.7436
  O  O256  1  0.806510  0.677360  0.832700  1.0  -0.7904
  O  O257  1  0.930800  0.316850  0.143900  1.0  -0.7225
  O  O258  1  0.820300  0.317980  0.208400  1.0  -0.7603
  O  O259  1  0.562600  0.684800  0.858500  1.0  -0.8406
  O  O260  1  0.658900  0.672330  0.952500  1.0  -0.6597
  O  O261  1  0.412580  0.834180  0.739600  1.0  -0.7429
  O  O262  1  0.306510  0.822640  0.667300  1.0  -0.7901
  O  O263  1  0.430800  0.183150  0.356100  1.0  -0.7225
  O  O264  1  0.320300  0.182020  0.291600  1.0  -0.76
  O  O265  1  0.062600  0.815200  0.641500  1.0  -0.841
  O  O266  1  0.158900  0.827670  0.547500  1.0  -0.6591
  O  O267  1  0.087420  0.165820  0.239600  1.0  -0.7425
  O  O268  1  0.193490  0.177360  0.167300  1.0  -0.7916
  O  O269  1  0.069200  0.816850  0.856100  1.0  -0.7216
  O  O270  1  0.179700  0.817980  0.791600  1.0  -0.7598
  O  O271  1  0.437400  0.184800  0.141500  1.0  -0.839
  O  O272  1  0.341100  0.172330  0.047500  1.0  -0.6594
