# generated using pymatgen
data_NdH9(C3O)6
_symmetry_space_group_name_H-M   'P 1'
_cell_length_a   9.83200000
_cell_length_b   21.32180000
_cell_length_c   13.79490000
_cell_angle_alpha   90.00000000
_cell_angle_beta   105.60200000
_cell_angle_gamma   90.00000000
_symmetry_Int_Tables_number   1
_chemical_formula_structural   NdH9(C3O)6
_chemical_formula_sum   'Nd4 H36 C72 O24'
_cell_volume   2785.34922395
_cell_formula_units_Z   4
loop_
 _symmetry_equiv_pos_site_id
 _symmetry_equiv_pos_as_xyz
  1  'x, y, z'
loop_
 _atom_site_type_symbol
 _atom_site_label
 _atom_site_symmetry_multiplicity
 _atom_site_fract_x
 _atom_site_fract_y
 _atom_site_fract_z
 _atom_site_occupancy
 _atom_site_charge
  Nd  Nd1  1  0.261240  0.015610  0.514860  1.0  2.2791
  Nd  Nd2  1  0.238760  0.515610  0.985140  1.0  2.2768
  Nd  Nd3  1  0.738760  0.984380  0.485140  1.0  2.2769
  Nd  Nd4  1  0.761240  0.484380  0.014860  1.0  2.2784
  H  H5  1  0.767400  0.132900  0.615200  1.0  0.1115
  H  H6  1  0.732900  0.205400  0.727000  1.0  0.1072
  H  H7  1  0.813100  0.300500  0.834900  1.0  0.1029
  H  H8  1  0.201600  0.369900  0.860400  1.0  0.1102
  H  H9  1  0.244900  0.291800  0.756900  1.0  0.1113
  H  H10  1  0.164200  0.196400  0.651400  1.0  0.1076
  H  H11  1  0.230500  0.934200  0.001000  1.0  0.1144
  H  H12  1  0.298200  0.945300  0.173000  1.0  0.1101
  H  H13  1  0.944200  0.042600  0.166100  1.0  0.1035
  H  H14  1  0.732600  0.632900  0.884800  1.0  0.1112
  H  H15  1  0.767100  0.705400  0.773000  1.0  0.1069
  H  H16  1  0.686900  0.800500  0.665100  1.0  0.1029
  H  H17  1  0.298400  0.869900  0.639600  1.0  0.1104
  H  H18  1  0.255100  0.791800  0.743100  1.0  0.1117
  H  H19  1  0.335800  0.696400  0.848600  1.0  0.1079
  H  H20  1  0.269500  0.434200  0.499000  1.0  0.1149
  H  H21  1  0.201800  0.445300  0.327000  1.0  0.1107
  H  H22  1  0.555800  0.542600  0.333900  1.0  0.1037
  H  H23  1  0.232600  0.867100  0.384800  1.0  0.1105
  H  H24  1  0.267100  0.794600  0.273000  1.0  0.1068
  H  H25  1  0.186900  0.699500  0.165100  1.0  0.1029
  H  H26  1  0.798400  0.630100  0.139600  1.0  0.1102
  H  H27  1  0.755100  0.708200  0.243100  1.0  0.1116
  H  H28  1  0.835800  0.803600  0.348600  1.0  0.1077
  H  H29  1  0.769500  0.065800  0.999000  1.0  0.1146
  H  H30  1  0.701800  0.054700  0.827000  1.0  0.1102
  H  H31  1  0.055800  0.957400  0.833900  1.0  0.1048
  H  H32  1  0.267400  0.367100  0.115200  1.0  0.1113
  H  H33  1  0.232900  0.294600  0.227000  1.0  0.1074
  H  H34  1  0.313100  0.199500  0.334900  1.0  0.103
  H  H35  1  0.701600  0.130100  0.360400  1.0  0.1103
  H  H36  1  0.744900  0.208200  0.256900  1.0  0.1114
  H  H37  1  0.664200  0.303600  0.151400  1.0  0.1076
  H  H38  1  0.730500  0.565800  0.501000  1.0  0.1146
  H  H39  1  0.798200  0.554700  0.673000  1.0  0.1101
  H  H40  1  0.444200  0.457400  0.666100  1.0  0.1051
  C  C41  1  0.972900  0.157600  0.622600  1.0  -0.1626
  C  C42  1  0.841000  0.161300  0.645500  1.0  -0.0781
  C  C43  1  0.820400  0.204900  0.710100  1.0  -0.0825
  C  C44  1  0.923200  0.249800  0.753900  1.0  0.0452
  C  C45  1  0.900900  0.298600  0.818500  1.0  -0.0648
  C  C46  1  0.000600  0.342200  0.857400  1.0  -0.1626
  C  C47  1  0.130900  0.339500  0.833600  1.0  -0.0475
  C  C48  1  0.156200  0.293100  0.772000  1.0  -0.0991
  C  C49  1  0.053900  0.247100  0.730500  1.0  0.0407
  C  C50  1  0.075100  0.199400  0.665600  1.0  -0.0718
  C  C51  1  0.001600  0.106000  0.555900  1.0  0.7524
  C  C52  1  0.969000  0.395800  0.919900  1.0  0.7302
  C  C53  1  0.171900  0.956800  0.033400  1.0  -0.1069
  C  C54  1  0.211600  0.963000  0.135000  1.0  -0.0537
  C  C55  1  0.124600  0.995600  0.184500  1.0  -0.1574
  C  C56  1  0.001500  0.021000  0.131500  1.0  -0.0871
  C  C57  1  0.956100  0.016200  0.025200  1.0  0.0474
  C  C58  1  0.169100  0.002000  0.297000  1.0  0.668
  C  C59  1  0.527100  0.657600  0.877400  1.0  -0.162
  C  C60  1  0.659000  0.661300  0.854500  1.0  -0.0784
  C  C61  1  0.679600  0.704900  0.789900  1.0  -0.0798
  C  C62  1  0.576800  0.749800  0.746100  1.0  0.0449
  C  C63  1  0.599100  0.798600  0.681500  1.0  -0.0633
  C  C64  1  0.499400  0.842200  0.642600  1.0  -0.164
  C  C65  1  0.369100  0.839500  0.666400  1.0  -0.0479
  C  C66  1  0.343800  0.793100  0.728000  1.0  -0.0993
  C  C67  1  0.446100  0.747100  0.769500  1.0  0.0415
  C  C68  1  0.424900  0.699400  0.834400  1.0  -0.076
  C  C69  1  0.498400  0.606000  0.944100  1.0  0.7513
  C  C70  1  0.531000  0.895800  0.580100  1.0  0.7306
  C  C71  1  0.328100  0.456800  0.466600  1.0  -0.1065
  C  C72  1  0.288400  0.463000  0.365000  1.0  -0.0553
  C  C73  1  0.375400  0.495600  0.315500  1.0  -0.1582
  C  C74  1  0.498500  0.521000  0.368500  1.0  -0.0868
  C  C75  1  0.543900  0.516200  0.474800  1.0  0.0473
  C  C76  1  0.330900  0.502000  0.203000  1.0  0.6687
  C  C77  1  0.027100  0.842400  0.377400  1.0  -0.1623
  C  C78  1  0.159000  0.838700  0.354500  1.0  -0.0782
  C  C79  1  0.179600  0.795100  0.289900  1.0  -0.0799
  C  C80  1  0.076800  0.750200  0.246100  1.0  0.0446
  C  C81  1  0.099100  0.701400  0.181500  1.0  -0.0632
  C  C82  1  0.999400  0.657800  0.142600  1.0  -0.1643
  C  C83  1  0.869100  0.660500  0.166400  1.0  -0.0471
  C  C84  1  0.843800  0.706900  0.228000  1.0  -0.0992
  C  C85  1  0.946100  0.752900  0.269500  1.0  0.0413
  C  C86  1  0.924900  0.800600  0.334400  1.0  -0.0755
  C  C87  1  0.998400  0.894000  0.444100  1.0  0.7507
  C  C88  1  0.031000  0.604200  0.080100  1.0  0.7302
  C  C89  1  0.828100  0.043200  0.966600  1.0  -0.1041
  C  C90  1  0.788400  0.037000  0.865000  1.0  -0.0549
  C  C91  1  0.875400  0.004400  0.815500  1.0  -0.1586
  C  C92  1  0.998500  0.979000  0.868500  1.0  -0.0849
  C  C93  1  0.043900  0.983800  0.974800  1.0  0.0466
  C  C94  1  0.830900  0.998000  0.703000  1.0  0.6688
  C  C95  1  0.472900  0.342400  0.122600  1.0  -0.1628
  C  C96  1  0.341000  0.338700  0.145500  1.0  -0.0777
  C  C97  1  0.320400  0.295100  0.210100  1.0  -0.0823
  C  C98  1  0.423200  0.250200  0.253900  1.0  0.0448
  C  C99  1  0.400900  0.201400  0.318500  1.0  -0.0648
  C  C100  1  0.500600  0.157800  0.357400  1.0  -0.1624
  C  C101  1  0.630900  0.160500  0.333600  1.0  -0.0474
  C  C102  1  0.656200  0.206900  0.272000  1.0  -0.099
  C  C103  1  0.553900  0.252900  0.230500  1.0  0.0406
  C  C104  1  0.575100  0.300600  0.165600  1.0  -0.0716
  C  C105  1  0.501600  0.394000  0.055900  1.0  0.7521
  C  C106  1  0.469000  0.104200  0.419900  1.0  0.7306
  C  C107  1  0.671900  0.543200  0.533400  1.0  -0.1043
  C  C108  1  0.711600  0.537000  0.635000  1.0  -0.0535
  C  C109  1  0.624600  0.504400  0.684500  1.0  -0.1575
  C  C110  1  0.501500  0.479000  0.631500  1.0  -0.0847
  C  C111  1  0.456100  0.483800  0.525200  1.0  0.0466
  C  C112  1  0.669100  0.498000  0.797000  1.0  0.6682
  O  O113  1  0.123600  0.102500  0.545200  1.0  -0.7186
  O  O114  1  0.901800  0.069960  0.514700  1.0  -0.7505
  O  O115  1  0.851500  0.394970  0.939100  1.0  -0.7307
  O  O116  1  0.060700  0.438000  0.948100  1.0  -0.7992
  O  O117  1  0.089000  0.029200  0.341500  1.0  -0.6806
  O  O118  1  0.287200  0.980200  0.346500  1.0  -0.6887
  O  O119  1  0.376400  0.602500  0.954800  1.0  -0.7187
  O  O120  1  0.598200  0.569960  0.985300  1.0  -0.7483
  O  O121  1  0.648500  0.894970  0.560900  1.0  -0.7305
  O  O122  1  0.439300  0.938000  0.551900  1.0  -0.798
  O  O123  1  0.411000  0.529200  0.158500  1.0  -0.681
  O  O124  1  0.212800  0.480200  0.153500  1.0  -0.6869
  O  O125  1  0.876400  0.897500  0.454800  1.0  -0.7206
  O  O126  1  0.098200  0.930040  0.485300  1.0  -0.7499
  O  O127  1  0.148500  0.605030  0.060900  1.0  -0.7307
  O  O128  1  0.939300  0.562000  0.051900  1.0  -0.7985
  O  O129  1  0.911000  0.970800  0.658500  1.0  -0.682
  O  O130  1  0.712800  0.019800  0.653500  1.0  -0.6867
  O  O131  1  0.623600  0.397500  0.045200  1.0  -0.7211
  O  O132  1  0.401800  0.430040  0.014700  1.0  -0.7517
  O  O133  1  0.351500  0.105030  0.439100  1.0  -0.7311
  O  O134  1  0.560700  0.062000  0.448100  1.0  -0.798
  O  O135  1  0.589000  0.470800  0.841500  1.0  -0.6808
  O  O136  1  0.787200  0.519800  0.846500  1.0  -0.6891
