# generated using pymatgen
data_CoH24(C5N3)6
_symmetry_space_group_name_H-M   'P 1'
_cell_length_a   13.85100000
_cell_length_b   13.85100000
_cell_length_c   58.35800000
_cell_angle_alpha   90.00000000
_cell_angle_beta   90.00000000
_cell_angle_gamma   120.00000000
_symmetry_Int_Tables_number   1
_chemical_formula_structural   CoH24(C5N3)6
_chemical_formula_sum   'Co6 H144 C180 N108'
_cell_volume   9696.01525056
_cell_formula_units_Z   6
loop_
 _symmetry_equiv_pos_site_id
 _symmetry_equiv_pos_as_xyz
  1  'x, y, z'
loop_
 _atom_site_type_symbol
 _atom_site_label
 _atom_site_symmetry_multiplicity
 _atom_site_fract_x
 _atom_site_fract_y
 _atom_site_fract_z
 _atom_site_occupancy
 _atom_site_charge
  Co  Co1  1  0.000000  0.000000  0.000000  1.0  0.6443
  Co  Co2  1  0.666667  0.333333  0.333333  1.0  0.6472
  Co  Co3  1  0.333333  0.666667  0.666667  1.0  0.6471
  Co  Co4  1  0.000000  0.000000  0.500000  1.0  0.6443
  Co  Co5  1  0.666667  0.333333  0.833330  1.0  0.6472
  Co  Co6  1  0.333333  0.666667  0.166670  1.0  0.647
  H  H7  1  0.260000  0.211600  0.006300  1.0  0.0786
  H  H8  1  0.397800  0.224500  0.034100  1.0  0.1064
  H  H9  1  0.109500  0.950000  0.045300  1.0  0.0772
  H  H10  1  0.461500  0.190700  0.068200  1.0  0.1066
  H  H11  1  0.926670  0.544930  0.339630  1.0  0.0786
  H  H12  1  0.064470  0.557830  0.367430  1.0  0.1065
  H  H13  1  0.776170  0.283330  0.378630  1.0  0.0772
  H  H14  1  0.128170  0.524030  0.401530  1.0  0.1066
  H  H15  1  0.593330  0.878270  0.672970  1.0  0.0786
  H  H16  1  0.731130  0.891170  0.700770  1.0  0.1064
  H  H17  1  0.442830  0.616670  0.711970  1.0  0.0772
  H  H18  1  0.794830  0.857370  0.734870  1.0  0.1079
  H  H19  1  0.788400  0.048400  0.006300  1.0  0.0791
  H  H20  1  0.775500  0.173300  0.034100  1.0  0.1068
  H  H21  1  0.050000  0.159500  0.045300  1.0  0.0753
  H  H22  1  0.809300  0.270800  0.068200  1.0  0.1072
  H  H23  1  0.455070  0.381730  0.339630  1.0  0.0791
  H  H24  1  0.442170  0.506630  0.367430  1.0  0.1052
  H  H25  1  0.716670  0.492830  0.378630  1.0  0.0753
  H  H26  1  0.475970  0.604130  0.401530  1.0  0.1072
  H  H27  1  0.121730  0.715070  0.672970  1.0  0.0789
  H  H28  1  0.108830  0.839970  0.700770  1.0  0.1068
  H  H29  1  0.383330  0.826170  0.711970  1.0  0.0753
  H  H30  1  0.142630  0.937470  0.734870  1.0  0.1084
  H  H31  1  0.951600  0.740000  0.006300  1.0  0.0808
  H  H32  1  0.826700  0.602200  0.034100  1.0  0.1057
  H  H33  1  0.840500  0.890500  0.045300  1.0  0.0755
  H  H34  1  0.729200  0.538500  0.068200  1.0  0.1069
  H  H35  1  0.618270  0.073330  0.339630  1.0  0.0808
  H  H36  1  0.493370  0.935530  0.367430  1.0  0.1069
  H  H37  1  0.507170  0.223830  0.378630  1.0  0.0755
  H  H38  1  0.395870  0.871830  0.401530  1.0  0.1069
  H  H39  1  0.284930  0.406670  0.672970  1.0  0.0807
  H  H40  1  0.160030  0.268870  0.700770  1.0  0.1058
  H  H41  1  0.173830  0.557170  0.711970  1.0  0.0755
  H  H42  1  0.062530  0.205170  0.734870  1.0  0.1071
  H  H43  1  0.211600  0.260000  0.493700  1.0  0.0798
  H  H44  1  0.224500  0.397800  0.465900  1.0  0.1063
  H  H45  1  0.950000  0.109500  0.454700  1.0  0.0758
  H  H46  1  0.190700  0.461500  0.431800  1.0  0.1067
  H  H47  1  0.878270  0.593330  0.827030  1.0  0.0797
  H  H48  1  0.891170  0.731130  0.799230  1.0  0.1062
  H  H49  1  0.616670  0.442830  0.788030  1.0  0.0758
  H  H50  1  0.857370  0.794830  0.765130  1.0  0.1077
  H  H51  1  0.544930  0.926670  0.160370  1.0  0.0798
  H  H52  1  0.557830  0.064470  0.132570  1.0  0.1062
  H  H53  1  0.283330  0.776170  0.121370  1.0  0.0758
  H  H54  1  0.524030  0.128170  0.098470  1.0  0.1067
  H  H55  1  0.048400  0.788400  0.493700  1.0  0.0781
  H  H56  1  0.173300  0.775500  0.465900  1.0  0.1074
  H  H57  1  0.159500  0.050000  0.454700  1.0  0.0775
  H  H58  1  0.270800  0.809300  0.431800  1.0  0.1078
  H  H59  1  0.715070  0.121730  0.827030  1.0  0.0781
  H  H60  1  0.839970  0.108830  0.799230  1.0  0.1074
  H  H61  1  0.826170  0.383330  0.788030  1.0  0.0775
  H  H62  1  0.937470  0.142630  0.765130  1.0  0.1077
  H  H63  1  0.381730  0.455070  0.160370  1.0  0.0781
  H  H64  1  0.506630  0.442170  0.132570  1.0  0.106
  H  H65  1  0.492830  0.716670  0.121370  1.0  0.0775
  H  H66  1  0.604130  0.475970  0.098470  1.0  0.1078
  H  H67  1  0.740000  0.951600  0.493700  1.0  0.0792
  H  H68  1  0.602200  0.826700  0.465900  1.0  0.1034
  H  H69  1  0.890500  0.840500  0.454700  1.0  0.0751
  H  H70  1  0.538500  0.729200  0.431800  1.0  0.107
  H  H71  1  0.406670  0.284930  0.827030  1.0  0.0789
  H  H72  1  0.268870  0.160030  0.799230  1.0  0.1035
  H  H73  1  0.557170  0.173830  0.788030  1.0  0.0751
  H  H74  1  0.205170  0.062530  0.765130  1.0  0.1074
  H  H75  1  0.073330  0.618270  0.160370  1.0  0.0792
  H  H76  1  0.935530  0.493370  0.132570  1.0  0.1047
  H  H77  1  0.223830  0.507170  0.121370  1.0  0.0751
  H  H78  1  0.871830  0.395870  0.098470  1.0  0.107
  H  H79  1  0.740000  0.788400  0.993700  1.0  0.0799
  H  H80  1  0.602200  0.775500  0.965900  1.0  0.1058
  H  H81  1  0.890500  0.050000  0.954700  1.0  0.0774
  H  H82  1  0.538500  0.809300  0.931800  1.0  0.1063
  H  H83  1  0.406670  0.121730  0.327030  1.0  0.0797
  H  H84  1  0.268870  0.108830  0.299230  1.0  0.1057
  H  H85  1  0.557170  0.383330  0.288030  1.0  0.0774
  H  H86  1  0.205170  0.142630  0.265130  1.0  0.1076
  H  H87  1  0.073330  0.455070  0.660370  1.0  0.0799
  H  H88  1  0.935530  0.442170  0.632570  1.0  0.1062
  H  H89  1  0.223830  0.716670  0.621370  1.0  0.0774
  H  H90  1  0.871830  0.475970  0.598470  1.0  0.1063
  H  H91  1  0.211600  0.951600  0.993700  1.0  0.0788
  H  H92  1  0.224500  0.826700  0.965900  1.0  0.106
  H  H93  1  0.950000  0.840500  0.954700  1.0  0.0755
  H  H94  1  0.190700  0.729200  0.931800  1.0  0.1072
  H  H95  1  0.878270  0.284930  0.327030  1.0  0.0787
  H  H96  1  0.891170  0.160030  0.299230  1.0  0.106
  H  H97  1  0.616670  0.173830  0.288030  1.0  0.0755
  H  H98  1  0.857370  0.062530  0.265130  1.0  0.1077
  H  H99  1  0.544930  0.618270  0.660370  1.0  0.0788
  H  H100  1  0.557830  0.493370  0.632570  1.0  0.1047
  H  H101  1  0.283330  0.507170  0.621370  1.0  0.0755
  H  H102  1  0.524030  0.395870  0.598470  1.0  0.1072
  H  H103  1  0.048400  0.260000  0.993700  1.0  0.08
  H  H104  1  0.173300  0.397800  0.965900  1.0  0.1055
  H  H105  1  0.159500  0.109500  0.954700  1.0  0.0765
  H  H106  1  0.270800  0.461500  0.931800  1.0  0.1067
  H  H107  1  0.715070  0.593330  0.327030  1.0  0.0797
  H  H108  1  0.839970  0.731130  0.299230  1.0  0.1055
  H  H109  1  0.826170  0.442830  0.288030  1.0  0.0765
  H  H110  1  0.937470  0.794830  0.265130  1.0  0.1071
  H  H111  1  0.381730  0.926670  0.660370  1.0  0.08
  H  H112  1  0.506630  0.064470  0.632570  1.0  0.1063
  H  H113  1  0.492830  0.776170  0.621370  1.0  0.0765
  H  H114  1  0.604130  0.128170  0.598470  1.0  0.1067
  H  H115  1  0.788400  0.740000  0.506300  1.0  0.0808
  H  H116  1  0.775500  0.602200  0.534100  1.0  0.1066
  H  H117  1  0.050000  0.890500  0.545300  1.0  0.0755
  H  H118  1  0.809300  0.538500  0.568200  1.0  0.1055
  H  H119  1  0.455070  0.073330  0.839630  1.0  0.0808
  H  H120  1  0.442170  0.935530  0.867430  1.0  0.1072
  H  H121  1  0.716670  0.223830  0.878630  1.0  0.0755
  H  H122  1  0.475970  0.871830  0.901530  1.0  0.1055
  H  H123  1  0.121730  0.406670  0.172970  1.0  0.0805
  H  H124  1  0.108830  0.268870  0.200770  1.0  0.1066
  H  H125  1  0.383330  0.557170  0.211970  1.0  0.0755
  H  H126  1  0.142630  0.205170  0.234870  1.0  0.1063
  H  H127  1  0.951600  0.211600  0.506300  1.0  0.0798
  H  H128  1  0.826700  0.224500  0.534100  1.0  0.1076
  H  H129  1  0.840500  0.950000  0.545300  1.0  0.0775
  H  H130  1  0.729200  0.190700  0.568200  1.0  0.1076
  H  H131  1  0.618270  0.544930  0.839630  1.0  0.0798
  H  H132  1  0.493370  0.557830  0.867430  1.0  0.1067
  H  H133  1  0.507170  0.283330  0.878630  1.0  0.0775
  H  H134  1  0.395870  0.524030  0.901530  1.0  0.1076
  H  H135  1  0.284930  0.878270  0.172970  1.0  0.0795
  H  H136  1  0.160030  0.891170  0.200770  1.0  0.1076
  H  H137  1  0.173830  0.616670  0.211970  1.0  0.0775
  H  H138  1  0.062530  0.857370  0.234870  1.0  0.108
  H  H139  1  0.260000  0.048400  0.506300  1.0  0.0789
  H  H140  1  0.397800  0.173300  0.534100  1.0  0.1042
  H  H141  1  0.109500  0.159500  0.545300  1.0  0.0755
  H  H142  1  0.461500  0.270800  0.568200  1.0  0.1069
  H  H143  1  0.926670  0.381730  0.839630  1.0  0.0789
  H  H144  1  0.064470  0.506630  0.867430  1.0  0.1053
  H  H145  1  0.776170  0.492830  0.878630  1.0  0.0755
  H  H146  1  0.128170  0.604130  0.901530  1.0  0.1069
  H  H147  1  0.593330  0.715070  0.172970  1.0  0.0789
  H  H148  1  0.731130  0.839970  0.200770  1.0  0.1043
  H  H149  1  0.442830  0.826170  0.211970  1.0  0.0755
  H  H150  1  0.794830  0.937470  0.234870  1.0  0.1071
  C  C151  1  0.246600  0.159800  0.017750  1.0  -0.0105
  C  C152  1  0.323600  0.168400  0.033120  1.0  -0.1538
  C  C153  1  0.163700  0.017200  0.038980  1.0  0.1179
  C  C154  1  0.314300  0.048700  0.065860  1.0  0.3573
  C  C155  1  0.417400  0.120000  0.074420  1.0  -0.1958
  C  C156  1  0.913270  0.493130  0.351080  1.0  -0.0105
  C  C157  1  0.990270  0.501730  0.366450  1.0  -0.1538
  C  C158  1  0.830370  0.350530  0.372310  1.0  0.1179
  C  C159  1  0.980970  0.382030  0.399190  1.0  0.3573
  C  C160  1  0.084070  0.453330  0.407750  1.0  -0.1958
  C  C161  1  0.579930  0.826470  0.684420  1.0  -0.0105
  C  C162  1  0.656930  0.835070  0.699790  1.0  -0.1538
  C  C163  1  0.497030  0.683870  0.705650  1.0  0.1179
  C  C164  1  0.647630  0.715370  0.732530  1.0  0.3569
  C  C165  1  0.750730  0.786670  0.741090  1.0  -0.1956
  C  C166  1  0.840200  0.086800  0.017750  1.0  -0.0131
  C  C167  1  0.831600  0.155200  0.033120  1.0  -0.1494
  C  C168  1  0.982800  0.146500  0.038980  1.0  0.1197
  C  C169  1  0.951300  0.265600  0.065860  1.0  0.3563
  C  C170  1  0.880000  0.297400  0.074420  1.0  -0.1944
  C  C171  1  0.506870  0.420130  0.351080  1.0  -0.0131
  C  C172  1  0.498270  0.488530  0.366450  1.0  -0.1498
  C  C173  1  0.649470  0.479830  0.372310  1.0  0.1197
  C  C174  1  0.617970  0.598930  0.399190  1.0  0.3563
  C  C175  1  0.546670  0.630730  0.407750  1.0  -0.1944
  C  C176  1  0.173530  0.753470  0.684420  1.0  -0.0131
  C  C177  1  0.164930  0.821870  0.699790  1.0  -0.1498
  C  C178  1  0.316130  0.813170  0.705650  1.0  0.1197
  C  C179  1  0.284630  0.932270  0.732530  1.0  0.356
  C  C180  1  0.213330  0.964070  0.741090  1.0  -0.1946
  C  C181  1  0.913200  0.753400  0.017750  1.0  -0.0112
  C  C182  1  0.844800  0.676400  0.033120  1.0  -0.1525
  C  C183  1  0.853500  0.836300  0.038980  1.0  0.117
  C  C184  1  0.734400  0.685700  0.065860  1.0  0.3559
  C  C185  1  0.702600  0.582600  0.074420  1.0  -0.1942
  C  C186  1  0.579870  0.086730  0.351080  1.0  -0.0112
  C  C187  1  0.511470  0.009730  0.366450  1.0  -0.1525
  C  C188  1  0.520170  0.169630  0.372310  1.0  0.117
  C  C189  1  0.401070  0.019030  0.399190  1.0  0.3559
  C  C190  1  0.369270  0.915930  0.407750  1.0  -0.1942
  C  C191  1  0.246530  0.420070  0.684420  1.0  -0.0112
  C  C192  1  0.178130  0.343070  0.699790  1.0  -0.1525
  C  C193  1  0.186830  0.502970  0.705650  1.0  0.117
  C  C194  1  0.067730  0.352370  0.732530  1.0  0.3555
  C  C195  1  0.035930  0.249270  0.741090  1.0  -0.1944
  C  C196  1  0.159800  0.246600  0.482250  1.0  -0.0113
  C  C197  1  0.168400  0.323600  0.466880  1.0  -0.1545
  C  C198  1  0.017200  0.163700  0.461020  1.0  0.1172
  C  C199  1  0.048700  0.314300  0.434140  1.0  0.3552
  C  C200  1  0.120000  0.417400  0.425580  1.0  -0.1949
  C  C201  1  0.826470  0.579930  0.815580  1.0  -0.0113
  C  C202  1  0.835070  0.656930  0.800210  1.0  -0.1545
  C  C203  1  0.683870  0.497030  0.794350  1.0  0.1172
  C  C204  1  0.715370  0.647630  0.767470  1.0  0.3549
  C  C205  1  0.786670  0.750730  0.758910  1.0  -0.1946
  C  C206  1  0.493130  0.913270  0.148920  1.0  -0.0113
  C  C207  1  0.501730  0.990270  0.133550  1.0  -0.1545
  C  C208  1  0.350530  0.830370  0.127690  1.0  0.1172
  C  C209  1  0.382030  0.980970  0.100810  1.0  0.3552
  C  C210  1  0.453330  0.084070  0.092250  1.0  -0.1949
  C  C211  1  0.086800  0.840200  0.482250  1.0  -0.0107
  C  C212  1  0.155200  0.831600  0.466880  1.0  -0.1533
  C  C213  1  0.146500  0.982800  0.461020  1.0  0.118
  C  C214  1  0.265600  0.951300  0.434140  1.0  0.3555
  C  C215  1  0.297400  0.880000  0.425580  1.0  -0.1958
  C  C216  1  0.753470  0.173530  0.815580  1.0  -0.0107
  C  C217  1  0.821870  0.164930  0.800210  1.0  -0.1536
  C  C218  1  0.813170  0.316130  0.794350  1.0  0.118
  C  C219  1  0.932270  0.284630  0.767470  1.0  0.3552
  C  C220  1  0.964070  0.213330  0.758910  1.0  -0.1959
  C  C221  1  0.420130  0.506870  0.148920  1.0  -0.0107
  C  C222  1  0.488530  0.498270  0.133550  1.0  -0.1536
  C  C223  1  0.479830  0.649470  0.127690  1.0  0.118
  C  C224  1  0.598930  0.617970  0.100810  1.0  0.3555
  C  C225  1  0.630730  0.546670  0.092250  1.0  -0.1958
  C  C226  1  0.753400  0.913200  0.482250  1.0  -0.0132
  C  C227  1  0.676400  0.844800  0.466880  1.0  -0.1493
  C  C228  1  0.836300  0.853500  0.461020  1.0  0.1202
  C  C229  1  0.685700  0.734400  0.434140  1.0  0.3554
  C  C230  1  0.582600  0.702600  0.425580  1.0  -0.1945
  C  C231  1  0.420070  0.246530  0.815580  1.0  -0.0132
  C  C232  1  0.343070  0.178130  0.800210  1.0  -0.1493
  C  C233  1  0.502970  0.186830  0.794350  1.0  0.1203
  C  C234  1  0.352370  0.067730  0.767470  1.0  0.355
  C  C235  1  0.249270  0.035930  0.758910  1.0  -0.1946
  C  C236  1  0.086730  0.579870  0.148920  1.0  -0.0132
  C  C237  1  0.009730  0.511470  0.133550  1.0  -0.1493
  C  C238  1  0.169630  0.520170  0.127690  1.0  0.1202
  C  C239  1  0.019030  0.401070  0.100810  1.0  0.3554
  C  C240  1  0.915930  0.369270  0.092250  1.0  -0.1945
  C  C241  1  0.753400  0.840200  0.982250  1.0  -0.0118
  C  C242  1  0.676400  0.831600  0.966880  1.0  -0.1537
  C  C243  1  0.836300  0.982800  0.961020  1.0  0.1193
  C  C244  1  0.685700  0.951300  0.934140  1.0  0.3571
  C  C245  1  0.582600  0.880000  0.925580  1.0  -0.196
  C  C246  1  0.420070  0.173530  0.315580  1.0  -0.0118
  C  C247  1  0.343070  0.164930  0.300210  1.0  -0.1537
  C  C248  1  0.502970  0.316130  0.294350  1.0  0.1193
  C  C249  1  0.352370  0.284630  0.267470  1.0  0.3568
  C  C250  1  0.249270  0.213330  0.258910  1.0  -0.1957
  C  C251  1  0.086730  0.506870  0.648920  1.0  -0.0118
  C  C252  1  0.009730  0.498270  0.633550  1.0  -0.1537
  C  C253  1  0.169630  0.649470  0.627690  1.0  0.1193
  C  C254  1  0.019030  0.617970  0.600810  1.0  0.3571
  C  C255  1  0.915930  0.546670  0.592250  1.0  -0.196
  C  C256  1  0.159800  0.913200  0.982250  1.0  -0.011
  C  C257  1  0.168400  0.844800  0.966880  1.0  -0.15
  C  C258  1  0.017200  0.853500  0.961020  1.0  0.1179
  C  C259  1  0.048700  0.734400  0.934140  1.0  0.3563
  C  C260  1  0.120000  0.702600  0.925580  1.0  -0.1934
  C  C261  1  0.826470  0.246530  0.315580  1.0  -0.011
  C  C262  1  0.835070  0.178130  0.300210  1.0  -0.1504
  C  C263  1  0.683870  0.186830  0.294350  1.0  0.1179
  C  C264  1  0.715370  0.067730  0.267470  1.0  0.3559
  C  C265  1  0.786670  0.035930  0.258910  1.0  -0.1936
  C  C266  1  0.493130  0.579870  0.648920  1.0  -0.011
  C  C267  1  0.501730  0.511470  0.633550  1.0  -0.1504
  C  C268  1  0.350530  0.520170  0.627690  1.0  0.1179
  C  C269  1  0.382030  0.401070  0.600810  1.0  0.3563
  C  C270  1  0.453330  0.369270  0.592250  1.0  -0.1934
  C  C271  1  0.086800  0.246600  0.982250  1.0  -0.0135
  C  C272  1  0.155200  0.323600  0.966880  1.0  -0.153
  C  C273  1  0.146500  0.163700  0.961020  1.0  0.1182
  C  C274  1  0.265600  0.314300  0.934140  1.0  0.3569
  C  C275  1  0.297400  0.417400  0.925580  1.0  -0.1953
  C  C276  1  0.753470  0.579930  0.315580  1.0  -0.0135
  C  C277  1  0.821870  0.656930  0.300210  1.0  -0.153
  C  C278  1  0.813170  0.497030  0.294350  1.0  0.1182
  C  C279  1  0.932270  0.647630  0.267470  1.0  0.3565
  C  C280  1  0.964070  0.750730  0.258910  1.0  -0.1955
  C  C281  1  0.420130  0.913270  0.648920  1.0  -0.0135
  C  C282  1  0.488530  0.990270  0.633550  1.0  -0.153
  C  C283  1  0.479830  0.830370  0.627690  1.0  0.1182
  C  C284  1  0.598930  0.980970  0.600810  1.0  0.3569
  C  C285  1  0.630730  0.084070  0.592250  1.0  -0.1953
  C  C286  1  0.840200  0.753400  0.517750  1.0  -0.0121
  C  C287  1  0.831600  0.676400  0.533120  1.0  -0.1509
  C  C288  1  0.982800  0.836300  0.538980  1.0  0.1181
  C  C289  1  0.951300  0.685700  0.565860  1.0  0.355
  C  C290  1  0.880000  0.582600  0.574420  1.0  -0.1938
  C  C291  1  0.506870  0.086730  0.851080  1.0  -0.0121
  C  C292  1  0.498270  0.009730  0.866450  1.0  -0.1509
  C  C293  1  0.649470  0.169630  0.872310  1.0  0.1181
  C  C294  1  0.617970  0.019030  0.899190  1.0  0.355
  C  C295  1  0.546670  0.915930  0.907750  1.0  -0.1938
  C  C296  1  0.173530  0.420070  0.184420  1.0  -0.0121
  C  C297  1  0.164930  0.343070  0.199790  1.0  -0.1508
  C  C298  1  0.316130  0.502970  0.205650  1.0  0.1181
  C  C299  1  0.284630  0.352370  0.232530  1.0  0.3547
  C  C300  1  0.213330  0.249270  0.241090  1.0  -0.1936
  C  C301  1  0.913200  0.159800  0.517750  1.0  -0.0104
  C  C302  1  0.844800  0.168400  0.533120  1.0  -0.1537
  C  C303  1  0.853500  0.017200  0.538980  1.0  0.119
  C  C304  1  0.734400  0.048700  0.565860  1.0  0.3564
  C  C305  1  0.702600  0.120000  0.574420  1.0  -0.1951
  C  C306  1  0.579870  0.493130  0.851080  1.0  -0.0104
  C  C307  1  0.511470  0.501730  0.866450  1.0  -0.1541
  C  C308  1  0.520170  0.350530  0.872310  1.0  0.119
  C  C309  1  0.401070  0.382030  0.899190  1.0  0.3564
  C  C310  1  0.369270  0.453330  0.907750  1.0  -0.1951
  C  C311  1  0.246530  0.826470  0.184420  1.0  -0.0104
  C  C312  1  0.178130  0.835070  0.199790  1.0  -0.1541
  C  C313  1  0.186830  0.683870  0.205650  1.0  0.119
  C  C314  1  0.067730  0.715370  0.232530  1.0  0.3561
  C  C315  1  0.035930  0.786670  0.241090  1.0  -0.1953
  C  C316  1  0.246600  0.086800  0.517750  1.0  -0.0122
  C  C317  1  0.323600  0.155200  0.533120  1.0  -0.1505
  C  C318  1  0.163700  0.146500  0.538980  1.0  0.1173
  C  C319  1  0.314300  0.265600  0.565860  1.0  0.3543
  C  C320  1  0.417400  0.297400  0.574420  1.0  -0.1932
  C  C321  1  0.913270  0.420130  0.851080  1.0  -0.0122
  C  C322  1  0.990270  0.488530  0.866450  1.0  -0.1505
  C  C323  1  0.830370  0.479830  0.872310  1.0  0.1173
  C  C324  1  0.980970  0.598930  0.899190  1.0  0.3543
  C  C325  1  0.084070  0.630730  0.907750  1.0  -0.1932
  C  C326  1  0.579930  0.753470  0.184420  1.0  -0.0122
  C  C327  1  0.656930  0.821870  0.199790  1.0  -0.1505
  C  C328  1  0.497030  0.813170  0.205650  1.0  0.1173
  C  C329  1  0.647630  0.932270  0.232530  1.0  0.354
  C  C330  1  0.750730  0.964070  0.241090  1.0  -0.1933
  N  N331  1  0.147300  0.065500  0.021250  1.0  -0.3664
  N  N332  1  0.269000  0.076800  0.046980  1.0  0.0428
  N  N333  1  0.249300  0.950600  0.073990  1.0  -0.2681
  N  N334  1  0.813970  0.398830  0.354580  1.0  -0.3664
  N  N335  1  0.935670  0.410130  0.380310  1.0  0.0428
  N  N336  1  0.915970  0.283930  0.407320  1.0  -0.2681
  N  N337  1  0.480630  0.732170  0.687920  1.0  -0.3667
  N  N338  1  0.602330  0.743470  0.713650  1.0  0.0429
  N  N339  1  0.582630  0.617270  0.740660  1.0  -0.2641
  N  N340  1  0.934500  0.081800  0.021250  1.0  -0.3667
  N  N341  1  0.923200  0.192200  0.046980  1.0  0.0424
  N  N342  1  0.049400  0.298700  0.073990  1.0  -0.2716
  N  N343  1  0.601170  0.415130  0.354580  1.0  -0.3667
  N  N344  1  0.589870  0.525530  0.380310  1.0  0.0424
  N  N345  1  0.716070  0.632030  0.407320  1.0  -0.2716
  N  N346  1  0.267830  0.748470  0.687920  1.0  -0.3669
  N  N347  1  0.256530  0.858870  0.713650  1.0  0.0425
  N  N348  1  0.382730  0.965370  0.740660  1.0  -0.2711
  N  N349  1  0.918200  0.852700  0.021250  1.0  -0.3662
  N  N350  1  0.807800  0.731000  0.046980  1.0  0.0429
  N  N351  1  0.701300  0.750700  0.073990  1.0  -0.2689
  N  N352  1  0.584870  0.186030  0.354580  1.0  -0.3662
  N  N353  1  0.474470  0.064330  0.380310  1.0  0.0429
  N  N354  1  0.367970  0.084030  0.407320  1.0  -0.2689
  N  N355  1  0.251530  0.519370  0.687920  1.0  -0.3664
  N  N356  1  0.141130  0.397670  0.713650  1.0  0.043
  N  N357  1  0.034630  0.417370  0.740660  1.0  -0.2633
  N  N358  1  0.065500  0.147300  0.478750  1.0  -0.3668
  N  N359  1  0.076800  0.269000  0.453020  1.0  0.0424
  N  N360  1  0.950600  0.249300  0.426010  1.0  -0.2688
  N  N361  1  0.732170  0.480630  0.812080  1.0  -0.3668
  N  N362  1  0.743470  0.602330  0.786350  1.0  0.0425
  N  N363  1  0.617270  0.582630  0.759340  1.0  -0.2646
  N  N364  1  0.398830  0.813970  0.145420  1.0  -0.367
  N  N365  1  0.410130  0.935670  0.119690  1.0  0.0424
  N  N366  1  0.283930  0.915970  0.092680  1.0  -0.2688
  N  N367  1  0.081800  0.934500  0.478750  1.0  -0.3672
  N  N368  1  0.192200  0.923200  0.453020  1.0  0.043
  N  N369  1  0.298700  0.049400  0.426010  1.0  -0.2695
  N  N370  1  0.748470  0.267830  0.812080  1.0  -0.3672
  N  N371  1  0.858870  0.256530  0.786350  1.0  0.0431
  N  N372  1  0.965370  0.382730  0.759340  1.0  -0.2684
  N  N373  1  0.415130  0.601170  0.145420  1.0  -0.3674
  N  N374  1  0.525530  0.589870  0.119690  1.0  0.043
  N  N375  1  0.632030  0.716070  0.092680  1.0  -0.2695
  N  N376  1  0.852700  0.918200  0.478750  1.0  -0.3668
  N  N377  1  0.731000  0.807800  0.453020  1.0  0.0422
  N  N378  1  0.750700  0.701300  0.426010  1.0  -0.2701
  N  N379  1  0.519370  0.251530  0.812080  1.0  -0.367
  N  N380  1  0.397670  0.141130  0.786350  1.0  0.0424
  N  N381  1  0.417370  0.034630  0.759340  1.0  -0.2647
  N  N382  1  0.186030  0.584870  0.145420  1.0  -0.3668
  N  N383  1  0.064330  0.474470  0.119690  1.0  0.0422
  N  N384  1  0.084030  0.367970  0.092680  1.0  -0.2701
  N  N385  1  0.852700  0.934500  0.978750  1.0  -0.3673
  N  N386  1  0.731000  0.923200  0.953020  1.0  0.0442
  N  N387  1  0.750700  0.049400  0.926010  1.0  -0.2701
  N  N388  1  0.519370  0.267830  0.312080  1.0  -0.3675
  N  N389  1  0.397670  0.256530  0.286350  1.0  0.0443
  N  N390  1  0.417370  0.382730  0.259340  1.0  -0.2656
  N  N391  1  0.186030  0.601170  0.645420  1.0  -0.3673
  N  N392  1  0.064330  0.589870  0.619690  1.0  0.0442
  N  N393  1  0.084030  0.716070  0.592680  1.0  -0.2701
  N  N394  1  0.065500  0.918200  0.978750  1.0  -0.367
  N  N395  1  0.076800  0.807800  0.953020  1.0  0.0425
  N  N396  1  0.950600  0.701300  0.926010  1.0  -0.2695
  N  N397  1  0.732170  0.251530  0.312080  1.0  -0.3672
  N  N398  1  0.743470  0.141130  0.286350  1.0  0.0426
  N  N399  1  0.617270  0.034630  0.259340  1.0  -0.2687
  N  N400  1  0.398830  0.584870  0.645420  1.0  -0.367
  N  N401  1  0.410130  0.474470  0.619690  1.0  0.0425
  N  N402  1  0.283930  0.367970  0.592680  1.0  -0.2695
  N  N403  1  0.081800  0.147300  0.978750  1.0  -0.3668
  N  N404  1  0.192200  0.269000  0.953020  1.0  0.043
  N  N405  1  0.298700  0.249300  0.926010  1.0  -0.2672
  N  N406  1  0.748470  0.480630  0.312080  1.0  -0.3671
  N  N407  1  0.858870  0.602330  0.286350  1.0  0.0431
  N  N408  1  0.965370  0.582630  0.259340  1.0  -0.2621
  N  N409  1  0.415130  0.813970  0.645420  1.0  -0.3668
  N  N410  1  0.525530  0.935670  0.619690  1.0  0.043
  N  N411  1  0.632030  0.915970  0.592680  1.0  -0.2672
  N  N412  1  0.934500  0.852700  0.521250  1.0  -0.3662
  N  N413  1  0.923200  0.731000  0.546980  1.0  0.0435
  N  N414  1  0.049400  0.750700  0.573990  1.0  -0.272
  N  N415  1  0.601170  0.186030  0.854580  1.0  -0.3664
  N  N416  1  0.589870  0.064330  0.880310  1.0  0.0435
  N  N417  1  0.716070  0.084030  0.907320  1.0  -0.272
  N  N418  1  0.267830  0.519370  0.187920  1.0  -0.3662
  N  N419  1  0.256530  0.397670  0.213650  1.0  0.0436
  N  N420  1  0.382730  0.417370  0.240660  1.0  -0.2679
  N  N421  1  0.918200  0.065500  0.521250  1.0  -0.367
  N  N422  1  0.807800  0.076800  0.546980  1.0  0.044
  N  N423  1  0.701300  0.950600  0.573990  1.0  -0.2666
  N  N424  1  0.584870  0.398830  0.854580  1.0  -0.3672
  N  N425  1  0.474470  0.410130  0.880310  1.0  0.044
  N  N426  1  0.367970  0.283930  0.907320  1.0  -0.2666
  N  N427  1  0.251530  0.732170  0.187920  1.0  -0.367
  N  N428  1  0.141130  0.743470  0.213650  1.0  0.0441
  N  N429  1  0.034630  0.617270  0.240660  1.0  -0.2655
  N  N430  1  0.147300  0.081800  0.521250  1.0  -0.3669
  N  N431  1  0.269000  0.192200  0.546980  1.0  0.0415
  N  N432  1  0.249300  0.298700  0.573990  1.0  -0.2681
  N  N433  1  0.813970  0.415130  0.854580  1.0  -0.3669
  N  N434  1  0.935670  0.525530  0.880310  1.0  0.0415
  N  N435  1  0.915970  0.632030  0.907320  1.0  -0.2681
  N  N436  1  0.480630  0.748470  0.187920  1.0  -0.3671
  N  N437  1  0.602330  0.858870  0.213650  1.0  0.0416
  N  N438  1  0.582630  0.965370  0.240660  1.0  -0.2627
