# generated using pymatgen
data_Ni4P2C3O8
_symmetry_space_group_name_H-M   'P 1'
_cell_length_a   17.93700000
_cell_length_b   6.42990000
_cell_length_c   4.49360000
_cell_angle_alpha   90.00000000
_cell_angle_beta   90.00000000
_cell_angle_gamma   90.00000000
_symmetry_Int_Tables_number   1
_chemical_formula_structural   Ni4P2C3O8
_chemical_formula_sum   'Ni8 P4 C6 O16'
_cell_volume   518.26089141
_cell_formula_units_Z   2
loop_
 _symmetry_equiv_pos_site_id
 _symmetry_equiv_pos_as_xyz
  1  'x, y, z'
loop_
 _atom_site_type_symbol
 _atom_site_label
 _atom_site_symmetry_multiplicity
 _atom_site_fract_x
 _atom_site_fract_y
 _atom_site_fract_z
 _atom_site_occupancy
 _atom_site_charge
  Ni  Ni1  1  0.500000  0.000000  0.000000  1.0  0.9701
  Ni  Ni2  1  0.000000  0.500000  0.000000  1.0  0.9701
  Ni  Ni3  1  0.500000  0.500000  0.000000  1.0  0.9701
  Ni  Ni4  1  0.000000  0.000000  0.000000  1.0  0.9701
  Ni  Ni5  1  0.591700  0.750000  0.369000  1.0  0.8277
  Ni  Ni6  1  0.908300  0.750000  0.369000  1.0  0.8271
  Ni  Ni7  1  0.408300  0.250000  0.631000  1.0  0.8272
  Ni  Ni8  1  0.091700  0.250000  0.631000  1.0  0.8279
  P  P9  1  0.410600  0.750000  0.513000  1.0  1.4702
  P  P10  1  0.089400  0.750000  0.513000  1.0  1.4707
  P  P11  1  0.589400  0.250000  0.487000  1.0  1.4707
  P  P12  1  0.910600  0.250000  0.487000  1.0  1.4704
  C  C13  1  0.322700  0.750000  0.342000  1.0  -0.0503
  C  C14  1  0.177300  0.750000  0.342000  1.0  -0.0501
  C  C15  1  0.677300  0.250000  0.658000  1.0  -0.0531
  C  C16  1  0.822700  0.250000  0.658000  1.0  -0.0533
  C  C17  1  0.250000  0.750000  0.537000  1.0  0.0003
  C  C18  1  0.750000  0.250000  0.463000  1.0  0.0023
  O  O19  1  0.417600  0.954300  0.704000  1.0  -0.8568
  O  O20  1  0.082400  0.545700  0.704000  1.0  -0.8559
  O  O21  1  0.582400  0.454300  0.296000  1.0  -0.855
  O  O22  1  0.917600  0.045700  0.296000  1.0  -0.8563
  O  O23  1  0.582400  0.045700  0.296000  1.0  -0.855
  O  O24  1  0.917600  0.454300  0.296000  1.0  -0.8566
  O  O25  1  0.417600  0.545700  0.704000  1.0  -0.8564
  O  O26  1  0.082400  0.954300  0.704000  1.0  -0.856
  O  O27  1  0.568700  0.750000  0.823000  1.0  -0.7196
  O  O28  1  0.472900  0.750000  0.262000  1.0  -0.7847
  O  O29  1  0.931300  0.750000  0.823000  1.0  -0.7218
  O  O30  1  0.027100  0.750000  0.262000  1.0  -0.7843
  O  O31  1  0.431300  0.250000  0.177000  1.0  -0.7215
  O  O32  1  0.527100  0.250000  0.738000  1.0  -0.7842
  O  O33  1  0.068700  0.250000  0.177000  1.0  -0.7197
  O  O34  1  0.972900  0.250000  0.738000  1.0  -0.7845
