# generated using pymatgen
data_Cd3H8C4(Cl3O)2
_symmetry_space_group_name_H-M   'P 1'
_cell_length_a   10.27400000
_cell_length_b   10.27400000
_cell_length_c   11.59430000
_cell_angle_alpha   80.55460000
_cell_angle_beta   80.55460000
_cell_angle_gamma   85.03810000
_symmetry_Int_Tables_number   1
_chemical_formula_structural   Cd3H8C4(Cl3O)2
_chemical_formula_sum   'Cd6 H16 C8 Cl12 O4'
_cell_volume   1188.64462978
_cell_formula_units_Z   2
loop_
 _symmetry_equiv_pos_site_id
 _symmetry_equiv_pos_as_xyz
  1  'x, y, z'
loop_
 _atom_site_type_symbol
 _atom_site_label
 _atom_site_symmetry_multiplicity
 _atom_site_fract_x
 _atom_site_fract_y
 _atom_site_fract_z
 _atom_site_occupancy
 _atom_site_charge
  Cd  Cd1  1  0.859370  0.479680  0.421320  1.0  0.8797
  Cd  Cd2  1  0.520320  0.140630  0.078680  1.0  0.8794
  Cd  Cd3  1  0.140630  0.520320  0.578680  1.0  0.8783
  Cd  Cd4  1  0.479680  0.859370  0.921320  1.0  0.8802
  Cd  Cd5  1  0.774110  0.225890  0.250000  1.0  0.8882
  Cd  Cd6  1  0.225890  0.774110  0.750000  1.0  0.8887
  H  H7  1  0.585500  0.652100  0.344900  1.0  0.0896
  H  H8  1  0.501700  0.683500  0.464200  1.0  0.0789
  H  H9  1  0.471000  0.466000  0.354300  1.0  0.0556
  H  H10  1  0.369900  0.589100  0.361300  1.0  0.0856
  H  H11  1  0.347900  0.414500  0.155100  1.0  0.0921
  H  H12  1  0.316500  0.498300  0.035800  1.0  0.0791
  H  H13  1  0.534000  0.529000  0.145700  1.0  0.0564
  H  H14  1  0.410900  0.630100  0.138700  1.0  0.0839
  H  H15  1  0.414500  0.347900  0.655100  1.0  0.0914
  H  H16  1  0.498300  0.316500  0.535800  1.0  0.077
  H  H17  1  0.529000  0.534000  0.645700  1.0  0.056
  H  H18  1  0.630100  0.410900  0.638700  1.0  0.0842
  H  H19  1  0.652100  0.585500  0.844900  1.0  0.0904
  H  H20  1  0.683500  0.501700  0.964200  1.0  0.0755
  H  H21  1  0.466000  0.471000  0.854300  1.0  0.0564
  H  H22  1  0.589100  0.369900  0.861300  1.0  0.0841
  C  C23  1  0.540100  0.612700  0.421000  1.0  0.0567
  C  C24  1  0.433300  0.532500  0.402800  1.0  0.0602
  C  C25  1  0.387300  0.459900  0.079000  1.0  0.0607
  C  C26  1  0.467500  0.566700  0.097200  1.0  0.0573
  C  C27  1  0.459900  0.387300  0.579000  1.0  0.0566
  C  C28  1  0.566700  0.467500  0.597200  1.0  0.0589
  C  C29  1  0.612700  0.540100  0.921000  1.0  0.0608
  C  C30  1  0.532500  0.433300  0.902800  1.0  0.0592
  Cl  Cl31  1  0.803160  0.477060  0.209720  1.0  -0.4727
  Cl  Cl32  1  0.767860  0.185700  0.033460  1.0  -0.4661
  Cl  Cl33  1  0.889450  0.510410  0.635720  1.0  -0.4749
  Cl  Cl34  1  0.522940  0.196840  0.290280  1.0  -0.4717
  Cl  Cl35  1  0.814300  0.232140  0.466540  1.0  -0.4662
  Cl  Cl36  1  0.489590  0.110550  0.864280  1.0  -0.4734
  Cl  Cl37  1  0.196840  0.522940  0.790280  1.0  -0.4717
  Cl  Cl38  1  0.232140  0.814300  0.966540  1.0  -0.4679
  Cl  Cl39  1  0.110550  0.489590  0.364280  1.0  -0.4745
  Cl  Cl40  1  0.477060  0.803160  0.709720  1.0  -0.472
  Cl  Cl41  1  0.185700  0.767860  0.533460  1.0  -0.4673
  Cl  Cl42  1  0.510410  0.889450  0.135720  1.0  -0.4745
  O  O43  1  0.633130  0.531290  0.485900  1.0  -0.3347
  O  O44  1  0.468710  0.366870  0.014100  1.0  -0.3382
  O  O45  1  0.366870  0.468710  0.514100  1.0  -0.3369
  O  O46  1  0.531290  0.633130  0.985900  1.0  -0.3382
