# generated using pymatgen
data_Cu(CO3)2
_symmetry_space_group_name_H-M   'P 1'
_cell_length_a   9.05820000
_cell_length_b   9.05820000
_cell_length_c   12.56600000
_cell_angle_alpha   90.00000000
_cell_angle_beta   90.00000000
_cell_angle_gamma   90.00000000
_symmetry_Int_Tables_number   1
_chemical_formula_structural   Cu(CO3)2
_chemical_formula_sum   'Cu4 C8 O24'
_cell_volume   1031.05270566
_cell_formula_units_Z   4
loop_
 _symmetry_equiv_pos_site_id
 _symmetry_equiv_pos_as_xyz
  1  'x, y, z'
loop_
 _atom_site_type_symbol
 _atom_site_label
 _atom_site_symmetry_multiplicity
 _atom_site_fract_x
 _atom_site_fract_y
 _atom_site_fract_z
 _atom_site_occupancy
 _atom_site_charge
  Cu  Cu1  1  0.000000  0.500000  0.250000  1.0  0.8885
  Cu  Cu2  1  0.500000  0.000000  0.750000  1.0  0.8885
  Cu  Cu3  1  0.500000  0.500000  0.000000  1.0  1.0022
  Cu  Cu4  1  0.000000  0.000000  0.500000  1.0  1.0022
  C  C5  1  0.757600  0.541700  0.120200  1.0  0.8188
  C  C6  1  0.242400  0.458300  0.120200  1.0  0.8191
  C  C7  1  0.541700  0.242400  0.879800  1.0  0.8184
  C  C8  1  0.458300  0.757600  0.879800  1.0  0.8184
  C  C9  1  0.257600  0.958300  0.620200  1.0  0.819
  C  C10  1  0.742400  0.041700  0.620200  1.0  0.8189
  C  C11  1  0.041700  0.257600  0.379800  1.0  0.8185
  C  C12  1  0.958300  0.742400  0.379800  1.0  0.8183
  O  O13  1  0.885600  0.598000  0.137890  1.0  -0.4537
  O  O14  1  0.685100  0.596800  0.038740  1.0  -0.466
  O  O15  1  0.703200  0.440400  0.175850  1.0  -0.3704
  O  O16  1  0.114400  0.402000  0.137890  1.0  -0.4531
  O  O17  1  0.314900  0.403200  0.038740  1.0  -0.4662
  O  O18  1  0.296800  0.559600  0.175850  1.0  -0.3716
  O  O19  1  0.598000  0.114400  0.862110  1.0  -0.4544
  O  O20  1  0.596800  0.314900  0.961260  1.0  -0.4624
  O  O21  1  0.440400  0.296800  0.824150  1.0  -0.3746
  O  O22  1  0.402000  0.885600  0.862110  1.0  -0.4542
  O  O23  1  0.403200  0.685100  0.961260  1.0  -0.4628
  O  O24  1  0.559600  0.703200  0.824150  1.0  -0.3745
  O  O25  1  0.385600  0.902000  0.637890  1.0  -0.4541
  O  O26  1  0.185100  0.903200  0.538740  1.0  -0.4653
  O  O27  1  0.203200  0.059600  0.675850  1.0  -0.3722
  O  O28  1  0.614400  0.098000  0.637890  1.0  -0.4537
  O  O29  1  0.814900  0.096800  0.538740  1.0  -0.467
  O  O30  1  0.796800  0.940400  0.675850  1.0  -0.3704
  O  O31  1  0.098000  0.385600  0.362110  1.0  -0.4562
  O  O32  1  0.096800  0.185100  0.461260  1.0  -0.4629
  O  O33  1  0.940400  0.203200  0.324150  1.0  -0.3745
  O  O34  1  0.902000  0.614400  0.362110  1.0  -0.4538
  O  O35  1  0.903200  0.814900  0.461260  1.0  -0.4629
  O  O36  1  0.059600  0.796800  0.324150  1.0  -0.3739
