# generated using pymatgen
data_KCu(CO3)2
_symmetry_space_group_name_H-M   'P 1'
_cell_length_a   14.38280000
_cell_length_b   14.38280000
_cell_length_c   14.38280000
_cell_angle_alpha   90.00000000
_cell_angle_beta   90.00000000
_cell_angle_gamma   90.00000000
_symmetry_Int_Tables_number   1
_chemical_formula_structural   KCu(CO3)2
_chemical_formula_sum   'K12 Cu12 C24 O72'
_cell_volume   2975.29699920
_cell_formula_units_Z   12
loop_
 _symmetry_equiv_pos_site_id
 _symmetry_equiv_pos_as_xyz
  1  'x, y, z'
loop_
 _atom_site_type_symbol
 _atom_site_label
 _atom_site_symmetry_multiplicity
 _atom_site_fract_x
 _atom_site_fract_y
 _atom_site_fract_z
 _atom_site_occupancy
 _atom_site_charge
  K  K1  1  0.385000  0.000000  0.000000  1.0  1.1333
  K  K2  1  0.885000  0.500000  0.500000  1.0  1.1333
  K  K3  1  0.615000  0.000000  0.000000  1.0  1.1345
  K  K4  1  0.115000  0.500000  0.500000  1.0  1.1345
  K  K5  1  0.000000  0.385000  0.000000  1.0  1.1349
  K  K6  1  0.500000  0.885000  0.500000  1.0  1.1349
  K  K7  1  0.000000  0.615000  0.000000  1.0  1.135
  K  K8  1  0.500000  0.115000  0.500000  1.0  1.135
  K  K9  1  0.000000  0.000000  0.385000  1.0  1.1078
  K  K10  1  0.500000  0.500000  0.885000  1.0  1.1078
  K  K11  1  0.000000  0.000000  0.615000  1.0  1.1074
  K  K12  1  0.500000  0.500000  0.115000  1.0  1.1074
  Cu  Cu13  1  0.500000  0.000000  0.250000  1.0  0.587
  Cu  Cu14  1  0.500000  0.000000  0.750000  1.0  0.587
  Cu  Cu15  1  0.250000  0.500000  0.000000  1.0  0.587
  Cu  Cu16  1  0.750000  0.500000  0.000000  1.0  0.587
  Cu  Cu17  1  0.000000  0.250000  0.500000  1.0  0.587
  Cu  Cu18  1  0.000000  0.750000  0.500000  1.0  0.587
  Cu  Cu19  1  0.500000  0.250000  0.000000  1.0  0.587
  Cu  Cu20  1  0.000000  0.500000  0.750000  1.0  0.587
  Cu  Cu21  1  0.000000  0.500000  0.250000  1.0  0.587
  Cu  Cu22  1  0.500000  0.750000  0.000000  1.0  0.587
  Cu  Cu23  1  0.250000  0.000000  0.500000  1.0  0.587
  Cu  Cu24  1  0.750000  0.000000  0.500000  1.0  0.587
  C  C25  1  0.665600  0.000000  0.334400  1.0  0.8665
  C  C26  1  0.165600  0.500000  0.834400  1.0  0.8665
  C  C27  1  0.334400  0.000000  0.334400  1.0  0.8663
  C  C28  1  0.834400  0.500000  0.834400  1.0  0.8663
  C  C29  1  0.334400  0.000000  0.665600  1.0  0.8667
  C  C30  1  0.834400  0.500000  0.165600  1.0  0.8667
  C  C31  1  0.665600  0.000000  0.665600  1.0  0.8667
  C  C32  1  0.165600  0.500000  0.165600  1.0  0.8667
  C  C33  1  0.334400  0.665600  0.000000  1.0  0.8654
  C  C34  1  0.834400  0.165600  0.500000  1.0  0.8654
  C  C35  1  0.334400  0.334400  0.000000  1.0  0.8661
  C  C36  1  0.834400  0.834400  0.500000  1.0  0.8661
  C  C37  1  0.665600  0.334400  0.000000  1.0  0.8665
  C  C38  1  0.165600  0.834400  0.500000  1.0  0.8665
  C  C39  1  0.665600  0.665600  0.000000  1.0  0.8651
  C  C40  1  0.165600  0.165600  0.500000  1.0  0.8651
  C  C41  1  0.000000  0.334400  0.665600  1.0  0.8659
  C  C42  1  0.500000  0.834400  0.165600  1.0  0.8659
  C  C43  1  0.000000  0.334400  0.334400  1.0  0.8645
  C  C44  1  0.500000  0.834400  0.834400  1.0  0.8645
  C  C45  1  0.000000  0.665600  0.334400  1.0  0.8643
  C  C46  1  0.500000  0.165600  0.834400  1.0  0.8643
  C  C47  1  0.000000  0.665600  0.665600  1.0  0.8644
  C  C48  1  0.500000  0.165600  0.165600  1.0  0.8644
  O  O49  1  0.641100  0.000000  0.249100  1.0  -0.5027
  O  O50  1  0.141100  0.500000  0.749100  1.0  -0.5027
  O  O51  1  0.358900  0.000000  0.249100  1.0  -0.5048
  O  O52  1  0.858900  0.500000  0.749100  1.0  -0.5048
  O  O53  1  0.358900  0.000000  0.750900  1.0  -0.5088
  O  O54  1  0.858900  0.500000  0.250900  1.0  -0.5088
  O  O55  1  0.641100  0.000000  0.750900  1.0  -0.507
  O  O56  1  0.141100  0.500000  0.250900  1.0  -0.507
  O  O57  1  0.249100  0.641100  0.000000  1.0  -0.511
  O  O58  1  0.749100  0.141100  0.500000  1.0  -0.511
  O  O59  1  0.249100  0.358900  0.000000  1.0  -0.5114
  O  O60  1  0.749100  0.858900  0.500000  1.0  -0.5114
  O  O61  1  0.750900  0.358900  0.000000  1.0  -0.5105
  O  O62  1  0.250900  0.858900  0.500000  1.0  -0.5105
  O  O63  1  0.750900  0.641100  0.000000  1.0  -0.5105
  O  O64  1  0.250900  0.141100  0.500000  1.0  -0.5105
  O  O65  1  0.000000  0.249100  0.641100  1.0  -0.5092
  O  O66  1  0.500000  0.749100  0.141100  1.0  -0.5092
  O  O67  1  0.000000  0.249100  0.358900  1.0  -0.5083
  O  O68  1  0.500000  0.749100  0.858900  1.0  -0.5083
  O  O69  1  0.000000  0.750900  0.358900  1.0  -0.5077
  O  O70  1  0.500000  0.250900  0.858900  1.0  -0.5077
  O  O71  1  0.000000  0.750900  0.641100  1.0  -0.508
  O  O72  1  0.500000  0.250900  0.141100  1.0  -0.508
  O  O73  1  0.000000  0.641100  0.750900  1.0  -0.5075
  O  O74  1  0.500000  0.141100  0.250900  1.0  -0.5075
  O  O75  1  0.000000  0.358900  0.750900  1.0  -0.5071
  O  O76  1  0.500000  0.858900  0.250900  1.0  -0.5071
  O  O77  1  0.000000  0.358900  0.249100  1.0  -0.5032
  O  O78  1  0.500000  0.858900  0.749100  1.0  -0.5032
  O  O79  1  0.000000  0.641100  0.249100  1.0  -0.5034
  O  O80  1  0.500000  0.141100  0.749100  1.0  -0.5034
  O  O81  1  0.641100  0.249100  0.000000  1.0  -0.5097
  O  O82  1  0.141100  0.749100  0.500000  1.0  -0.5097
  O  O83  1  0.358900  0.249100  0.000000  1.0  -0.5096
  O  O84  1  0.858900  0.749100  0.500000  1.0  -0.5096
  O  O85  1  0.358900  0.750900  0.000000  1.0  -0.5104
  O  O86  1  0.858900  0.250900  0.500000  1.0  -0.5104
  O  O87  1  0.641100  0.750900  0.000000  1.0  -0.5071
  O  O88  1  0.141100  0.250900  0.500000  1.0  -0.5071
  O  O89  1  0.249100  0.000000  0.358900  1.0  -0.5113
  O  O90  1  0.749100  0.500000  0.858900  1.0  -0.5113
  O  O91  1  0.249100  0.000000  0.641100  1.0  -0.512
  O  O92  1  0.749100  0.500000  0.141100  1.0  -0.512
  O  O93  1  0.750900  0.000000  0.641100  1.0  -0.5113
  O  O94  1  0.250900  0.500000  0.141100  1.0  -0.5113
  O  O95  1  0.750900  0.000000  0.358900  1.0  -0.5111
  O  O96  1  0.250900  0.500000  0.858900  1.0  -0.5111
  O  O97  1  0.602400  0.000000  0.397600  1.0  -0.7044
  O  O98  1  0.102400  0.500000  0.897600  1.0  -0.7044
  O  O99  1  0.397600  0.000000  0.397600  1.0  -0.707
  O  O100  1  0.897600  0.500000  0.897600  1.0  -0.707
  O  O101  1  0.397600  0.000000  0.602400  1.0  -0.7041
  O  O102  1  0.897600  0.500000  0.102400  1.0  -0.7041
  O  O103  1  0.602400  0.000000  0.602400  1.0  -0.7019
  O  O104  1  0.102400  0.500000  0.102400  1.0  -0.7019
  O  O105  1  0.397600  0.602400  0.000000  1.0  -0.7073
  O  O106  1  0.897600  0.102400  0.500000  1.0  -0.7073
  O  O107  1  0.397600  0.397600  0.000000  1.0  -0.7063
  O  O108  1  0.897600  0.897600  0.500000  1.0  -0.7063
  O  O109  1  0.602400  0.397600  0.000000  1.0  -0.7049
  O  O110  1  0.102400  0.897600  0.500000  1.0  -0.7049
  O  O111  1  0.602400  0.602400  0.000000  1.0  -0.7052
  O  O112  1  0.102400  0.102400  0.500000  1.0  -0.7052
  O  O113  1  0.000000  0.397600  0.602400  1.0  -0.7031
  O  O114  1  0.500000  0.897600  0.102400  1.0  -0.7031
  O  O115  1  0.000000  0.397600  0.397600  1.0  -0.7056
  O  O116  1  0.500000  0.897600  0.897600  1.0  -0.7056
  O  O117  1  0.000000  0.602400  0.397600  1.0  -0.7061
  O  O118  1  0.500000  0.102400  0.897600  1.0  -0.7061
  O  O119  1  0.000000  0.602400  0.602400  1.0  -0.7036
  O  O120  1  0.500000  0.102400  0.102400  1.0  -0.7036
