# generated using pymatgen
data_Cu(CO3)2
_symmetry_space_group_name_H-M   'P 1'
_cell_length_a   8.80480000
_cell_length_b   8.80480000
_cell_length_c   12.03100000
_cell_angle_alpha   90.00000000
_cell_angle_beta   90.00000000
_cell_angle_gamma   90.00000000
_symmetry_Int_Tables_number   1
_chemical_formula_structural   Cu(CO3)2
_chemical_formula_sum   'Cu4 C8 O24'
_cell_volume   932.69729607
_cell_formula_units_Z   4
loop_
 _symmetry_equiv_pos_site_id
 _symmetry_equiv_pos_as_xyz
  1  'x, y, z'
loop_
 _atom_site_type_symbol
 _atom_site_label
 _atom_site_symmetry_multiplicity
 _atom_site_fract_x
 _atom_site_fract_y
 _atom_site_fract_z
 _atom_site_occupancy
 _atom_site_charge
  Cu  Cu1  1  0.000000  0.500000  0.250000  1.0  0.9956
  Cu  Cu2  1  0.500000  0.000000  0.750000  1.0  0.9956
  Cu  Cu3  1  0.500000  0.500000  0.000000  1.0  0.9985
  Cu  Cu4  1  0.000000  0.000000  0.500000  1.0  0.9985
  C  C5  1  0.765500  0.545200  0.115900  1.0  0.7875
  C  C6  1  0.234500  0.454800  0.115900  1.0  0.7879
  C  C7  1  0.545200  0.234500  0.884100  1.0  0.7872
  C  C8  1  0.454800  0.765500  0.884100  1.0  0.7875
  C  C9  1  0.265500  0.954800  0.615900  1.0  0.7879
  C  C10  1  0.734500  0.045200  0.615900  1.0  0.7875
  C  C11  1  0.045200  0.265500  0.384100  1.0  0.7875
  C  C12  1  0.954800  0.734500  0.384100  1.0  0.7872
  O  O13  1  0.890500  0.613500  0.133800  1.0  -0.4523
  O  O14  1  0.685000  0.606000  0.032400  1.0  -0.43
  O  O15  1  0.714500  0.441400  0.174200  1.0  -0.4032
  O  O16  1  0.109500  0.386500  0.133800  1.0  -0.4528
  O  O17  1  0.315000  0.394000  0.032400  1.0  -0.4294
  O  O18  1  0.285500  0.558600  0.174200  1.0  -0.4034
  O  O19  1  0.613500  0.109500  0.866200  1.0  -0.4549
  O  O20  1  0.606000  0.315000  0.967600  1.0  -0.4258
  O  O21  1  0.441400  0.285500  0.825800  1.0  -0.4081
  O  O22  1  0.386500  0.890500  0.866200  1.0  -0.4523
  O  O23  1  0.394000  0.685000  0.967600  1.0  -0.4259
  O  O24  1  0.558600  0.714500  0.825800  1.0  -0.4063
  O  O25  1  0.390500  0.886500  0.633800  1.0  -0.4528
  O  O26  1  0.185000  0.894000  0.532400  1.0  -0.4285
  O  O27  1  0.214500  0.058600  0.674200  1.0  -0.4045
  O  O28  1  0.609500  0.113500  0.633800  1.0  -0.452
  O  O29  1  0.815000  0.106000  0.532400  1.0  -0.4309
  O  O30  1  0.785500  0.941400  0.674200  1.0  -0.4024
  O  O31  1  0.113500  0.390500  0.366200  1.0  -0.454
  O  O32  1  0.106000  0.185000  0.467600  1.0  -0.4267
  O  O33  1  0.941400  0.214500  0.325800  1.0  -0.4071
  O  O34  1  0.886500  0.609500  0.366200  1.0  -0.4534
  O  O35  1  0.894000  0.815000  0.467600  1.0  -0.4253
  O  O36  1  0.058600  0.785500  0.325800  1.0  -0.4064
