# generated using pymatgen
data_Cu(CO3)2
_symmetry_space_group_name_H-M   'P 1'
_cell_length_a   8.86450000
_cell_length_b   8.86450000
_cell_length_c   12.11910000
_cell_angle_alpha   90.00000000
_cell_angle_beta   90.00000000
_cell_angle_gamma   90.00000000
_symmetry_Int_Tables_number   1
_chemical_formula_structural   Cu(CO3)2
_chemical_formula_sum   'Cu4 C8 O24'
_cell_volume   952.31112481
_cell_formula_units_Z   4
loop_
 _symmetry_equiv_pos_site_id
 _symmetry_equiv_pos_as_xyz
  1  'x, y, z'
loop_
 _atom_site_type_symbol
 _atom_site_label
 _atom_site_symmetry_multiplicity
 _atom_site_fract_x
 _atom_site_fract_y
 _atom_site_fract_z
 _atom_site_occupancy
 _atom_site_charge
  Cu  Cu1  1  0.000000  0.500000  0.250000  1.0  0.9946
  Cu  Cu2  1  0.500000  0.000000  0.750000  1.0  0.9946
  Cu  Cu3  1  0.500000  0.500000  0.000000  1.0  0.9817
  Cu  Cu4  1  0.000000  0.000000  0.500000  1.0  0.9817
  C  C5  1  0.764700  0.544900  0.117400  1.0  0.8086
  C  C6  1  0.235300  0.455100  0.117400  1.0  0.8089
  C  C7  1  0.544900  0.235300  0.882600  1.0  0.8087
  C  C8  1  0.455100  0.764700  0.882600  1.0  0.8089
  C  C9  1  0.264700  0.955100  0.617400  1.0  0.8088
  C  C10  1  0.735300  0.044900  0.617400  1.0  0.8086
  C  C11  1  0.044900  0.264700  0.382600  1.0  0.809
  C  C12  1  0.955100  0.735300  0.382600  1.0  0.8086
  O  O13  1  0.889000  0.608100  0.134400  1.0  -0.454
  O  O14  1  0.684300  0.602300  0.033800  1.0  -0.4474
  O  O15  1  0.713100  0.441700  0.175200  1.0  -0.403
  O  O16  1  0.111000  0.391900  0.134400  1.0  -0.4539
  O  O17  1  0.315700  0.397700  0.033800  1.0  -0.4463
  O  O18  1  0.286900  0.558300  0.175200  1.0  -0.4008
  O  O19  1  0.608100  0.111000  0.865600  1.0  -0.4561
  O  O20  1  0.602300  0.315700  0.966200  1.0  -0.4419
  O  O21  1  0.441700  0.286900  0.824800  1.0  -0.4055
  O  O22  1  0.391900  0.889000  0.865600  1.0  -0.4536
  O  O23  1  0.397700  0.684300  0.966200  1.0  -0.4424
  O  O24  1  0.558300  0.713100  0.824800  1.0  -0.405
  O  O25  1  0.389000  0.891900  0.634400  1.0  -0.454
  O  O26  1  0.184300  0.897700  0.533800  1.0  -0.4459
  O  O27  1  0.213100  0.058300  0.675200  1.0  -0.4035
  O  O28  1  0.611000  0.108100  0.634400  1.0  -0.4536
  O  O29  1  0.815700  0.102300  0.533800  1.0  -0.4479
  O  O30  1  0.786900  0.941700  0.675200  1.0  -0.4022
  O  O31  1  0.108100  0.389000  0.365600  1.0  -0.4555
  O  O32  1  0.102300  0.184300  0.466200  1.0  -0.443
  O  O33  1  0.941700  0.213100  0.324800  1.0  -0.4067
  O  O34  1  0.891900  0.611000  0.365600  1.0  -0.4545
  O  O35  1  0.897700  0.815700  0.466200  1.0  -0.4415
  O  O36  1  0.058300  0.786900  0.324800  1.0  -0.4043
