# generated using pymatgen
data_Cu(CO3)2
_symmetry_space_group_name_H-M   'P 1'
_cell_length_a   8.96640000
_cell_length_b   8.96640000
_cell_length_c   12.35480000
_cell_angle_alpha   90.00000000
_cell_angle_beta   90.00000000
_cell_angle_gamma   90.00000000
_symmetry_Int_Tables_number   1
_chemical_formula_structural   Cu(CO3)2
_chemical_formula_sum   'Cu4 C8 O24'
_cell_volume   993.28056504
_cell_formula_units_Z   4
loop_
 _symmetry_equiv_pos_site_id
 _symmetry_equiv_pos_as_xyz
  1  'x, y, z'
loop_
 _atom_site_type_symbol
 _atom_site_label
 _atom_site_symmetry_multiplicity
 _atom_site_fract_x
 _atom_site_fract_y
 _atom_site_fract_z
 _atom_site_occupancy
 _atom_site_charge
  Cu  Cu1  1  0.000000  0.500000  0.250000  1.0  0.9731
  Cu  Cu2  1  0.500000  0.000000  0.750000  1.0  0.9731
  Cu  Cu3  1  0.500000  0.500000  0.000000  1.0  0.9664
  Cu  Cu4  1  0.000000  0.000000  0.500000  1.0  0.9664
  C  C5  1  0.760500  0.544200  0.119000  1.0  0.8451
  C  C6  1  0.239500  0.455800  0.119000  1.0  0.8451
  C  C7  1  0.544200  0.239500  0.881000  1.0  0.8445
  C  C8  1  0.455800  0.760500  0.881000  1.0  0.8441
  C  C9  1  0.260500  0.955800  0.619000  1.0  0.8449
  C  C10  1  0.739500  0.044200  0.619000  1.0  0.8453
  C  C11  1  0.044200  0.260500  0.381000  1.0  0.8446
  C  C12  1  0.955800  0.739500  0.381000  1.0  0.8441
  O  O13  1  0.886700  0.602700  0.137100  1.0  -0.459
  O  O14  1  0.685300  0.600400  0.036900  1.0  -0.4758
  O  O15  1  0.706500  0.440600  0.175200  1.0  -0.3934
  O  O16  1  0.113300  0.397300  0.137100  1.0  -0.459
  O  O17  1  0.314700  0.399600  0.036900  1.0  -0.4755
  O  O18  1  0.293500  0.559400  0.175200  1.0  -0.3945
  O  O19  1  0.602700  0.113300  0.862900  1.0  -0.4598
  O  O20  1  0.600400  0.314700  0.963100  1.0  -0.4715
  O  O21  1  0.440600  0.293500  0.824800  1.0  -0.3975
  O  O22  1  0.397300  0.886700  0.862900  1.0  -0.4605
  O  O23  1  0.399600  0.685300  0.963100  1.0  -0.4724
  O  O24  1  0.559400  0.706500  0.824800  1.0  -0.3982
  O  O25  1  0.386700  0.897300  0.637100  1.0  -0.4587
  O  O26  1  0.185300  0.899600  0.536900  1.0  -0.4746
  O  O27  1  0.206500  0.059400  0.675200  1.0  -0.3955
  O  O28  1  0.613300  0.102700  0.637100  1.0  -0.4595
  O  O29  1  0.814700  0.100400  0.536900  1.0  -0.4769
  O  O30  1  0.793500  0.940600  0.675200  1.0  -0.394
  O  O31  1  0.102700  0.386700  0.362900  1.0  -0.461
  O  O32  1  0.100400  0.185300  0.463100  1.0  -0.4725
  O  O33  1  0.940600  0.206500  0.324800  1.0  -0.3985
  O  O34  1  0.897300  0.613300  0.362900  1.0  -0.4592
  O  O35  1  0.899600  0.814700  0.463100  1.0  -0.4721
  O  O36  1  0.059400  0.793500  0.324800  1.0  -0.3971
