# generated using pymatgen
data_LiCu2(CO3)4
_symmetry_space_group_name_H-M   'P 1'
_cell_length_a   14.32280000
_cell_length_b   14.32280000
_cell_length_c   14.32280000
_cell_angle_alpha   90.00000000
_cell_angle_beta   90.00000000
_cell_angle_gamma   90.00000000
_symmetry_Int_Tables_number   1
_chemical_formula_structural   LiCu2(CO3)4
_chemical_formula_sum   'Li6 Cu12 C24 O72'
_cell_volume   2938.21642899
_cell_formula_units_Z   6
loop_
 _symmetry_equiv_pos_site_id
 _symmetry_equiv_pos_as_xyz
  1  'x, y, z'
loop_
 _atom_site_type_symbol
 _atom_site_label
 _atom_site_symmetry_multiplicity
 _atom_site_fract_x
 _atom_site_fract_y
 _atom_site_fract_z
 _atom_site_occupancy
 _atom_site_charge
  Li  Li1  1  0.500000  0.000000  0.000000  1.0  1.0292
  Li  Li2  1  0.000000  0.500000  0.500000  1.0  1.0292
  Li  Li3  1  0.000000  0.500000  0.000000  1.0  1.0292
  Li  Li4  1  0.500000  0.000000  0.500000  1.0  1.0292
  Li  Li5  1  0.000000  0.000000  0.500000  1.0  1.0292
  Li  Li6  1  0.500000  0.500000  0.000000  1.0  1.0292
  Cu  Cu7  1  0.500000  0.000000  0.250000  1.0  0.7212
  Cu  Cu8  1  0.500000  0.000000  0.750000  1.0  0.7212
  Cu  Cu9  1  0.250000  0.500000  0.000000  1.0  0.7212
  Cu  Cu10  1  0.750000  0.500000  0.000000  1.0  0.7212
  Cu  Cu11  1  0.000000  0.250000  0.500000  1.0  0.7212
  Cu  Cu12  1  0.000000  0.750000  0.500000  1.0  0.7212
  Cu  Cu13  1  0.500000  0.250000  0.000000  1.0  0.7212
  Cu  Cu14  1  0.000000  0.500000  0.750000  1.0  0.7212
  Cu  Cu15  1  0.000000  0.500000  0.250000  1.0  0.7212
  Cu  Cu16  1  0.500000  0.750000  0.000000  1.0  0.7212
  Cu  Cu17  1  0.250000  0.000000  0.500000  1.0  0.7212
  Cu  Cu18  1  0.750000  0.000000  0.500000  1.0  0.7212
  C  C19  1  0.500000  0.837600  0.162400  1.0  0.9781
  C  C20  1  0.000000  0.337600  0.662400  1.0  0.9781
  C  C21  1  0.500000  0.162400  0.162400  1.0  0.9773
  C  C22  1  0.000000  0.662400  0.662400  1.0  0.9773
  C  C23  1  0.500000  0.837600  0.837600  1.0  0.9769
  C  C24  1  0.000000  0.337600  0.337600  1.0  0.9769
  C  C25  1  0.500000  0.162400  0.837600  1.0  0.9767
  C  C26  1  0.000000  0.662400  0.337600  1.0  0.9767
  C  C27  1  0.162400  0.500000  0.837600  1.0  0.9764
  C  C28  1  0.662400  0.000000  0.337600  1.0  0.9764
  C  C29  1  0.162400  0.500000  0.162400  1.0  0.9769
  C  C30  1  0.662400  0.000000  0.662400  1.0  0.9769
  C  C31  1  0.837600  0.500000  0.837600  1.0  0.9773
  C  C32  1  0.337600  0.000000  0.337600  1.0  0.9773
  C  C33  1  0.837600  0.500000  0.162400  1.0  0.9775
  C  C34  1  0.337600  0.000000  0.662400  1.0  0.9775
  C  C35  1  0.837600  0.162400  0.500000  1.0  0.9768
  C  C36  1  0.337600  0.662400  0.000000  1.0  0.9768
  C  C37  1  0.162400  0.162400  0.500000  1.0  0.9758
  C  C38  1  0.662400  0.662400  0.000000  1.0  0.9758
  C  C39  1  0.837600  0.837600  0.500000  1.0  0.9774
  C  C40  1  0.337600  0.337600  0.000000  1.0  0.9774
  C  C41  1  0.162400  0.837600  0.500000  1.0  0.9769
  C  C42  1  0.662400  0.337600  0.000000  1.0  0.9769
  O  O43  1  0.500000  0.859600  0.250100  1.0  -0.4695
  O  O44  1  0.000000  0.359600  0.750100  1.0  -0.4695
  O  O45  1  0.500000  0.140400  0.250100  1.0  -0.4693
  O  O46  1  0.000000  0.640400  0.750100  1.0  -0.4693
  O  O47  1  0.500000  0.859600  0.749900  1.0  -0.4672
  O  O48  1  0.000000  0.359600  0.249900  1.0  -0.4672
  O  O49  1  0.500000  0.140400  0.749900  1.0  -0.4672
  O  O50  1  0.000000  0.640400  0.249900  1.0  -0.4672
  O  O51  1  0.250100  0.500000  0.859600  1.0  -0.4731
  O  O52  1  0.750100  0.000000  0.359600  1.0  -0.4731
  O  O53  1  0.250100  0.500000  0.140400  1.0  -0.4727
  O  O54  1  0.750100  0.000000  0.640400  1.0  -0.4727
  O  O55  1  0.749900  0.500000  0.859600  1.0  -0.474
  O  O56  1  0.249900  0.000000  0.359600  1.0  -0.474
  O  O57  1  0.749900  0.500000  0.140400  1.0  -0.4747
  O  O58  1  0.249900  0.000000  0.640400  1.0  -0.4747
  O  O59  1  0.859600  0.250100  0.500000  1.0  -0.4705
  O  O60  1  0.359600  0.750100  0.000000  1.0  -0.4705
  O  O61  1  0.140400  0.250100  0.500000  1.0  -0.4685
  O  O62  1  0.640400  0.750100  0.000000  1.0  -0.4685
  O  O63  1  0.859600  0.749900  0.500000  1.0  -0.4705
  O  O64  1  0.359600  0.249900  0.000000  1.0  -0.4705
  O  O65  1  0.140400  0.749900  0.500000  1.0  -0.4718
  O  O66  1  0.640400  0.249900  0.000000  1.0  -0.4718
  O  O67  1  0.859600  0.500000  0.749900  1.0  -0.4684
  O  O68  1  0.359600  0.000000  0.249900  1.0  -0.4684
  O  O69  1  0.140400  0.500000  0.749900  1.0  -0.4682
  O  O70  1  0.640400  0.000000  0.249900  1.0  -0.4682
  O  O71  1  0.859600  0.500000  0.250100  1.0  -0.4701
  O  O72  1  0.359600  0.000000  0.750100  1.0  -0.4701
  O  O73  1  0.140400  0.500000  0.250100  1.0  -0.4706
  O  O74  1  0.640400  0.000000  0.750100  1.0  -0.4706
  O  O75  1  0.500000  0.250100  0.140400  1.0  -0.4684
  O  O76  1  0.000000  0.750100  0.640400  1.0  -0.4684
  O  O77  1  0.500000  0.250100  0.859600  1.0  -0.469
  O  O78  1  0.000000  0.750100  0.359600  1.0  -0.469
  O  O79  1  0.500000  0.749900  0.140400  1.0  -0.4709
  O  O80  1  0.000000  0.249900  0.640400  1.0  -0.4709
  O  O81  1  0.500000  0.749900  0.859600  1.0  -0.4705
  O  O82  1  0.000000  0.249900  0.359600  1.0  -0.4705
  O  O83  1  0.250100  0.859600  0.500000  1.0  -0.4723
  O  O84  1  0.750100  0.359600  0.000000  1.0  -0.4723
  O  O85  1  0.250100  0.140400  0.500000  1.0  -0.4723
  O  O86  1  0.750100  0.640400  0.000000  1.0  -0.4723
  O  O87  1  0.749900  0.859600  0.500000  1.0  -0.4732
  O  O88  1  0.249900  0.359600  0.000000  1.0  -0.4732
  O  O89  1  0.749900  0.140400  0.500000  1.0  -0.4736
  O  O90  1  0.249900  0.640400  0.000000  1.0  -0.4736
  O  O91  1  0.500000  0.899300  0.100700  1.0  -0.6519
  O  O92  1  0.000000  0.399300  0.600700  1.0  -0.6519
  O  O93  1  0.500000  0.100700  0.100700  1.0  -0.6524
  O  O94  1  0.000000  0.600700  0.600700  1.0  -0.6524
  O  O95  1  0.500000  0.899300  0.899300  1.0  -0.6515
  O  O96  1  0.000000  0.399300  0.399300  1.0  -0.6515
  O  O97  1  0.500000  0.100700  0.899300  1.0  -0.6506
  O  O98  1  0.000000  0.600700  0.399300  1.0  -0.6505
  O  O99  1  0.100700  0.500000  0.899300  1.0  -0.6509
  O  O100  1  0.600700  0.000000  0.399300  1.0  -0.6509
  O  O101  1  0.100700  0.500000  0.100700  1.0  -0.6531
  O  O102  1  0.600700  0.000000  0.600700  1.0  -0.6531
  O  O103  1  0.899300  0.500000  0.899300  1.0  -0.6577
  O  O104  1  0.399300  0.000000  0.399300  1.0  -0.6577
  O  O105  1  0.899300  0.500000  0.100700  1.0  -0.6581
  O  O106  1  0.399300  0.000000  0.600700  1.0  -0.6581
  O  O107  1  0.899300  0.100700  0.500000  1.0  -0.656
  O  O108  1  0.399300  0.600700  0.000000  1.0  -0.6558
  O  O109  1  0.100700  0.100700  0.500000  1.0  -0.6516
  O  O110  1  0.600700  0.600700  0.000000  1.0  -0.6516
  O  O111  1  0.899300  0.899300  0.500000  1.0  -0.6581
  O  O112  1  0.399300  0.399300  0.000000  1.0  -0.6581
  O  O113  1  0.100700  0.899300  0.500000  1.0  -0.6509
  O  O114  1  0.600700  0.399300  0.000000  1.0  -0.651
