# generated using pymatgen
data_Cu(CO3)2
_symmetry_space_group_name_H-M   'P 1'
_cell_length_a   9.03680000
_cell_length_b   9.03680000
_cell_length_c   12.53640000
_cell_angle_alpha   90.00000000
_cell_angle_beta   90.00000000
_cell_angle_gamma   90.00000000
_symmetry_Int_Tables_number   1
_chemical_formula_structural   Cu(CO3)2
_chemical_formula_sum   'Cu4 C8 O24'
_cell_volume   1023.76948865
_cell_formula_units_Z   4
loop_
 _symmetry_equiv_pos_site_id
 _symmetry_equiv_pos_as_xyz
  1  'x, y, z'
loop_
 _atom_site_type_symbol
 _atom_site_label
 _atom_site_symmetry_multiplicity
 _atom_site_fract_x
 _atom_site_fract_y
 _atom_site_fract_z
 _atom_site_occupancy
 _atom_site_charge
  Cu  Cu1  1  0.000000  0.000000  0.000000  1.0  0.9599
  Cu  Cu2  1  0.500000  0.500000  0.500000  1.0  0.9599
  Cu  Cu3  1  0.500000  0.000000  0.750000  1.0  0.8947
  Cu  Cu4  1  0.000000  0.500000  0.250000  1.0  0.8947
  C  C5  1  0.255800  0.959600  0.880570  1.0  0.973
  C  C6  1  0.744200  0.040400  0.880570  1.0  0.973
  C  C7  1  0.959600  0.744200  0.119430  1.0  0.9722
  C  C8  1  0.040400  0.255800  0.119430  1.0  0.9735
  C  C9  1  0.755800  0.540400  0.380570  1.0  0.973
  C  C10  1  0.244200  0.459600  0.380570  1.0  0.973
  C  C11  1  0.459600  0.755800  0.619430  1.0  0.9724
  C  C12  1  0.540400  0.244200  0.619430  1.0  0.9733
  O  O13  1  0.185360  0.903300  0.961260  1.0  -0.5168
  O  O14  1  0.202900  0.059400  0.824490  1.0  -0.4196
  O  O15  1  0.385600  0.901830  0.862020  1.0  -0.4995
  O  O16  1  0.814640  0.096700  0.961260  1.0  -0.517
  O  O17  1  0.797100  0.940600  0.824490  1.0  -0.4178
  O  O18  1  0.614400  0.098170  0.862020  1.0  -0.5007
  O  O19  1  0.903300  0.814640  0.038740  1.0  -0.517
  O  O20  1  0.059400  0.797100  0.175510  1.0  -0.4199
  O  O21  1  0.901830  0.614400  0.137980  1.0  -0.5014
  O  O22  1  0.096700  0.185360  0.038740  1.0  -0.5173
  O  O23  1  0.940600  0.202900  0.175510  1.0  -0.4196
  O  O24  1  0.098170  0.385600  0.137980  1.0  -0.5006
  O  O25  1  0.685360  0.596700  0.461260  1.0  -0.5169
  O  O26  1  0.702900  0.440600  0.324490  1.0  -0.4186
  O  O27  1  0.885600  0.598170  0.362020  1.0  -0.4997
  O  O28  1  0.314640  0.403300  0.461260  1.0  -0.5168
  O  O29  1  0.297100  0.559400  0.324490  1.0  -0.4177
  O  O30  1  0.114400  0.401830  0.362020  1.0  -0.5001
  O  O31  1  0.403300  0.685360  0.538740  1.0  -0.5166
  O  O32  1  0.559400  0.702900  0.675510  1.0  -0.4195
  O  O33  1  0.401830  0.885600  0.637980  1.0  -0.5003
  O  O34  1  0.596700  0.314640  0.538740  1.0  -0.5172
  O  O35  1  0.440600  0.297100  0.675510  1.0  -0.4202
  O  O36  1  0.598170  0.114400  0.637980  1.0  -0.5019
