# generated using pymatgen
data_Cu(CO3)2
_symmetry_space_group_name_H-M   'P 1'
_cell_length_a   14.52750000
_cell_length_b   14.52750000
_cell_length_c   14.52750000
_cell_angle_alpha   90.00000000
_cell_angle_beta   90.00000000
_cell_angle_gamma   90.00000000
_symmetry_Int_Tables_number   1
_chemical_formula_structural   Cu(CO3)2
_chemical_formula_sum   'Cu12 C24 O72'
_cell_volume   3066.00354267
_cell_formula_units_Z   12
loop_
 _symmetry_equiv_pos_site_id
 _symmetry_equiv_pos_as_xyz
  1  'x, y, z'
loop_
 _atom_site_type_symbol
 _atom_site_label
 _atom_site_symmetry_multiplicity
 _atom_site_fract_x
 _atom_site_fract_y
 _atom_site_fract_z
 _atom_site_occupancy
 _atom_site_charge
  Cu  Cu1  1  0.000000  0.500000  0.750000  1.0  0.6586
  Cu  Cu2  1  0.000000  0.500000  0.250000  1.0  0.6586
  Cu  Cu3  1  0.750000  0.000000  0.500000  1.0  0.6586
  Cu  Cu4  1  0.250000  0.000000  0.500000  1.0  0.6586
  Cu  Cu5  1  0.500000  0.750000  0.000000  1.0  0.6586
  Cu  Cu6  1  0.500000  0.250000  0.000000  1.0  0.6586
  Cu  Cu7  1  0.500000  0.000000  0.250000  1.0  0.6586
  Cu  Cu8  1  0.500000  0.000000  0.750000  1.0  0.6586
  Cu  Cu9  1  0.000000  0.750000  0.500000  1.0  0.6586
  Cu  Cu10  1  0.000000  0.250000  0.500000  1.0  0.6586
  Cu  Cu11  1  0.750000  0.500000  0.000000  1.0  0.6586
  Cu  Cu12  1  0.250000  0.500000  0.000000  1.0  0.6586
  C  C13  1  0.829700  0.500000  0.829700  1.0  0.9667
  C  C14  1  0.329700  0.000000  0.329700  1.0  0.9667
  C  C15  1  0.170300  0.500000  0.829700  1.0  0.9664
  C  C16  1  0.670300  0.000000  0.329700  1.0  0.9664
  C  C17  1  0.170300  0.500000  0.170300  1.0  0.9671
  C  C18  1  0.670300  0.000000  0.670300  1.0  0.9671
  C  C19  1  0.829700  0.500000  0.170300  1.0  0.9674
  C  C20  1  0.329700  0.000000  0.670300  1.0  0.9674
  C  C21  1  0.829700  0.829700  0.500000  1.0  0.9668
  C  C22  1  0.329700  0.329700  0.000000  1.0  0.9668
  C  C23  1  0.829700  0.170300  0.500000  1.0  0.9658
  C  C24  1  0.329700  0.670300  0.000000  1.0  0.9658
  C  C25  1  0.170300  0.170300  0.500000  1.0  0.9653
  C  C26  1  0.670300  0.670300  0.000000  1.0  0.9653
  C  C27  1  0.170300  0.829700  0.500000  1.0  0.9664
  C  C28  1  0.670300  0.329700  0.000000  1.0  0.9664
  C  C29  1  0.500000  0.829700  0.829700  1.0  0.9656
  C  C30  1  0.000000  0.329700  0.329700  1.0  0.9656
  C  C31  1  0.500000  0.829700  0.170300  1.0  0.9668
  C  C32  1  0.000000  0.329700  0.670300  1.0  0.9668
  C  C33  1  0.500000  0.170300  0.170300  1.0  0.9657
  C  C34  1  0.000000  0.670300  0.670300  1.0  0.9657
  C  C35  1  0.500000  0.170300  0.829700  1.0  0.9649
  C  C36  1  0.000000  0.670300  0.329700  1.0  0.9649
  O  O37  1  0.891500  0.500000  0.891500  1.0  -0.5045
  O  O38  1  0.391500  0.000000  0.391500  1.0  -0.5045
  O  O39  1  0.108500  0.500000  0.891500  1.0  -0.5036
  O  O40  1  0.608500  0.000000  0.391500  1.0  -0.504
  O  O41  1  0.108500  0.500000  0.108500  1.0  -0.5037
  O  O42  1  0.608500  0.000000  0.608500  1.0  -0.5037
  O  O43  1  0.891500  0.500000  0.108500  1.0  -0.502
  O  O44  1  0.391500  0.000000  0.608500  1.0  -0.5024
  O  O45  1  0.891500  0.891500  0.500000  1.0  -0.5014
  O  O46  1  0.391500  0.391500  0.000000  1.0  -0.5014
  O  O47  1  0.891500  0.108500  0.500000  1.0  -0.5018
  O  O48  1  0.391500  0.608500  0.000000  1.0  -0.5023
  O  O49  1  0.108500  0.108500  0.500000  1.0  -0.5034
  O  O50  1  0.608500  0.608500  0.000000  1.0  -0.5034
  O  O51  1  0.108500  0.891500  0.500000  1.0  -0.5016
  O  O52  1  0.608500  0.391500  0.000000  1.0  -0.5012
  O  O53  1  0.500000  0.891500  0.891500  1.0  -0.502
  O  O54  1  0.000000  0.391500  0.391500  1.0  -0.502
  O  O55  1  0.500000  0.891500  0.108500  1.0  -0.5004
  O  O56  1  0.000000  0.391500  0.608500  1.0  -0.5009
  O  O57  1  0.500000  0.108500  0.108500  1.0  -0.5011
  O  O58  1  0.000000  0.608500  0.608500  1.0  -0.5011
  O  O59  1  0.500000  0.108500  0.891500  1.0  -0.5022
  O  O60  1  0.000000  0.608500  0.391500  1.0  -0.5026
  O  O61  1  0.854400  0.500000  0.746700  1.0  -0.3958
  O  O62  1  0.354400  0.000000  0.246700  1.0  -0.3958
  O  O63  1  0.145600  0.500000  0.746700  1.0  -0.3941
  O  O64  1  0.645600  0.000000  0.246700  1.0  -0.3941
  O  O65  1  0.145600  0.500000  0.253300  1.0  -0.3938
  O  O66  1  0.645600  0.000000  0.753300  1.0  -0.3938
  O  O67  1  0.854400  0.500000  0.253300  1.0  -0.3962
  O  O68  1  0.354400  0.000000  0.753300  1.0  -0.3962
  O  O69  1  0.746700  0.854400  0.500000  1.0  -0.4005
  O  O70  1  0.246700  0.354400  0.000000  1.0  -0.4005
  O  O71  1  0.746700  0.145600  0.500000  1.0  -0.4029
  O  O72  1  0.246700  0.645600  0.000000  1.0  -0.4029
  O  O73  1  0.253300  0.145600  0.500000  1.0  -0.3967
  O  O74  1  0.753300  0.645600  0.000000  1.0  -0.3967
  O  O75  1  0.253300  0.854400  0.500000  1.0  -0.3985
  O  O76  1  0.753300  0.354400  0.000000  1.0  -0.3985
  O  O77  1  0.500000  0.746700  0.854400  1.0  -0.3957
  O  O78  1  0.000000  0.246700  0.354400  1.0  -0.3957
  O  O79  1  0.500000  0.746700  0.145600  1.0  -0.3952
  O  O80  1  0.000000  0.246700  0.645600  1.0  -0.3952
  O  O81  1  0.500000  0.253300  0.145600  1.0  -0.3938
  O  O82  1  0.000000  0.753300  0.645600  1.0  -0.3938
  O  O83  1  0.500000  0.253300  0.854400  1.0  -0.3945
  O  O84  1  0.000000  0.753300  0.354400  1.0  -0.3945
  O  O85  1  0.500000  0.854400  0.253300  1.0  -0.3948
  O  O86  1  0.000000  0.354400  0.753300  1.0  -0.3948
  O  O87  1  0.500000  0.145600  0.253300  1.0  -0.3945
  O  O88  1  0.000000  0.645600  0.753300  1.0  -0.3945
  O  O89  1  0.500000  0.145600  0.746700  1.0  -0.3947
  O  O90  1  0.000000  0.645600  0.246700  1.0  -0.3947
  O  O91  1  0.500000  0.854400  0.746700  1.0  -0.3936
  O  O92  1  0.000000  0.354400  0.246700  1.0  -0.3936
  O  O93  1  0.854400  0.746700  0.500000  1.0  -0.3984
  O  O94  1  0.354400  0.246700  0.000000  1.0  -0.3984
  O  O95  1  0.145600  0.746700  0.500000  1.0  -0.3977
  O  O96  1  0.645600  0.246700  0.000000  1.0  -0.3977
  O  O97  1  0.145600  0.253300  0.500000  1.0  -0.3953
  O  O98  1  0.645600  0.753300  0.000000  1.0  -0.3953
  O  O99  1  0.854400  0.253300  0.500000  1.0  -0.3986
  O  O100  1  0.354400  0.753300  0.000000  1.0  -0.3986
  O  O101  1  0.746700  0.500000  0.145600  1.0  -0.3993
  O  O102  1  0.246700  0.000000  0.645600  1.0  -0.3993
  O  O103  1  0.746700  0.500000  0.854400  1.0  -0.3998
  O  O104  1  0.246700  0.000000  0.354400  1.0  -0.3998
  O  O105  1  0.253300  0.500000  0.854400  1.0  -0.3969
  O  O106  1  0.753300  0.000000  0.354400  1.0  -0.3969
  O  O107  1  0.253300  0.500000  0.145600  1.0  -0.3965
  O  O108  1  0.753300  0.000000  0.645600  1.0  -0.3965
