# generated using pymatgen
data_NaCu2(CO3)4
_symmetry_space_group_name_H-M   'P 1'
_cell_length_a   14.41130000
_cell_length_b   14.41130000
_cell_length_c   14.41130000
_cell_angle_alpha   90.00000000
_cell_angle_beta   90.00000000
_cell_angle_gamma   90.00000000
_symmetry_Int_Tables_number   1
_chemical_formula_structural   NaCu2(CO3)4
_chemical_formula_sum   'Na6 Cu12 C24 O72'
_cell_volume   2993.01902165
_cell_formula_units_Z   6
loop_
 _symmetry_equiv_pos_site_id
 _symmetry_equiv_pos_as_xyz
  1  'x, y, z'
loop_
 _atom_site_type_symbol
 _atom_site_label
 _atom_site_symmetry_multiplicity
 _atom_site_fract_x
 _atom_site_fract_y
 _atom_site_fract_z
 _atom_site_occupancy
 _atom_site_charge
  Na  Na1  1  0.500000  0.500000  0.000000  1.0  1.0843
  Na  Na2  1  0.000000  0.000000  0.500000  1.0  1.0843
  Na  Na3  1  0.000000  0.500000  0.500000  1.0  1.0843
  Na  Na4  1  0.500000  0.000000  0.000000  1.0  1.0843
  Na  Na5  1  0.500000  0.000000  0.500000  1.0  1.0843
  Na  Na6  1  0.000000  0.500000  0.000000  1.0  1.0843
  Cu  Cu7  1  0.500000  0.750000  0.000000  1.0  0.6127
  Cu  Cu8  1  0.500000  0.250000  0.000000  1.0  0.6127
  Cu  Cu9  1  0.000000  0.500000  0.750000  1.0  0.6127
  Cu  Cu10  1  0.000000  0.500000  0.250000  1.0  0.6127
  Cu  Cu11  1  0.750000  0.000000  0.500000  1.0  0.6127
  Cu  Cu12  1  0.250000  0.000000  0.500000  1.0  0.6127
  Cu  Cu13  1  0.750000  0.500000  0.000000  1.0  0.6127
  Cu  Cu14  1  0.250000  0.500000  0.000000  1.0  0.6127
  Cu  Cu15  1  0.500000  0.000000  0.250000  1.0  0.6127
  Cu  Cu16  1  0.500000  0.000000  0.750000  1.0  0.6127
  Cu  Cu17  1  0.000000  0.750000  0.500000  1.0  0.6127
  Cu  Cu18  1  0.000000  0.250000  0.500000  1.0  0.6127
  C  C19  1  0.666300  0.666300  0.000000  1.0  0.8948
  C  C20  1  0.166300  0.166300  0.500000  1.0  0.8948
  C  C21  1  0.333700  0.333700  0.000000  1.0  0.8966
  C  C22  1  0.833700  0.833700  0.500000  1.0  0.8966
  C  C23  1  0.333700  0.666300  0.000000  1.0  0.8956
  C  C24  1  0.833700  0.166300  0.500000  1.0  0.8956
  C  C25  1  0.666300  0.333700  0.000000  1.0  0.8962
  C  C26  1  0.166300  0.833700  0.500000  1.0  0.8962
  C  C27  1  0.000000  0.666300  0.666300  1.0  0.8947
  C  C28  1  0.500000  0.166300  0.166300  1.0  0.8947
  C  C29  1  0.000000  0.333700  0.333700  1.0  0.8948
  C  C30  1  0.500000  0.833700  0.833700  1.0  0.8948
  C  C31  1  0.000000  0.333700  0.666300  1.0  0.896
  C  C32  1  0.500000  0.833700  0.166300  1.0  0.896
  C  C33  1  0.000000  0.666300  0.333700  1.0  0.8939
  C  C34  1  0.500000  0.166300  0.833700  1.0  0.8939
  C  C35  1  0.666300  0.000000  0.666300  1.0  0.8962
  C  C36  1  0.166300  0.500000  0.166300  1.0  0.8962
  C  C37  1  0.333700  0.000000  0.333700  1.0  0.8963
  C  C38  1  0.833700  0.500000  0.833700  1.0  0.8963
  C  C39  1  0.666300  0.000000  0.333700  1.0  0.8956
  C  C40  1  0.166300  0.500000  0.833700  1.0  0.8956
  C  C41  1  0.333700  0.000000  0.666300  1.0  0.8967
  C  C42  1  0.833700  0.500000  0.166300  1.0  0.8967
  O  O43  1  0.604900  0.604900  0.000000  1.0  -0.5807
  O  O44  1  0.104900  0.104900  0.500000  1.0  -0.5807
  O  O45  1  0.395100  0.395100  0.000000  1.0  -0.5811
  O  O46  1  0.895100  0.895100  0.500000  1.0  -0.5811
  O  O47  1  0.395100  0.604900  0.000000  1.0  -0.5798
  O  O48  1  0.895100  0.104900  0.500000  1.0  -0.5802
  O  O49  1  0.604900  0.395100  0.000000  1.0  -0.5806
  O  O50  1  0.104900  0.895100  0.500000  1.0  -0.5793
  O  O51  1  0.000000  0.604900  0.604900  1.0  -0.5805
  O  O52  1  0.500000  0.104900  0.104900  1.0  -0.5805
  O  O53  1  0.000000  0.395100  0.395100  1.0  -0.5808
  O  O54  1  0.500000  0.895100  0.895100  1.0  -0.5808
  O  O55  1  0.000000  0.395100  0.604900  1.0  -0.5808
  O  O56  1  0.500000  0.895100  0.104900  1.0  -0.5808
  O  O57  1  0.000000  0.604900  0.395100  1.0  -0.5801
  O  O58  1  0.500000  0.104900  0.895100  1.0  -0.5805
  O  O59  1  0.604900  0.000000  0.604900  1.0  -0.5802
  O  O60  1  0.104900  0.500000  0.104900  1.0  -0.5802
  O  O61  1  0.395100  0.000000  0.395100  1.0  -0.5797
  O  O62  1  0.895100  0.500000  0.895100  1.0  -0.5797
  O  O63  1  0.604900  0.000000  0.395100  1.0  -0.5798
  O  O64  1  0.104900  0.500000  0.895100  1.0  -0.5793
  O  O65  1  0.395100  0.000000  0.604900  1.0  -0.5799
  O  O66  1  0.895100  0.500000  0.104900  1.0  -0.5799
  O  O67  1  0.641800  0.752300  0.000000  1.0  -0.444
  O  O68  1  0.141800  0.252300  0.500000  1.0  -0.444
  O  O69  1  0.358200  0.247700  0.000000  1.0  -0.4466
  O  O70  1  0.858200  0.747700  0.500000  1.0  -0.4466
  O  O71  1  0.358200  0.752300  0.000000  1.0  -0.4462
  O  O72  1  0.858200  0.252300  0.500000  1.0  -0.4462
  O  O73  1  0.641800  0.247700  0.000000  1.0  -0.4477
  O  O74  1  0.141800  0.747700  0.500000  1.0  -0.4477
  O  O75  1  0.000000  0.641800  0.752300  1.0  -0.443
  O  O76  1  0.500000  0.141800  0.252300  1.0  -0.443
  O  O77  1  0.000000  0.358200  0.247700  1.0  -0.4439
  O  O78  1  0.500000  0.858200  0.747700  1.0  -0.4439
  O  O79  1  0.000000  0.358200  0.752300  1.0  -0.4445
  O  O80  1  0.500000  0.858200  0.252300  1.0  -0.4445
  O  O81  1  0.000000  0.641800  0.247700  1.0  -0.4429
  O  O82  1  0.500000  0.141800  0.747700  1.0  -0.4429
  O  O83  1  0.752300  0.000000  0.641800  1.0  -0.4491
  O  O84  1  0.252300  0.500000  0.141800  1.0  -0.4491
  O  O85  1  0.247700  0.000000  0.358200  1.0  -0.4507
  O  O86  1  0.747700  0.500000  0.858200  1.0  -0.4507
  O  O87  1  0.752300  0.000000  0.358200  1.0  -0.4497
  O  O88  1  0.252300  0.500000  0.858200  1.0  -0.4497
  O  O89  1  0.247700  0.000000  0.641800  1.0  -0.4503
  O  O90  1  0.747700  0.500000  0.141800  1.0  -0.4503
  O  O91  1  0.752300  0.641800  0.000000  1.0  -0.4476
  O  O92  1  0.252300  0.141800  0.500000  1.0  -0.4476
  O  O93  1  0.247700  0.358200  0.000000  1.0  -0.4505
  O  O94  1  0.747700  0.858200  0.500000  1.0  -0.4505
  O  O95  1  0.752300  0.358200  0.000000  1.0  -0.449
  O  O96  1  0.252300  0.858200  0.500000  1.0  -0.449
  O  O97  1  0.247700  0.641800  0.000000  1.0  -0.4492
  O  O98  1  0.747700  0.141800  0.500000  1.0  -0.4492
  O  O99  1  0.641800  0.000000  0.247700  1.0  -0.4438
  O  O100  1  0.141800  0.500000  0.747700  1.0  -0.4438
  O  O101  1  0.358200  0.000000  0.752300  1.0  -0.4452
  O  O102  1  0.858200  0.500000  0.252300  1.0  -0.4452
  O  O103  1  0.358200  0.000000  0.247700  1.0  -0.4444
  O  O104  1  0.858200  0.500000  0.747700  1.0  -0.4444
  O  O105  1  0.641800  0.000000  0.752300  1.0  -0.4449
  O  O106  1  0.141800  0.500000  0.252300  1.0  -0.4449
  O  O107  1  0.000000  0.752300  0.358200  1.0  -0.4443
  O  O108  1  0.500000  0.252300  0.858200  1.0  -0.4443
  O  O109  1  0.000000  0.247700  0.641800  1.0  -0.4461
  O  O110  1  0.500000  0.747700  0.141800  1.0  -0.4461
  O  O111  1  0.000000  0.752300  0.641800  1.0  -0.4433
  O  O112  1  0.500000  0.252300  0.141800  1.0  -0.4433
  O  O113  1  0.000000  0.247700  0.358200  1.0  -0.446
  O  O114  1  0.500000  0.747700  0.858200  1.0  -0.446
