# generated using pymatgen
data_Co3Mo4(PO7)4
_symmetry_space_group_name_H-M   'P 1'
_cell_length_a   17.08800000
_cell_length_b   17.08800000
_cell_length_c   10.74500000
_cell_angle_alpha   90.00000000
_cell_angle_beta   90.00000000
_cell_angle_gamma   90.00000000
_symmetry_Int_Tables_number   1
_chemical_formula_structural   Co3Mo4(PO7)4
_chemical_formula_sum   'Co12 Mo16 P16 O112'
_cell_volume   3137.53724928
_cell_formula_units_Z   4
loop_
 _symmetry_equiv_pos_site_id
 _symmetry_equiv_pos_as_xyz
  1  'x, y, z'
loop_
 _atom_site_type_symbol
 _atom_site_label
 _atom_site_symmetry_multiplicity
 _atom_site_fract_x
 _atom_site_fract_y
 _atom_site_fract_z
 _atom_site_occupancy
 _atom_site_charge
  Co  Co1  1  0.500000  0.750000  0.625000  1.0  0.9946
  Co  Co2  1  0.000000  0.250000  0.125000  1.0  0.9946
  Co  Co3  1  0.000000  0.750000  0.875000  1.0  0.9946
  Co  Co4  1  0.500000  0.250000  0.375000  1.0  0.9946
  Co  Co5  1  0.500000  0.000000  0.000000  1.0  1.1675
  Co  Co6  1  0.000000  0.500000  0.500000  1.0  1.1675
  Co  Co7  1  0.000000  0.000000  0.500000  1.0  1.1675
  Co  Co8  1  0.500000  0.500000  0.000000  1.0  1.1675
  Co  Co9  1  0.750000  0.750000  0.250000  1.0  1.1668
  Co  Co10  1  0.750000  0.250000  0.750000  1.0  1.1668
  Co  Co11  1  0.250000  0.250000  0.750000  1.0  1.1668
  Co  Co12  1  0.250000  0.750000  0.250000  1.0  1.1668
  Mo  Mo13  1  0.309370  0.910640  0.058360  1.0  2.1562
  Mo  Mo14  1  0.809370  0.410640  0.558360  1.0  2.1562
  Mo  Mo15  1  0.190630  0.089360  0.558360  1.0  2.1572
  Mo  Mo16  1  0.690630  0.589360  0.058360  1.0  2.1572
  Mo  Mo17  1  0.839360  0.559370  0.308360  1.0  2.1559
  Mo  Mo18  1  0.339360  0.059370  0.808360  1.0  2.1559
  Mo  Mo19  1  0.660640  0.440630  0.808360  1.0  2.1567
  Mo  Mo20  1  0.160640  0.940630  0.308360  1.0  2.1567
  Mo  Mo21  1  0.690630  0.089360  0.941640  1.0  2.1578
  Mo  Mo22  1  0.190630  0.589360  0.441640  1.0  2.1578
  Mo  Mo23  1  0.809370  0.910640  0.441640  1.0  2.1569
  Mo  Mo24  1  0.309370  0.410640  0.941640  1.0  2.1569
  Mo  Mo25  1  0.160640  0.440630  0.691640  1.0  2.1573
  Mo  Mo26  1  0.660640  0.940630  0.191640  1.0  2.1573
  Mo  Mo27  1  0.339360  0.559370  0.191640  1.0  2.1565
  Mo  Mo28  1  0.839360  0.059370  0.691640  1.0  2.1565
  P  P29  1  0.417510  0.885480  0.803460  1.0  1.7864
  P  P30  1  0.917510  0.385480  0.303460  1.0  1.7864
  P  P31  1  0.082490  0.114520  0.303460  1.0  1.7869
  P  P32  1  0.582490  0.614520  0.803460  1.0  1.7869
  P  P33  1  0.864520  0.667510  0.053460  1.0  1.7861
  P  P34  1  0.364520  0.167510  0.553460  1.0  1.7861
  P  P35  1  0.635480  0.332490  0.553460  1.0  1.7831
  P  P36  1  0.135480  0.832490  0.053460  1.0  1.7831
  P  P37  1  0.582490  0.114520  0.196540  1.0  1.7869
  P  P38  1  0.082490  0.614520  0.696540  1.0  1.7869
  P  P39  1  0.917510  0.885480  0.696540  1.0  1.7866
  P  P40  1  0.417510  0.385480  0.196540  1.0  1.7866
  P  P41  1  0.135480  0.332490  0.946540  1.0  1.7833
  P  P42  1  0.635480  0.832490  0.446540  1.0  1.7833
  P  P43  1  0.364520  0.667510  0.446540  1.0  1.7861
  P  P44  1  0.864520  0.167510  0.946540  1.0  1.7861
  O  O45  1  0.429700  0.817700  0.714500  1.0  -0.7304
  O  O46  1  0.355430  0.857620  0.898500  1.0  -0.6788
  O  O47  1  0.399920  0.956590  0.083000  1.0  -0.6896
  O  O48  1  0.284710  0.000560  0.916100  1.0  -0.6928
  O  O49  1  0.382630  0.954640  0.727600  1.0  -0.6613
  O  O50  1  0.320220  0.823320  0.140900  1.0  -0.6653
  O  O51  1  0.493170  0.910840  0.868400  1.0  -0.6531
  O  O52  1  0.929700  0.317700  0.214500  1.0  -0.7304
  O  O53  1  0.855430  0.357620  0.398500  1.0  -0.6788
  O  O54  1  0.899920  0.456590  0.583000  1.0  -0.6896
  O  O55  1  0.784710  0.500560  0.416100  1.0  -0.6928
  O  O56  1  0.882630  0.454640  0.227600  1.0  -0.6613
  O  O57  1  0.820220  0.323320  0.640900  1.0  -0.6653
  O  O58  1  0.993170  0.410840  0.368400  1.0  -0.6531
  O  O59  1  0.070300  0.182300  0.214500  1.0  -0.7313
  O  O60  1  0.144570  0.142380  0.398500  1.0  -0.6779
  O  O61  1  0.100080  0.043410  0.583000  1.0  -0.6914
  O  O62  1  0.215290  0.999440  0.416100  1.0  -0.6921
  O  O63  1  0.117370  0.045360  0.227600  1.0  -0.6613
  O  O64  1  0.179780  0.176680  0.640900  1.0  -0.6685
  O  O65  1  0.006830  0.089160  0.368400  1.0  -0.6523
  O  O66  1  0.570300  0.682300  0.714500  1.0  -0.7313
  O  O67  1  0.644570  0.642380  0.898500  1.0  -0.6779
  O  O68  1  0.600080  0.543410  0.083000  1.0  -0.6914
  O  O69  1  0.715290  0.499440  0.916100  1.0  -0.6921
  O  O70  1  0.617370  0.545360  0.727600  1.0  -0.6613
  O  O71  1  0.679780  0.676680  0.140900  1.0  -0.6685
  O  O72  1  0.506830  0.589160  0.868400  1.0  -0.6523
  O  O73  1  0.932300  0.679700  0.964500  1.0  -0.729
  O  O74  1  0.892380  0.605430  0.148500  1.0  -0.6784
  O  O75  1  0.793410  0.649920  0.333000  1.0  -0.6916
  O  O76  1  0.749440  0.534710  0.166100  1.0  -0.6952
  O  O77  1  0.795360  0.632630  0.977600  1.0  -0.6609
  O  O78  1  0.926680  0.570220  0.390900  1.0  -0.669
  O  O79  1  0.839160  0.743170  0.118400  1.0  -0.652
  O  O80  1  0.432300  0.179700  0.464500  1.0  -0.729
  O  O81  1  0.392380  0.105430  0.648500  1.0  -0.6784
  O  O82  1  0.293410  0.149920  0.833000  1.0  -0.6916
  O  O83  1  0.249440  0.034710  0.666100  1.0  -0.6952
  O  O84  1  0.295360  0.132630  0.477600  1.0  -0.6609
  O  O85  1  0.426680  0.070220  0.890900  1.0  -0.669
  O  O86  1  0.339160  0.243170  0.618400  1.0  -0.652
  O  O87  1  0.567700  0.320300  0.464500  1.0  -0.7311
  O  O88  1  0.607620  0.394570  0.648500  1.0  -0.6772
  O  O89  1  0.706590  0.350080  0.833000  1.0  -0.6921
  O  O90  1  0.750560  0.465290  0.666100  1.0  -0.6954
  O  O91  1  0.704640  0.367370  0.477600  1.0  -0.6596
  O  O92  1  0.573320  0.429780  0.890900  1.0  -0.6699
  O  O93  1  0.660840  0.256830  0.618400  1.0  -0.6535
  O  O94  1  0.067700  0.820300  0.964500  1.0  -0.7311
  O  O95  1  0.107620  0.894570  0.148500  1.0  -0.6772
  O  O96  1  0.206590  0.850080  0.333000  1.0  -0.6921
  O  O97  1  0.250560  0.965290  0.166100  1.0  -0.6954
  O  O98  1  0.204640  0.867370  0.977600  1.0  -0.6596
  O  O99  1  0.073320  0.929780  0.390900  1.0  -0.6699
  O  O100  1  0.160840  0.756830  0.118400  1.0  -0.6535
  O  O101  1  0.570300  0.182300  0.285500  1.0  -0.7313
  O  O102  1  0.644570  0.142380  0.101500  1.0  -0.6781
  O  O103  1  0.600080  0.043410  0.917000  1.0  -0.693
  O  O104  1  0.715290  0.999440  0.083900  1.0  -0.6916
  O  O105  1  0.617370  0.045360  0.272400  1.0  -0.6606
  O  O106  1  0.679780  0.176680  0.859100  1.0  -0.6684
  O  O107  1  0.506830  0.089160  0.131600  1.0  -0.6519
  O  O108  1  0.070300  0.682300  0.785500  1.0  -0.7313
  O  O109  1  0.144570  0.642380  0.601500  1.0  -0.6781
  O  O110  1  0.100080  0.543410  0.417000  1.0  -0.693
  O  O111  1  0.215290  0.499440  0.583900  1.0  -0.6916
  O  O112  1  0.117370  0.545360  0.772400  1.0  -0.6606
  O  O113  1  0.179780  0.676680  0.359100  1.0  -0.6684
  O  O114  1  0.006830  0.589160  0.631600  1.0  -0.6519
  O  O115  1  0.929700  0.817700  0.785500  1.0  -0.7303
  O  O116  1  0.855430  0.857620  0.601500  1.0  -0.6785
  O  O117  1  0.899920  0.956590  0.417000  1.0  -0.6914
  O  O118  1  0.784710  0.000560  0.583900  1.0  -0.6923
  O  O119  1  0.882630  0.954640  0.772400  1.0  -0.66
  O  O120  1  0.820220  0.823320  0.359100  1.0  -0.665
  O  O121  1  0.993170  0.910840  0.631600  1.0  -0.6525
  O  O122  1  0.429700  0.317700  0.285500  1.0  -0.7303
  O  O123  1  0.355430  0.357620  0.101500  1.0  -0.6785
  O  O124  1  0.399920  0.456590  0.917000  1.0  -0.6914
  O  O125  1  0.284710  0.500560  0.083900  1.0  -0.6923
  O  O126  1  0.382630  0.454640  0.272400  1.0  -0.66
  O  O127  1  0.320220  0.323320  0.859100  1.0  -0.665
  O  O128  1  0.493170  0.410840  0.131600  1.0  -0.6525
  O  O129  1  0.067700  0.320300  0.035500  1.0  -0.73
  O  O130  1  0.107620  0.394570  0.851500  1.0  -0.6768
  O  O131  1  0.206590  0.350080  0.667000  1.0  -0.6937
  O  O132  1  0.250560  0.465290  0.833900  1.0  -0.6951
  O  O133  1  0.204640  0.367370  0.022400  1.0  -0.6594
  O  O134  1  0.073320  0.429780  0.609100  1.0  -0.6695
  O  O135  1  0.160840  0.256830  0.881600  1.0  -0.6525
  O  O136  1  0.567700  0.820300  0.535500  1.0  -0.73
  O  O137  1  0.607620  0.894570  0.351500  1.0  -0.6768
  O  O138  1  0.706590  0.850080  0.167000  1.0  -0.6937
  O  O139  1  0.750560  0.965290  0.333900  1.0  -0.6951
  O  O140  1  0.704640  0.867370  0.522400  1.0  -0.6594
  O  O141  1  0.573320  0.929780  0.109100  1.0  -0.6695
  O  O142  1  0.660840  0.756830  0.381600  1.0  -0.6525
  O  O143  1  0.432300  0.679700  0.535500  1.0  -0.7285
  O  O144  1  0.392380  0.605430  0.351500  1.0  -0.678
  O  O145  1  0.293410  0.649920  0.167000  1.0  -0.6934
  O  O146  1  0.249440  0.534710  0.333900  1.0  -0.6947
  O  O147  1  0.295360  0.632630  0.522400  1.0  -0.6596
  O  O148  1  0.426680  0.570220  0.109100  1.0  -0.6687
  O  O149  1  0.339160  0.743170  0.381600  1.0  -0.6518
  O  O150  1  0.932300  0.179700  0.035500  1.0  -0.7285
  O  O151  1  0.892380  0.105430  0.851500  1.0  -0.678
  O  O152  1  0.793410  0.149920  0.667000  1.0  -0.6934
  O  O153  1  0.749440  0.034710  0.833900  1.0  -0.6947
  O  O154  1  0.795360  0.132630  0.022400  1.0  -0.6596
  O  O155  1  0.926680  0.070220  0.609100  1.0  -0.6687
  O  O156  1  0.839160  0.243170  0.881600  1.0  -0.6518
