# generated using pymatgen
data_MnH3(C2O)4
_symmetry_space_group_name_H-M   'P 1'
_cell_length_a   9.62710000
_cell_length_b   13.11720000
_cell_length_c   10.57260000
_cell_angle_alpha   90.00000000
_cell_angle_beta   110.08400000
_cell_angle_gamma   90.00000000
_symmetry_Int_Tables_number   1
_chemical_formula_structural   MnH3(C2O)4
_chemical_formula_sum   'Mn4 H12 C32 O16'
_cell_volume   1253.92617900
_cell_formula_units_Z   4
loop_
 _symmetry_equiv_pos_site_id
 _symmetry_equiv_pos_as_xyz
  1  'x, y, z'
loop_
 _atom_site_type_symbol
 _atom_site_label
 _atom_site_symmetry_multiplicity
 _atom_site_fract_x
 _atom_site_fract_y
 _atom_site_fract_z
 _atom_site_occupancy
 _atom_site_charge
  Mn  Mn1  1  0.205330  0.383970  0.360150  1.0  1.0415
  Mn  Mn2  1  0.252220  0.634310  0.548890  1.0  1.1067
  Mn  Mn3  1  0.794670  0.883970  0.639850  1.0  1.0427
  Mn  Mn4  1  0.747780  0.134310  0.451110  1.0  1.1082
  H  H5  1  0.391400  0.469700  0.189300  1.0  0.1206
  H  H6  1  0.805700  0.438800  0.192800  1.0  0.1182
  H  H7  1  0.729100  0.597500  0.485500  1.0  0.1262
  H  H8  1  0.420100  0.487600  0.920400  1.0  0.1054
  H  H9  1  0.443300  0.225400  0.733800  1.0  0.0919
  H  H10  1  0.591600  0.156500  0.936900  1.0  0.1112
  H  H11  1  0.608600  0.969700  0.810700  1.0  0.12
  H  H12  1  0.194300  0.938800  0.807200  1.0  0.1179
  H  H13  1  0.270900  0.097500  0.514500  1.0  0.1259
  H  H14  1  0.579900  0.987600  0.079600  1.0  0.1049
  H  H15  1  0.556700  0.725400  0.266200  1.0  0.0917
  H  H16  1  0.408400  0.656500  0.063100  1.0  0.1111
  C  C17  1  0.436100  0.568700  0.413800  1.0  0.6829
  C  C18  1  0.545700  0.534900  0.349000  1.0  -0.1202
  C  C19  1  0.492400  0.481100  0.229800  1.0  -0.0847
  C  C20  1  0.591000  0.444000  0.170500  1.0  0.037
  C  C21  1  0.739500  0.464500  0.231300  1.0  -0.0804
  C  C22  1  0.793200  0.521700  0.347700  1.0  -0.1519
  C  C23  1  0.695300  0.558200  0.407700  1.0  -0.0395
  C  C24  1  0.958400  0.538900  0.405500  1.0  0.7609
  C  C25  1  0.543100  0.380500  0.046200  1.0  -0.0166
  C  C26  1  0.455700  0.421400  0.923300  1.0  -0.0372
  C  C27  1  0.420400  0.365700  0.805200  1.0  -0.1855
  C  C28  1  0.469300  0.264700  0.811700  1.0  -0.0267
  C  C29  1  0.556700  0.222900  0.933900  1.0  -0.0599
  C  C30  1  0.591800  0.278800  0.050100  1.0  -0.0836
  C  C31  1  0.335800  0.412300  0.673100  1.0  0.7586
  C  C32  1  0.687100  0.230200  0.182700  1.0  0.713
  C  C33  1  0.563900  0.068700  0.586200  1.0  0.6816
  C  C34  1  0.454300  0.034900  0.651000  1.0  -0.1211
  C  C35  1  0.507600  0.981100  0.770200  1.0  -0.0868
  C  C36  1  0.409000  0.944000  0.829500  1.0  0.0367
  C  C37  1  0.260500  0.964500  0.768700  1.0  -0.0813
  C  C38  1  0.206800  0.021700  0.652300  1.0  -0.1517
  C  C39  1  0.304700  0.058200  0.592300  1.0  -0.0385
  C  C40  1  0.041600  0.038900  0.594500  1.0  0.7613
  C  C41  1  0.456900  0.880500  0.953800  1.0  -0.0161
  C  C42  1  0.544300  0.921400  0.076700  1.0  -0.0366
  C  C43  1  0.579600  0.865700  0.194800  1.0  -0.1851
  C  C44  1  0.530700  0.764700  0.188300  1.0  -0.0262
  C  C45  1  0.443300  0.722900  0.066100  1.0  -0.0595
  C  C46  1  0.408200  0.778800  0.949900  1.0  -0.0831
  C  C47  1  0.664200  0.912300  0.326900  1.0  0.7591
  C  C48  1  0.312900  0.730200  0.817300  1.0  0.7121
  O  O49  1  0.305000  0.533800  0.368200  1.0  -0.6813
  O  O50  1  0.476500  0.629500  0.512300  1.0  -0.5856
  O  O51  1  0.298800  0.355400  0.571400  1.0  -0.6356
  O  O52  1  0.308900  0.505400  0.672200  1.0  -0.6431
  O  O53  1  0.637300  0.229400  0.278800  1.0  -0.5953
  O  O54  1  0.805200  0.191800  0.185900  1.0  -0.4834
  O  O55  1  0.031400  0.478000  0.368600  1.0  -0.6297
  O  O56  1  0.010400  0.612400  0.484300  1.0  -0.6348
  O  O57  1  0.695000  0.033800  0.631800  1.0  -0.6814
  O  O58  1  0.523500  0.129500  0.487700  1.0  -0.586
  O  O59  1  0.701200  0.855400  0.428600  1.0  -0.6357
  O  O60  1  0.691100  0.005400  0.327800  1.0  -0.6413
  O  O61  1  0.362700  0.729400  0.721200  1.0  -0.5979
  O  O62  1  0.194800  0.691800  0.814100  1.0  -0.482
  O  O63  1  0.968600  0.978000  0.631400  1.0  -0.6287
  O  O64  1  0.989600  0.112400  0.515700  1.0  -0.6335
